MODEL 1
REMARK VINA RESULT:     -12.2      0.000      0.000
REMARK SMILES C[C@]1(O)CC[C@@H]2[C@H]3CCC4=C/C(=N/OCC(=O)NCCCCCCNC(=O)c5ccc(-c6c7nc(c(-c8c(F)cccc8F)c8ccc([nH]8)c(-c8c(F)cccc8F)c8nc(c(-c9c(F)cccc9F)c9ccc6[nH]9)C=C8)C=C7)cc5)CC[C@@]4(C)[C@@H]3CC[C@]21C
REMARK SMILES IDX 21 1 20 2 19 3 18 4 16 5 17 6 15 8 14 9 13 10 1 11 2 12 4 13
REMARK SMILES IDX 89 14 5 15 6 16 88 17 90 18 7 19 87 20 8 21 86 22 9 23 84 24
REMARK SMILES IDX 10 25 83 26 85 27 11 28 82 29 12 30 3 31 22 33 23 34 24 35
REMARK SMILES IDX 25 36 26 37 27 39 28 40 29 41 81 42 30 43 80 44 31 45 32 46
REMARK SMILES IDX 33 47 74 48 34 49 79 50 73 51 75 52 35 53 78 54 72 55 71 56
REMARK SMILES IDX 36 58 62 59 45 60 61 61 46 62 49 63 60 64 76 65 47 66 48 67
REMARK SMILES IDX 59 69 77 70 50 71 37 72 38 73 43 74 39 75 40 76 42 77 44 78
REMARK SMILES IDX 41 79 63 80 64 81 69 82 65 83 66 84 68 85 70 86 67 87 51 88
REMARK SMILES IDX 52 89 57 90 53 91 54 92 56 93 58 94 55 95
REMARK H PARENT 18 7 3 32 25 38 75 57 49 68
REMARK Flexibility Score: inf
ROOT
ATOM      1  C   UNL A   1      42.224  20.785  26.723  1.00  0.00     0.002 C 
ENDROOT
BRANCH   1   2
ATOM      2  C   UNL A   1      41.442  22.094  26.533  1.00  0.00     0.021 C 
BRANCH   2   3
ATOM      3  C   UNL A   1      40.396  22.354  27.620  1.00  0.00     0.116 C 
BRANCH   3   4
ATOM      4  N   UNL A   1      39.344  23.228  27.137  1.00  0.00    -0.353 N 
ATOM      5  C   UNL A   1      38.431  23.023  26.142  1.00  0.00     0.260 C 
ATOM      6  O   UNL A   1      37.655  23.943  25.874  1.00  0.00    -0.271 OA
ATOM      7  H   UNL A   1      39.279  24.098  27.593  1.00  0.00     0.163 HD
BRANCH   5   8
ATOM      8  C   UNL A   1      38.297  21.652  25.488  1.00  0.00     0.363 C 
BRANCH   8   9
ATOM      9  O   UNL A   1      37.116  20.947  25.811  1.00  0.00    -0.385 OA
BRANCH   9  10
ATOM     10  N   UNL A   1      36.245  20.898  24.716  1.00  0.00    -0.091 NA
ATOM     11  C   UNL A   1      31.395  29.713  24.639  1.00  0.00     0.042 C 
ATOM     12  C   UNL A   1      32.386  28.589  24.312  1.00  0.00     0.068 C 
ATOM     13  C   UNL A   1      32.372  28.349  22.775  1.00  0.00     0.036 C 
ATOM     14  C   UNL A   1      32.112  27.170  24.958  1.00  0.00    -0.001 C 
ATOM     15  C   UNL A   1      31.829  26.939  22.577  1.00  0.00     0.007 C 
ATOM     16  C   UNL A   1      32.446  26.231  23.769  1.00  0.00     0.001 C 
ATOM     17  C   UNL A   1      33.038  26.706  26.107  1.00  0.00     0.010 C 
ATOM     18  C   UNL A   1      30.645  27.075  25.454  1.00  0.00     0.015 C 
ATOM     19  C   UNL A   1      32.075  24.776  24.028  1.00  0.00    -0.003 C 
ATOM     20  C   UNL A   1      32.822  25.211  26.476  1.00  0.00     0.005 C 
ATOM     21  C   UNL A   1      32.300  23.898  22.780  1.00  0.00     0.008 C 
ATOM     22  C   UNL A   1      32.897  24.245  25.265  1.00  0.00     0.002 C 
ATOM     23  C   UNL A   1      32.049  22.415  23.058  1.00  0.00     0.032 C 
ATOM     24  C   UNL A   1      32.539  22.737  25.559  1.00  0.00    -0.008 C 
ATOM     25  C   UNL A   1      32.878  22.016  24.252  1.00  0.00    -0.062 C 
ATOM     26  C   UNL A   1      33.290  22.092  26.755  1.00  0.00     0.018 C 
ATOM     27  C   UNL A   1      31.036  22.559  25.920  1.00  0.00     0.016 C 
ATOM     28  C   UNL A   1      33.985  21.280  24.056  1.00  0.00     0.027 C 
ATOM     29  C   UNL A   1      34.684  21.541  26.521  1.00  0.00     0.061 C 
ATOM     30  C   UNL A   1      35.036  21.212  25.089  1.00  0.00     0.080 C 
BRANCH  12  31
ATOM     31  O   UNL A   1      33.690  29.057  24.660  1.00  0.00    -0.390 OA
ATOM     32  H   UNL A   1      34.278  28.973  23.894  1.00  0.00     0.211 HD
ENDBRANCH  12  31
ENDBRANCH   9  10
ENDBRANCH   8   9
ENDBRANCH   5   8
ENDBRANCH   3   4
ENDBRANCH   2   3
ENDBRANCH   1   2
BRANCH   1  33
ATOM     33  C   UNL A   1      41.568  19.543  26.111  1.00  0.00     0.002 C 
BRANCH  33  34
ATOM     34  C   UNL A   1      42.445  18.289  26.096  1.00  0.00     0.021 C 
BRANCH  34  35
ATOM     35  C   UNL A   1      43.945  18.565  26.067  1.00  0.00     0.116 C 
BRANCH  35  36
ATOM     36  N   UNL A   1      44.476  18.577  24.713  1.00  0.00    -0.352 N 
ATOM     37  C   UNL A   1      44.838  19.633  23.923  1.00  0.00     0.251 C 
ATOM     38  H   UNL A   1      44.594  17.690  24.302  1.00  0.00     0.163 HD
ATOM     39  O   UNL A   1      45.093  19.446  22.729  1.00  0.00    -0.269 OA
BRANCH  37  40
ATOM     40  C   UNL A   1      44.907  21.002  24.476  1.00  0.00     0.039 A 
ATOM     41  C   UNL A   1      45.567  21.201  25.691  1.00  0.00     0.014 A 
ATOM     42  C   UNL A   1      44.305  22.083  23.824  1.00  0.00     0.014 A 
ATOM     43  C   UNL A   1      45.668  22.487  26.224  1.00  0.00     0.010 A 
ATOM     44  C   UNL A   1      44.473  23.376  24.317  1.00  0.00     0.010 A 
ATOM     45  C   UNL A   1      45.152  23.591  25.525  1.00  0.00    -0.014 A 
BRANCH  45  46
ATOM     46  C   UNL A   1      45.336  24.968  26.051  1.00  0.00     0.031 A 
ATOM     47  C   UNL A   1      46.686  25.632  26.021  1.00  0.00     0.074 A 
ATOM     48  C   UNL A   1      44.281  25.615  26.583  1.00  0.00     0.049 A 
ATOM     49  N   UNL A   1      47.023  26.836  26.411  1.00  0.00    -0.248 NA
ATOM     50  C   UNL A   1      47.810  24.833  25.508  1.00  0.00     0.031 C 
ATOM     51  C   UNL A   1      42.935  25.059  26.728  1.00  0.00     0.029 A 
ATOM     52  N   UNL A   1      44.172  26.884  27.095  1.00  0.00    -0.354 N 
ATOM     53  C   UNL A   1      48.392  26.937  26.193  1.00  0.00     0.074 A 
ATOM     54  C   UNL A   1      48.835  25.652  25.695  1.00  0.00     0.031 C 
ATOM     55  C   UNL A   1      42.126  25.994  27.252  1.00  0.00     0.029 A 
ATOM     56  C   UNL A   1      42.902  27.202  27.511  1.00  0.00     0.049 A 
ATOM     57  H   UNL A   1      44.932  27.506  27.159  1.00  0.00     0.167 HD
ATOM     58  C   UNL A   1      49.201  28.009  26.366  1.00  0.00     0.037 A 
ATOM     59  C   UNL A   1      42.415  28.342  28.035  1.00  0.00     0.037 A 
ATOM     60  C   UNL A   1      48.756  29.291  26.850  1.00  0.00     0.049 A 
ATOM     61  C   UNL A   1      43.334  29.519  28.208  1.00  0.00     0.074 A 
ATOM     62  C   UNL A   1      49.490  30.455  27.014  1.00  0.00     0.029 A 
ATOM     63  N   UNL A   1      47.460  29.578  27.251  1.00  0.00    -0.354 N 
ATOM     64  N   UNL A   1      44.609  29.623  27.927  1.00  0.00    -0.248 NA
ATOM     65  C   UNL A   1      42.738  30.743  28.761  1.00  0.00     0.031 C 
ATOM     66  C   UNL A   1      48.647  31.432  27.558  1.00  0.00     0.029 A 
ATOM     67  C   UNL A   1      47.377  30.894  27.680  1.00  0.00     0.049 A 
ATOM     68  H   UNL A   1      46.710  28.941  27.234  1.00  0.00     0.167 HD
ATOM     69  C   UNL A   1      44.962  30.930  28.239  1.00  0.00     0.074 A 
ATOM     70  C   UNL A   1      43.759  31.585  28.707  1.00  0.00     0.031 C 
ATOM     71  C   UNL A   1      46.173  31.533  28.147  1.00  0.00     0.037 A 
BRANCH  58  72
ATOM     72  C   UNL A   1      50.655  27.844  26.021  1.00  0.00     0.057 A 
ATOM     73  C   UNL A   1      51.128  28.017  24.713  1.00  0.00     0.134 A 
ATOM     74  C   UNL A   1      51.600  27.551  27.012  1.00  0.00     0.134 A 
ATOM     75  F   UNL A   1      50.276  28.289  23.712  1.00  0.00    -0.206 F 
ATOM     76  C   UNL A   1      52.481  27.879  24.400  1.00  0.00     0.040 A 
ATOM     77  C   UNL A   1      52.960  27.439  26.717  1.00  0.00     0.040 A 
ATOM     78  F   UNL A   1      51.218  27.378  28.288  1.00  0.00    -0.206 F 
ATOM     79  C   UNL A   1      53.403  27.597  25.405  1.00  0.00     0.006 A 
ENDBRANCH  58  72
BRANCH  59  80
ATOM     80  C   UNL A   1      40.979  28.442  28.401  1.00  0.00     0.057 A 
ATOM     81  C   UNL A   1      40.032  28.928  27.492  1.00  0.00     0.134 A 
ATOM     82  C   UNL A   1      40.521  28.072  29.671  1.00  0.00     0.134 A 
ATOM     83  F   UNL A   1      40.412  29.315  26.265  1.00  0.00    -0.206 F 
ATOM     84  C   UNL A   1      38.688  29.072  27.840  1.00  0.00     0.040 A 
ATOM     85  C   UNL A   1      39.176  28.182  30.024  1.00  0.00     0.040 A 
ATOM     86  F   UNL A   1      41.375  27.588  30.585  1.00  0.00    -0.206 F 
ATOM     87  C   UNL A   1      38.257  28.695  29.110  1.00  0.00     0.006 A 
ENDBRANCH  59  80
BRANCH  71  88
ATOM     88  C   UNL A   1      46.239  32.984  28.531  1.00  0.00     0.057 A 
ATOM     89  C   UNL A   1      46.024  34.010  27.601  1.00  0.00     0.134 A 
ATOM     90  C   UNL A   1      46.528  33.360  29.849  1.00  0.00     0.134 A 
ATOM     91  F   UNL A   1      45.755  33.720  26.319  1.00  0.00    -0.206 F 
ATOM     92  C   UNL A   1      46.137  35.355  27.958  1.00  0.00     0.040 A 
ATOM     93  C   UNL A   1      46.611  34.701  30.226  1.00  0.00     0.040 A 
ATOM     94  F   UNL A   1      46.733  32.430  30.794  1.00  0.00    -0.206 F 
ATOM     95  C   UNL A   1      46.428  35.703  29.276  1.00  0.00     0.006 A 
ENDBRANCH  71  88
ENDBRANCH  45  46
ENDBRANCH  37  40
ENDBRANCH  35  36
ENDBRANCH  34  35
ENDBRANCH  33  34
ENDBRANCH   1  33
TORSDOF 16
ENDMDL
MODEL 2
REMARK VINA RESULT:     -12.1      2.802      7.745
REMARK SMILES C[C@]1(O)CC[C@@H]2[C@H]3CCC4=C/C(=N/OCC(=O)NCCCCCCNC(=O)c5ccc(-c6c7nc(c(-c8c(F)cccc8F)c8ccc([nH]8)c(-c8c(F)cccc8F)c8nc(c(-c9c(F)cccc9F)c9ccc6[nH]9)C=C8)C=C7)cc5)CC[C@@]4(C)[C@@H]3CC[C@]21C
REMARK SMILES IDX 21 1 20 2 19 3 18 4 16 5 17 6 15 8 14 9 13 10 1 11 2 12 4 13
REMARK SMILES IDX 89 14 5 15 6 16 88 17 90 18 7 19 87 20 8 21 86 22 9 23 84 24
REMARK SMILES IDX 10 25 83 26 85 27 11 28 82 29 12 30 3 31 22 33 23 34 24 35
REMARK SMILES IDX 25 36 26 37 27 39 28 40 29 41 81 42 30 43 80 44 31 45 32 46
REMARK SMILES IDX 33 47 74 48 34 49 79 50 73 51 75 52 35 53 78 54 72 55 71 56
REMARK SMILES IDX 36 58 62 59 45 60 61 61 46 62 49 63 60 64 76 65 47 66 48 67
REMARK SMILES IDX 59 69 77 70 50 71 37 72 38 73 43 74 39 75 40 76 42 77 44 78
REMARK SMILES IDX 41 79 63 80 64 81 69 82 65 83 66 84 68 85 70 86 67 87 51 88
REMARK SMILES IDX 52 89 57 90 53 91 54 92 56 93 58 94 55 95
REMARK H PARENT 18 7 3 32 25 38 75 57 49 68
REMARK Flexibility Score: inf
ROOT
ATOM      1  C   UNL A   1      40.257  27.830  27.315  1.00  0.00     0.002 C 
ENDROOT
BRANCH   1   2
ATOM      2  C   UNL A   1      39.658  29.230  27.524  1.00  0.00     0.021 C 
BRANCH   2   3
ATOM      3  C   UNL A   1      38.226  29.217  28.063  1.00  0.00     0.116 C 
BRANCH   3   4
ATOM      4  N   UNL A   1      37.718  30.564  28.236  1.00  0.00    -0.353 N 
ATOM      5  C   UNL A   1      36.443  31.037  28.102  1.00  0.00     0.260 C 
ATOM      6  O   UNL A   1      36.259  32.247  28.253  1.00  0.00    -0.271 OA
ATOM      7  H   UNL A   1      38.391  31.238  28.485  1.00  0.00     0.163 HD
BRANCH   5   8
ATOM      8  C   UNL A   1      35.279  30.072  27.909  1.00  0.00     0.363 C 
BRANCH   8   9
ATOM      9  O   UNL A   1      34.208  30.573  27.133  1.00  0.00    -0.385 OA
BRANCH   9  10
ATOM     10  N   UNL A   1      33.034  29.848  27.370  1.00  0.00    -0.091 NA
ATOM     11  C   UNL A   1      35.147  20.301  25.001  1.00  0.00     0.042 C 
ATOM     12  C   UNL A   1      34.899  21.586  25.801  1.00  0.00     0.068 C 
ATOM     13  C   UNL A   1      33.859  21.281  26.916  1.00  0.00     0.036 C 
ATOM     14  C   UNL A   1      34.314  22.828  25.013  1.00  0.00    -0.001 C 
ATOM     15  C   UNL A   1      32.629  22.116  26.581  1.00  0.00     0.007 C 
ATOM     16  C   UNL A   1      33.283  23.373  26.037  1.00  0.00     0.001 C 
ATOM     17  C   UNL A   1      35.260  24.017  24.727  1.00  0.00     0.010 C 
ATOM     18  C   UNL A   1      33.693  22.372  23.666  1.00  0.00     0.015 C 
ATOM     19  C   UNL A   1      32.395  24.474  25.471  1.00  0.00    -0.003 C 
ATOM     20  C   UNL A   1      34.505  25.259  24.177  1.00  0.00     0.005 C 
ATOM     21  C   UNL A   1      31.302  24.898  26.473  1.00  0.00     0.008 C 
ATOM     22  C   UNL A   1      33.295  25.697  25.045  1.00  0.00     0.002 C 
ATOM     23  C   UNL A   1      30.479  26.085  25.969  1.00  0.00     0.032 C 
ATOM     24  C   UNL A   1      32.405  26.859  24.456  1.00  0.00    -0.008 C 
ATOM     25  C   UNL A   1      31.433  27.189  25.591  1.00  0.00    -0.062 C 
ATOM     26  C   UNL A   1      33.176  28.128  24.004  1.00  0.00     0.018 C 
ATOM     27  C   UNL A   1      31.639  26.410  23.178  1.00  0.00     0.016 C 
ATOM     28  C   UNL A   1      31.547  28.253  26.404  1.00  0.00     0.027 C 
ATOM     29  C   UNL A   1      33.541  29.164  25.050  1.00  0.00     0.061 C 
ATOM     30  C   UNL A   1      32.724  29.139  26.322  1.00  0.00     0.080 C 
BRANCH  12  31
ATOM     31  O   UNL A   1      36.127  21.931  26.444  1.00  0.00    -0.390 OA
ATOM     32  H   UNL A   1      36.298  21.309  27.167  1.00  0.00     0.211 HD
ENDBRANCH  12  31
ENDBRANCH   9  10
ENDBRANCH   8   9
ENDBRANCH   5   8
ENDBRANCH   3   4
ENDBRANCH   2   3
ENDBRANCH   1   2
BRANCH   1  33
ATOM     33  C   UNL A   1      40.266  26.936  28.559  1.00  0.00     0.002 C 
BRANCH  33  34
ATOM     34  C   UNL A   1      39.559  25.589  28.392  1.00  0.00     0.021 C 
BRANCH  34  35
ATOM     35  C   UNL A   1      39.543  25.054  26.964  1.00  0.00     0.116 C 
BRANCH  35  36
ATOM     36  N   UNL A   1      40.280  23.807  26.835  1.00  0.00    -0.352 N 
ATOM     37  C   UNL A   1      41.600  23.595  26.549  1.00  0.00     0.251 C 
ATOM     38  H   UNL A   1      39.748  22.991  26.977  1.00  0.00     0.163 HD
ATOM     39  O   UNL A   1      41.997  22.453  26.298  1.00  0.00    -0.269 OA
BRANCH  37  40
ATOM     40  C   UNL A   1      42.556  24.722  26.514  1.00  0.00     0.039 A 
ATOM     41  C   UNL A   1      43.273  25.029  27.672  1.00  0.00     0.014 A 
ATOM     42  C   UNL A   1      42.731  25.493  25.360  1.00  0.00     0.014 A 
ATOM     43  C   UNL A   1      44.199  26.072  27.660  1.00  0.00     0.010 A 
ATOM     44  C   UNL A   1      43.711  26.484  25.326  1.00  0.00     0.010 A 
ATOM     45  C   UNL A   1      44.452  26.788  26.477  1.00  0.00    -0.014 A 
BRANCH  45  46
ATOM     46  C   UNL A   1      45.500  27.840  26.442  1.00  0.00     0.031 A 
ATOM     47  C   UNL A   1      45.142  29.292  26.611  1.00  0.00     0.074 A 
ATOM     48  C   UNL A   1      46.782  27.483  26.232  1.00  0.00     0.049 A 
ATOM     49  N   UNL A   1      45.929  30.338  26.634  1.00  0.00    -0.248 NA
ATOM     50  C   UNL A   1      43.714  29.615  26.747  1.00  0.00     0.031 C 
ATOM     51  C   UNL A   1      47.251  26.117  25.993  1.00  0.00     0.029 A 
ATOM     52  N   UNL A   1      47.928  28.238  26.193  1.00  0.00    -0.354 N 
ATOM     53  C   UNL A   1      45.094  31.439  26.785  1.00  0.00     0.074 A 
ATOM     54  C   UNL A   1      43.736  30.939  26.784  1.00  0.00     0.031 C 
ATOM     55  C   UNL A   1      48.588  26.125  25.873  1.00  0.00     0.029 A 
ATOM     56  C   UNL A   1      49.067  27.498  25.992  1.00  0.00     0.049 A 
ATOM     57  H   UNL A   1      47.932  29.217  26.296  1.00  0.00     0.167 HD
ATOM     58  C   UNL A   1      45.429  32.742  26.937  1.00  0.00     0.037 A 
ATOM     59  C   UNL A   1      50.356  27.880  25.922  1.00  0.00     0.037 A 
ATOM     60  C   UNL A   1      46.782  33.236  26.950  1.00  0.00     0.049 A 
ATOM     61  C   UNL A   1      50.699  29.333  26.102  1.00  0.00     0.074 A 
ATOM     62  C   UNL A   1      47.226  34.534  27.146  1.00  0.00     0.029 A 
ATOM     63  N   UNL A   1      47.911  32.454  26.755  1.00  0.00    -0.354 N 
ATOM     64  N   UNL A   1      49.903  30.351  26.320  1.00  0.00    -0.248 NA
ATOM     65  C   UNL A   1      52.124  29.685  26.040  1.00  0.00     0.031 C 
ATOM     66  C   UNL A   1      48.620  34.543  27.024  1.00  0.00     0.029 A 
ATOM     67  C   UNL A   1      49.049  33.244  26.807  1.00  0.00     0.049 A 
ATOM     68  H   UNL A   1      47.904  31.482  26.601  1.00  0.00     0.167 HD
ATOM     69  C   UNL A   1      50.732  31.459  26.451  1.00  0.00     0.074 A 
ATOM     70  C   UNL A   1      52.091  30.981  26.312  1.00  0.00     0.031 C 
ATOM     71  C   UNL A   1      50.397  32.756  26.665  1.00  0.00     0.037 A 
BRANCH  58  72
ATOM     72  C   UNL A   1      44.308  33.730  27.111  1.00  0.00     0.057 A 
ATOM     73  C   UNL A   1      43.799  34.054  28.376  1.00  0.00     0.134 A 
ATOM     74  C   UNL A   1      43.761  34.397  26.007  1.00  0.00     0.134 A 
ATOM     75  F   UNL A   1      44.269  33.444  29.474  1.00  0.00    -0.206 F 
ATOM     76  C   UNL A   1      42.769  34.984  28.534  1.00  0.00     0.040 A 
ATOM     77  C   UNL A   1      42.752  35.351  26.155  1.00  0.00     0.040 A 
ATOM     78  F   UNL A   1      44.206  34.141  24.767  1.00  0.00    -0.206 F 
ATOM     79  C   UNL A   1      42.249  35.641  27.421  1.00  0.00     0.006 A 
ENDBRANCH  58  72
BRANCH  59  80
ATOM     80  C   UNL A   1      51.424  26.871  25.705  1.00  0.00     0.057 A 
ATOM     81  C   UNL A   1      51.897  26.583  24.419  1.00  0.00     0.134 A 
ATOM     82  C   UNL A   1      51.985  26.159  26.772  1.00  0.00     0.134 A 
ATOM     83  F   UNL A   1      51.386  27.220  23.354  1.00  0.00    -0.206 F 
ATOM     84  C   UNL A   1      52.865  25.604  24.197  1.00  0.00     0.040 A 
ATOM     85  C   UNL A   1      52.975  25.198  26.568  1.00  0.00     0.040 A 
ATOM     86  F   UNL A   1      51.584  26.396  28.030  1.00  0.00    -0.206 F 
ATOM     87  C   UNL A   1      53.410  24.910  25.276  1.00  0.00     0.006 A 
ENDBRANCH  59  80
BRANCH  71  88
ATOM     88  C   UNL A   1      51.528  33.736  26.796  1.00  0.00     0.057 A 
ATOM     89  C   UNL A   1      52.128  34.018  28.031  1.00  0.00     0.134 A 
ATOM     90  C   UNL A   1      52.019  34.411  25.672  1.00  0.00     0.134 A 
ATOM     91  F   UNL A   1      51.698  33.415  29.149  1.00  0.00    -0.206 F 
ATOM     92  C   UNL A   1      53.145  34.967  28.148  1.00  0.00     0.040 A 
ATOM     93  C   UNL A   1      53.058  35.338  25.771  1.00  0.00     0.040 A 
ATOM     94  F   UNL A   1      51.499  34.181  24.456  1.00  0.00    -0.206 F 
ATOM     95  C   UNL A   1      53.615  35.628  27.015  1.00  0.00     0.006 A 
ENDBRANCH  71  88
ENDBRANCH  45  46
ENDBRANCH  37  40
ENDBRANCH  35  36
ENDBRANCH  34  35
ENDBRANCH  33  34
ENDBRANCH   1  33
TORSDOF 16
ENDMDL
MODEL 3
REMARK VINA RESULT:     -12.1      2.875      4.603
REMARK SMILES C[C@]1(O)CC[C@@H]2[C@H]3CCC4=C/C(=N/OCC(=O)NCCCCCCNC(=O)c5ccc(-c6c7nc(c(-c8c(F)cccc8F)c8ccc([nH]8)c(-c8c(F)cccc8F)c8nc(c(-c9c(F)cccc9F)c9ccc6[nH]9)C=C8)C=C7)cc5)CC[C@@]4(C)[C@@H]3CC[C@]21C
REMARK SMILES IDX 21 1 20 2 19 3 18 4 16 5 17 6 15 8 14 9 13 10 1 11 2 12 4 13
REMARK SMILES IDX 89 14 5 15 6 16 88 17 90 18 7 19 87 20 8 21 86 22 9 23 84 24
REMARK SMILES IDX 10 25 83 26 85 27 11 28 82 29 12 30 3 31 22 33 23 34 24 35
REMARK SMILES IDX 25 36 26 37 27 39 28 40 29 41 81 42 30 43 80 44 31 45 32 46
REMARK SMILES IDX 33 47 74 48 34 49 79 50 73 51 75 52 35 53 78 54 72 55 71 56
REMARK SMILES IDX 36 58 62 59 45 60 61 61 46 62 49 63 60 64 76 65 47 66 48 67
REMARK SMILES IDX 59 69 77 70 50 71 37 72 38 73 43 74 39 75 40 76 42 77 44 78
REMARK SMILES IDX 41 79 63 80 64 81 69 82 65 83 66 84 68 85 70 86 67 87 51 88
REMARK SMILES IDX 52 89 57 90 53 91 54 92 56 93 58 94 55 95
REMARK H PARENT 18 7 3 32 25 38 75 57 49 68
REMARK Flexibility Score: inf
ROOT
ATOM      1  C   UNL A   1      37.042  22.289  24.285  1.00  0.00     0.002 C 
ENDROOT
BRANCH   1   2
ATOM      2  C   UNL A   1      36.062  23.284  24.926  1.00  0.00     0.021 C 
BRANCH   2   3
ATOM      3  C   UNL A   1      35.279  22.707  26.108  1.00  0.00     0.116 C 
BRANCH   3   4
ATOM      4  N   UNL A   1      34.286  21.748  25.661  1.00  0.00    -0.353 N 
ATOM      5  C   UNL A   1      33.043  21.485  26.163  1.00  0.00     0.260 C 
ATOM      6  O   UNL A   1      32.391  20.579  25.640  1.00  0.00    -0.271 OA
ATOM      7  H   UNL A   1      34.547  21.207  24.882  1.00  0.00     0.163 HD
BRANCH   5   8
ATOM      8  C   UNL A   1      32.442  22.379  27.242  1.00  0.00     0.363 C 
BRANCH   8   9
ATOM      9  O   UNL A   1      31.633  23.435  26.763  1.00  0.00    -0.385 OA
BRANCH   9  10
ATOM     10  N   UNL A   1      32.123  24.675  27.188  1.00  0.00    -0.091 NA
ATOM     11  C   UNL A   1      27.593  31.564  21.421  1.00  0.00     0.042 C 
ATOM     12  C   UNL A   1      27.947  30.655  22.605  1.00  0.00     0.068 C 
ATOM     13  C   UNL A   1      28.093  31.537  23.878  1.00  0.00     0.036 C 
ATOM     14  C   UNL A   1      29.296  29.833  22.510  1.00  0.00    -0.001 C 
ATOM     15  C   UNL A   1      29.555  31.429  24.297  1.00  0.00     0.007 C 
ATOM     16  C   UNL A   1      29.836  29.976  23.958  1.00  0.00     0.001 C 
ATOM     17  C   UNL A   1      29.201  28.309  22.268  1.00  0.00     0.010 C 
ATOM     18  C   UNL A   1      30.223  30.436  21.422  1.00  0.00     0.015 C 
ATOM     19  C   UNL A   1      31.255  29.448  24.128  1.00  0.00    -0.003 C 
ATOM     20  C   UNL A   1      30.569  27.592  22.445  1.00  0.00     0.005 C 
ATOM     21  C   UNL A   1      31.803  29.725  25.542  1.00  0.00     0.008 C 
ATOM     22  C   UNL A   1      31.276  27.907  23.790  1.00  0.00     0.002 C 
ATOM     23  C   UNL A   1      33.178  29.094  25.768  1.00  0.00     0.032 C 
ATOM     24  C   UNL A   1      32.733  27.325  23.959  1.00  0.00    -0.008 C 
ATOM     25  C   UNL A   1      33.086  27.631  25.417  1.00  0.00    -0.062 C 
ATOM     26  C   UNL A   1      32.887  25.810  23.661  1.00  0.00     0.018 C 
ATOM     27  C   UNL A   1      33.742  28.003  22.988  1.00  0.00     0.016 C 
ATOM     28  C   UNL A   1      33.059  26.726  26.410  1.00  0.00     0.027 C 
ATOM     29  C   UNL A   1      32.545  24.819  24.757  1.00  0.00     0.061 C 
ATOM     30  C   UNL A   1      32.561  25.359  26.168  1.00  0.00     0.080 C 
BRANCH  12  31
ATOM     31  O   UNL A   1      26.838  29.780  22.816  1.00  0.00    -0.390 OA
ATOM     32  H   UNL A   1      26.899  29.028  22.207  1.00  0.00     0.211 HD
ENDBRANCH  12  31
ENDBRANCH   9  10
ENDBRANCH   8   9
ENDBRANCH   5   8
ENDBRANCH   3   4
ENDBRANCH   2   3
ENDBRANCH   1   2
BRANCH   1  33
ATOM     33  C   UNL A   1      38.094  21.710  25.237  1.00  0.00     0.002 C 
BRANCH  33  34
ATOM     34  C   UNL A   1      38.499  20.263  24.950  1.00  0.00     0.021 C 
BRANCH  34  35
ATOM     35  C   UNL A   1      39.097  19.522  26.142  1.00  0.00     0.116 C 
BRANCH  35  36
ATOM     36  N   UNL A   1      40.405  18.962  25.843  1.00  0.00    -0.352 N 
ATOM     37  C   UNL A   1      41.639  19.551  25.876  1.00  0.00     0.251 C 
ATOM     38  H   UNL A   1      40.403  18.014  25.578  1.00  0.00     0.163 HD
ATOM     39  O   UNL A   1      42.614  18.957  25.406  1.00  0.00    -0.269 OA
BRANCH  37  40
ATOM     40  C   UNL A   1      41.817  20.902  26.449  1.00  0.00     0.039 A 
ATOM     41  C   UNL A   1      41.776  21.052  27.837  1.00  0.00     0.014 A 
ATOM     42  C   UNL A   1      41.995  22.022  25.631  1.00  0.00     0.014 A 
ATOM     43  C   UNL A   1      41.965  22.312  28.405  1.00  0.00     0.010 A 
ATOM     44  C   UNL A   1      42.261  23.267  26.201  1.00  0.00     0.010 A 
ATOM     45  C   UNL A   1      42.243  23.426  27.594  1.00  0.00    -0.014 A 
BRANCH  45  46
ATOM     46  C   UNL A   1      42.530  24.749  28.205  1.00  0.00     0.031 A 
ATOM     47  C   UNL A   1      43.918  25.101  28.668  1.00  0.00     0.074 A 
ATOM     48  C   UNL A   1      41.524  25.631  28.365  1.00  0.00     0.049 A 
ATOM     49  N   UNL A   1      44.353  26.217  29.198  1.00  0.00    -0.248 NA
ATOM     50  C   UNL A   1      44.946  24.057  28.544  1.00  0.00     0.031 C 
ATOM     51  C   UNL A   1      40.124  25.387  28.014  1.00  0.00     0.029 A 
ATOM     52  N   UNL A   1      41.524  26.912  28.857  1.00  0.00    -0.354 N 
ATOM     53  C   UNL A   1      45.700  26.009  29.469  1.00  0.00     0.074 A 
ATOM     54  C   UNL A   1      45.996  24.640  29.105  1.00  0.00     0.031 C 
ATOM     55  C   UNL A   1      39.408  26.496  28.263  1.00  0.00     0.029 A 
ATOM     56  C   UNL A   1      40.290  27.515  28.821  1.00  0.00     0.049 A 
ATOM     57  H   UNL A   1      42.331  27.356  29.203  1.00  0.00     0.167 HD
ATOM     58  C   UNL A   1      46.612  26.885  29.953  1.00  0.00     0.037 A 
ATOM     59  C   UNL A   1      39.913  28.754  29.189  1.00  0.00     0.037 A 
ATOM     60  C   UNL A   1      46.318  28.252  30.303  1.00  0.00     0.049 A 
ATOM     61  C   UNL A   1      40.949  29.708  29.715  1.00  0.00     0.074 A 
ATOM     62  C   UNL A   1      47.185  29.233  30.756  1.00  0.00     0.029 A 
ATOM     63  N   UNL A   1      45.059  28.830  30.244  1.00  0.00    -0.354 N 
ATOM     64  N   UNL A   1      42.233  29.520  29.895  1.00  0.00    -0.248 NA
ATOM     65  C   UNL A   1      40.481  31.053  30.076  1.00  0.00     0.031 C 
ATOM     66  C   UNL A   1      46.441  30.390  31.014  1.00  0.00     0.029 A 
ATOM     67  C   UNL A   1      45.122  30.147  30.669  1.00  0.00     0.049 A 
ATOM     68  H   UNL A   1      44.241  28.371  29.944  1.00  0.00     0.167 HD
ATOM     69  C   UNL A   1      42.732  30.731  30.361  1.00  0.00     0.074 A 
ATOM     70  C   UNL A   1      41.614  31.650  30.411  1.00  0.00     0.031 C 
ATOM     71  C   UNL A   1      44.000  31.052  30.717  1.00  0.00     0.037 A 
BRANCH  58  72
ATOM     72  C   UNL A   1      48.022  26.394  30.125  1.00  0.00     0.057 A 
ATOM     73  C   UNL A   1      48.462  25.815  31.324  1.00  0.00     0.134 A 
ATOM     74  C   UNL A   1      48.940  26.460  29.068  1.00  0.00     0.134 A 
ATOM     75  F   UNL A   1      47.640  25.731  32.380  1.00  0.00    -0.206 F 
ATOM     76  C   UNL A   1      49.768  25.345  31.473  1.00  0.00     0.040 A 
ATOM     77  C   UNL A   1      50.239  25.966  29.196  1.00  0.00     0.040 A 
ATOM     78  F   UNL A   1      48.584  26.995  27.889  1.00  0.00    -0.206 F 
ATOM     79  C   UNL A   1      50.659  25.413  30.404  1.00  0.00     0.006 A 
ENDBRANCH  58  72
BRANCH  59  80
ATOM     80  C   UNL A   1      38.498  29.178  29.041  1.00  0.00     0.057 A 
ATOM     81  C   UNL A   1      38.005  29.639  27.814  1.00  0.00     0.134 A 
ATOM     82  C   UNL A   1      37.610  29.152  30.122  1.00  0.00     0.134 A 
ATOM     83  F   UNL A   1      38.812  29.705  26.745  1.00  0.00    -0.206 F 
ATOM     84  C   UNL A   1      36.690  30.086  27.674  1.00  0.00     0.040 A 
ATOM     85  C   UNL A   1      36.284  29.568  29.991  1.00  0.00     0.040 A 
ATOM     86  F   UNL A   1      38.016  28.711  31.322  1.00  0.00    -0.206 F 
ATOM     87  C   UNL A   1      35.825  30.047  28.765  1.00  0.00     0.006 A 
ENDBRANCH  59  80
BRANCH  71  88
ATOM     88  C   UNL A   1      44.244  32.467  31.156  1.00  0.00     0.057 A 
ATOM     89  C   UNL A   1      44.562  33.485  30.246  1.00  0.00     0.134 A 
ATOM     90  C   UNL A   1      44.167  32.816  32.511  1.00  0.00     0.134 A 
ATOM     91  F   UNL A   1      44.664  33.217  28.936  1.00  0.00    -0.206 F 
ATOM     92  C   UNL A   1      44.835  34.786  30.672  1.00  0.00     0.040 A 
ATOM     93  C   UNL A   1      44.406  34.121  32.945  1.00  0.00     0.040 A 
ATOM     94  F   UNL A   1      43.856  31.895  33.435  1.00  0.00    -0.206 F 
ATOM     95  C   UNL A   1      44.754  35.107  32.025  1.00  0.00     0.006 A 
ENDBRANCH  71  88
ENDBRANCH  45  46
ENDBRANCH  37  40
ENDBRANCH  35  36
ENDBRANCH  34  35
ENDBRANCH  33  34
ENDBRANCH   1  33
TORSDOF 16
ENDMDL
