MODEL 1
REMARK VINA RESULT:     -12.0      0.000      0.000
REMARK SMILES CS(=O)(=O)c1ccc(/C=C(/C(=O)NCCCCCCNC(=O)c2ccc(-c3c4nc(c(-c5c(F)cccc5F)c5ccc([nH]5)c(-c5c(F)cccc5F)c5nc(c(-c6c(F)cccc6F)c6ccc3[nH]6)C=C5)C=C4)cc2)c2cccc(Br)c2)cc1
REMARK SMILES IDX 16 1 15 2 14 3 13 4 11 5 12 6 10 8 9 9 8 10 5 11 6 12 85 13
REMARK SMILES IDX 7 14 84 15 2 16 1 17 3 18 4 19 77 20 78 21 83 22 79 23 81 24
REMARK SMILES IDX 80 25 82 26 17 27 18 28 19 29 20 30 21 31 22 33 23 34 24 35
REMARK SMILES IDX 76 36 25 37 75 38 26 39 27 40 28 41 69 42 29 43 74 44 68 45
REMARK SMILES IDX 70 46 30 47 73 48 67 49 66 50 31 52 57 53 40 54 56 55 41 56
REMARK SMILES IDX 44 57 55 58 71 59 42 60 43 61 54 63 72 64 45 65 32 66 33 67
REMARK SMILES IDX 38 68 34 69 35 70 37 71 39 72 36 73 58 74 59 75 64 76 60 77
REMARK SMILES IDX 61 78 63 79 65 80 62 81 46 82 47 83 52 84 48 85 49 86 51 87
REMARK SMILES IDX 53 88 50 89
REMARK H PARENT 13 7 20 32 70 51 44 62
REMARK Flexibility Score: inf
ROOT
ATOM      1  C   UNL A   1      35.896  21.834  24.411  1.00  0.00     0.002 C 
ENDROOT
BRANCH   1   2
ATOM      2  C   UNL A   1      34.998  22.782  25.222  1.00  0.00     0.021 C 
BRANCH   2   3
ATOM      3  C   UNL A   1      33.548  22.822  24.727  1.00  0.00     0.116 C 
BRANCH   3   4
ATOM      4  N   UNL A   1      32.652  22.890  25.863  1.00  0.00    -0.352 N 
ATOM      5  C   UNL A   1      31.819  23.841  26.358  1.00  0.00     0.251 C 
ATOM      6  O   UNL A   1      31.279  23.577  27.435  1.00  0.00    -0.269 OA
ATOM      7  H   UNL A   1      32.646  22.062  26.396  1.00  0.00     0.163 HD
BRANCH   5   8
ATOM      8  C   UNL A   1      31.464  25.108  25.613  1.00  0.00     0.047 C 
ATOM      9  C   UNL A   1      30.532  25.126  24.632  1.00  0.00     0.022 C 
BRANCH   9  10
ATOM     10  C   UNL A   1      29.960  26.295  23.928  1.00  0.00    -0.025 A 
ATOM     11  C   UNL A   1      28.772  28.605  22.857  1.00  0.00     0.067 A 
ATOM     12  C   UNL A   1      30.125  28.343  22.628  1.00  0.00     0.021 A 
ATOM     13  C   UNL A   1      27.989  27.697  23.567  1.00  0.00     0.021 A 
ATOM     14  C   UNL A   1      30.708  27.181  23.145  1.00  0.00     0.009 A 
ATOM     15  C   UNL A   1      28.586  26.546  24.096  1.00  0.00     0.009 A 
BRANCH  11  16
ATOM     16  S   UNL A   1      28.084  30.131  22.256  1.00  0.00     0.175 S 
ATOM     17  C   UNL A   1      29.295  31.385  22.570  1.00  0.00     0.163 C 
ATOM     18  O   UNL A   1      26.938  30.439  23.097  1.00  0.00    -0.224 OA
ATOM     19  O   UNL A   1      27.947  29.987  20.824  1.00  0.00    -0.224 OA
ENDBRANCH  11  16
ENDBRANCH   9  10
BRANCH   8  20
ATOM     20  C   UNL A   1      32.307  26.299  25.894  1.00  0.00    -0.012 A 
ATOM     21  C   UNL A   1      33.695  26.202  25.680  1.00  0.00     0.009 A 
ATOM     22  C   UNL A   1      31.768  27.527  26.294  1.00  0.00     0.024 A 
ATOM     23  C   UNL A   1      34.527  27.309  25.844  1.00  0.00     0.002 A 
ATOM     24  C   UNL A   1      32.604  28.637  26.433  1.00  0.00     0.018 A 
ATOM     25  C   UNL A   1      33.978  28.534  26.209  1.00  0.00     0.016 A 
ATOM     26  Br  UNL A   1      31.863  30.315  26.889  1.00  0.00    -0.051 Br
ENDBRANCH   8  20
ENDBRANCH   5   8
ENDBRANCH   3   4
ENDBRANCH   2   3
ENDBRANCH   1   2
BRANCH   1  27
ATOM     27  C   UNL A   1      36.077  20.436  25.016  1.00  0.00     0.002 C 
BRANCH  27  28
ATOM     28  C   UNL A   1      37.440  19.791  24.754  1.00  0.00     0.021 C 
BRANCH  28  29
ATOM     29  C   UNL A   1      38.575  20.342  25.612  1.00  0.00     0.116 C 
BRANCH  29  30
ATOM     30  N   UNL A   1      39.663  19.390  25.750  1.00  0.00    -0.352 N 
ATOM     31  C   UNL A   1      40.976  19.610  26.077  1.00  0.00     0.251 C 
ATOM     32  H   UNL A   1      39.422  18.450  25.584  1.00  0.00     0.163 HD
ATOM     33  O   UNL A   1      41.801  18.711  25.942  1.00  0.00    -0.269 OA
BRANCH  31  34
ATOM     34  C   UNL A   1      41.406  20.930  26.586  1.00  0.00     0.039 A 
ATOM     35  C   UNL A   1      41.187  21.235  27.931  1.00  0.00     0.014 A 
ATOM     36  C   UNL A   1      41.979  21.882  25.735  1.00  0.00     0.014 A 
ATOM     37  C   UNL A   1      41.573  22.480  28.431  1.00  0.00     0.010 A 
ATOM     38  C   UNL A   1      42.426  23.096  26.250  1.00  0.00     0.010 A 
ATOM     39  C   UNL A   1      42.211  23.414  27.598  1.00  0.00    -0.014 A 
BRANCH  39  40
ATOM     40  C   UNL A   1      42.625  24.740  28.123  1.00  0.00     0.031 A 
ATOM     41  C   UNL A   1      41.599  25.814  28.357  1.00  0.00     0.074 A 
ATOM     42  C   UNL A   1      43.927  24.989  28.356  1.00  0.00     0.049 A 
ATOM     43  N   UNL A   1      41.765  27.037  28.794  1.00  0.00    -0.248 NA
ATOM     44  C   UNL A   1      40.202  25.479  28.033  1.00  0.00     0.031 C 
ATOM     45  C   UNL A   1      45.024  24.047  28.122  1.00  0.00     0.029 A 
ATOM     46  N   UNL A   1      44.550  26.111  28.841  1.00  0.00    -0.354 N 
ATOM     47  C   UNL A   1      40.504  27.617  28.786  1.00  0.00     0.074 A 
ATOM     48  C   UNL A   1      39.589  26.633  28.249  1.00  0.00     0.031 C 
ATOM     49  C   UNL A   1      46.181  24.621  28.491  1.00  0.00     0.029 A 
ATOM     50  C   UNL A   1      45.911  25.977  28.960  1.00  0.00     0.049 A 
ATOM     51  H   UNL A   1      44.066  26.934  29.080  1.00  0.00     0.167 HD
ATOM     52  C   UNL A   1      40.133  28.848  29.212  1.00  0.00     0.037 A 
ATOM     53  C   UNL A   1      46.836  26.848  29.405  1.00  0.00     0.037 A 
ATOM     54  C   UNL A   1      41.039  29.817  29.774  1.00  0.00     0.049 A 
ATOM     55  C   UNL A   1      46.399  28.202  29.889  1.00  0.00     0.074 A 
ATOM     56  C   UNL A   1      40.754  31.071  30.285  1.00  0.00     0.029 A 
ATOM     57  N   UNL A   1      42.407  29.634  29.900  1.00  0.00    -0.354 N 
ATOM     58  N   UNL A   1      45.192  28.713  29.937  1.00  0.00    -0.248 NA
ATOM     59  C   UNL A   1      47.450  29.096  30.393  1.00  0.00     0.031 C 
ATOM     60  C   UNL A   1      41.956  31.661  30.689  1.00  0.00     0.029 A 
ATOM     61  C   UNL A   1      42.984  30.758  30.469  1.00  0.00     0.049 A 
ATOM     62  H   UNL A   1      42.897  28.825  29.628  1.00  0.00     0.167 HD
ATOM     63  C   UNL A   1      45.336  29.974  30.501  1.00  0.00     0.074 A 
ATOM     64  C   UNL A   1      46.745  30.144  30.791  1.00  0.00     0.031 C 
ATOM     65  C   UNL A   1      44.386  30.908  30.757  1.00  0.00     0.037 A 
BRANCH  52  66
ATOM     66  C   UNL A   1      38.682  29.213  29.092  1.00  0.00     0.057 A 
ATOM     67  C   UNL A   1      37.809  29.133  30.186  1.00  0.00     0.134 A 
ATOM     68  C   UNL A   1      38.156  29.672  27.879  1.00  0.00     0.134 A 
ATOM     69  F   UNL A   1      38.247  28.688  31.373  1.00  0.00    -0.206 F 
ATOM     70  C   UNL A   1      36.459  29.470  30.070  1.00  0.00     0.040 A 
ATOM     71  C   UNL A   1      36.814  30.037  27.757  1.00  0.00     0.040 A 
ATOM     72  F   UNL A   1      38.937  29.778  26.794  1.00  0.00    -0.206 F 
ATOM     73  C   UNL A   1      35.960  29.930  28.853  1.00  0.00     0.006 A 
ENDBRANCH  52  66
BRANCH  53  74
ATOM     74  C   UNL A   1      48.265  26.453  29.453  1.00  0.00     0.057 A 
ATOM     75  C   UNL A   1      49.133  26.757  28.398  1.00  0.00     0.134 A 
ATOM     76  C   UNL A   1      48.797  25.761  30.546  1.00  0.00     0.134 A 
ATOM     77  F   UNL A   1      48.677  27.404  27.314  1.00  0.00    -0.206 F 
ATOM     78  C   UNL A   1      50.473  26.368  28.417  1.00  0.00     0.040 A 
ATOM     79  C   UNL A   1      50.141  25.385  30.590  1.00  0.00     0.040 A 
ATOM     80  F   UNL A   1      48.020  25.448  31.594  1.00  0.00    -0.206 F 
ATOM     81  C   UNL A   1      50.981  25.683  29.519  1.00  0.00     0.006 A 
ENDBRANCH  53  74
BRANCH  65  82
ATOM     82  C   UNL A   1      44.837  32.178  31.414  1.00  0.00     0.057 A 
ATOM     83  C   UNL A   1      45.213  33.303  30.669  1.00  0.00     0.134 A 
ATOM     84  C   UNL A   1      44.871  32.286  32.810  1.00  0.00     0.134 A 
ATOM     85  F   UNL A   1      45.215  33.260  29.328  1.00  0.00    -0.206 F 
ATOM     86  C   UNL A   1      45.631  34.482  31.289  1.00  0.00     0.040 A 
ATOM     87  C   UNL A   1      45.261  33.467  33.442  1.00  0.00     0.040 A 
ATOM     88  F   UNL A   1      44.514  31.247  33.581  1.00  0.00    -0.206 F 
ATOM     89  C   UNL A   1      45.650  34.566  32.680  1.00  0.00     0.006 A 
ENDBRANCH  65  82
ENDBRANCH  39  40
ENDBRANCH  31  34
ENDBRANCH  29  30
ENDBRANCH  28  29
ENDBRANCH  27  28
ENDBRANCH   1  27
TORSDOF 16
ENDMDL
MODEL 2
REMARK VINA RESULT:     -12.0      0.454      5.964
REMARK SMILES CS(=O)(=O)c1ccc(/C=C(/C(=O)NCCCCCCNC(=O)c2ccc(-c3c4nc(c(-c5c(F)cccc5F)c5ccc([nH]5)c(-c5c(F)cccc5F)c5nc(c(-c6c(F)cccc6F)c6ccc3[nH]6)C=C5)C=C4)cc2)c2cccc(Br)c2)cc1
REMARK SMILES IDX 16 1 15 2 14 3 13 4 11 5 12 6 10 8 9 9 8 10 5 11 6 12 85 13
REMARK SMILES IDX 7 14 84 15 2 16 1 17 3 18 4 19 77 20 78 21 83 22 79 23 81 24
REMARK SMILES IDX 80 25 82 26 17 27 18 28 19 29 20 30 21 31 22 33 23 34 24 35
REMARK SMILES IDX 76 36 25 37 75 38 26 39 27 40 28 41 69 42 29 43 74 44 68 45
REMARK SMILES IDX 70 46 30 47 73 48 67 49 66 50 31 52 57 53 40 54 56 55 41 56
REMARK SMILES IDX 44 57 55 58 71 59 42 60 43 61 54 63 72 64 45 65 32 66 33 67
REMARK SMILES IDX 38 68 34 69 35 70 37 71 39 72 36 73 58 74 59 75 64 76 60 77
REMARK SMILES IDX 61 78 63 79 65 80 62 81 46 82 47 83 52 84 48 85 49 86 51 87
REMARK SMILES IDX 53 88 50 89
REMARK H PARENT 13 7 20 32 70 51 44 62
REMARK Flexibility Score: inf
ROOT
ATOM      1  C   UNL A   1      36.023  21.639  24.319  1.00  0.00     0.002 C 
ENDROOT
BRANCH   1   2
ATOM      2  C   UNL A   1      35.060  22.627  24.997  1.00  0.00     0.021 C 
BRANCH   2   3
ATOM      3  C   UNL A   1      33.602  22.456  24.558  1.00  0.00     0.116 C 
BRANCH   3   4
ATOM      4  N   UNL A   1      32.741  22.486  25.723  1.00  0.00    -0.352 N 
ATOM      5  C   UNL A   1      31.925  23.421  26.276  1.00  0.00     0.251 C 
ATOM      6  O   UNL A   1      31.418  23.120  27.359  1.00  0.00    -0.269 OA
ATOM      7  H   UNL A   1      32.750  21.641  26.227  1.00  0.00     0.163 HD
BRANCH   5   8
ATOM      8  C   UNL A   1      31.549  24.713  25.586  1.00  0.00     0.047 C 
ATOM      9  C   UNL A   1      30.616  24.758  24.606  1.00  0.00     0.022 C 
BRANCH   9  10
ATOM     10  C   UNL A   1      30.026  25.948  23.953  1.00  0.00    -0.025 A 
ATOM     11  C   UNL A   1      28.832  28.300  22.986  1.00  0.00     0.067 A 
ATOM     12  C   UNL A   1      30.146  27.985  22.632  1.00  0.00     0.021 A 
ATOM     13  C   UNL A   1      28.086  27.424  23.773  1.00  0.00     0.021 A 
ATOM     14  C   UNL A   1      30.730  26.802  23.097  1.00  0.00     0.009 A 
ATOM     15  C   UNL A   1      28.685  26.252  24.249  1.00  0.00     0.009 A 
BRANCH  11  16
ATOM     16  S   UNL A   1      28.150  29.850  22.445  1.00  0.00     0.175 S 
ATOM     17  C   UNL A   1      29.100  31.120  23.234  1.00  0.00     0.163 C 
ATOM     18  O   UNL A   1      26.805  29.935  22.992  1.00  0.00    -0.224 OA
ATOM     19  O   UNL A   1      28.387  29.932  21.021  1.00  0.00    -0.224 OA
ENDBRANCH  11  16
ENDBRANCH   9  10
BRANCH   8  20
ATOM     20  C   UNL A   1      32.374  25.903  25.917  1.00  0.00    -0.012 A 
ATOM     21  C   UNL A   1      33.755  25.859  25.645  1.00  0.00     0.009 A 
ATOM     22  C   UNL A   1      31.822  27.086  26.422  1.00  0.00     0.024 A 
ATOM     23  C   UNL A   1      34.565  26.973  25.855  1.00  0.00     0.002 A 
ATOM     24  C   UNL A   1      32.636  28.206  26.607  1.00  0.00     0.018 A 
ATOM     25  C   UNL A   1      34.002  28.156  26.325  1.00  0.00     0.016 A 
ATOM     26  Br  UNL A   1      31.873  29.828  27.206  1.00  0.00    -0.051 Br
ENDBRANCH   8  20
ENDBRANCH   5   8
ENDBRANCH   3   4
ENDBRANCH   2   3
ENDBRANCH   1   2
BRANCH   1  27
ATOM     27  C   UNL A   1      36.130  20.268  24.998  1.00  0.00     0.002 C 
BRANCH  27  28
ATOM     28  C   UNL A   1      37.484  19.572  24.837  1.00  0.00     0.021 C 
BRANCH  28  29
ATOM     29  C   UNL A   1      38.619  20.206  25.635  1.00  0.00     0.116 C 
BRANCH  29  30
ATOM     30  N   UNL A   1      39.771  19.326  25.734  1.00  0.00    -0.352 N 
ATOM     31  C   UNL A   1      41.072  19.626  26.048  1.00  0.00     0.251 C 
ATOM     32  H   UNL A   1      39.591  18.376  25.549  1.00  0.00     0.163 HD
ATOM     33  O   UNL A   1      41.952  18.789  25.878  1.00  0.00    -0.269 OA
BRANCH  31  34
ATOM     34  C   UNL A   1      41.420  20.961  26.582  1.00  0.00     0.039 A 
ATOM     35  C   UNL A   1      41.221  21.212  27.941  1.00  0.00     0.014 A 
ATOM     36  C   UNL A   1      41.897  21.973  25.743  1.00  0.00     0.014 A 
ATOM     37  C   UNL A   1      41.531  22.468  28.466  1.00  0.00     0.010 A 
ATOM     38  C   UNL A   1      42.271  23.203  26.280  1.00  0.00     0.010 A 
ATOM     39  C   UNL A   1      42.074  23.468  27.643  1.00  0.00    -0.014 A 
BRANCH  39  40
ATOM     40  C   UNL A   1      42.408  24.806  28.194  1.00  0.00     0.031 A 
ATOM     41  C   UNL A   1      43.823  25.129  28.588  1.00  0.00     0.074 A 
ATOM     42  C   UNL A   1      41.434  25.718  28.370  1.00  0.00     0.049 A 
ATOM     43  N   UNL A   1      44.308  26.231  29.101  1.00  0.00    -0.248 NA
ATOM     44  C   UNL A   1      44.822  24.062  28.408  1.00  0.00     0.031 C 
ATOM     45  C   UNL A   1      40.015  25.509  28.072  1.00  0.00     0.029 A 
ATOM     46  N   UNL A   1      41.488  27.004  28.845  1.00  0.00    -0.354 N 
ATOM     47  C   UNL A   1      45.658  25.988  29.314  1.00  0.00     0.074 A 
ATOM     48  C   UNL A   1      45.907  24.617  28.928  1.00  0.00     0.031 C 
ATOM     49  C   UNL A   1      39.339  26.637  28.344  1.00  0.00     0.029 A 
ATOM     50  C   UNL A   1      40.270  27.637  28.860  1.00  0.00     0.049 A 
ATOM     51  H   UNL A   1      42.322  27.431  29.146  1.00  0.00     0.167 HD
ATOM     52  C   UNL A   1      46.613  26.837  29.764  1.00  0.00     0.037 A 
ATOM     53  C   UNL A   1      39.943  28.886  29.240  1.00  0.00     0.037 A 
ATOM     54  C   UNL A   1      46.371  28.211  30.120  1.00  0.00     0.049 A 
ATOM     55  C   UNL A   1      41.022  29.816  29.720  1.00  0.00     0.074 A 
ATOM     56  C   UNL A   1      47.280  29.169  30.536  1.00  0.00     0.029 A 
ATOM     57  N   UNL A   1      45.128  28.823  30.099  1.00  0.00    -0.354 N 
ATOM     58  N   UNL A   1      42.307  29.592  29.853  1.00  0.00    -0.248 NA
ATOM     59  C   UNL A   1      40.607  31.176  30.089  1.00  0.00     0.031 C 
ATOM     60  C   UNL A   1      46.580  30.351  30.799  1.00  0.00     0.029 A 
ATOM     61  C   UNL A   1      45.242  30.142  30.507  1.00  0.00     0.049 A 
ATOM     62  H   UNL A   1      44.287  28.386  29.832  1.00  0.00     0.167 HD
ATOM     63  C   UNL A   1      42.858  30.788  30.294  1.00  0.00     0.074 A 
ATOM     64  C   UNL A   1      41.768  31.739  30.391  1.00  0.00     0.031 C 
ATOM     65  C   UNL A   1      44.149  31.075  30.591  1.00  0.00     0.037 A 
BRANCH  52  66
ATOM     66  C   UNL A   1      48.010  26.302  29.890  1.00  0.00     0.057 A 
ATOM     67  C   UNL A   1      48.482  25.747  31.087  1.00  0.00     0.134 A 
ATOM     68  C   UNL A   1      48.884  26.317  28.796  1.00  0.00     0.134 A 
ATOM     69  F   UNL A   1      47.698  25.714  32.176  1.00  0.00    -0.206 F 
ATOM     70  C   UNL A   1      49.782  25.252  31.201  1.00  0.00     0.040 A 
ATOM     71  C   UNL A   1      50.178  25.801  28.890  1.00  0.00     0.040 A 
ATOM     72  F   UNL A   1      48.495  26.828  27.619  1.00  0.00    -0.206 F 
ATOM     73  C   UNL A   1      50.633  25.273  30.097  1.00  0.00     0.006 A 
ENDBRANCH  52  66
BRANCH  53  74
ATOM     74  C   UNL A   1      38.535  29.347  29.144  1.00  0.00     0.057 A 
ATOM     75  C   UNL A   1      37.996  29.768  27.924  1.00  0.00     0.134 A 
ATOM     76  C   UNL A   1      37.699  29.382  30.266  1.00  0.00     0.134 A 
ATOM     77  F   UNL A   1      38.755  29.773  26.817  1.00  0.00    -0.206 F 
ATOM     78  C   UNL A   1      36.683  30.229  27.824  1.00  0.00     0.040 A 
ATOM     79  C   UNL A   1      36.376  29.819  30.176  1.00  0.00     0.040 A 
ATOM     80  F   UNL A   1      38.153  28.983  31.463  1.00  0.00    -0.206 F 
ATOM     81  C   UNL A   1      35.867  30.250  28.953  1.00  0.00     0.006 A 
ENDBRANCH  53  74
BRANCH  65  82
ATOM     82  C   UNL A   1      44.456  32.481  31.013  1.00  0.00     0.057 A 
ATOM     83  C   UNL A   1      44.759  33.483  30.083  1.00  0.00     0.134 A 
ATOM     84  C   UNL A   1      44.422  32.843  32.366  1.00  0.00     0.134 A 
ATOM     85  F   UNL A   1      44.821  33.199  28.773  1.00  0.00    -0.206 F 
ATOM     86  C   UNL A   1      45.042  34.790  30.486  1.00  0.00     0.040 A 
ATOM     87  C   UNL A   1      44.678  34.150  32.779  1.00  0.00     0.040 A 
ATOM     88  F   UNL A   1      44.129  31.931  33.306  1.00  0.00    -0.206 F 
ATOM     89  C   UNL A   1      44.997  35.126  31.838  1.00  0.00     0.006 A 
ENDBRANCH  65  82
ENDBRANCH  39  40
ENDBRANCH  31  34
ENDBRANCH  29  30
ENDBRANCH  28  29
ENDBRANCH  27  28
ENDBRANCH   1  27
TORSDOF 16
ENDMDL
MODEL 3
REMARK VINA RESULT:     -11.9      5.080      9.940
REMARK SMILES CS(=O)(=O)c1ccc(/C=C(/C(=O)NCCCCCCNC(=O)c2ccc(-c3c4nc(c(-c5c(F)cccc5F)c5ccc([nH]5)c(-c5c(F)cccc5F)c5nc(c(-c6c(F)cccc6F)c6ccc3[nH]6)C=C5)C=C4)cc2)c2cccc(Br)c2)cc1
REMARK SMILES IDX 16 1 15 2 14 3 13 4 11 5 12 6 10 8 9 9 8 10 5 11 6 12 85 13
REMARK SMILES IDX 7 14 84 15 2 16 1 17 3 18 4 19 77 20 78 21 83 22 79 23 81 24
REMARK SMILES IDX 80 25 82 26 17 27 18 28 19 29 20 30 21 31 22 33 23 34 24 35
REMARK SMILES IDX 76 36 25 37 75 38 26 39 27 40 28 41 69 42 29 43 74 44 68 45
REMARK SMILES IDX 70 46 30 47 73 48 67 49 66 50 31 52 57 53 40 54 56 55 41 56
REMARK SMILES IDX 44 57 55 58 71 59 42 60 43 61 54 63 72 64 45 65 32 66 33 67
REMARK SMILES IDX 38 68 34 69 35 70 37 71 39 72 36 73 58 74 59 75 64 76 60 77
REMARK SMILES IDX 61 78 63 79 65 80 62 81 46 82 47 83 52 84 48 85 49 86 51 87
REMARK SMILES IDX 53 88 50 89
REMARK H PARENT 13 7 20 32 70 51 44 62
REMARK Flexibility Score: inf
ROOT
ATOM      1  C   UNL A   1      34.821  33.080  29.045  1.00  0.00     0.002 C 
ENDROOT
BRANCH   1   2
ATOM      2  C   UNL A   1      35.516  32.164  28.025  1.00  0.00     0.021 C 
BRANCH   2   3
ATOM      3  C   UNL A   1      34.667  30.959  27.608  1.00  0.00     0.116 C 
BRANCH   3   4
ATOM      4  N   UNL A   1      33.286  31.371  27.455  1.00  0.00    -0.352 N 
ATOM      5  C   UNL A   1      32.212  30.862  26.798  1.00  0.00     0.251 C 
ATOM      6  O   UNL A   1      31.196  31.562  26.804  1.00  0.00    -0.269 OA
ATOM      7  H   UNL A   1      33.082  32.207  27.933  1.00  0.00     0.163 HD
BRANCH   5   8
ATOM      8  C   UNL A   1      32.188  29.482  26.183  1.00  0.00     0.047 C 
ATOM      9  C   UNL A   1      32.620  28.389  26.855  1.00  0.00     0.022 C 
BRANCH   9  10
ATOM     10  C   UNL A   1      32.514  26.966  26.462  1.00  0.00    -0.025 A 
ATOM     11  C   UNL A   1      32.110  24.352  25.515  1.00  0.00     0.067 A 
ATOM     12  C   UNL A   1      33.398  24.891  25.555  1.00  0.00     0.021 A 
ATOM     13  C   UNL A   1      31.026  25.083  25.997  1.00  0.00     0.021 A 
ATOM     14  C   UNL A   1      33.598  26.185  26.047  1.00  0.00     0.009 A 
ATOM     15  C   UNL A   1      31.233  26.385  26.471  1.00  0.00     0.009 A 
BRANCH  11  16
ATOM     16  S   UNL A   1      31.881  22.737  24.806  1.00  0.00     0.175 S 
ATOM     17  C   UNL A   1      33.479  21.974  24.772  1.00  0.00     0.163 C 
ATOM     18  O   UNL A   1      31.483  22.934  23.422  1.00  0.00    -0.224 OA
ATOM     19  O   UNL A   1      31.049  21.996  25.728  1.00  0.00    -0.224 OA
ENDBRANCH  11  16
ENDBRANCH   9  10
BRANCH   8  20
ATOM     20  C   UNL A   1      31.825  29.405  24.744  1.00  0.00    -0.012 A 
ATOM     21  C   UNL A   1      32.828  29.065  23.817  1.00  0.00     0.009 A 
ATOM     22  C   UNL A   1      30.515  29.590  24.287  1.00  0.00     0.024 A 
ATOM     23  C   UNL A   1      32.530  28.895  22.466  1.00  0.00     0.002 A 
ATOM     24  C   UNL A   1      30.219  29.394  22.936  1.00  0.00     0.018 A 
ATOM     25  C   UNL A   1      31.219  29.047  22.025  1.00  0.00     0.016 A 
ATOM     26  Br  UNL A   1      28.435  29.557  22.334  1.00  0.00    -0.051 Br
ENDBRANCH   8  20
ENDBRANCH   5   8
ENDBRANCH   3   4
ENDBRANCH   2   3
ENDBRANCH   1   2
BRANCH   1  27
ATOM     27  C   UNL A   1      34.579  34.517  28.567  1.00  0.00     0.002 C 
BRANCH  27  28
ATOM     28  C   UNL A   1      33.209  35.096  28.931  1.00  0.00     0.021 C 
BRANCH  28  29
ATOM     29  C   UNL A   1      33.264  36.381  29.751  1.00  0.00     0.116 C 
BRANCH  29  30
ATOM     30  N   UNL A   1      32.382  36.328  30.903  1.00  0.00    -0.352 N 
ATOM     31  C   UNL A   1      32.500  35.598  32.058  1.00  0.00     0.251 C 
ATOM     32  H   UNL A   1      31.582  36.899  30.846  1.00  0.00     0.163 HD
ATOM     33  O   UNL A   1      31.552  35.518  32.833  1.00  0.00    -0.269 OA
BRANCH  31  34
ATOM     34  C   UNL A   1      33.764  34.898  32.369  1.00  0.00     0.039 A 
ATOM     35  C   UNL A   1      33.707  33.571  32.801  1.00  0.00     0.014 A 
ATOM     36  C   UNL A   1      34.996  35.555  32.283  1.00  0.00     0.014 A 
ATOM     37  C   UNL A   1      34.887  32.892  33.114  1.00  0.00     0.010 A 
ATOM     38  C   UNL A   1      36.176  34.857  32.527  1.00  0.00     0.010 A 
ATOM     39  C   UNL A   1      36.132  33.525  32.963  1.00  0.00    -0.014 A 
BRANCH  39  40
ATOM     40  C   UNL A   1      37.391  32.809  33.292  1.00  0.00     0.031 A 
ATOM     41  C   UNL A   1      38.121  33.115  34.571  1.00  0.00     0.074 A 
ATOM     42  C   UNL A   1      37.895  31.911  32.425  1.00  0.00     0.049 A 
ATOM     43  N   UNL A   1      39.240  32.610  35.025  1.00  0.00    -0.248 NA
ATOM     44  C   UNL A   1      37.530  34.143  35.442  1.00  0.00     0.031 C 
ATOM     45  C   UNL A   1      37.307  31.563  31.130  1.00  0.00     0.029 A 
ATOM     46  N   UNL A   1      39.018  31.127  32.503  1.00  0.00    -0.354 N 
ATOM     47  C   UNL A   1      39.491  33.263  36.225  1.00  0.00     0.074 A 
ATOM     48  C   UNL A   1      38.439  34.241  36.401  1.00  0.00     0.031 C 
ATOM     49  C   UNL A   1      38.059  30.615  30.548  1.00  0.00     0.029 A 
ATOM     50  C   UNL A   1      39.194  30.308  31.414  1.00  0.00     0.049 A 
ATOM     51  H   UNL A   1      39.638  31.150  33.266  1.00  0.00     0.167 HD
ATOM     52  C   UNL A   1      40.491  33.052  37.113  1.00  0.00     0.037 A 
ATOM     53  C   UNL A   1      40.158  29.407  31.150  1.00  0.00     0.037 A 
ATOM     54  C   UNL A   1      41.520  32.059  36.952  1.00  0.00     0.049 A 
ATOM     55  C   UNL A   1      41.247  29.178  32.159  1.00  0.00     0.074 A 
ATOM     56  C   UNL A   1      42.546  31.729  37.820  1.00  0.00     0.029 A 
ATOM     57  N   UNL A   1      41.650  31.232  35.847  1.00  0.00    -0.354 N 
ATOM     58  N   UNL A   1      41.435  29.758  33.320  1.00  0.00    -0.248 NA
ATOM     59  C   UNL A   1      42.252  28.158  31.828  1.00  0.00     0.031 C 
ATOM     60  C   UNL A   1      43.318  30.726  37.225  1.00  0.00     0.029 A 
ATOM     61  C   UNL A   1      42.748  30.402  36.004  1.00  0.00     0.049 A 
ATOM     62  H   UNL A   1      41.051  31.234  35.066  1.00  0.00     0.167 HD
ATOM     63  C   UNL A   1      42.559  29.155  33.869  1.00  0.00     0.074 A 
ATOM     64  C   UNL A   1      43.003  28.155  32.919  1.00  0.00     0.031 C 
ATOM     65  C   UNL A   1      43.171  29.407  35.053  1.00  0.00     0.037 A 
BRANCH  52  66
ATOM     66  C   UNL A   1      40.512  33.910  38.345  1.00  0.00     0.057 A 
ATOM     67  C   UNL A   1      39.777  33.575  39.490  1.00  0.00     0.134 A 
ATOM     68  C   UNL A   1      41.296  35.070  38.397  1.00  0.00     0.134 A 
ATOM     69  F   UNL A   1      38.997  32.484  39.501  1.00  0.00    -0.206 F 
ATOM     70  C   UNL A   1      39.798  34.377  40.633  1.00  0.00     0.040 A 
ATOM     71  C   UNL A   1      41.345  35.866  39.543  1.00  0.00     0.040 A 
ATOM     72  F   UNL A   1      42.028  35.446  37.339  1.00  0.00    -0.206 F 
ATOM     73  C   UNL A   1      40.589  35.524  40.663  1.00  0.00     0.006 A 
ENDBRANCH  52  66
BRANCH  53  74
ATOM     74  C   UNL A   1      40.116  28.623  29.891  1.00  0.00     0.057 A 
ATOM     75  C   UNL A   1      39.369  27.443  29.801  1.00  0.00     0.134 A 
ATOM     76  C   UNL A   1      40.821  29.029  28.752  1.00  0.00     0.134 A 
ATOM     77  F   UNL A   1      38.686  26.994  30.866  1.00  0.00    -0.206 F 
ATOM     78  C   UNL A   1      39.342  26.681  28.632  1.00  0.00     0.040 A 
ATOM     79  C   UNL A   1      40.784  28.289  27.568  1.00  0.00     0.040 A 
ATOM     80  F   UNL A   1      41.548  30.156  28.770  1.00  0.00    -0.206 F 
ATOM     81  C   UNL A   1      40.048  27.108  27.510  1.00  0.00     0.006 A 
ENDBRANCH  53  74
BRANCH  65  82
ATOM     82  C   UNL A   1      44.360  28.563  35.400  1.00  0.00     0.057 A 
ATOM     83  C   UNL A   1      45.662  28.938  35.046  1.00  0.00     0.134 A 
ATOM     84  C   UNL A   1      44.203  27.372  36.122  1.00  0.00     0.134 A 
ATOM     85  F   UNL A   1      45.879  30.060  34.343  1.00  0.00    -0.206 F 
ATOM     86  C   UNL A   1      46.764  28.145  35.375  1.00  0.00     0.040 A 
ATOM     87  C   UNL A   1      45.298  26.585  36.479  1.00  0.00     0.040 A 
ATOM     88  F   UNL A   1      42.983  26.962  36.499  1.00  0.00    -0.206 F 
ATOM     89  C   UNL A   1      46.582  26.968  36.098  1.00  0.00     0.006 A 
ENDBRANCH  65  82
ENDBRANCH  39  40
ENDBRANCH  31  34
ENDBRANCH  29  30
ENDBRANCH  28  29
ENDBRANCH  27  28
ENDBRANCH   1  27
TORSDOF 16
ENDMDL
