MODEL 1
REMARK VINA RESULT:     -13.0      0.000      0.000
REMARK SMILES NS(=O)(=O)c1ccc(-c2cc(Cl)cc3c2O[C@H](C(F)(F)F)C(C(=O)NCCCCCCNC(=O)c2ccc(-c4c5nc(c(-c6c(F)cccc6F)c6ccc([nH]6)c(-c6c(F)cccc6F)c6nc(c(-c7c(F)cccc7F)c7ccc4[nH]7)C=C6)C=C5)cc2)=C3)cc1
REMARK SMILES IDX 28 1 27 2 26 3 25 4 23 5 24 6 22 8 9 9 10 10 15 11 11 12
REMARK SMILES IDX 14 13 16 14 12 15 13 16 89 17 17 18 8 19 5 20 6 21 91 22
REMARK SMILES IDX 7 23 90 24 2 25 3 26 4 27 1 28 18 31 19 32 20 33 21 34 29 35
REMARK SMILES IDX 30 36 31 37 32 38 33 39 34 41 35 42 36 43 88 44 37 45 87 46
REMARK SMILES IDX 38 47 39 48 40 49 81 50 41 51 86 52 80 53 82 54 42 55 85 56
REMARK SMILES IDX 79 57 78 58 43 60 69 61 52 62 68 63 53 64 56 65 67 66 83 67
REMARK SMILES IDX 54 68 55 69 66 71 84 72 57 73 44 74 45 75 50 76 46 77 47 78
REMARK SMILES IDX 49 79 51 80 48 81 70 82 71 83 76 84 72 85 73 86 75 87 77 88
REMARK SMILES IDX 74 89 58 90 59 91 64 92 60 93 61 94 63 95 65 96 62 97
REMARK H PARENT 25 7 1 29 1 30 32 40 82 59 56 70
REMARK Flexibility Score: inf
ROOT
ATOM      1  C   UNL A   1      35.308  20.707  25.386  1.00  0.00     0.002 C 
ENDROOT
BRANCH   1   2
ATOM      2  C   UNL A   1      34.516  19.570  24.716  1.00  0.00     0.021 C 
BRANCH   2   3
ATOM      3  C   UNL A   1      33.015  19.848  24.541  1.00  0.00     0.116 C 
BRANCH   3   4
ATOM      4  N   UNL A   1      32.818  20.812  23.478  1.00  0.00    -0.352 N 
ATOM      5  C   UNL A   1      32.117  21.969  23.586  1.00  0.00     0.251 C 
ATOM      6  O   UNL A   1      31.266  22.248  22.751  1.00  0.00    -0.270 OA
ATOM      7  H   UNL A   1      33.226  20.613  22.605  1.00  0.00     0.163 HD
BRANCH   5   8
ATOM      8  C   UNL A   1      32.568  22.917  24.646  1.00  0.00     0.067 C 
ATOM      9  C   UNL A   1      31.061  26.342  23.067  1.00  0.00     0.026 A 
ATOM     10  C   UNL A   1      31.417  26.334  21.690  1.00  0.00     0.033 A 
ATOM     11  C   UNL A   1      31.727  25.405  23.883  1.00  0.00     0.135 A 
ATOM     12  C   UNL A   1      32.469  25.574  21.184  1.00  0.00     0.042 A 
ATOM     13  C   UNL A   1      32.872  24.739  23.371  1.00  0.00     0.019 A 
ATOM     14  O   UNL A   1      31.289  25.036  25.153  1.00  0.00    -0.475 OA
ATOM     15  Cl  UNL A   1      32.796  25.584  19.498  1.00  0.00    -0.084 Cl
ATOM     16  C   UNL A   1      33.254  24.830  22.037  1.00  0.00     0.032 A 
ATOM     17  C   UNL A   1      33.545  23.747  24.235  1.00  0.00     0.025 C 
ATOM     18  C   UNL A   1      31.460  23.576  25.450  1.00  0.00     0.314 C 
BRANCH   9  19
ATOM     19  C   UNL A   1      30.187  27.486  23.465  1.00  0.00    -0.015 A 
ATOM     20  C   UNL A   1      28.733  29.906  23.128  1.00  0.00     0.082 A 
ATOM     21  C   UNL A   1      28.094  28.684  22.933  1.00  0.00     0.022 A 
ATOM     22  C   UNL A   1      30.056  29.932  23.580  1.00  0.00     0.022 A 
ATOM     23  C   UNL A   1      28.811  27.489  23.126  1.00  0.00     0.010 A 
ATOM     24  C   UNL A   1      30.771  28.732  23.761  1.00  0.00     0.010 A 
BRANCH  20  25
ATOM     25  S   UNL A   1      27.946  31.439  22.709  1.00  0.00     0.238 S 
ATOM     26  O   UNL A   1      27.007  31.778  23.752  1.00  0.00    -0.207 OA
ATOM     27  O   UNL A   1      27.580  31.399  21.311  1.00  0.00    -0.207 OA
BRANCH  25  28
ATOM     28  N   UNL A   1      29.152  32.611  22.829  1.00  0.00    -0.225 NA
ATOM     29  H   UNL A   1      30.055  32.193  22.608  1.00  0.00     0.137 HD
ATOM     30  H   UNL A   1      29.172  32.981  23.779  1.00  0.00     0.137 HD
ENDBRANCH  25  28
ENDBRANCH  20  25
ENDBRANCH   9  19
BRANCH  18  31
ATOM     31  C   UNL A   1      31.756  23.298  26.943  1.00  0.00     0.429 C 
ATOM     32  F   UNL A   1      32.286  24.364  27.582  1.00  0.00    -0.167 F 
ATOM     33  F   UNL A   1      30.635  22.929  27.608  1.00  0.00    -0.167 F 
ATOM     34  F   UNL A   1      32.639  22.273  27.113  1.00  0.00    -0.167 F 
ENDBRANCH  18  31
ENDBRANCH   5   8
ENDBRANCH   3   4
ENDBRANCH   2   3
ENDBRANCH   1   2
BRANCH   1  35
ATOM     35  C   UNL A   1      36.684  20.980  24.772  1.00  0.00     0.002 C 
BRANCH  35  36
ATOM     36  C   UNL A   1      37.695  19.850  24.966  1.00  0.00     0.021 C 
BRANCH  36  37
ATOM     37  C   UNL A   1      38.955  20.258  25.720  1.00  0.00     0.116 C 
BRANCH  37  38
ATOM     38  N   UNL A   1      39.923  19.177  25.809  1.00  0.00    -0.352 N 
ATOM     39  C   UNL A   1      41.276  19.248  26.029  1.00  0.00     0.251 C 
ATOM     40  H   UNL A   1      39.559  18.270  25.694  1.00  0.00     0.163 HD
ATOM     41  O   UNL A   1      41.981  18.253  25.901  1.00  0.00    -0.269 OA
BRANCH  39  42
ATOM     42  C   UNL A   1      41.883  20.544  26.396  1.00  0.00     0.039 A 
ATOM     43  C   UNL A   1      42.277  21.416  25.380  1.00  0.00     0.014 A 
ATOM     44  C   UNL A   1      42.040  20.902  27.738  1.00  0.00     0.014 A 
ATOM     45  C   UNL A   1      42.777  22.675  25.711  1.00  0.00     0.010 A 
ATOM     46  C   UNL A   1      42.457  22.187  28.064  1.00  0.00     0.010 A 
ATOM     47  C   UNL A   1      42.837  23.085  27.054  1.00  0.00    -0.014 A 
BRANCH  47  48
ATOM     48  C   UNL A   1      43.292  24.450  27.418  1.00  0.00     0.031 A 
ATOM     49  C   UNL A   1      42.294  25.504  27.802  1.00  0.00     0.074 A 
ATOM     50  C   UNL A   1      44.600  24.758  27.333  1.00  0.00     0.049 A 
ATOM     51  N   UNL A   1      42.496  26.761  28.108  1.00  0.00    -0.248 NA
ATOM     52  C   UNL A   1      40.880  25.103  27.815  1.00  0.00     0.031 C 
ATOM     53  C   UNL A   1      45.658  23.838  26.909  1.00  0.00     0.029 A 
ATOM     54  N   UNL A   1      45.260  25.933  27.585  1.00  0.00    -0.354 N 
ATOM     55  C   UNL A   1      41.236  27.302  28.332  1.00  0.00     0.074 A 
ATOM     56  C   UNL A   1      40.275  26.253  28.066  1.00  0.00     0.031 C 
ATOM     57  C   UNL A   1      46.836  24.478  26.950  1.00  0.00     0.029 A 
ATOM     58  C   UNL A   1      46.613  25.861  27.362  1.00  0.00     0.049 A 
ATOM     59  H   UNL A   1      44.808  26.750  27.897  1.00  0.00     0.167 HD
ATOM     60  C   UNL A   1      40.911  28.551  28.742  1.00  0.00     0.037 A 
ATOM     61  C   UNL A   1      47.567  26.806  27.463  1.00  0.00     0.037 A 
ATOM     62  C   UNL A   1      41.875  29.586  29.012  1.00  0.00     0.049 A 
ATOM     63  C   UNL A   1      47.189  28.186  27.920  1.00  0.00     0.074 A 
ATOM     64  C   UNL A   1      41.657  30.860  29.506  1.00  0.00     0.029 A 
ATOM     65  N   UNL A   1      43.241  29.471  28.794  1.00  0.00    -0.354 N 
ATOM     66  N   UNL A   1      46.004  28.660  28.219  1.00  0.00    -0.248 NA
ATOM     67  C   UNL A   1      48.280  29.158  28.064  1.00  0.00     0.031 C 
ATOM     68  C   UNL A   1      42.881  31.537  29.522  1.00  0.00     0.029 A 
ATOM     69  C   UNL A   1      43.873  30.664  29.105  1.00  0.00     0.049 A 
ATOM     70  H   UNL A   1      43.694  28.661  28.467  1.00  0.00     0.167 HD
ATOM     71  C   UNL A   1      46.206  29.979  28.606  1.00  0.00     0.074 A 
ATOM     72  C   UNL A   1      47.632  30.222  28.518  1.00  0.00     0.031 C 
ATOM     73  C   UNL A   1      45.293  30.901  29.001  1.00  0.00     0.037 A 
BRANCH  60  74
ATOM     74  C   UNL A   1      39.449  28.864  28.898  1.00  0.00     0.057 A 
ATOM     75  C   UNL A   1      38.676  29.376  27.846  1.00  0.00     0.134 A 
ATOM     76  C   UNL A   1      38.803  28.655  30.124  1.00  0.00     0.134 A 
ATOM     77  F   UNL A   1      39.231  29.610  26.646  1.00  0.00    -0.206 F 
ATOM     78  C   UNL A   1      37.334  29.717  28.020  1.00  0.00     0.040 A 
ATOM     79  C   UNL A   1      37.451  28.957  30.300  1.00  0.00     0.040 A 
ATOM     80  F   UNL A   1      39.475  28.158  31.173  1.00  0.00    -0.206 F 
ATOM     81  C   UNL A   1      36.716  29.504  29.250  1.00  0.00     0.006 A 
ENDBRANCH  60  74
BRANCH  61  82
ATOM     82  C   UNL A   1      48.973  26.457  27.138  1.00  0.00     0.057 A 
ATOM     83  C   UNL A   1      49.843  25.962  28.115  1.00  0.00     0.134 A 
ATOM     84  C   UNL A   1      49.465  26.569  25.831  1.00  0.00     0.134 A 
ATOM     85  F   UNL A   1      49.435  25.846  29.387  1.00  0.00    -0.206 F 
ATOM     86  C   UNL A   1      51.154  25.595  27.806  1.00  0.00     0.040 A 
ATOM     87  C   UNL A   1      50.764  26.182  25.503  1.00  0.00     0.040 A 
ATOM     88  F   UNL A   1      48.676  27.026  24.848  1.00  0.00    -0.206 F 
ATOM     89  C   UNL A   1      51.614  25.695  26.494  1.00  0.00     0.006 A 
ENDBRANCH  61  82
BRANCH  73  90
ATOM     90  C   UNL A   1      45.809  32.258  29.389  1.00  0.00     0.057 A 
ATOM     91  C   UNL A   1      46.236  32.547  30.691  1.00  0.00     0.134 A 
ATOM     92  C   UNL A   1      45.920  33.277  28.434  1.00  0.00     0.134 A 
ATOM     93  F   UNL A   1      46.146  31.621  31.658  1.00  0.00    -0.206 F 
ATOM     94  C   UNL A   1      46.728  33.807  31.036  1.00  0.00     0.040 A 
ATOM     95  C   UNL A   1      46.440  34.531  28.758  1.00  0.00     0.040 A 
ATOM     96  F   UNL A   1      45.539  33.066  27.165  1.00  0.00    -0.206 F 
ATOM     97  C   UNL A   1      46.839  34.801  30.065  1.00  0.00     0.006 A 
ENDBRANCH  73  90
ENDBRANCH  47  48
ENDBRANCH  39  42
ENDBRANCH  37  38
ENDBRANCH  36  37
ENDBRANCH  35  36
ENDBRANCH   1  35
TORSDOF 17
ENDMDL
MODEL 2
REMARK VINA RESULT:     -12.8      0.726      5.794
REMARK SMILES NS(=O)(=O)c1ccc(-c2cc(Cl)cc3c2O[C@H](C(F)(F)F)C(C(=O)NCCCCCCNC(=O)c2ccc(-c4c5nc(c(-c6c(F)cccc6F)c6ccc([nH]6)c(-c6c(F)cccc6F)c6nc(c(-c7c(F)cccc7F)c7ccc4[nH]7)C=C6)C=C5)cc2)=C3)cc1
REMARK SMILES IDX 28 1 27 2 26 3 25 4 23 5 24 6 22 8 9 9 10 10 15 11 11 12
REMARK SMILES IDX 14 13 16 14 12 15 13 16 89 17 17 18 8 19 5 20 6 21 91 22
REMARK SMILES IDX 7 23 90 24 2 25 3 26 4 27 1 28 18 31 19 32 20 33 21 34 29 35
REMARK SMILES IDX 30 36 31 37 32 38 33 39 34 41 35 42 36 43 88 44 37 45 87 46
REMARK SMILES IDX 38 47 39 48 40 49 81 50 41 51 86 52 80 53 82 54 42 55 85 56
REMARK SMILES IDX 79 57 78 58 43 60 69 61 52 62 68 63 53 64 56 65 67 66 83 67
REMARK SMILES IDX 54 68 55 69 66 71 84 72 57 73 44 74 45 75 50 76 46 77 47 78
REMARK SMILES IDX 49 79 51 80 48 81 70 82 71 83 76 84 72 85 73 86 75 87 77 88
REMARK SMILES IDX 74 89 58 90 59 91 64 92 60 93 61 94 63 95 65 96 62 97
REMARK H PARENT 25 7 1 29 1 30 32 40 82 59 56 70
REMARK Flexibility Score: inf
ROOT
ATOM      1  C   UNL A   1      35.406  20.670  25.347  1.00  0.00     0.002 C 
ENDROOT
BRANCH   1   2
ATOM      2  C   UNL A   1      34.617  19.518  24.700  1.00  0.00     0.021 C 
BRANCH   2   3
ATOM      3  C   UNL A   1      33.114  19.787  24.523  1.00  0.00     0.116 C 
BRANCH   3   4
ATOM      4  N   UNL A   1      32.911  20.748  23.459  1.00  0.00    -0.352 N 
ATOM      5  C   UNL A   1      32.234  21.917  23.575  1.00  0.00     0.251 C 
ATOM      6  O   UNL A   1      31.369  22.207  22.757  1.00  0.00    -0.270 OA
ATOM      7  H   UNL A   1      33.296  20.535  22.579  1.00  0.00     0.163 HD
BRANCH   5   8
ATOM      8  C   UNL A   1      32.725  22.864  24.618  1.00  0.00     0.067 C 
ATOM      9  C   UNL A   1      31.153  26.291  23.107  1.00  0.00     0.026 A 
ATOM     10  C   UNL A   1      31.455  26.285  21.717  1.00  0.00     0.033 A 
ATOM     11  C   UNL A   1      31.851  25.353  23.894  1.00  0.00     0.135 A 
ATOM     12  C   UNL A   1      32.486  25.528  21.168  1.00  0.00     0.042 A 
ATOM     13  C   UNL A   1      32.977  24.689  23.336  1.00  0.00     0.019 A 
ATOM     14  O   UNL A   1      31.464  24.980  25.179  1.00  0.00    -0.475 OA
ATOM     15  Cl  UNL A   1      32.747  25.541  19.470  1.00  0.00    -0.084 Cl
ATOM     16  C   UNL A   1      33.306  24.783  21.988  1.00  0.00     0.032 A 
ATOM     17  C   UNL A   1      33.684  23.696  24.170  1.00  0.00     0.025 C 
ATOM     18  C   UNL A   1      31.649  23.520  25.466  1.00  0.00     0.314 C 
BRANCH   9  19
ATOM     19  C   UNL A   1      30.295  27.433  23.541  1.00  0.00    -0.015 A 
ATOM     20  C   UNL A   1      28.863  29.875  23.279  1.00  0.00     0.082 A 
ATOM     21  C   UNL A   1      28.210  28.665  23.058  1.00  0.00     0.022 A 
ATOM     22  C   UNL A   1      30.190  29.876  23.721  1.00  0.00     0.022 A 
ATOM     23  C   UNL A   1      28.916  27.458  23.214  1.00  0.00     0.010 A 
ATOM     24  C   UNL A   1      30.893  28.664  23.865  1.00  0.00     0.010 A 
BRANCH  20  25
ATOM     25  S   UNL A   1      28.089  31.427  22.906  1.00  0.00     0.238 S 
ATOM     26  O   UNL A   1      26.965  31.609  23.794  1.00  0.00    -0.207 OA
ATOM     27  O   UNL A   1      27.977  31.549  21.470  1.00  0.00    -0.207 OA
BRANCH  25  28
ATOM     28  N   UNL A   1      29.197  32.607  23.378  1.00  0.00    -0.225 NA
ATOM     29  H   UNL A   1      28.709  33.355  23.867  1.00  0.00     0.137 HD
ATOM     30  H   UNL A   1      29.661  32.985  22.552  1.00  0.00     0.137 HD
ENDBRANCH  25  28
ENDBRANCH  20  25
ENDBRANCH   9  19
BRANCH  18  31
ATOM     31  C   UNL A   1      32.004  23.239  26.947  1.00  0.00     0.429 C 
ATOM     32  F   UNL A   1      32.822  24.173  27.478  1.00  0.00    -0.167 F 
ATOM     33  F   UNL A   1      30.891  23.173  27.717  1.00  0.00    -0.167 F 
ATOM     34  F   UNL A   1      32.635  22.042  27.109  1.00  0.00    -0.167 F 
ENDBRANCH  18  31
ENDBRANCH   5   8
ENDBRANCH   3   4
ENDBRANCH   2   3
ENDBRANCH   1   2
BRANCH   1  35
ATOM     35  C   UNL A   1      36.735  21.002  24.663  1.00  0.00     0.002 C 
BRANCH  35  36
ATOM     36  C   UNL A   1      37.811  19.929  24.823  1.00  0.00     0.021 C 
BRANCH  36  37
ATOM     37  C   UNL A   1      38.929  20.300  25.790  1.00  0.00     0.116 C 
BRANCH  37  38
ATOM     38  N   UNL A   1      39.974  19.290  25.844  1.00  0.00    -0.352 N 
ATOM     39  C   UNL A   1      41.316  19.451  26.083  1.00  0.00     0.251 C 
ATOM     40  H   UNL A   1      39.679  18.364  25.686  1.00  0.00     0.163 HD
ATOM     41  O   UNL A   1      42.094  18.517  25.921  1.00  0.00    -0.269 OA
BRANCH  39  42
ATOM     42  C   UNL A   1      41.821  20.771  26.513  1.00  0.00     0.039 A 
ATOM     43  C   UNL A   1      42.217  21.691  25.541  1.00  0.00     0.014 A 
ATOM     44  C   UNL A   1      41.881  21.103  27.869  1.00  0.00     0.014 A 
ATOM     45  C   UNL A   1      42.620  22.968  25.928  1.00  0.00     0.010 A 
ATOM     46  C   UNL A   1      42.200  22.402  28.247  1.00  0.00     0.010 A 
ATOM     47  C   UNL A   1      42.581  23.346  27.281  1.00  0.00    -0.014 A 
BRANCH  47  48
ATOM     48  C   UNL A   1      42.931  24.726  27.701  1.00  0.00     0.031 A 
ATOM     49  C   UNL A   1      44.369  25.139  27.830  1.00  0.00     0.074 A 
ATOM     50  C   UNL A   1      41.950  25.586  28.033  1.00  0.00     0.049 A 
ATOM     51  N   UNL A   1      44.869  26.282  28.226  1.00  0.00    -0.248 NA
ATOM     52  C   UNL A   1      45.380  24.122  27.503  1.00  0.00     0.031 C 
ATOM     53  C   UNL A   1      40.517  25.284  28.011  1.00  0.00     0.029 A 
ATOM     54  N   UNL A   1      42.009  26.886  28.469  1.00  0.00    -0.354 N 
ATOM     55  C   UNL A   1      46.247  26.116  28.210  1.00  0.00     0.074 A 
ATOM     56  C   UNL A   1      46.502  24.744  27.827  1.00  0.00     0.031 C 
ATOM     57  C   UNL A   1      39.834  26.372  28.395  1.00  0.00     0.029 A 
ATOM     58  C   UNL A   1      40.778  27.434  28.730  1.00  0.00     0.049 A 
ATOM     59  H   UNL A   1      42.854  27.378  28.582  1.00  0.00     0.167 HD
ATOM     60  C   UNL A   1      47.213  27.029  28.471  1.00  0.00     0.037 A 
ATOM     61  C   UNL A   1      40.445  28.651  29.199  1.00  0.00     0.037 A 
ATOM     62  C   UNL A   1      46.951  28.395  28.842  1.00  0.00     0.049 A 
ATOM     63  C   UNL A   1      41.529  29.652  29.482  1.00  0.00     0.074 A 
ATOM     64  C   UNL A   1      47.856  29.421  29.052  1.00  0.00     0.029 A 
ATOM     65  N   UNL A   1      45.689  28.922  29.078  1.00  0.00    -0.354 N 
ATOM     66  N   UNL A   1      42.828  29.512  29.374  1.00  0.00    -0.248 NA
ATOM     67  C   UNL A   1      41.102  30.980  29.941  1.00  0.00     0.031 C 
ATOM     68  C   UNL A   1      47.146  30.548  29.480  1.00  0.00     0.029 A 
ATOM     69  C   UNL A   1      45.794  30.247  29.470  1.00  0.00     0.049 A 
ATOM     70  H   UNL A   1      44.843  28.427  28.981  1.00  0.00     0.167 HD
ATOM     71  C   UNL A   1      43.375  30.739  29.732  1.00  0.00     0.074 A 
ATOM     72  C   UNL A   1      42.262  31.614  30.043  1.00  0.00     0.031 C 
ATOM     73  C   UNL A   1      44.679  31.106  29.792  1.00  0.00     0.037 A 
BRANCH  60  74
ATOM     74  C   UNL A   1      48.641  26.563  28.381  1.00  0.00     0.057 A 
ATOM     75  C   UNL A   1      49.365  26.596  27.180  1.00  0.00     0.134 A 
ATOM     76  C   UNL A   1      49.300  26.067  29.513  1.00  0.00     0.134 A 
ATOM     77  F   UNL A   1      48.793  27.051  26.054  1.00  0.00    -0.206 F 
ATOM     78  C   UNL A   1      50.670  26.107  27.097  1.00  0.00     0.040 A 
ATOM     79  C   UNL A   1      50.618  25.609  29.451  1.00  0.00     0.040 A 
ATOM     80  F   UNL A   1      48.675  26.014  30.699  1.00  0.00    -0.206 F 
ATOM     81  C   UNL A   1      51.301  25.615  28.237  1.00  0.00     0.006 A 
ENDBRANCH  60  74
BRANCH  61  82
ATOM     82  C   UNL A   1      39.013  28.982  29.411  1.00  0.00     0.057 A 
ATOM     83  C   UNL A   1      38.398  28.786  30.651  1.00  0.00     0.134 A 
ATOM     84  C   UNL A   1      38.239  29.543  28.387  1.00  0.00     0.134 A 
ATOM     85  F   UNL A   1      39.082  28.238  31.665  1.00  0.00    -0.206 F 
ATOM     86  C   UNL A   1      37.063  29.132  30.867  1.00  0.00     0.040 A 
ATOM     87  C   UNL A   1      36.912  29.918  28.595  1.00  0.00     0.040 A 
ATOM     88  F   UNL A   1      38.775  29.767  27.178  1.00  0.00    -0.206 F 
ATOM     89  C   UNL A   1      36.319  29.710  29.838  1.00  0.00     0.006 A 
ENDBRANCH  61  82
BRANCH  73  90
ATOM     90  C   UNL A   1      44.977  32.523  30.192  1.00  0.00     0.057 A 
ATOM     91  C   UNL A   1      45.220  32.884  31.524  1.00  0.00     0.134 A 
ATOM     92  C   UNL A   1      45.064  33.533  29.225  1.00  0.00     0.134 A 
ATOM     93  F   UNL A   1      45.142  31.969  32.502  1.00  0.00    -0.206 F 
ATOM     94  C   UNL A   1      45.513  34.202  31.882  1.00  0.00     0.040 A 
ATOM     95  C   UNL A   1      45.386  34.848  29.566  1.00  0.00     0.040 A 
ATOM     96  F   UNL A   1      44.852  33.256  27.929  1.00  0.00    -0.206 F 
ATOM     97  C   UNL A   1      45.605  35.186  30.899  1.00  0.00     0.006 A 
ENDBRANCH  73  90
ENDBRANCH  47  48
ENDBRANCH  39  42
ENDBRANCH  37  38
ENDBRANCH  36  37
ENDBRANCH  35  36
ENDBRANCH   1  35
TORSDOF 17
ENDMDL
MODEL 3
REMARK VINA RESULT:     -12.7      4.605      9.303
REMARK SMILES NS(=O)(=O)c1ccc(-c2cc(Cl)cc3c2O[C@H](C(F)(F)F)C(C(=O)NCCCCCCNC(=O)c2ccc(-c4c5nc(c(-c6c(F)cccc6F)c6ccc([nH]6)c(-c6c(F)cccc6F)c6nc(c(-c7c(F)cccc7F)c7ccc4[nH]7)C=C6)C=C5)cc2)=C3)cc1
REMARK SMILES IDX 28 1 27 2 26 3 25 4 23 5 24 6 22 8 9 9 10 10 15 11 11 12
REMARK SMILES IDX 14 13 16 14 12 15 13 16 89 17 17 18 8 19 5 20 6 21 91 22
REMARK SMILES IDX 7 23 90 24 2 25 3 26 4 27 1 28 18 31 19 32 20 33 21 34 29 35
REMARK SMILES IDX 30 36 31 37 32 38 33 39 34 41 35 42 36 43 88 44 37 45 87 46
REMARK SMILES IDX 38 47 39 48 40 49 81 50 41 51 86 52 80 53 82 54 42 55 85 56
REMARK SMILES IDX 79 57 78 58 43 60 69 61 52 62 68 63 53 64 56 65 67 66 83 67
REMARK SMILES IDX 54 68 55 69 66 71 84 72 57 73 44 74 45 75 50 76 46 77 47 78
REMARK SMILES IDX 49 79 51 80 48 81 70 82 71 83 76 84 72 85 73 86 75 87 77 88
REMARK SMILES IDX 74 89 58 90 59 91 64 92 60 93 61 94 63 95 65 96 62 97
REMARK H PARENT 25 7 1 29 1 30 32 40 82 59 56 70
REMARK Flexibility Score: inf
ROOT
ATOM      1  C   UNL A   1      30.104  29.197  23.782  1.00  0.00     0.002 C 
ENDROOT
BRANCH   1   2
ATOM      2  C   UNL A   1      30.210  27.728  23.337  1.00  0.00     0.021 C 
BRANCH   2   3
ATOM      3  C   UNL A   1      29.577  26.716  24.304  1.00  0.00     0.116 C 
BRANCH   3   4
ATOM      4  N   UNL A   1      30.168  25.409  24.101  1.00  0.00    -0.352 N 
ATOM      5  C   UNL A   1      31.497  25.141  24.092  1.00  0.00     0.251 C 
ATOM      6  O   UNL A   1      31.984  24.490  23.176  1.00  0.00    -0.270 OA
ATOM      7  H   UNL A   1      29.555  24.653  23.958  1.00  0.00     0.163 HD
BRANCH   5   8
ATOM      8  C   UNL A   1      32.256  25.524  25.318  1.00  0.00     0.067 C 
ATOM      9  C   UNL A   1      35.174  22.705  25.124  1.00  0.00     0.026 A 
ATOM     10  C   UNL A   1      34.517  21.474  24.849  1.00  0.00     0.033 A 
ATOM     11  C   UNL A   1      34.345  23.771  25.529  1.00  0.00     0.135 A 
ATOM     12  C   UNL A   1      33.167  21.260  25.113  1.00  0.00     0.042 A 
ATOM     13  C   UNL A   1      33.005  23.493  25.909  1.00  0.00     0.019 A 
ATOM     14  O   UNL A   1      34.740  25.106  25.518  1.00  0.00    -0.475 OA
ATOM     15  Cl  UNL A   1      32.442  19.758  24.702  1.00  0.00    -0.084 Cl
ATOM     16  C   UNL A   1      32.418  22.246  25.719  1.00  0.00     0.032 A 
ATOM     17  C   UNL A   1      32.146  24.625  26.314  1.00  0.00     0.025 C 
ATOM     18  C   UNL A   1      33.661  26.052  25.081  1.00  0.00     0.314 C 
BRANCH   9  19
ATOM     19  C   UNL A   1      36.664  22.612  25.138  1.00  0.00    -0.015 A 
ATOM     20  C   UNL A   1      39.234  21.961  26.164  1.00  0.00     0.082 A 
ATOM     21  C   UNL A   1      38.569  21.055  25.341  1.00  0.00     0.022 A 
ATOM     22  C   UNL A   1      38.675  23.221  26.402  1.00  0.00     0.022 A 
ATOM     23  C   UNL A   1      37.310  21.393  24.814  1.00  0.00     0.010 A 
ATOM     24  C   UNL A   1      37.409  23.548  25.880  1.00  0.00     0.010 A 
BRANCH  20  25
ATOM     25  S   UNL A   1      40.725  21.515  27.017  1.00  0.00     0.238 S 
ATOM     26  O   UNL A   1      40.621  20.140  27.442  1.00  0.00    -0.207 OA
ATOM     27  O   UNL A   1      41.073  22.588  27.920  1.00  0.00    -0.207 OA
BRANCH  25  28
ATOM     28  N   UNL A   1      41.930  21.505  25.838  1.00  0.00    -0.225 NA
ATOM     29  H   UNL A   1      42.208  22.462  25.627  1.00  0.00     0.137 HD
ATOM     30  H   UNL A   1      41.574  21.059  24.992  1.00  0.00     0.137 HD
ENDBRANCH  25  28
ENDBRANCH  20  25
ENDBRANCH   9  19
BRANCH  18  31
ATOM     31  C   UNL A   1      33.752  27.431  25.778  1.00  0.00     0.429 C 
ATOM     32  F   UNL A   1      34.030  28.437  24.921  1.00  0.00    -0.167 F 
ATOM     33  F   UNL A   1      32.599  27.737  26.420  1.00  0.00    -0.167 F 
ATOM     34  F   UNL A   1      34.725  27.464  26.733  1.00  0.00    -0.167 F 
ENDBRANCH  18  31
ENDBRANCH   5   8
ENDBRANCH   3   4
ENDBRANCH   2   3
ENDBRANCH   1   2
BRANCH   1  35
ATOM     35  C   UNL A   1      31.250  29.684  24.673  1.00  0.00     0.002 C 
BRANCH  35  36
ATOM     36  C   UNL A   1      30.949  30.971  25.439  1.00  0.00     0.021 C 
BRANCH  36  37
ATOM     37  C   UNL A   1      31.989  31.331  26.494  1.00  0.00     0.116 C 
BRANCH  37  38
ATOM     38  N   UNL A   1      31.965  32.744  26.838  1.00  0.00    -0.352 N 
ATOM     39  C   UNL A   1      32.811  33.445  27.659  1.00  0.00     0.251 C 
ATOM     40  H   UNL A   1      31.241  33.269  26.426  1.00  0.00     0.163 HD
ATOM     41  O   UNL A   1      32.550  34.599  27.984  1.00  0.00    -0.269 OA
BRANCH  39  42
ATOM     42  C   UNL A   1      34.030  32.788  28.173  1.00  0.00     0.039 A 
ATOM     43  C   UNL A   1      35.184  33.554  28.353  1.00  0.00     0.014 A 
ATOM     44  C   UNL A   1      34.025  31.428  28.495  1.00  0.00     0.014 A 
ATOM     45  C   UNL A   1      36.318  32.965  28.912  1.00  0.00     0.010 A 
ATOM     46  C   UNL A   1      35.127  30.866  29.129  1.00  0.00     0.010 A 
ATOM     47  C   UNL A   1      36.287  31.627  29.338  1.00  0.00    -0.014 A 
BRANCH  47  48
ATOM     48  C   UNL A   1      37.459  31.009  30.007  1.00  0.00     0.031 A 
ATOM     49  C   UNL A   1      37.765  31.321  31.443  1.00  0.00     0.074 A 
ATOM     50  C   UNL A   1      38.289  30.221  29.296  1.00  0.00     0.049 A 
ATOM     51  N   UNL A   1      38.765  30.914  32.183  1.00  0.00    -0.248 NA
ATOM     52  C   UNL A   1      36.842  32.236  32.132  1.00  0.00     0.031 C 
ATOM     53  C   UNL A   1      38.135  29.895  27.877  1.00  0.00     0.029 A 
ATOM     54  N   UNL A   1      39.433  29.563  29.668  1.00  0.00    -0.354 N 
ATOM     55  C   UNL A   1      38.601  31.536  33.414  1.00  0.00     0.074 A 
ATOM     56  C   UNL A   1      37.440  32.393  33.301  1.00  0.00     0.031 C 
ATOM     57  C   UNL A   1      39.135  29.084  27.504  1.00  0.00     0.029 A 
ATOM     58  C   UNL A   1      40.022  28.865  28.643  1.00  0.00     0.049 A 
ATOM     59  H   UNL A   1      39.797  29.588  30.582  1.00  0.00     0.167 HD
ATOM     60  C   UNL A   1      39.336  31.389  34.542  1.00  0.00     0.037 A 
ATOM     61  C   UNL A   1      41.157  28.141  28.617  1.00  0.00     0.037 A 
ATOM     62  C   UNL A   1      40.484  30.526  34.649  1.00  0.00     0.049 A 
ATOM     63  C   UNL A   1      41.960  27.988  29.877  1.00  0.00     0.074 A 
ATOM     64  C   UNL A   1      41.251  30.246  35.765  1.00  0.00     0.029 A 
ATOM     65  N   UNL A   1      41.041  29.817  33.594  1.00  0.00    -0.354 N 
ATOM     66  N   UNL A   1      41.742  28.506  31.062  1.00  0.00    -0.248 NA
ATOM     67  C   UNL A   1      43.158  27.142  29.801  1.00  0.00     0.031 C 
ATOM     68  C   UNL A   1      42.311  29.422  35.370  1.00  0.00     0.029 A 
ATOM     69  C   UNL A   1      42.165  29.132  34.023  1.00  0.00     0.049 A 
ATOM     70  H   UNL A   1      40.688  29.804  32.674  1.00  0.00     0.167 HD
ATOM     71  C   UNL A   1      42.763  28.035  31.878  1.00  0.00     0.074 A 
ATOM     72  C   UNL A   1      43.590  27.176  31.054  1.00  0.00     0.031 C 
ATOM     73  C   UNL A   1      42.990  28.289  33.191  1.00  0.00     0.037 A 
BRANCH  60  74
ATOM     74  C   UNL A   1      38.926  32.200  35.740  1.00  0.00     0.057 A 
ATOM     75  C   UNL A   1      38.135  31.669  36.769  1.00  0.00     0.134 A 
ATOM     76  C   UNL A   1      39.322  33.538  35.863  1.00  0.00     0.134 A 
ATOM     77  F   UNL A   1      37.710  30.396  36.713  1.00  0.00    -0.206 F 
ATOM     78  C   UNL A   1      37.712  32.449  37.847  1.00  0.00     0.040 A 
ATOM     79  C   UNL A   1      38.937  34.319  36.955  1.00  0.00     0.040 A 
ATOM     80  F   UNL A   1      40.088  34.113  34.924  1.00  0.00    -0.206 F 
ATOM     81  C   UNL A   1      38.117  33.778  37.944  1.00  0.00     0.006 A 
ENDBRANCH  60  74
BRANCH  61  82
ATOM     82  C   UNL A   1      41.579  27.496  27.348  1.00  0.00     0.057 A 
ATOM     83  C   UNL A   1      42.400  28.163  26.433  1.00  0.00     0.134 A 
ATOM     84  C   UNL A   1      41.207  26.180  27.044  1.00  0.00     0.134 A 
ATOM     85  F   UNL A   1      42.776  29.429  26.660  1.00  0.00    -0.206 F 
ATOM     86  C   UNL A   1      42.832  27.548  25.256  1.00  0.00     0.040 A 
ATOM     87  C   UNL A   1      41.653  25.544  25.885  1.00  0.00     0.040 A 
ATOM     88  F   UNL A   1      40.432  25.483  27.887  1.00  0.00    -0.206 F 
ATOM     89  C   UNL A   1      42.466  26.229  24.986  1.00  0.00     0.006 A 
ENDBRANCH  61  82
BRANCH  73  90
ATOM     90  C   UNL A   1      44.172  27.614  33.828  1.00  0.00     0.057 A 
ATOM     91  C   UNL A   1      44.090  26.324  34.367  1.00  0.00     0.134 A 
ATOM     92  C   UNL A   1      45.420  28.249  33.865  1.00  0.00     0.134 A 
ATOM     93  F   UNL A   1      42.922  25.663  34.376  1.00  0.00    -0.206 F 
ATOM     94  C   UNL A   1      45.199  25.700  34.942  1.00  0.00     0.040 A 
ATOM     95  C   UNL A   1      46.544  27.625  34.408  1.00  0.00     0.040 A 
ATOM     96  F   UNL A   1      45.573  29.482  33.358  1.00  0.00    -0.206 F 
ATOM     97  C   UNL A   1      46.433  26.348  34.955  1.00  0.00     0.006 A 
ENDBRANCH  73  90
ENDBRANCH  47  48
ENDBRANCH  39  42
ENDBRANCH  37  38
ENDBRANCH  36  37
ENDBRANCH  35  36
ENDBRANCH   1  35
TORSDOF 17
ENDMDL
