MODEL 1
REMARK VINA RESULT:     -10.3      0.000      0.000
REMARK SMILES CC[NH2+]CCC(=O)NC1(CC(=O)NCCCCCCNC(=O)c2ccc(-c3c4nc(c(-c5c(F)cccc5F)c5ccc([nH]5)c(-c5c(F)cccc5F)c5nc(c(-c6c(F)cccc6F)c6ccc3[nH]6)C=C5)C=C4)cc2)CCC1
REMARK SMILES IDX 14 1 13 2 11 3 12 4 10 6 9 7 77 8 79 9 78 10 8 11 6 12 7 13
REMARK SMILES IDX 5 15 4 16 3 17 2 20 1 21 15 22 16 23 17 24 18 25 19 26 20 27
REMARK SMILES IDX 21 28 22 30 23 31 24 32 76 33 25 34 75 35 26 36 27 37 28 38
REMARK SMILES IDX 69 39 29 40 74 41 68 42 70 43 30 44 73 45 67 46 66 47 31 49
REMARK SMILES IDX 57 50 40 51 56 52 41 53 44 54 55 55 71 56 42 57 43 58 54 60
REMARK SMILES IDX 72 61 45 62 32 63 33 64 38 65 34 66 35 67 37 68 39 69 36 70
REMARK SMILES IDX 58 71 59 72 64 73 60 74 61 75 63 76 65 77 62 78 46 79 47 80
REMARK SMILES IDX 52 81 48 82 49 83 51 84 53 85 50 86
REMARK H PARENT 13 5 8 14 3 18 3 19 20 29 70 48 44 59
REMARK Flexibility Score: inf
ROOT
ATOM      1  C   UNL A   1      32.114  27.798  22.482  1.00  0.00     0.116 C 
ENDROOT
BRANCH   1   2
ATOM      2  N   UNL A   1      32.067  26.708  21.547  1.00  0.00    -0.356 N 
ATOM      3  C   UNL A   1      32.670  25.513  21.809  1.00  0.00     0.222 C 
ATOM      4  O   UNL A   1      33.277  24.945  20.907  1.00  0.00    -0.275 OA
ATOM      5  H   UNL A   1      31.587  26.826  20.696  1.00  0.00     0.163 HD
BRANCH   3   6
ATOM      6  C   UNL A   1      32.410  24.921  23.170  1.00  0.00     0.128 C 
BRANCH   6   7
ATOM      7  C   UNL A   1      33.562  24.493  24.051  1.00  0.00     0.049 C 
ATOM      8  C   UNL A   1      33.242  23.839  25.458  1.00  0.00     0.029 C 
ATOM      9  C   UNL A   1      34.153  25.667  24.912  1.00  0.00     0.029 C 
ATOM     10  C   UNL A   1      33.205  25.246  26.055  1.00  0.00     0.005 C 
BRANCH   7  11
ATOM     11  N   UNL A   1      34.553  23.643  23.363  1.00  0.00    -0.350 N 
ATOM     12  C   UNL A   1      35.856  23.328  23.654  1.00  0.00     0.226 C 
ATOM     13  O   UNL A   1      36.541  22.951  22.694  1.00  0.00    -0.275 OA
ATOM     14  H   UNL A   1      34.215  23.222  22.539  1.00  0.00     0.164 HD
BRANCH  12  15
ATOM     15  C   UNL A   1      36.440  23.275  25.070  1.00  0.00     0.161 C 
BRANCH  15  16
ATOM     16  C   UNL A   1      37.497  22.266  25.576  1.00  0.00     0.270 C 
BRANCH  16  17
ATOM     17  N   UNL A   1      38.630  22.653  26.421  1.00  0.00    -0.346 N 
ATOM     18  H   UNL A   1      38.941  23.578  26.125  1.00  0.00     0.346 HD
ATOM     19  H   UNL A   1      38.283  22.619  27.380  1.00  0.00     0.346 HD
BRANCH  17  20
ATOM     20  C   UNL A   1      39.791  21.757  26.388  1.00  0.00     0.257 C 
ATOM     21  C   UNL A   1      40.678  21.936  27.623  1.00  0.00     0.071 C 
ENDBRANCH  17  20
ENDBRANCH  16  17
ENDBRANCH  15  16
ENDBRANCH  12  15
ENDBRANCH   7  11
ENDBRANCH   6   7
ENDBRANCH   3   6
ENDBRANCH   1   2
BRANCH   1  22
ATOM     22  C   UNL A   1      30.718  28.405  22.568  1.00  0.00     0.021 C 
BRANCH  22  23
ATOM     23  C   UNL A   1      30.472  29.180  23.862  1.00  0.00     0.002 C 
BRANCH  23  24
ATOM     24  C   UNL A   1      31.402  28.787  25.010  1.00  0.00     0.002 C 
BRANCH  24  25
ATOM     25  C   UNL A   1      32.380  29.884  25.430  1.00  0.00     0.021 C 
BRANCH  25  26
ATOM     26  C   UNL A   1      32.133  30.423  26.828  1.00  0.00     0.116 C 
BRANCH  26  27
ATOM     27  N   UNL A   1      32.083  31.870  26.829  1.00  0.00    -0.352 N 
ATOM     28  C   UNL A   1      32.908  32.727  27.488  1.00  0.00     0.251 C 
ATOM     29  H   UNL A   1      31.370  32.282  26.288  1.00  0.00     0.163 HD
ATOM     30  O   UNL A   1      32.593  33.914  27.637  1.00  0.00    -0.269 OA
BRANCH  28  31
ATOM     31  C   UNL A   1      34.180  32.221  28.025  1.00  0.00     0.039 A 
ATOM     32  C   UNL A   1      34.278  30.877  28.374  1.00  0.00     0.014 A 
ATOM     33  C   UNL A   1      35.270  33.087  28.192  1.00  0.00     0.014 A 
ATOM     34  C   UNL A   1      35.470  30.401  28.911  1.00  0.00     0.010 A 
ATOM     35  C   UNL A   1      36.486  32.589  28.634  1.00  0.00     0.010 A 
ATOM     36  C   UNL A   1      36.578  31.255  29.049  1.00  0.00    -0.014 A 
BRANCH  36  37
ATOM     37  C   UNL A   1      37.805  30.781  29.724  1.00  0.00     0.031 A 
ATOM     38  C   UNL A   1      38.067  31.179  31.152  1.00  0.00     0.074 A 
ATOM     39  C   UNL A   1      38.670  29.995  29.059  1.00  0.00     0.049 A 
ATOM     40  N   UNL A   1      39.057  30.840  31.936  1.00  0.00    -0.248 NA
ATOM     41  C   UNL A   1      37.104  32.105  31.773  1.00  0.00     0.031 C 
ATOM     42  C   UNL A   1      38.540  29.588  27.658  1.00  0.00     0.029 A 
ATOM     43  N   UNL A   1      39.822  29.385  29.479  1.00  0.00    -0.354 N 
ATOM     44  C   UNL A   1      38.838  31.515  33.130  1.00  0.00     0.074 A 
ATOM     45  C   UNL A   1      37.667  32.340  32.947  1.00  0.00     0.031 C 
ATOM     46  C   UNL A   1      39.552  28.762  27.347  1.00  0.00     0.029 A 
ATOM     47  C   UNL A   1      40.411  28.603  28.517  1.00  0.00     0.049 A 
ATOM     48  H   UNL A   1      40.194  29.497  30.384  1.00  0.00     0.167 HD
ATOM     49  C   UNL A   1      39.531  31.428  34.290  1.00  0.00     0.037 A 
ATOM     50  C   UNL A   1      41.512  27.834  28.583  1.00  0.00     0.037 A 
ATOM     51  C   UNL A   1      40.679  30.580  34.473  1.00  0.00     0.049 A 
ATOM     52  C   UNL A   1      42.253  27.737  29.887  1.00  0.00     0.074 A 
ATOM     53  C   UNL A   1      41.432  30.381  35.614  1.00  0.00     0.029 A 
ATOM     54  N   UNL A   1      41.234  29.787  33.479  1.00  0.00    -0.354 N 
ATOM     55  N   UNL A   1      41.999  28.329  31.030  1.00  0.00    -0.248 NA
ATOM     56  C   UNL A   1      43.421  26.848  29.916  1.00  0.00     0.031 C 
ATOM     57  C   UNL A   1      42.470  29.496  35.301  1.00  0.00     0.029 A 
ATOM     58  C   UNL A   1      42.329  29.103  33.980  1.00  0.00     0.049 A 
ATOM     59  H   UNL A   1      40.900  29.720  32.556  1.00  0.00     0.167 HD
ATOM     60  C   UNL A   1      42.953  27.856  31.924  1.00  0.00     0.074 A 
ATOM     61  C   UNL A   1      43.778  26.919  31.190  1.00  0.00     0.031 C 
ATOM     62  C   UNL A   1      43.128  28.166  33.232  1.00  0.00     0.037 A 
BRANCH  49  63
ATOM     63  C   UNL A   1      39.056  32.264  35.443  1.00  0.00     0.057 A 
ATOM     64  C   UNL A   1      39.446  33.603  35.600  1.00  0.00     0.134 A 
ATOM     65  C   UNL A   1      38.189  31.731  36.405  1.00  0.00     0.134 A 
ATOM     66  F   UNL A   1      40.290  34.171  34.725  1.00  0.00    -0.206 F 
ATOM     67  C   UNL A   1      39.016  34.368  36.684  1.00  0.00     0.040 A 
ATOM     68  C   UNL A   1      37.728  32.497  37.478  1.00  0.00     0.040 A 
ATOM     69  F   UNL A   1      37.775  30.458  36.318  1.00  0.00    -0.206 F 
ATOM     70  C   UNL A   1      38.148  33.818  37.624  1.00  0.00     0.006 A 
ENDBRANCH  49  63
BRANCH  50  71
ATOM     71  C   UNL A   1      41.950  27.058  27.395  1.00  0.00     0.057 A 
ATOM     72  C   UNL A   1      42.900  27.573  26.505  1.00  0.00     0.134 A 
ATOM     73  C   UNL A   1      41.427  25.791  27.117  1.00  0.00     0.134 A 
ATOM     74  F   UNL A   1      43.430  28.789  26.711  1.00  0.00    -0.206 F 
ATOM     75  C   UNL A   1      43.293  26.869  25.365  1.00  0.00     0.040 A 
ATOM     76  C   UNL A   1      41.831  25.064  25.996  1.00  0.00     0.040 A 
ATOM     77  F   UNL A   1      40.524  25.235  27.938  1.00  0.00    -0.206 F 
ATOM     78  C   UNL A   1      42.759  25.607  25.111  1.00  0.00     0.006 A 
ENDBRANCH  50  71
BRANCH  62  79
ATOM     79  C   UNL A   1      44.224  27.443  33.962  1.00  0.00     0.057 A 
ATOM     80  C   UNL A   1      45.528  27.947  34.036  1.00  0.00     0.134 A 
ATOM     81  C   UNL A   1      43.959  26.231  34.612  1.00  0.00     0.134 A 
ATOM     82  F   UNL A   1      45.848  29.098  33.426  1.00  0.00    -0.206 F 
ATOM     83  C   UNL A   1      46.540  27.252  34.699  1.00  0.00     0.040 A 
ATOM     84  C   UNL A   1      44.955  25.543  35.304  1.00  0.00     0.040 A 
ATOM     85  F   UNL A   1      42.727  25.700  34.589  1.00  0.00    -0.206 F 
ATOM     86  C   UNL A   1      46.253  26.048  35.340  1.00  0.00     0.006 A 
ENDBRANCH  62  79
ENDBRANCH  36  37
ENDBRANCH  28  31
ENDBRANCH  26  27
ENDBRANCH  25  26
ENDBRANCH  24  25
ENDBRANCH  23  24
ENDBRANCH  22  23
ENDBRANCH   1  22
TORSDOF 19
ENDMDL
MODEL 2
REMARK VINA RESULT:     -10.3      1.775      2.847
REMARK SMILES CC[NH2+]CCC(=O)NC1(CC(=O)NCCCCCCNC(=O)c2ccc(-c3c4nc(c(-c5c(F)cccc5F)c5ccc([nH]5)c(-c5c(F)cccc5F)c5nc(c(-c6c(F)cccc6F)c6ccc3[nH]6)C=C5)C=C4)cc2)CCC1
REMARK SMILES IDX 14 1 13 2 11 3 12 4 10 6 9 7 77 8 79 9 78 10 8 11 6 12 7 13
REMARK SMILES IDX 5 15 4 16 3 17 2 20 1 21 15 22 16 23 17 24 18 25 19 26 20 27
REMARK SMILES IDX 21 28 22 30 23 31 24 32 76 33 25 34 75 35 26 36 27 37 28 38
REMARK SMILES IDX 69 39 29 40 74 41 68 42 70 43 30 44 73 45 67 46 66 47 31 49
REMARK SMILES IDX 57 50 40 51 56 52 41 53 44 54 55 55 71 56 42 57 43 58 54 60
REMARK SMILES IDX 72 61 45 62 32 63 33 64 38 65 34 66 35 67 37 68 39 69 36 70
REMARK SMILES IDX 58 71 59 72 64 73 60 74 61 75 63 76 65 77 62 78 46 79 47 80
REMARK SMILES IDX 52 81 48 82 49 83 51 84 53 85 50 86
REMARK H PARENT 13 5 8 14 3 18 3 19 20 29 70 48 44 59
REMARK Flexibility Score: inf
ROOT
ATOM      1  C   UNL A   1      34.000  27.849  26.537  1.00  0.00     0.116 C 
ENDROOT
BRANCH   1   2
ATOM      2  N   UNL A   1      32.910  27.256  25.812  1.00  0.00    -0.356 N 
ATOM      3  C   UNL A   1      33.025  26.033  25.221  1.00  0.00     0.222 C 
ATOM      4  O   UNL A   1      32.542  25.865  24.106  1.00  0.00    -0.275 OA
ATOM      5  H   UNL A   1      32.059  27.745  25.741  1.00  0.00     0.163 HD
BRANCH   3   6
ATOM      6  C   UNL A   1      33.622  24.939  26.067  1.00  0.00     0.128 C 
BRANCH   6   7
ATOM      7  C   UNL A   1      33.293  23.489  25.787  1.00  0.00     0.049 C 
ATOM      8  C   UNL A   1      31.896  22.918  26.267  1.00  0.00     0.029 C 
ATOM      9  C   UNL A   1      33.882  22.502  26.859  1.00  0.00     0.029 C 
ATOM     10  C   UNL A   1      32.540  22.595  27.615  1.00  0.00     0.005 C 
BRANCH   7  11
ATOM     11  N   UNL A   1      33.492  23.096  24.379  1.00  0.00    -0.350 N 
ATOM     12  C   UNL A   1      34.614  23.018  23.594  1.00  0.00     0.226 C 
ATOM     13  O   UNL A   1      34.417  23.070  22.373  1.00  0.00    -0.275 OA
ATOM     14  H   UNL A   1      32.662  22.841  23.914  1.00  0.00     0.164 HD
BRANCH  12  15
ATOM     15  C   UNL A   1      36.024  22.728  24.123  1.00  0.00     0.161 C 
BRANCH  15  16
ATOM     16  C   UNL A   1      36.900  23.701  24.944  1.00  0.00     0.270 C 
BRANCH  16  17
ATOM     17  N   UNL A   1      38.153  23.298  25.590  1.00  0.00    -0.346 N 
ATOM     18  H   UNL A   1      38.925  23.672  25.039  1.00  0.00     0.346 HD
ATOM     19  H   UNL A   1      38.104  23.666  26.540  1.00  0.00     0.346 HD
BRANCH  17  20
ATOM     20  C   UNL A   1      38.363  21.853  25.734  1.00  0.00     0.257 C 
ATOM     21  C   UNL A   1      39.702  21.543  26.410  1.00  0.00     0.071 C 
ENDBRANCH  17  20
ENDBRANCH  16  17
ENDBRANCH  15  16
ENDBRANCH  12  15
ENDBRANCH   7  11
ENDBRANCH   6   7
ENDBRANCH   3   6
ENDBRANCH   1   2
BRANCH   1  22
ATOM     22  C   UNL A   1      33.756  29.353  26.608  1.00  0.00     0.021 C 
BRANCH  22  23
ATOM     23  C   UNL A   1      32.329  29.716  27.019  1.00  0.00     0.002 C 
BRANCH  23  24
ATOM     24  C   UNL A   1      31.603  30.617  26.020  1.00  0.00     0.002 C 
BRANCH  24  25
ATOM     25  C   UNL A   1      31.402  32.054  26.500  1.00  0.00     0.021 C 
BRANCH  25  26
ATOM     26  C   UNL A   1      32.593  32.619  27.254  1.00  0.00     0.116 C 
BRANCH  26  27
ATOM     27  N   UNL A   1      32.389  34.016  27.579  1.00  0.00    -0.352 N 
ATOM     28  C   UNL A   1      32.990  34.733  28.565  1.00  0.00     0.251 C 
ATOM     29  H   UNL A   1      31.740  34.503  27.020  1.00  0.00     0.163 HD
ATOM     30  O   UNL A   1      32.529  35.825  28.920  1.00  0.00    -0.269 OA
BRANCH  28  31
ATOM     31  C   UNL A   1      34.197  34.190  29.208  1.00  0.00     0.039 A 
ATOM     32  C   UNL A   1      35.446  34.595  28.745  1.00  0.00     0.014 A 
ATOM     33  C   UNL A   1      34.083  33.272  30.261  1.00  0.00     0.014 A 
ATOM     34  C   UNL A   1      36.591  34.061  29.330  1.00  0.00     0.010 A 
ATOM     35  C   UNL A   1      35.224  32.819  30.907  1.00  0.00     0.010 A 
ATOM     36  C   UNL A   1      36.485  33.166  30.410  1.00  0.00    -0.014 A 
BRANCH  36  37
ATOM     37  C   UNL A   1      37.694  32.512  30.955  1.00  0.00     0.031 A 
ATOM     38  C   UNL A   1      38.282  33.002  32.251  1.00  0.00     0.074 A 
ATOM     39  C   UNL A   1      38.251  31.483  30.292  1.00  0.00     0.049 A 
ATOM     40  N   UNL A   1      39.309  32.543  32.919  1.00  0.00    -0.248 NA
ATOM     41  C   UNL A   1      37.649  34.182  32.866  1.00  0.00     0.031 C 
ATOM     42  C   UNL A   1      37.794  30.959  29.002  1.00  0.00     0.029 A 
ATOM     43  N   UNL A   1      39.315  30.685  30.619  1.00  0.00    -0.354 N 
ATOM     44  C   UNL A   1      39.446  33.381  34.018  1.00  0.00     0.074 A 
ATOM     45  C   UNL A   1      38.449  34.418  33.893  1.00  0.00     0.031 C 
ATOM     46  C   UNL A   1      38.548  29.899  28.669  1.00  0.00     0.029 A 
ATOM     47  C   UNL A   1      39.553  29.688  29.707  1.00  0.00     0.049 A 
ATOM     48  H   UNL A   1      39.858  30.814  31.431  1.00  0.00     0.167 HD
ATOM     49  C   UNL A   1      40.305  33.274  35.060  1.00  0.00     0.037 A 
ATOM     50  C   UNL A   1      40.473  28.706  29.719  1.00  0.00     0.037 A 
ATOM     51  C   UNL A   1      41.274  32.220  35.191  1.00  0.00     0.049 A 
ATOM     52  C   UNL A   1      41.401  28.597  30.896  1.00  0.00     0.074 A 
ATOM     53  C   UNL A   1      42.165  31.989  36.223  1.00  0.00     0.029 A 
ATOM     54  N   UNL A   1      41.473  31.216  34.254  1.00  0.00    -0.354 N 
ATOM     55  N   UNL A   1      41.480  29.357  31.963  1.00  0.00    -0.248 NA
ATOM     56  C   UNL A   1      42.355  27.481  30.881  1.00  0.00     0.031 C 
ATOM     57  C   UNL A   1      42.932  30.868  35.891  1.00  0.00     0.029 A 
ATOM     58  C   UNL A   1      42.482  30.368  34.680  1.00  0.00     0.049 A 
ATOM     59  H   UNL A   1      40.972  31.121  33.413  1.00  0.00     0.167 HD
ATOM     60  C   UNL A   1      42.465  28.789  32.763  1.00  0.00     0.074 A 
ATOM     61  C   UNL A   1      42.942  27.615  32.061  1.00  0.00     0.031 C 
ATOM     62  C   UNL A   1      42.930  29.199  33.969  1.00  0.00     0.037 A 
BRANCH  49  63
ATOM     63  C   UNL A   1      40.221  34.321  36.134  1.00  0.00     0.057 A 
ATOM     64  C   UNL A   1      39.364  34.185  37.237  1.00  0.00     0.134 A 
ATOM     65  C   UNL A   1      41.013  35.474  36.073  1.00  0.00     0.134 A 
ATOM     66  F   UNL A   1      38.564  33.114  37.348  1.00  0.00    -0.206 F 
ATOM     67  C   UNL A   1      39.278  35.170  38.221  1.00  0.00     0.040 A 
ATOM     68  C   UNL A   1      40.957  36.452  37.068  1.00  0.00     0.040 A 
ATOM     69  F   UNL A   1      41.854  35.669  35.047  1.00  0.00    -0.206 F 
ATOM     70  C   UNL A   1      40.081  36.305  38.142  1.00  0.00     0.006 A 
ENDBRANCH  49  63
BRANCH  50  71
ATOM     71  C   UNL A   1      40.527  27.723  28.607  1.00  0.00     0.057 A 
ATOM     72  C   UNL A   1      39.817  26.519  28.671  1.00  0.00     0.134 A 
ATOM     73  C   UNL A   1      41.294  27.960  27.461  1.00  0.00     0.134 A 
ATOM     74  F   UNL A   1      39.073  26.230  29.750  1.00  0.00    -0.206 F 
ATOM     75  C   UNL A   1      39.889  25.572  27.648  1.00  0.00     0.040 A 
ATOM     76  C   UNL A   1      41.354  27.034  26.419  1.00  0.00     0.040 A 
ATOM     77  F   UNL A   1      41.987  29.101  27.332  1.00  0.00    -0.206 F 
ATOM     78  C   UNL A   1      40.658  25.831  26.515  1.00  0.00     0.006 A 
ENDBRANCH  50  71
BRANCH  62  79
ATOM     79  C   UNL A   1      43.972  28.339  34.624  1.00  0.00     0.057 A 
ATOM     80  C   UNL A   1      43.636  27.242  35.425  1.00  0.00     0.134 A 
ATOM     81  C   UNL A   1      45.334  28.609  34.433  1.00  0.00     0.134 A 
ATOM     82  F   UNL A   1      42.350  26.936  35.656  1.00  0.00    -0.206 F 
ATOM     83  C   UNL A   1      44.616  26.465  36.045  1.00  0.00     0.040 A 
ATOM     84  C   UNL A   1      46.322  27.821  35.021  1.00  0.00     0.040 A 
ATOM     85  F   UNL A   1      45.724  29.639  33.666  1.00  0.00    -0.206 F 
ATOM     86  C   UNL A   1      45.965  26.752  35.840  1.00  0.00     0.006 A 
ENDBRANCH  62  79
ENDBRANCH  36  37
ENDBRANCH  28  31
ENDBRANCH  26  27
ENDBRANCH  25  26
ENDBRANCH  24  25
ENDBRANCH  23  24
ENDBRANCH  22  23
ENDBRANCH   1  22
TORSDOF 19
ENDMDL
MODEL 3
REMARK VINA RESULT:     -10.2      2.336      4.229
REMARK SMILES CC[NH2+]CCC(=O)NC1(CC(=O)NCCCCCCNC(=O)c2ccc(-c3c4nc(c(-c5c(F)cccc5F)c5ccc([nH]5)c(-c5c(F)cccc5F)c5nc(c(-c6c(F)cccc6F)c6ccc3[nH]6)C=C5)C=C4)cc2)CCC1
REMARK SMILES IDX 14 1 13 2 11 3 12 4 10 6 9 7 77 8 79 9 78 10 8 11 6 12 7 13
REMARK SMILES IDX 5 15 4 16 3 17 2 20 1 21 15 22 16 23 17 24 18 25 19 26 20 27
REMARK SMILES IDX 21 28 22 30 23 31 24 32 76 33 25 34 75 35 26 36 27 37 28 38
REMARK SMILES IDX 69 39 29 40 74 41 68 42 70 43 30 44 73 45 67 46 66 47 31 49
REMARK SMILES IDX 57 50 40 51 56 52 41 53 44 54 55 55 71 56 42 57 43 58 54 60
REMARK SMILES IDX 72 61 45 62 32 63 33 64 38 65 34 66 35 67 37 68 39 69 36 70
REMARK SMILES IDX 58 71 59 72 64 73 60 74 61 75 63 76 65 77 62 78 46 79 47 80
REMARK SMILES IDX 52 81 48 82 49 83 51 84 53 85 50 86
REMARK H PARENT 13 5 8 14 3 18 3 19 20 29 70 48 44 59
REMARK Flexibility Score: inf
ROOT
ATOM      1  C   UNL A   1      33.981  27.898  26.237  1.00  0.00     0.116 C 
ENDROOT
BRANCH   1   2
ATOM      2  N   UNL A   1      32.889  27.393  27.024  1.00  0.00    -0.356 N 
ATOM      3  C   UNL A   1      31.937  26.579  26.487  1.00  0.00     0.222 C 
ATOM      4  O   UNL A   1      30.763  26.756  26.794  1.00  0.00    -0.275 OA
ATOM      5  H   UNL A   1      32.827  27.642  27.974  1.00  0.00     0.163 HD
BRANCH   3   6
ATOM      6  C   UNL A   1      32.440  25.423  25.661  1.00  0.00     0.128 C 
BRANCH   6   7
ATOM      7  C   UNL A   1      32.015  25.272  24.217  1.00  0.00     0.049 C 
ATOM      8  C   UNL A   1      32.404  23.946  23.444  1.00  0.00     0.029 C 
ATOM      9  C   UNL A   1      33.003  25.959  23.206  1.00  0.00     0.029 C 
ATOM     10  C   UNL A   1      33.731  24.606  23.068  1.00  0.00     0.005 C 
BRANCH   7  11
ATOM     11  N   UNL A   1      30.581  25.535  23.988  1.00  0.00    -0.350 N 
ATOM     12  C   UNL A   1      29.911  26.632  23.511  1.00  0.00     0.226 C 
ATOM     13  O   UNL A   1      28.717  26.708  23.829  1.00  0.00    -0.275 OA
ATOM     14  H   UNL A   1      29.994  24.779  24.223  1.00  0.00     0.164 HD
BRANCH  12  15
ATOM     15  C   UNL A   1      30.499  27.646  22.522  1.00  0.00     0.161 C 
BRANCH  15  16
ATOM     16  C   UNL A   1      30.901  29.102  22.851  1.00  0.00     0.270 C 
BRANCH  16  17
ATOM     17  N   UNL A   1      29.944  30.212  22.861  1.00  0.00    -0.346 N 
ATOM     18  H   UNL A   1      29.249  30.021  23.583  1.00  0.00     0.346 HD
ATOM     19  H   UNL A   1      30.498  31.052  23.030  1.00  0.00     0.346 HD
BRANCH  17  20
ATOM     20  C   UNL A   1      29.230  30.455  21.603  1.00  0.00     0.257 C 
ATOM     21  C   UNL A   1      28.416  31.751  21.656  1.00  0.00     0.071 C 
ENDBRANCH  17  20
ENDBRANCH  16  17
ENDBRANCH  15  16
ENDBRANCH  12  15
ENDBRANCH   7  11
ENDBRANCH   6   7
ENDBRANCH   3   6
ENDBRANCH   1   2
BRANCH   1  22
ATOM     22  C   UNL A   1      33.622  29.309  25.783  1.00  0.00     0.021 C 
BRANCH  22  23
ATOM     23  C   UNL A   1      32.761  30.069  26.791  1.00  0.00     0.002 C 
BRANCH  23  24
ATOM     24  C   UNL A   1      31.546  30.763  26.176  1.00  0.00     0.002 C 
BRANCH  24  25
ATOM     25  C   UNL A   1      31.374  32.221  26.602  1.00  0.00     0.021 C 
BRANCH  25  26
ATOM     26  C   UNL A   1      32.593  32.805  27.294  1.00  0.00     0.116 C 
BRANCH  26  27
ATOM     27  N   UNL A   1      32.378  34.194  27.645  1.00  0.00    -0.352 N 
ATOM     28  C   UNL A   1      32.987  34.901  28.634  1.00  0.00     0.251 C 
ATOM     29  H   UNL A   1      31.715  34.682  27.105  1.00  0.00     0.163 HD
ATOM     30  O   UNL A   1      32.518  35.982  29.014  1.00  0.00    -0.269 OA
BRANCH  28  31
ATOM     31  C   UNL A   1      34.209  34.363  29.248  1.00  0.00     0.039 A 
ATOM     32  C   UNL A   1      35.436  34.616  28.641  1.00  0.00     0.014 A 
ATOM     33  C   UNL A   1      34.132  33.598  30.420  1.00  0.00     0.014 A 
ATOM     34  C   UNL A   1      36.593  34.083  29.202  1.00  0.00     0.010 A 
ATOM     35  C   UNL A   1      35.295  33.152  31.031  1.00  0.00     0.010 A 
ATOM     36  C   UNL A   1      36.527  33.344  30.396  1.00  0.00    -0.014 A 
BRANCH  36  37
ATOM     37  C   UNL A   1      37.737  32.682  30.930  1.00  0.00     0.031 A 
ATOM     38  C   UNL A   1      38.320  33.144  32.238  1.00  0.00     0.074 A 
ATOM     39  C   UNL A   1      38.300  31.671  30.245  1.00  0.00     0.049 A 
ATOM     40  N   UNL A   1      39.347  32.674  32.898  1.00  0.00    -0.248 NA
ATOM     41  C   UNL A   1      37.681  34.308  32.878  1.00  0.00     0.031 C 
ATOM     42  C   UNL A   1      37.848  31.175  28.942  1.00  0.00     0.029 A 
ATOM     43  N   UNL A   1      39.367  30.870  30.556  1.00  0.00    -0.354 N 
ATOM     44  C   UNL A   1      39.478  33.487  34.017  1.00  0.00     0.074 A 
ATOM     45  C   UNL A   1      38.478  34.523  33.912  1.00  0.00     0.031 C 
ATOM     46  C   UNL A   1      38.608  30.126  28.587  1.00  0.00     0.029 A 
ATOM     47  C   UNL A   1      39.611  29.895  29.622  1.00  0.00     0.049 A 
ATOM     48  H   UNL A   1      39.906  30.982  31.372  1.00  0.00     0.167 HD
ATOM     49  C   UNL A   1      40.334  33.360  35.058  1.00  0.00     0.037 A 
ATOM     50  C   UNL A   1      40.535  28.917  29.614  1.00  0.00     0.037 A 
ATOM     51  C   UNL A   1      41.308  32.307  35.167  1.00  0.00     0.049 A 
ATOM     52  C   UNL A   1      41.461  28.784  30.791  1.00  0.00     0.074 A 
ATOM     53  C   UNL A   1      42.197  32.056  36.196  1.00  0.00     0.029 A 
ATOM     54  N   UNL A   1      41.513  31.326  34.208  1.00  0.00    -0.354 N 
ATOM     55  N   UNL A   1      41.533  29.519  31.875  1.00  0.00    -0.248 NA
ATOM     56  C   UNL A   1      42.419  27.672  30.752  1.00  0.00     0.031 C 
ATOM     57  C   UNL A   1      42.970  30.945  35.841  1.00  0.00     0.029 A 
ATOM     58  C   UNL A   1      42.524  30.472  34.617  1.00  0.00     0.049 A 
ATOM     59  H   UNL A   1      41.015  31.248  33.364  1.00  0.00     0.167 HD
ATOM     60  C   UNL A   1      42.518  28.937  32.664  1.00  0.00     0.074 A 
ATOM     61  C   UNL A   1      43.002  27.782  31.937  1.00  0.00     0.031 C 
ATOM     62  C   UNL A   1      42.979  29.321  33.880  1.00  0.00     0.037 A 
BRANCH  49  63
ATOM     63  C   UNL A   1      40.243  34.381  36.155  1.00  0.00     0.057 A 
ATOM     64  C   UNL A   1      40.949  35.592  36.102  1.00  0.00     0.134 A 
ATOM     65  C   UNL A   1      39.432  34.158  37.275  1.00  0.00     0.134 A 
ATOM     66  F   UNL A   1      41.759  35.862  35.068  1.00  0.00    -0.206 F 
ATOM     67  C   UNL A   1      40.874  36.528  37.135  1.00  0.00     0.040 A 
ATOM     68  C   UNL A   1      39.326  35.101  38.300  1.00  0.00     0.040 A 
ATOM     69  F   UNL A   1      38.730  33.022  37.392  1.00  0.00    -0.206 F 
ATOM     70  C   UNL A   1      40.056  36.286  38.235  1.00  0.00     0.006 A 
ENDBRANCH  49  63
BRANCH  50  71
ATOM     71  C   UNL A   1      40.596  27.960  28.480  1.00  0.00     0.057 A 
ATOM     72  C   UNL A   1      41.375  28.228  27.348  1.00  0.00     0.134 A 
ATOM     73  C   UNL A   1      39.874  26.761  28.497  1.00  0.00     0.134 A 
ATOM     74  F   UNL A   1      42.079  29.368  27.267  1.00  0.00    -0.206 F 
ATOM     75  C   UNL A   1      41.411  27.354  26.261  1.00  0.00     0.040 A 
ATOM     76  C   UNL A   1      39.924  25.865  27.429  1.00  0.00     0.040 A 
ATOM     77  F   UNL A   1      39.121  26.438  29.558  1.00  0.00    -0.206 F 
ATOM     78  C   UNL A   1      40.686  26.165  26.302  1.00  0.00     0.006 A 
ENDBRANCH  50  71
BRANCH  62  79
ATOM     79  C   UNL A   1      44.023  28.450  34.518  1.00  0.00     0.057 A 
ATOM     80  C   UNL A   1      45.393  28.680  34.342  1.00  0.00     0.134 A 
ATOM     81  C   UNL A   1      43.645  27.375  35.333  1.00  0.00     0.134 A 
ATOM     82  F   UNL A   1      45.820  29.686  33.566  1.00  0.00    -0.206 F 
ATOM     83  C   UNL A   1      46.350  27.848  34.924  1.00  0.00     0.040 A 
ATOM     84  C   UNL A   1      44.593  26.556  35.945  1.00  0.00     0.040 A 
ATOM     85  F   UNL A   1      42.348  27.109  35.551  1.00  0.00    -0.206 F 
ATOM     86  C   UNL A   1      45.950  26.784  35.732  1.00  0.00     0.006 A 
ENDBRANCH  62  79
ENDBRANCH  36  37
ENDBRANCH  28  31
ENDBRANCH  26  27
ENDBRANCH  25  26
ENDBRANCH  24  25
ENDBRANCH  23  24
ENDBRANCH  22  23
ENDBRANCH   1  22
TORSDOF 19
ENDMDL
