MODEL 1
REMARK VINA RESULT:     -11.5      0.000      0.000
REMARK SMILES Cc1ccc(Br)cc1S(=O)(=O)N[C@H]1C=C[C@H](C(=O)NCCCCCCNC(=O)c2ccc(-c3c4nc(c(-c5c(F)cccc5F)c5ccc([nH]5)c(-c5c(F)cccc5F)c5nc(c(-c6c(F)cccc6F)c6ccc3[nH]6)C=C5)C=C4)cc2)C1
REMARK SMILES IDX 22 1 21 2 20 3 19 4 17 5 18 6 16 8 13 9 14 10 83 11 15 12
REMARK SMILES IDX 12 13 9 15 10 16 11 17 8 18 1 19 2 20 3 21 4 22 7 23 5 24
REMARK SMILES IDX 6 25 23 26 24 27 25 28 26 29 27 30 28 32 29 33 30 34 82 35
REMARK SMILES IDX 31 36 81 37 32 38 33 39 34 40 75 41 35 42 80 43 74 44 76 45
REMARK SMILES IDX 36 46 79 47 73 48 72 49 37 51 63 52 46 53 62 54 47 55 50 56
REMARK SMILES IDX 61 57 77 58 48 59 49 60 60 62 78 63 51 64 38 65 39 66 44 67
REMARK SMILES IDX 40 68 41 69 43 70 45 71 42 72 64 73 65 74 70 75 66 76 67 77
REMARK SMILES IDX 69 78 71 79 68 80 52 81 53 82 58 83 54 84 55 85 57 86 59 87
REMARK SMILES IDX 56 88
REMARK H PARENT 19 7 12 14 26 31 76 50 50 61
REMARK Flexibility Score: inf
ROOT
ATOM      1  C   UNL A   1      40.621  21.415  27.036  1.00  0.00     0.002 C 
ENDROOT
BRANCH   1   2
ATOM      2  C   UNL A   1      40.074  22.780  27.465  1.00  0.00     0.021 C 
BRANCH   2   3
ATOM      3  C   UNL A   1      39.014  23.333  26.517  1.00  0.00     0.116 C 
BRANCH   3   4
ATOM      4  N   UNL A   1      37.962  22.364  26.282  1.00  0.00    -0.356 N 
ATOM      5  C   UNL A   1      36.798  22.380  25.592  1.00  0.00     0.226 C 
ATOM      6  O   UNL A   1      36.070  21.391  25.753  1.00  0.00    -0.274 OA
ATOM      7  H   UNL A   1      38.134  21.501  26.721  1.00  0.00     0.163 HD
BRANCH   5   8
ATOM      8  C   UNL A   1      36.315  23.507  24.672  1.00  0.00     0.103 C 
ATOM      9  C   UNL A   1      33.942  24.040  24.434  1.00  0.00     0.093 C 
ATOM     10  C   UNL A   1      34.469  23.358  23.215  1.00  0.00    -0.011 C 
ATOM     11  C   UNL A   1      35.241  24.483  25.126  1.00  0.00     0.042 C 
ATOM     12  C   UNL A   1      35.756  23.015  23.368  1.00  0.00    -0.016 C 
BRANCH   9  13
ATOM     13  N   UNL A   1      33.135  25.188  24.088  1.00  0.00    -0.204 NA
ATOM     14  H   UNL A   1      33.748  26.003  24.126  1.00  0.00     0.142 HD
BRANCH  13  15
ATOM     15  S   UNL A   1      31.777  25.563  24.995  1.00  0.00     0.241 S 
ATOM     16  O   UNL A   1      32.073  25.169  26.361  1.00  0.00    -0.207 OA
ATOM     17  O   UNL A   1      30.637  25.037  24.289  1.00  0.00    -0.207 OA
BRANCH  15  18
ATOM     18  C   UNL A   1      31.654  27.344  24.957  1.00  0.00     0.086 A 
ATOM     19  C   UNL A   1      33.640  27.754  26.562  1.00  0.00     0.046 C 
ATOM     20  C   UNL A   1      32.468  28.193  25.730  1.00  0.00    -0.031 A 
ATOM     21  C   UNL A   1      32.198  29.576  25.705  1.00  0.00     0.006 A 
ATOM     22  C   UNL A   1      31.193  30.107  24.892  1.00  0.00     0.016 A 
ATOM     23  C   UNL A   1      30.660  27.884  24.120  1.00  0.00     0.037 A 
ATOM     24  C   UNL A   1      30.445  29.260  24.085  1.00  0.00     0.019 A 
ATOM     25  Br  UNL A   1      29.131  29.977  22.932  1.00  0.00    -0.051 Br
ENDBRANCH  15  18
ENDBRANCH  13  15
ENDBRANCH   9  13
ENDBRANCH   5   8
ENDBRANCH   3   4
ENDBRANCH   2   3
ENDBRANCH   1   2
BRANCH   1  26
ATOM     26  C   UNL A   1      42.140  21.253  27.174  1.00  0.00     0.002 C 
BRANCH  26  27
ATOM     27  C   UNL A   1      42.947  21.482  25.892  1.00  0.00     0.021 C 
BRANCH  27  28
ATOM     28  C   UNL A   1      42.734  22.840  25.231  1.00  0.00     0.116 C 
BRANCH  28  29
ATOM     29  N   UNL A   1      43.987  23.464  24.845  1.00  0.00    -0.352 N 
ATOM     30  C   UNL A   1      44.535  24.650  25.253  1.00  0.00     0.251 C 
ATOM     31  H   UNL A   1      44.524  22.957  24.194  1.00  0.00     0.163 HD
ATOM     32  O   UNL A   1      45.528  25.094  24.684  1.00  0.00    -0.269 OA
BRANCH  30  33
ATOM     33  C   UNL A   1      43.931  25.407  26.369  1.00  0.00     0.039 A 
ATOM     34  C   UNL A   1      44.140  26.788  26.427  1.00  0.00     0.014 A 
ATOM     35  C   UNL A   1      43.206  24.762  27.377  1.00  0.00     0.014 A 
ATOM     36  C   UNL A   1      43.595  27.528  27.478  1.00  0.00     0.010 A 
ATOM     37  C   UNL A   1      42.614  25.509  28.392  1.00  0.00     0.010 A 
ATOM     38  C   UNL A   1      42.817  26.895  28.461  1.00  0.00    -0.014 A 
BRANCH  38  39
ATOM     39  C   UNL A   1      42.241  27.672  29.584  1.00  0.00     0.031 A 
ATOM     40  C   UNL A   1      42.882  27.623  30.942  1.00  0.00     0.074 A 
ATOM     41  C   UNL A   1      41.122  28.394  29.388  1.00  0.00     0.049 A 
ATOM     42  N   UNL A   1      42.517  28.215  32.051  1.00  0.00    -0.248 NA
ATOM     43  C   UNL A   1      44.080  26.778  31.079  1.00  0.00     0.031 C 
ATOM     44  C   UNL A   1      40.381  28.483  28.130  1.00  0.00     0.029 A 
ATOM     45  N   UNL A   1      40.410  29.187  30.251  1.00  0.00    -0.354 N 
ATOM     46  C   UNL A   1      43.426  27.803  33.016  1.00  0.00     0.074 A 
ATOM     47  C   UNL A   1      44.334  26.876  32.375  1.00  0.00     0.031 C 
ATOM     48  C   UNL A   1      39.331  29.304  28.295  1.00  0.00     0.029 A 
ATOM     49  C   UNL A   1      39.313  29.778  29.675  1.00  0.00     0.049 A 
ATOM     50  H   UNL A   1      40.662  29.320  31.194  1.00  0.00     0.167 HD
ATOM     51  C   UNL A   1      43.512  28.180  34.314  1.00  0.00     0.037 A 
ATOM     52  C   UNL A   1      38.399  30.614  30.203  1.00  0.00     0.037 A 
ATOM     53  C   UNL A   1      42.628  29.125  34.943  1.00  0.00     0.049 A 
ATOM     54  C   UNL A   1      38.530  31.035  31.639  1.00  0.00     0.074 A 
ATOM     55  C   UNL A   1      42.669  29.620  36.235  1.00  0.00     0.029 A 
ATOM     56  N   UNL A   1      41.542  29.721  34.320  1.00  0.00    -0.354 N 
ATOM     57  N   UNL A   1      39.434  30.690  32.522  1.00  0.00    -0.248 NA
ATOM     58  C   UNL A   1      37.517  31.971  32.148  1.00  0.00     0.031 C 
ATOM     59  C   UNL A   1      41.589  30.493  36.403  1.00  0.00     0.029 A 
ATOM     60  C   UNL A   1      40.896  30.569  35.205  1.00  0.00     0.049 A 
ATOM     61  H   UNL A   1      41.270  29.564  33.387  1.00  0.00     0.167 HD
ATOM     62  C   UNL A   1      39.113  31.379  33.684  1.00  0.00     0.074 A 
ATOM     63  C   UNL A   1      37.940  32.177  33.387  1.00  0.00     0.031 C 
ATOM     64  C   UNL A   1      39.732  31.354  34.890  1.00  0.00     0.037 A 
BRANCH  51  65
ATOM     65  C   UNL A   1      44.608  27.570  35.137  1.00  0.00     0.057 A 
ATOM     66  C   UNL A   1      45.878  28.154  35.218  1.00  0.00     0.134 A 
ATOM     67  C   UNL A   1      44.386  26.399  35.871  1.00  0.00     0.134 A 
ATOM     68  F   UNL A   1      46.160  29.269  34.528  1.00  0.00    -0.206 F 
ATOM     69  C   UNL A   1      46.897  27.581  35.982  1.00  0.00     0.040 A 
ATOM     70  C   UNL A   1      45.390  25.828  36.656  1.00  0.00     0.040 A 
ATOM     71  F   UNL A   1      43.190  25.790  35.839  1.00  0.00    -0.206 F 
ATOM     72  C   UNL A   1      46.653  26.417  36.707  1.00  0.00     0.006 A 
ENDBRANCH  51  65
BRANCH  52  73
ATOM     73  C   UNL A   1      37.298  31.136  29.356  1.00  0.00     0.057 A 
ATOM     74  C   UNL A   1      36.194  30.338  29.040  1.00  0.00     0.134 A 
ATOM     75  C   UNL A   1      37.325  32.438  28.844  1.00  0.00     0.134 A 
ATOM     76  F   UNL A   1      36.124  29.075  29.488  1.00  0.00    -0.206 F 
ATOM     77  C   UNL A   1      35.160  30.809  28.229  1.00  0.00     0.040 A 
ATOM     78  C   UNL A   1      36.288  32.929  28.050  1.00  0.00     0.040 A 
ATOM     79  F   UNL A   1      38.354  33.253  29.119  1.00  0.00    -0.206 F 
ATOM     80  C   UNL A   1      35.205  32.111  27.736  1.00  0.00     0.006 A 
ENDBRANCH  52  73
BRANCH  64  81
ATOM     81  C   UNL A   1      39.163  32.229  35.964  1.00  0.00     0.057 A 
ATOM     82  C   UNL A   1      38.211  31.752  36.874  1.00  0.00     0.134 A 
ATOM     83  C   UNL A   1      39.590  33.556  36.107  1.00  0.00     0.134 A 
ATOM     84  F   UNL A   1      37.752  30.495  36.781  1.00  0.00    -0.206 F 
ATOM     85  C   UNL A   1      37.687  32.570  37.876  1.00  0.00     0.040 A 
ATOM     86  C   UNL A   1      39.089  34.377  37.118  1.00  0.00     0.040 A 
ATOM     87  F   UNL A   1      40.504  34.070  35.272  1.00  0.00    -0.206 F 
ATOM     88  C   UNL A   1      38.130  33.886  38.002  1.00  0.00     0.006 A 
ENDBRANCH  64  81
ENDBRANCH  38  39
ENDBRANCH  30  33
ENDBRANCH  28  29
ENDBRANCH  27  28
ENDBRANCH  26  27
ENDBRANCH   1  26
TORSDOF 16
ENDMDL
MODEL 2
REMARK VINA RESULT:     -11.4      3.625      8.840
REMARK SMILES Cc1ccc(Br)cc1S(=O)(=O)N[C@H]1C=C[C@H](C(=O)NCCCCCCNC(=O)c2ccc(-c3c4nc(c(-c5c(F)cccc5F)c5ccc([nH]5)c(-c5c(F)cccc5F)c5nc(c(-c6c(F)cccc6F)c6ccc3[nH]6)C=C5)C=C4)cc2)C1
REMARK SMILES IDX 22 1 21 2 20 3 19 4 17 5 18 6 16 8 13 9 14 10 83 11 15 12
REMARK SMILES IDX 12 13 9 15 10 16 11 17 8 18 1 19 2 20 3 21 4 22 7 23 5 24
REMARK SMILES IDX 6 25 23 26 24 27 25 28 26 29 27 30 28 32 29 33 30 34 82 35
REMARK SMILES IDX 31 36 81 37 32 38 33 39 34 40 75 41 35 42 80 43 74 44 76 45
REMARK SMILES IDX 36 46 79 47 73 48 72 49 37 51 63 52 46 53 62 54 47 55 50 56
REMARK SMILES IDX 61 57 77 58 48 59 49 60 60 62 78 63 51 64 38 65 39 66 44 67
REMARK SMILES IDX 40 68 41 69 43 70 45 71 42 72 64 73 65 74 70 75 66 76 67 77
REMARK SMILES IDX 69 78 71 79 68 80 52 81 53 82 58 83 54 84 55 85 57 86 59 87
REMARK SMILES IDX 56 88
REMARK H PARENT 19 7 12 14 26 31 76 50 50 61
REMARK Flexibility Score: inf
ROOT
ATOM      1  C   UNL A   1      33.488  28.992  26.939  1.00  0.00     0.002 C 
ENDROOT
BRANCH   1   2
ATOM      2  C   UNL A   1      32.158  28.838  26.196  1.00  0.00     0.021 C 
BRANCH   2   3
ATOM      3  C   UNL A   1      32.283  29.015  24.686  1.00  0.00     0.116 C 
BRANCH   3   4
ATOM      4  N   UNL A   1      31.084  29.601  24.124  1.00  0.00    -0.356 N 
ATOM      5  C   UNL A   1      30.052  29.125  23.389  1.00  0.00     0.226 C 
ATOM      6  O   UNL A   1      29.270  29.980  22.951  1.00  0.00    -0.274 OA
ATOM      7  H   UNL A   1      31.002  30.562  24.320  1.00  0.00     0.163 HD
BRANCH   5   8
ATOM      8  C   UNL A   1      29.796  27.652  23.051  1.00  0.00     0.103 C 
ATOM      9  C   UNL A   1      30.689  25.846  24.432  1.00  0.00     0.093 C 
ATOM     10  C   UNL A   1      31.421  25.949  23.135  1.00  0.00    -0.011 C 
ATOM     11  C   UNL A   1      29.417  26.655  24.134  1.00  0.00     0.042 C 
ATOM     12  C   UNL A   1      30.968  26.975  22.402  1.00  0.00    -0.016 C 
BRANCH   9  13
ATOM     13  N   UNL A   1      30.356  24.473  24.742  1.00  0.00    -0.204 NA
ATOM     14  H   UNL A   1      29.342  24.429  24.835  1.00  0.00     0.142 HD
BRANCH  13  15
ATOM     15  S   UNL A   1      30.998  23.743  26.106  1.00  0.00     0.241 S 
ATOM     16  O   UNL A   1      30.066  22.699  26.492  1.00  0.00    -0.207 OA
ATOM     17  O   UNL A   1      31.369  24.796  27.017  1.00  0.00    -0.207 OA
BRANCH  15  18
ATOM     18  C   UNL A   1      32.504  22.952  25.561  1.00  0.00     0.086 A 
ATOM     19  C   UNL A   1      33.951  25.092  25.675  1.00  0.00     0.046 C 
ATOM     20  C   UNL A   1      33.708  23.647  25.341  1.00  0.00    -0.031 A 
ATOM     21  C   UNL A   1      34.796  22.935  24.797  1.00  0.00     0.006 A 
ATOM     22  C   UNL A   1      34.713  21.565  24.537  1.00  0.00     0.016 A 
ATOM     23  C   UNL A   1      32.431  21.567  25.322  1.00  0.00     0.037 A 
ATOM     24  C   UNL A   1      33.538  20.883  24.825  1.00  0.00     0.019 A 
ATOM     25  Br  UNL A   1      33.441  19.018  24.540  1.00  0.00    -0.051 Br
ENDBRANCH  15  18
ENDBRANCH  13  15
ENDBRANCH   9  13
ENDBRANCH   5   8
ENDBRANCH   3   4
ENDBRANCH   2   3
ENDBRANCH   1   2
BRANCH   1  26
ATOM     26  C   UNL A   1      33.820  30.421  27.386  1.00  0.00     0.002 C 
BRANCH  26  27
ATOM     27  C   UNL A   1      32.621  31.365  27.521  1.00  0.00     0.021 C 
BRANCH  27  28
ATOM     28  C   UNL A   1      32.751  32.683  26.762  1.00  0.00     0.116 C 
BRANCH  28  29
ATOM     29  N   UNL A   1      32.452  33.829  27.602  1.00  0.00    -0.352 N 
ATOM     30  C   UNL A   1      33.122  34.310  28.695  1.00  0.00     0.251 C 
ATOM     31  H   UNL A   1      31.649  34.337  27.347  1.00  0.00     0.163 HD
ATOM     32  O   UNL A   1      32.620  35.195  29.381  1.00  0.00    -0.269 OA
BRANCH  30  33
ATOM     33  C   UNL A   1      34.444  33.762  29.061  1.00  0.00     0.039 A 
ATOM     34  C   UNL A   1      34.536  32.942  30.190  1.00  0.00     0.014 A 
ATOM     35  C   UNL A   1      35.594  34.088  28.334  1.00  0.00     0.014 A 
ATOM     36  C   UNL A   1      35.773  32.422  30.571  1.00  0.00     0.010 A 
ATOM     37  C   UNL A   1      36.818  33.521  28.680  1.00  0.00     0.010 A 
ATOM     38  C   UNL A   1      36.921  32.697  29.810  1.00  0.00    -0.014 A 
BRANCH  38  39
ATOM     39  C   UNL A   1      38.241  32.154  30.212  1.00  0.00     0.031 A 
ATOM     40  C   UNL A   1      38.721  30.846  29.649  1.00  0.00     0.074 A 
ATOM     41  C   UNL A   1      38.990  32.822  31.109  1.00  0.00     0.049 A 
ATOM     42  N   UNL A   1      39.833  30.199  29.892  1.00  0.00    -0.248 NA
ATOM     43  C   UNL A   1      37.823  30.161  28.706  1.00  0.00     0.031 C 
ATOM     44  C   UNL A   1      38.612  34.076  31.761  1.00  0.00     0.029 A 
ATOM     45  N   UNL A   1      40.226  32.535  31.629  1.00  0.00    -0.354 N 
ATOM     46  C   UNL A   1      39.761  29.030  29.147  1.00  0.00     0.074 A 
ATOM     47  C   UNL A   1      38.477  29.033  28.478  1.00  0.00     0.031 C 
ATOM     48  C   UNL A   1      39.605  34.463  32.578  1.00  0.00     0.029 A 
ATOM     49  C   UNL A   1      40.677  33.473  32.524  1.00  0.00     0.049 A 
ATOM     50  H   UNL A   1      40.741  31.733  31.383  1.00  0.00     0.167 HD
ATOM     51  C   UNL A   1      40.689  28.053  29.014  1.00  0.00     0.037 A 
ATOM     52  C   UNL A   1      41.829  33.529  33.218  1.00  0.00     0.037 A 
ATOM     53  C   UNL A   1      41.977  28.066  29.654  1.00  0.00     0.049 A 
ATOM     54  C   UNL A   1      42.852  32.445  33.034  1.00  0.00     0.074 A 
ATOM     55  C   UNL A   1      43.012  27.155  29.534  1.00  0.00     0.029 A 
ATOM     56  N   UNL A   1      42.407  29.046  30.535  1.00  0.00    -0.354 N 
ATOM     57  N   UNL A   1      42.798  31.379  32.274  1.00  0.00    -0.248 NA
ATOM     58  C   UNL A   1      44.101  32.578  33.798  1.00  0.00     0.031 C 
ATOM     59  C   UNL A   1      44.057  27.568  30.367  1.00  0.00     0.029 A 
ATOM     60  C   UNL A   1      43.686  28.755  30.979  1.00  0.00     0.049 A 
ATOM     61  H   UNL A   1      41.880  29.833  30.807  1.00  0.00     0.167 HD
ATOM     62  C   UNL A   1      44.010  30.723  32.451  1.00  0.00     0.074 A 
ATOM     63  C   UNL A   1      44.785  31.523  33.378  1.00  0.00     0.031 C 
ATOM     64  C   UNL A   1      44.441  29.563  31.899  1.00  0.00     0.037 A 
BRANCH  51  65
ATOM     65  C   UNL A   1      40.341  26.890  28.132  1.00  0.00     0.057 A 
ATOM     66  C   UNL A   1      40.845  26.777  26.830  1.00  0.00     0.134 A 
ATOM     67  C   UNL A   1      39.511  25.862  28.596  1.00  0.00     0.134 A 
ATOM     68  F   UNL A   1      41.634  27.735  26.321  1.00  0.00    -0.206 F 
ATOM     69  C   UNL A   1      40.515  25.695  26.012  1.00  0.00     0.040 A 
ATOM     70  C   UNL A   1      39.193  24.764  27.795  1.00  0.00     0.040 A 
ATOM     71  F   UNL A   1      38.997  25.907  29.835  1.00  0.00    -0.206 F 
ATOM     72  C   UNL A   1      39.690  24.682  26.495  1.00  0.00     0.006 A 
ENDBRANCH  51  65
BRANCH  52  73
ATOM     73  C   UNL A   1      42.091  34.674  34.124  1.00  0.00     0.057 A 
ATOM     74  C   UNL A   1      41.814  34.585  35.492  1.00  0.00     0.134 A 
ATOM     75  C   UNL A   1      42.620  35.878  33.647  1.00  0.00     0.134 A 
ATOM     76  F   UNL A   1      41.289  33.461  36.003  1.00  0.00    -0.206 F 
ATOM     77  C   UNL A   1      42.039  35.660  36.354  1.00  0.00     0.040 A 
ATOM     78  C   UNL A   1      42.869  36.953  34.501  1.00  0.00     0.040 A 
ATOM     79  F   UNL A   1      42.913  36.021  32.346  1.00  0.00    -0.206 F 
ATOM     80  C   UNL A   1      42.572  36.847  35.858  1.00  0.00     0.006 A 
ENDBRANCH  52  73
BRANCH  64  81
ATOM     81  C   UNL A   1      45.820  29.108  32.268  1.00  0.00     0.057 A 
ATOM     82  C   UNL A   1      46.048  28.261  33.361  1.00  0.00     0.134 A 
ATOM     83  C   UNL A   1      46.930  29.498  31.507  1.00  0.00     0.134 A 
ATOM     84  F   UNL A   1      45.028  27.865  34.136  1.00  0.00    -0.206 F 
ATOM     85  C   UNL A   1      47.333  27.837  33.697  1.00  0.00     0.040 A 
ATOM     86  C   UNL A   1      48.218  29.062  31.821  1.00  0.00     0.040 A 
ATOM     87  F   UNL A   1      46.778  30.302  30.444  1.00  0.00    -0.206 F 
ATOM     88  C   UNL A   1      48.422  28.234  32.923  1.00  0.00     0.006 A 
ENDBRANCH  64  81
ENDBRANCH  38  39
ENDBRANCH  30  33
ENDBRANCH  28  29
ENDBRANCH  27  28
ENDBRANCH  26  27
ENDBRANCH   1  26
TORSDOF 16
ENDMDL
MODEL 3
REMARK VINA RESULT:     -11.4      3.454      8.663
REMARK SMILES Cc1ccc(Br)cc1S(=O)(=O)N[C@H]1C=C[C@H](C(=O)NCCCCCCNC(=O)c2ccc(-c3c4nc(c(-c5c(F)cccc5F)c5ccc([nH]5)c(-c5c(F)cccc5F)c5nc(c(-c6c(F)cccc6F)c6ccc3[nH]6)C=C5)C=C4)cc2)C1
REMARK SMILES IDX 22 1 21 2 20 3 19 4 17 5 18 6 16 8 13 9 14 10 83 11 15 12
REMARK SMILES IDX 12 13 9 15 10 16 11 17 8 18 1 19 2 20 3 21 4 22 7 23 5 24
REMARK SMILES IDX 6 25 23 26 24 27 25 28 26 29 27 30 28 32 29 33 30 34 82 35
REMARK SMILES IDX 31 36 81 37 32 38 33 39 34 40 75 41 35 42 80 43 74 44 76 45
REMARK SMILES IDX 36 46 79 47 73 48 72 49 37 51 63 52 46 53 62 54 47 55 50 56
REMARK SMILES IDX 61 57 77 58 48 59 49 60 60 62 78 63 51 64 38 65 39 66 44 67
REMARK SMILES IDX 40 68 41 69 43 70 45 71 42 72 64 73 65 74 70 75 66 76 67 77
REMARK SMILES IDX 69 78 71 79 68 80 52 81 53 82 58 83 54 84 55 85 57 86 59 87
REMARK SMILES IDX 56 88
REMARK H PARENT 19 7 12 14 26 31 76 50 50 61
REMARK Flexibility Score: inf
ROOT
ATOM      1  C   UNL A   1      35.345  34.051  29.067  1.00  0.00     0.002 C 
ENDROOT
BRANCH   1   2
ATOM      2  C   UNL A   1      34.545  32.754  29.228  1.00  0.00     0.021 C 
BRANCH   2   3
ATOM      3  C   UNL A   1      34.768  31.760  28.092  1.00  0.00     0.116 C 
BRANCH   3   4
ATOM      4  N   UNL A   1      33.510  31.311  27.533  1.00  0.00    -0.356 N 
ATOM      5  C   UNL A   1      33.156  30.345  26.653  1.00  0.00     0.226 C 
ATOM      6  O   UNL A   1      31.972  30.362  26.290  1.00  0.00    -0.274 OA
ATOM      7  H   UNL A   1      32.740  31.823  27.867  1.00  0.00     0.163 HD
BRANCH   5   8
ATOM      8  C   UNL A   1      34.087  29.275  26.073  1.00  0.00     0.103 C 
ATOM      9  C   UNL A   1      33.217  27.328  24.880  1.00  0.00     0.093 C 
ATOM     10  C   UNL A   1      33.731  26.951  26.230  1.00  0.00    -0.011 C 
ATOM     11  C   UNL A   1      33.858  28.710  24.679  1.00  0.00     0.042 C 
ATOM     12  C   UNL A   1      34.157  28.027  26.905  1.00  0.00    -0.016 C 
BRANCH   9  13
ATOM     13  N   UNL A   1      33.673  26.405  23.865  1.00  0.00    -0.204 NA
ATOM     14  H   UNL A   1      34.577  26.747  23.539  1.00  0.00     0.142 HD
BRANCH  13  15
ATOM     15  S   UNL A   1      32.740  26.132  22.500  1.00  0.00     0.241 S 
ATOM     16  O   UNL A   1      32.614  24.691  22.369  1.00  0.00    -0.207 OA
ATOM     17  O   UNL A   1      33.290  26.939  21.441  1.00  0.00    -0.207 OA
BRANCH  15  18
ATOM     18  C   UNL A   1      31.125  26.786  22.887  1.00  0.00     0.086 A 
ATOM     19  C   UNL A   1      30.431  24.820  24.416  1.00  0.00     0.046 C 
ATOM     20  C   UNL A   1      30.178  26.101  23.671  1.00  0.00    -0.031 A 
ATOM     21  C   UNL A   1      28.895  26.667  23.810  1.00  0.00     0.006 A 
ATOM     22  C   UNL A   1      28.579  27.902  23.239  1.00  0.00     0.016 A 
ATOM     23  C   UNL A   1      30.811  28.043  22.336  1.00  0.00     0.037 A 
ATOM     24  C   UNL A   1      29.547  28.596  22.526  1.00  0.00     0.019 A 
ATOM     25  Br  UNL A   1      29.148  30.298  21.810  1.00  0.00    -0.051 Br
ENDBRANCH  15  18
ENDBRANCH  13  15
ENDBRANCH   9  13
ENDBRANCH   5   8
ENDBRANCH   3   4
ENDBRANCH   2   3
ENDBRANCH   1   2
BRANCH   1  26
ATOM     26  C   UNL A   1      34.689  35.110  28.172  1.00  0.00     0.002 C 
BRANCH  26  27
ATOM     27  C   UNL A   1      33.660  36.011  28.861  1.00  0.00     0.021 C 
BRANCH  27  28
ATOM     28  C   UNL A   1      32.644  35.277  29.733  1.00  0.00     0.116 C 
BRANCH  28  29
ATOM     29  N   UNL A   1      32.264  36.054  30.900  1.00  0.00    -0.352 N 
ATOM     30  C   UNL A   1      32.774  36.028  32.171  1.00  0.00     0.251 C 
ATOM     31  H   UNL A   1      31.532  36.695  30.756  1.00  0.00     0.163 HD
ATOM     32  O   UNL A   1      32.206  36.639  33.071  1.00  0.00    -0.269 OA
BRANCH  30  33
ATOM     33  C   UNL A   1      33.999  35.258  32.468  1.00  0.00     0.039 A 
ATOM     34  C   UNL A   1      33.865  33.968  32.991  1.00  0.00     0.014 A 
ATOM     35  C   UNL A   1      35.270  35.813  32.284  1.00  0.00     0.014 A 
ATOM     36  C   UNL A   1      35.004  33.222  33.297  1.00  0.00     0.010 A 
ATOM     37  C   UNL A   1      36.405  35.046  32.534  1.00  0.00     0.010 A 
ATOM     38  C   UNL A   1      36.282  33.751  33.058  1.00  0.00    -0.014 A 
BRANCH  38  39
ATOM     39  C   UNL A   1      37.497  32.968  33.387  1.00  0.00     0.031 A 
ATOM     40  C   UNL A   1      38.243  33.235  34.664  1.00  0.00     0.074 A 
ATOM     41  C   UNL A   1      37.947  32.042  32.520  1.00  0.00     0.049 A 
ATOM     42  N   UNL A   1      39.334  32.671  35.118  1.00  0.00    -0.248 NA
ATOM     43  C   UNL A   1      37.706  34.292  35.536  1.00  0.00     0.031 C 
ATOM     44  C   UNL A   1      37.337  31.725  31.228  1.00  0.00     0.029 A 
ATOM     45  N   UNL A   1      39.025  31.199  32.596  1.00  0.00    -0.354 N 
ATOM     46  C   UNL A   1      39.620  33.313  36.316  1.00  0.00     0.074 A 
ATOM     47  C   UNL A   1      38.616  34.339  36.497  1.00  0.00     0.031 C 
ATOM     48  C   UNL A   1      38.038  30.741  30.642  1.00  0.00     0.029 A 
ATOM     49  C   UNL A   1      39.157  30.376  31.505  1.00  0.00     0.049 A 
ATOM     50  H   UNL A   1      39.646  31.185  33.360  1.00  0.00     0.167 HD
ATOM     51  C   UNL A   1      40.617  33.056  37.196  1.00  0.00     0.037 A 
ATOM     52  C   UNL A   1      40.076  29.430  31.236  1.00  0.00     0.037 A 
ATOM     53  C   UNL A   1      41.596  32.016  37.030  1.00  0.00     0.049 A 
ATOM     54  C   UNL A   1      41.157  29.148  32.240  1.00  0.00     0.074 A 
ATOM     55  C   UNL A   1      42.608  31.634  37.894  1.00  0.00     0.029 A 
ATOM     56  N   UNL A   1      41.682  31.186  35.922  1.00  0.00    -0.354 N 
ATOM     57  N   UNL A   1      41.377  29.717  33.399  1.00  0.00    -0.248 NA
ATOM     58  C   UNL A   1      42.112  28.084  31.900  1.00  0.00     0.031 C 
ATOM     59  C   UNL A   1      43.326  30.593  37.295  1.00  0.00     0.029 A 
ATOM     60  C   UNL A   1      42.739  30.304  36.073  1.00  0.00     0.049 A 
ATOM     61  H   UNL A   1      41.082  31.221  35.142  1.00  0.00     0.167 HD
ATOM     62  C   UNL A   1      42.481  29.070  33.938  1.00  0.00     0.074 A 
ATOM     63  C   UNL A   1      42.875  28.052  32.984  1.00  0.00     0.031 C 
ATOM     64  C   UNL A   1      43.114  29.298  35.114  1.00  0.00     0.037 A 
BRANCH  51  65
ATOM     65  C   UNL A   1      40.689  33.916  38.423  1.00  0.00     0.057 A 
ATOM     66  C   UNL A   1      39.931  33.630  39.567  1.00  0.00     0.134 A 
ATOM     67  C   UNL A   1      41.539  35.027  38.471  1.00  0.00     0.134 A 
ATOM     68  F   UNL A   1      39.087  32.588  39.580  1.00  0.00    -0.206 F 
ATOM     69  C   UNL A   1      39.998  34.435  40.706  1.00  0.00     0.040 A 
ATOM     70  C   UNL A   1      41.631  35.827  39.612  1.00  0.00     0.040 A 
ATOM     71  F   UNL A   1      42.293  35.355  37.411  1.00  0.00    -0.206 F 
ATOM     72  C   UNL A   1      40.853  35.535  40.732  1.00  0.00     0.006 A 
ENDBRANCH  51  65
BRANCH  52  73
ATOM     73  C   UNL A   1      39.990  28.654  29.974  1.00  0.00     0.057 A 
ATOM     74  C   UNL A   1      40.642  29.090  28.816  1.00  0.00     0.134 A 
ATOM     75  C   UNL A   1      39.257  27.465  29.896  1.00  0.00     0.134 A 
ATOM     76  F   UNL A   1      41.345  30.234  28.828  1.00  0.00    -0.206 F 
ATOM     77  C   UNL A   1      40.556  28.381  27.618  1.00  0.00     0.040 A 
ATOM     78  C   UNL A   1      39.180  26.734  28.710  1.00  0.00     0.040 A 
ATOM     79  F   UNL A   1      38.616  26.991  30.975  1.00  0.00    -0.206 F 
ATOM     80  C   UNL A   1      39.826  27.196  27.565  1.00  0.00     0.006 A 
ENDBRANCH  52  73
BRANCH  64  81
ATOM     81  C   UNL A   1      44.281  28.416  35.440  1.00  0.00     0.057 A 
ATOM     82  C   UNL A   1      44.120  27.210  36.134  1.00  0.00     0.134 A 
ATOM     83  C   UNL A   1      45.575  28.764  35.034  1.00  0.00     0.134 A 
ATOM     84  F   UNL A   1      42.907  26.830  36.563  1.00  0.00    -0.206 F 
ATOM     85  C   UNL A   1      45.209  26.391  36.431  1.00  0.00     0.040 A 
ATOM     86  C   UNL A   1      46.669  27.942  35.306  1.00  0.00     0.040 A 
ATOM     87  F   UNL A   1      45.795  29.902  34.360  1.00  0.00    -0.206 F 
ATOM     88  C   UNL A   1      46.487  26.754  36.013  1.00  0.00     0.006 A 
ENDBRANCH  64  81
ENDBRANCH  38  39
ENDBRANCH  30  33
ENDBRANCH  28  29
ENDBRANCH  27  28
ENDBRANCH  26  27
ENDBRANCH   1  26
TORSDOF 16
ENDMDL
