MODEL 1
REMARK VINA RESULT:     -12.2      0.000      0.000
REMARK SMILES O=C(NCCCCCCNC(=O)c1cccc(Nc2ccnc3ccc(Cl)cc23)c1)c1ccc(-c2c3nc(c(-c4c(F)cccc4F)c4ccc([nH]4)c(-c4c(F)cccc4F)c4nc(c(-c5c(F)cccc5F)c5ccc2[nH]5)C=C4)C=C3)cc1
REMARK SMILES IDX 6 1 5 2 4 3 3 4 1 5 2 6 31 8 32 9 84 10 33 11 83 12 34 13
REMARK SMILES IDX 35 14 36 15 77 16 37 17 82 18 76 19 78 20 38 21 81 22 75 23
REMARK SMILES IDX 74 24 39 26 65 27 48 28 64 29 49 30 52 31 63 32 79 33 50 34
REMARK SMILES IDX 51 35 62 37 80 38 53 39 40 40 41 41 46 42 42 43 43 44 45 45
REMARK SMILES IDX 47 46 44 47 66 48 67 49 72 50 68 51 69 52 71 53 73 54 70 55
REMARK SMILES IDX 54 56 55 57 60 58 56 59 57 60 59 61 61 62 58 63 7 64 8 65
REMARK SMILES IDX 9 66 10 67 11 68 12 70 13 71 14 72 30 73 15 74 17 75 16 76
REMARK SMILES IDX 18 77 19 79 20 80 29 81 21 82 23 83 28 84 22 85 24 86 26 87
REMARK SMILES IDX 25 88 27 89
REMARK H PARENT 3 7 78 25 52 36 10 69 18 78
REMARK Flexibility Score: inf
ROOT
ATOM      1  C   UNL A   1      31.370  30.834  25.930  1.00  0.00     0.002 C 
ENDROOT
BRANCH   1   2
ATOM      2  C   UNL A   1      31.231  32.248  26.499  1.00  0.00     0.021 C 
BRANCH   2   3
ATOM      3  C   UNL A   1      32.479  32.818  27.169  1.00  0.00     0.116 C 
BRANCH   3   4
ATOM      4  N   UNL A   1      32.297  34.181  27.641  1.00  0.00    -0.352 N 
ATOM      5  O   UNL A   1      32.584  35.994  28.949  1.00  0.00    -0.269 OA
ATOM      6  C   UNL A   1      32.995  34.894  28.586  1.00  0.00     0.251 C 
ATOM      7  H   UNL A   1      31.556  34.671  27.216  1.00  0.00     0.163 HD
BRANCH   6   8
ATOM      8  C   UNL A   1      34.228  34.343  29.192  1.00  0.00     0.039 A 
ATOM      9  C   UNL A   1      35.485  34.574  28.626  1.00  0.00     0.014 A 
ATOM     10  C   UNL A   1      34.124  33.612  30.381  1.00  0.00     0.014 A 
ATOM     11  C   UNL A   1      36.617  33.971  29.173  1.00  0.00     0.010 A 
ATOM     12  C   UNL A   1      35.268  33.064  30.966  1.00  0.00     0.010 A 
ATOM     13  C   UNL A   1      36.521  33.212  30.350  1.00  0.00    -0.014 A 
BRANCH  13  14
ATOM     14  C   UNL A   1      37.734  32.605  30.953  1.00  0.00     0.031 A 
ATOM     15  C   UNL A   1      38.386  31.406  30.322  1.00  0.00     0.074 A 
ATOM     16  C   UNL A   1      38.240  33.124  32.087  1.00  0.00     0.049 A 
ATOM     17  N   UNL A   1      39.410  30.705  30.741  1.00  0.00    -0.248 NA
ATOM     18  C   UNL A   1      37.808  30.928  29.057  1.00  0.00     0.031 C 
ATOM     19  C   UNL A   1      37.698  34.283  32.797  1.00  0.00     0.029 A 
ATOM     20  N   UNL A   1      39.318  32.742  32.845  1.00  0.00    -0.354 N 
ATOM     21  C   UNL A   1      39.585  29.691  29.806  1.00  0.00     0.074 A 
ATOM     22  C   UNL A   1      38.547  29.855  28.810  1.00  0.00     0.031 C 
ATOM     23  C   UNL A   1      38.450  34.525  33.881  1.00  0.00     0.029 A 
ATOM     24  C   UNL A   1      39.492  33.508  33.972  1.00  0.00     0.049 A 
ATOM     25  H   UNL A   1      39.907  31.991  32.606  1.00  0.00     0.167 HD
ATOM     26  C   UNL A   1      40.527  28.717  29.781  1.00  0.00     0.037 A 
ATOM     27  C   UNL A   1      40.374  33.389  34.982  1.00  0.00     0.037 A 
ATOM     28  C   UNL A   1      41.563  28.563  30.770  1.00  0.00     0.049 A 
ATOM     29  C   UNL A   1      41.386  32.281  34.950  1.00  0.00     0.074 A 
ATOM     30  C   UNL A   1      42.585  27.630  30.812  1.00  0.00     0.029 A 
ATOM     31  N   UNL A   1      41.702  29.357  31.900  1.00  0.00    -0.354 N 
ATOM     32  N   UNL A   1      41.561  31.351  34.044  1.00  0.00    -0.248 NA
ATOM     33  C   UNL A   1      42.322  32.206  36.081  1.00  0.00     0.031 C 
ATOM     34  C   UNL A   1      43.314  27.829  31.989  1.00  0.00     0.029 A 
ATOM     35  C   UNL A   1      42.778  28.919  32.656  1.00  0.00     0.049 A 
ATOM     36  H   UNL A   1      41.121  30.117  32.131  1.00  0.00     0.167 HD
ATOM     37  C   UNL A   1      42.641  30.595  34.481  1.00  0.00     0.074 A 
ATOM     38  C   UNL A   1      43.084  31.180  35.729  1.00  0.00     0.031 C 
ATOM     39  C   UNL A   1      43.215  29.516  33.894  1.00  0.00     0.037 A 
BRANCH  26  40
ATOM     40  C   UNL A   1      40.464  27.724  28.656  1.00  0.00     0.057 A 
ATOM     41  C   UNL A   1      41.186  27.899  27.467  1.00  0.00     0.134 A 
ATOM     42  C   UNL A   1      39.686  26.564  28.772  1.00  0.00     0.134 A 
ATOM     43  F   UNL A   1      41.941  28.993  27.286  1.00  0.00    -0.206 F 
ATOM     44  C   UNL A   1      41.114  26.971  26.426  1.00  0.00     0.040 A 
ATOM     45  C   UNL A   1      39.628  25.617  27.748  1.00  0.00     0.040 A 
ATOM     46  F   UNL A   1      38.977  26.329  29.886  1.00  0.00    -0.206 F 
ATOM     47  C   UNL A   1      40.337  25.824  26.566  1.00  0.00     0.006 A 
ENDBRANCH  26  40
BRANCH  27  48
ATOM     48  C   UNL A   1      40.324  34.354  36.108  1.00  0.00     0.057 A 
ATOM     49  C   UNL A   1      40.983  35.586  36.034  1.00  0.00     0.134 A 
ATOM     50  C   UNL A   1      39.586  34.082  37.266  1.00  0.00     0.134 A 
ATOM     51  F   UNL A   1      41.718  35.895  34.956  1.00  0.00    -0.206 F 
ATOM     52  C   UNL A   1      40.914  36.512  37.075  1.00  0.00     0.040 A 
ATOM     53  C   UNL A   1      39.488  35.009  38.304  1.00  0.00     0.040 A 
ATOM     54  F   UNL A   1      38.926  32.922  37.391  1.00  0.00    -0.206 F 
ATOM     55  C   UNL A   1      40.156  36.228  38.211  1.00  0.00     0.006 A 
ENDBRANCH  27  48
BRANCH  39  56
ATOM     56  C   UNL A   1      44.416  28.922  34.570  1.00  0.00     0.057 A 
ATOM     57  C   UNL A   1      45.716  29.362  34.294  1.00  0.00     0.134 A 
ATOM     58  C   UNL A   1      44.261  27.929  35.546  1.00  0.00     0.134 A 
ATOM     59  F   UNL A   1      45.931  30.301  33.359  1.00  0.00    -0.206 F 
ATOM     60  C   UNL A   1      46.821  28.827  34.956  1.00  0.00     0.040 A 
ATOM     61  C   UNL A   1      45.356  27.403  36.231  1.00  0.00     0.040 A 
ATOM     62  F   UNL A   1      43.041  27.467  35.861  1.00  0.00    -0.206 F 
ATOM     63  C   UNL A   1      46.642  27.850  35.934  1.00  0.00     0.006 A 
ENDBRANCH  39  56
ENDBRANCH  13  14
ENDBRANCH   6   8
ENDBRANCH   3   4
ENDBRANCH   2   3
ENDBRANCH   1   2
BRANCH   1  64
ATOM     64  C   UNL A   1      31.929  29.773  26.883  1.00  0.00     0.002 C 
BRANCH  64  65
ATOM     65  C   UNL A   1      32.999  28.831  26.316  1.00  0.00     0.021 C 
BRANCH  65  66
ATOM     66  C   UNL A   1      32.846  27.346  26.647  1.00  0.00     0.116 C 
BRANCH  66  67
ATOM     67  N   UNL A   1      31.474  26.923  26.866  1.00  0.00    -0.352 N 
ATOM     68  C   UNL A   1      30.676  26.164  26.040  1.00  0.00     0.251 C 
ATOM     69  H   UNL A   1      31.065  27.214  27.712  1.00  0.00     0.163 HD
ATOM     70  O   UNL A   1      29.650  25.643  26.455  1.00  0.00    -0.269 OA
BRANCH  68  71
ATOM     71  C   UNL A   1      31.030  26.044  24.613  1.00  0.00     0.041 A 
ATOM     72  C   UNL A   1      30.702  27.122  23.782  1.00  0.00     0.014 A 
ATOM     73  C   UNL A   1      31.662  24.894  24.109  1.00  0.00     0.039 A 
ATOM     74  C   UNL A   1      31.033  27.070  22.437  1.00  0.00     0.003 A 
ATOM     75  C   UNL A   1      32.022  24.852  22.757  1.00  0.00     0.039 A 
ATOM     76  C   UNL A   1      31.697  25.952  21.938  1.00  0.00     0.026 A 
BRANCH  75  77
ATOM     77  N   UNL A   1      32.845  23.834  22.229  1.00  0.00    -0.355 N 
ATOM     78  H   UNL A   1      33.319  24.017  21.386  1.00  0.00     0.167 HD
BRANCH  77  79
ATOM     79  C   UNL A   1      33.034  22.562  22.831  1.00  0.00     0.050 A 
ATOM     80  C   UNL A   1      32.078  21.569  22.574  1.00  0.00     0.047 A 
ATOM     81  C   UNL A   1      34.076  22.280  23.753  1.00  0.00     0.025 A 
ATOM     82  C   UNL A   1      32.162  20.365  23.231  1.00  0.00     0.114 A 
ATOM     83  C   UNL A   1      34.076  20.989  24.341  1.00  0.00     0.072 A 
ATOM     84  C   UNL A   1      35.073  23.202  24.157  1.00  0.00     0.033 A 
ATOM     85  N   UNL A   1      33.144  20.060  24.093  1.00  0.00    -0.256 NA
ATOM     86  C   UNL A   1      35.071  20.646  25.243  1.00  0.00     0.030 A 
ATOM     87  C   UNL A   1      36.050  22.832  25.087  1.00  0.00     0.041 A 
ATOM     88  C   UNL A   1      36.063  21.550  25.619  1.00  0.00     0.023 A 
ATOM     89  Cl  UNL A   1      37.239  23.968  25.593  1.00  0.00    -0.084 Cl
ENDBRANCH  77  79
ENDBRANCH  75  77
ENDBRANCH  68  71
ENDBRANCH  66  67
ENDBRANCH  65  66
ENDBRANCH  64  65
ENDBRANCH   1  64
TORSDOF 15
ENDMDL
MODEL 2
REMARK VINA RESULT:     -12.1      3.630      7.614
REMARK SMILES O=C(NCCCCCCNC(=O)c1cccc(Nc2ccnc3ccc(Cl)cc23)c1)c1ccc(-c2c3nc(c(-c4c(F)cccc4F)c4ccc([nH]4)c(-c4c(F)cccc4F)c4nc(c(-c5c(F)cccc5F)c5ccc2[nH]5)C=C4)C=C3)cc1
REMARK SMILES IDX 6 1 5 2 4 3 3 4 1 5 2 6 31 8 32 9 84 10 33 11 83 12 34 13
REMARK SMILES IDX 35 14 36 15 77 16 37 17 82 18 76 19 78 20 38 21 81 22 75 23
REMARK SMILES IDX 74 24 39 26 65 27 48 28 64 29 49 30 52 31 63 32 79 33 50 34
REMARK SMILES IDX 51 35 62 37 80 38 53 39 40 40 41 41 46 42 42 43 43 44 45 45
REMARK SMILES IDX 47 46 44 47 66 48 67 49 72 50 68 51 69 52 71 53 73 54 70 55
REMARK SMILES IDX 54 56 55 57 60 58 56 59 57 60 59 61 61 62 58 63 7 64 8 65
REMARK SMILES IDX 9 66 10 67 11 68 12 70 13 71 14 72 30 73 15 74 17 75 16 76
REMARK SMILES IDX 18 77 19 79 20 80 29 81 21 82 23 83 28 84 22 85 24 86 26 87
REMARK SMILES IDX 25 88 27 89
REMARK H PARENT 3 7 78 25 52 36 10 69 18 78
REMARK Flexibility Score: inf
ROOT
ATOM      1  C   UNL A   1      31.783  27.977  25.885  1.00  0.00     0.002 C 
ENDROOT
BRANCH   1   2
ATOM      2  C   UNL A   1      32.687  27.938  27.120  1.00  0.00     0.021 C 
BRANCH   2   3
ATOM      3  C   UNL A   1      33.964  28.769  27.031  1.00  0.00     0.116 C 
BRANCH   3   4
ATOM      4  N   UNL A   1      33.838  30.071  27.666  1.00  0.00    -0.352 N 
ATOM      5  O   UNL A   1      34.363  31.791  29.025  1.00  0.00    -0.269 OA
ATOM      6  C   UNL A   1      34.723  30.761  28.460  1.00  0.00     0.251 C 
ATOM      7  H   UNL A   1      32.984  30.532  27.501  1.00  0.00     0.163 HD
BRANCH   6   8
ATOM      8  C   UNL A   1      36.103  30.264  28.664  1.00  0.00     0.039 A 
ATOM      9  C   UNL A   1      36.507  29.715  29.885  1.00  0.00     0.014 A 
ATOM     10  C   UNL A   1      37.000  30.313  27.592  1.00  0.00     0.014 A 
ATOM     11  C   UNL A   1      37.835  29.334  30.072  1.00  0.00     0.010 A 
ATOM     12  C   UNL A   1      38.314  29.868  27.761  1.00  0.00     0.010 A 
ATOM     13  C   UNL A   1      38.752  29.405  29.011  1.00  0.00    -0.014 A 
BRANCH  13  14
ATOM     14  C   UNL A   1      40.156  28.961  29.203  1.00  0.00     0.031 A 
ATOM     15  C   UNL A   1      41.184  29.895  29.778  1.00  0.00     0.074 A 
ATOM     16  C   UNL A   1      40.511  27.715  28.837  1.00  0.00     0.049 A 
ATOM     17  N   UNL A   1      42.467  29.704  29.957  1.00  0.00    -0.248 NA
ATOM     18  C   UNL A   1      40.709  31.220  30.202  1.00  0.00     0.031 C 
ATOM     19  C   UNL A   1      39.608  26.716  28.265  1.00  0.00     0.029 A 
ATOM     20  N   UNL A   1      41.725  27.079  28.885  1.00  0.00    -0.354 N 
ATOM     21  C   UNL A   1      42.958  30.889  30.491  1.00  0.00     0.074 A 
ATOM     22  C   UNL A   1      41.838  31.801  30.586  1.00  0.00     0.031 C 
ATOM     23  C   UNL A   1      40.295  25.590  28.025  1.00  0.00     0.029 A 
ATOM     24  C   UNL A   1      41.696  25.805  28.373  1.00  0.00     0.049 A 
ATOM     25  H   UNL A   1      42.540  27.496  29.248  1.00  0.00     0.167 HD
ATOM     26  C   UNL A   1      44.225  31.186  30.871  1.00  0.00     0.037 A 
ATOM     27  C   UNL A   1      42.689  24.917  28.179  1.00  0.00     0.037 A 
ATOM     28  C   UNL A   1      45.335  30.271  30.781  1.00  0.00     0.049 A 
ATOM     29  C   UNL A   1      44.090  25.280  28.574  1.00  0.00     0.074 A 
ATOM     30  C   UNL A   1      46.648  30.467  31.174  1.00  0.00     0.029 A 
ATOM     31  N   UNL A   1      45.264  28.990  30.252  1.00  0.00    -0.354 N 
ATOM     32  N   UNL A   1      44.534  26.391  29.109  1.00  0.00    -0.248 NA
ATOM     33  C   UNL A   1      45.129  24.268  28.338  1.00  0.00     0.031 C 
ATOM     34  C   UNL A   1      47.381  29.323  30.840  1.00  0.00     0.029 A 
ATOM     35  C   UNL A   1      46.514  28.394  30.286  1.00  0.00     0.049 A 
ATOM     36  H   UNL A   1      44.446  28.569  29.902  1.00  0.00     0.167 HD
ATOM     37  C   UNL A   1      45.897  26.204  29.297  1.00  0.00     0.074 A 
ATOM     38  C   UNL A   1      46.205  24.870  28.825  1.00  0.00     0.031 C 
ATOM     39  C   UNL A   1      46.807  27.061  29.820  1.00  0.00     0.037 A 
BRANCH  26  40
ATOM     40  C   UNL A   1      44.483  32.569  31.395  1.00  0.00     0.057 A 
ATOM     41  C   UNL A   1      44.791  33.641  30.547  1.00  0.00     0.134 A 
ATOM     42  C   UNL A   1      44.402  32.837  32.768  1.00  0.00     0.134 A 
ATOM     43  F   UNL A   1      44.895  33.452  29.223  1.00  0.00    -0.206 F 
ATOM     44  C   UNL A   1      45.036  34.922  31.048  1.00  0.00     0.040 A 
ATOM     45  C   UNL A   1      44.619  34.118  33.278  1.00  0.00     0.040 A 
ATOM     46  F   UNL A   1      44.103  31.859  33.636  1.00  0.00    -0.206 F 
ATOM     47  C   UNL A   1      44.945  35.164  32.417  1.00  0.00     0.006 A 
ENDBRANCH  26  40
BRANCH  27  48
ATOM     48  C   UNL A   1      42.377  23.598  27.574  1.00  0.00     0.057 A 
ATOM     49  C   UNL A   1      42.114  22.481  28.372  1.00  0.00     0.134 A 
ATOM     50  C   UNL A   1      42.299  23.436  26.186  1.00  0.00     0.134 A 
ATOM     51  F   UNL A   1      42.189  22.571  29.708  1.00  0.00    -0.206 F 
ATOM     52  C   UNL A   1      41.787  21.245  27.811  1.00  0.00     0.040 A 
ATOM     53  C   UNL A   1      41.950  22.214  25.611  1.00  0.00     0.040 A 
ATOM     54  F   UNL A   1      42.532  24.474  25.368  1.00  0.00    -0.206 F 
ATOM     55  C   UNL A   1      41.696  21.112  26.426  1.00  0.00     0.006 A 
ENDBRANCH  27  48
BRANCH  39  56
ATOM     56  C   UNL A   1      48.218  26.570  29.954  1.00  0.00     0.057 A 
ATOM     57  C   UNL A   1      48.651  25.852  31.075  1.00  0.00     0.134 A 
ATOM     58  C   UNL A   1      49.142  26.777  28.921  1.00  0.00     0.134 A 
ATOM     59  F   UNL A   1      47.818  25.634  32.105  1.00  0.00    -0.206 F 
ATOM     60  C   UNL A   1      49.957  25.369  31.171  1.00  0.00     0.040 A 
ATOM     61  C   UNL A   1      50.443  26.277  28.994  1.00  0.00     0.040 A 
ATOM     62  F   UNL A   1      48.788  27.451  27.816  1.00  0.00    -0.206 F 
ATOM     63  C   UNL A   1      50.854  25.574  30.124  1.00  0.00     0.006 A 
ENDBRANCH  39  56
ENDBRANCH  13  14
ENDBRANCH   6   8
ENDBRANCH   3   4
ENDBRANCH   2   3
ENDBRANCH   1   2
BRANCH   1  64
ATOM     64  C   UNL A   1      31.906  29.217  24.995  1.00  0.00     0.002 C 
BRANCH  64  65
ATOM     65  C   UNL A   1      32.454  28.998  23.579  1.00  0.00     0.021 C 
BRANCH  65  66
ATOM     66  C   UNL A   1      33.789  28.260  23.471  1.00  0.00     0.116 C 
BRANCH  66  67
ATOM     67  N   UNL A   1      33.915  27.427  22.288  1.00  0.00    -0.352 N 
ATOM     68  C   UNL A   1      33.181  26.312  21.949  1.00  0.00     0.251 C 
ATOM     69  H   UNL A   1      34.613  27.693  21.647  1.00  0.00     0.163 HD
ATOM     70  O   UNL A   1      33.191  25.870  20.809  1.00  0.00    -0.269 OA
BRANCH  68  71
ATOM     71  C   UNL A   1      32.431  25.602  23.002  1.00  0.00     0.041 A 
ATOM     72  C   UNL A   1      31.038  25.732  22.990  1.00  0.00     0.014 A 
ATOM     73  C   UNL A   1      33.088  24.834  23.979  1.00  0.00     0.039 A 
ATOM     74  C   UNL A   1      30.283  25.066  23.944  1.00  0.00     0.003 A 
ATOM     75  C   UNL A   1      32.327  24.139  24.925  1.00  0.00     0.039 A 
ATOM     76  C   UNL A   1      30.924  24.269  24.890  1.00  0.00     0.026 A 
BRANCH  75  77
ATOM     77  N   UNL A   1      32.897  23.184  25.795  1.00  0.00    -0.355 N 
ATOM     78  H   UNL A   1      32.882  23.375  26.761  1.00  0.00     0.167 HD
BRANCH  77  79
ATOM     79  C   UNL A   1      33.490  21.966  25.371  1.00  0.00     0.050 A 
ATOM     80  C   UNL A   1      32.638  20.893  25.077  1.00  0.00     0.047 A 
ATOM     81  C   UNL A   1      34.893  21.753  25.329  1.00  0.00     0.025 A 
ATOM     82  C   UNL A   1      33.178  19.664  24.778  1.00  0.00     0.114 A 
ATOM     83  C   UNL A   1      35.330  20.451  24.974  1.00  0.00     0.072 A 
ATOM     84  C   UNL A   1      35.872  22.722  25.660  1.00  0.00     0.033 A 
ATOM     85  N   UNL A   1      34.498  19.433  24.712  1.00  0.00    -0.256 NA
ATOM     86  C   UNL A   1      36.687  20.177  24.905  1.00  0.00     0.030 A 
ATOM     87  C   UNL A   1      37.233  22.407  25.603  1.00  0.00     0.041 A 
ATOM     88  C   UNL A   1      37.645  21.142  25.210  1.00  0.00     0.023 A 
ATOM     89  Cl  UNL A   1      38.413  23.583  26.035  1.00  0.00    -0.084 Cl
ENDBRANCH  77  79
ENDBRANCH  75  77
ENDBRANCH  68  71
ENDBRANCH  66  67
ENDBRANCH  65  66
ENDBRANCH  64  65
ENDBRANCH   1  64
TORSDOF 15
ENDMDL
MODEL 3
REMARK VINA RESULT:     -11.9      4.842      8.205
REMARK SMILES O=C(NCCCCCCNC(=O)c1cccc(Nc2ccnc3ccc(Cl)cc23)c1)c1ccc(-c2c3nc(c(-c4c(F)cccc4F)c4ccc([nH]4)c(-c4c(F)cccc4F)c4nc(c(-c5c(F)cccc5F)c5ccc2[nH]5)C=C4)C=C3)cc1
REMARK SMILES IDX 6 1 5 2 4 3 3 4 1 5 2 6 31 8 32 9 84 10 33 11 83 12 34 13
REMARK SMILES IDX 35 14 36 15 77 16 37 17 82 18 76 19 78 20 38 21 81 22 75 23
REMARK SMILES IDX 74 24 39 26 65 27 48 28 64 29 49 30 52 31 63 32 79 33 50 34
REMARK SMILES IDX 51 35 62 37 80 38 53 39 40 40 41 41 46 42 42 43 43 44 45 45
REMARK SMILES IDX 47 46 44 47 66 48 67 49 72 50 68 51 69 52 71 53 73 54 70 55
REMARK SMILES IDX 54 56 55 57 60 58 56 59 57 60 59 61 61 62 58 63 7 64 8 65
REMARK SMILES IDX 9 66 10 67 11 68 12 70 13 71 14 72 30 73 15 74 17 75 16 76
REMARK SMILES IDX 18 77 19 79 20 80 29 81 21 82 23 83 28 84 22 85 24 86 26 87
REMARK SMILES IDX 25 88 27 89
REMARK H PARENT 3 7 78 25 52 36 10 69 18 78
REMARK Flexibility Score: inf
ROOT
ATOM      1  C   UNL A   1      33.007  35.772  32.540  1.00  0.00     0.002 C 
ENDROOT
BRANCH   1   2
ATOM      2  C   UNL A   1      32.508  36.474  31.275  1.00  0.00     0.021 C 
BRANCH   2   3
ATOM      3  C   UNL A   1      33.300  36.185  30.001  1.00  0.00     0.116 C 
BRANCH   3   4
ATOM      4  N   UNL A   1      32.609  35.279  29.098  1.00  0.00    -0.352 N 
ATOM      5  O   UNL A   1      32.354  33.595  27.623  1.00  0.00    -0.269 OA
ATOM      6  C   UNL A   1      33.055  34.140  28.472  1.00  0.00     0.251 C 
ATOM      7  H   UNL A   1      31.675  35.520  28.904  1.00  0.00     0.163 HD
BRANCH   6   8
ATOM      8  C   UNL A   1      34.385  33.571  28.791  1.00  0.00     0.039 A 
ATOM      9  C   UNL A   1      34.563  32.694  29.864  1.00  0.00     0.014 A 
ATOM     10  C   UNL A   1      35.469  33.894  27.968  1.00  0.00     0.014 A 
ATOM     11  C   UNL A   1      35.842  32.242  30.189  1.00  0.00     0.010 A 
ATOM     12  C   UNL A   1      36.738  33.387  28.255  1.00  0.00     0.010 A 
ATOM     13  C   UNL A   1      36.942  32.582  29.387  1.00  0.00    -0.014 A 
BRANCH  13  14
ATOM     14  C   UNL A   1      38.296  32.067  29.713  1.00  0.00     0.031 A 
ATOM     15  C   UNL A   1      38.744  30.720  29.219  1.00  0.00     0.074 A 
ATOM     16  C   UNL A   1      39.120  32.810  30.477  1.00  0.00     0.049 A 
ATOM     17  N   UNL A   1      39.863  30.081  29.458  1.00  0.00    -0.248 NA
ATOM     18  C   UNL A   1      37.810  29.991  28.348  1.00  0.00     0.031 C 
ATOM     19  C   UNL A   1      38.801  34.131  31.020  1.00  0.00     0.029 A 
ATOM     20  N   UNL A   1      40.388  32.557  30.935  1.00  0.00    -0.354 N 
ATOM     21  C   UNL A   1      39.759  28.869  28.787  1.00  0.00     0.074 A 
ATOM     22  C   UNL A   1      38.459  28.851  28.151  1.00  0.00     0.031 C 
ATOM     23  C   UNL A   1      39.849  34.578  31.727  1.00  0.00     0.029 A 
ATOM     24  C   UNL A   1      40.889  33.555  31.734  1.00  0.00     0.049 A 
ATOM     25  H   UNL A   1      40.889  31.739  30.713  1.00  0.00     0.167 HD
ATOM     26  C   UNL A   1      40.667  27.865  28.707  1.00  0.00     0.037 A 
ATOM     27  C   UNL A   1      42.045  33.628  32.421  1.00  0.00     0.037 A 
ATOM     28  C   UNL A   1      41.963  27.891  29.336  1.00  0.00     0.049 A 
ATOM     29  C   UNL A   1      43.020  32.490  32.346  1.00  0.00     0.074 A 
ATOM     30  C   UNL A   1      42.967  26.939  29.283  1.00  0.00     0.029 A 
ATOM     31  N   UNL A   1      42.431  28.919  30.142  1.00  0.00    -0.354 N 
ATOM     32  N   UNL A   1      42.924  31.365  31.681  1.00  0.00    -0.248 NA
ATOM     33  C   UNL A   1      44.263  32.631  33.116  1.00  0.00     0.031 C 
ATOM     34  C   UNL A   1      44.022  27.369  30.094  1.00  0.00     0.029 A 
ATOM     35  C   UNL A   1      43.698  28.612  30.612  1.00  0.00     0.049 A 
ATOM     36  H   UNL A   1      41.934  29.743  30.351  1.00  0.00     0.167 HD
ATOM     37  C   UNL A   1      44.102  30.674  31.931  1.00  0.00     0.074 A 
ATOM     38  C   UNL A   1      44.900  31.511  32.804  1.00  0.00     0.031 C 
ATOM     39  C   UNL A   1      44.487  29.458  31.473  1.00  0.00     0.037 A 
BRANCH  26  40
ATOM     40  C   UNL A   1      40.277  26.641  27.929  1.00  0.00     0.057 A 
ATOM     41  C   UNL A   1      40.774  26.387  26.644  1.00  0.00     0.134 A 
ATOM     42  C   UNL A   1      39.409  25.691  28.483  1.00  0.00     0.134 A 
ATOM     43  F   UNL A   1      41.601  27.261  26.049  1.00  0.00    -0.206 F 
ATOM     44  C   UNL A   1      40.399  25.248  25.927  1.00  0.00     0.040 A 
ATOM     45  C   UNL A   1      39.048  24.536  27.787  1.00  0.00     0.040 A 
ATOM     46  F   UNL A   1      38.903  25.867  29.713  1.00  0.00    -0.206 F 
ATOM     47  C   UNL A   1      39.537  24.316  26.501  1.00  0.00     0.006 A 
ENDBRANCH  26  40
BRANCH  27  48
ATOM     48  C   UNL A   1      42.328  34.832  33.241  1.00  0.00     0.057 A 
ATOM     49  C   UNL A   1      41.923  34.908  34.577  1.00  0.00     0.134 A 
ATOM     50  C   UNL A   1      43.043  35.916  32.718  1.00  0.00     0.134 A 
ATOM     51  F   UNL A   1      41.221  33.907  35.129  1.00  0.00    -0.206 F 
ATOM     52  C   UNL A   1      42.214  36.022  35.365  1.00  0.00     0.040 A 
ATOM     53  C   UNL A   1      43.363  37.025  33.500  1.00  0.00     0.040 A 
ATOM     54  F   UNL A   1      43.466  35.898  31.446  1.00  0.00    -0.206 F 
ATOM     55  C   UNL A   1      42.945  37.082  34.829  1.00  0.00     0.006 A 
ENDBRANCH  27  48
BRANCH  39  56
ATOM     56  C   UNL A   1      45.851  28.974  31.868  1.00  0.00     0.057 A 
ATOM     57  C   UNL A   1      46.041  28.070  32.921  1.00  0.00     0.134 A 
ATOM     58  C   UNL A   1      46.983  29.381  31.150  1.00  0.00     0.134 A 
ATOM     59  F   UNL A   1      44.999  27.654  33.656  1.00  0.00    -0.206 F 
ATOM     60  C   UNL A   1      47.312  27.600  33.255  1.00  0.00     0.040 A 
ATOM     61  C   UNL A   1      48.255  28.898  31.460  1.00  0.00     0.040 A 
ATOM     62  F   UNL A   1      46.868  30.240  30.126  1.00  0.00    -0.206 F 
ATOM     63  C   UNL A   1      48.423  28.007  32.517  1.00  0.00     0.006 A 
ENDBRANCH  39  56
ENDBRANCH  13  14
ENDBRANCH   6   8
ENDBRANCH   3   4
ENDBRANCH   2   3
ENDBRANCH   1   2
BRANCH   1  64
ATOM     64  C   UNL A   1      34.525  35.737  32.740  1.00  0.00     0.002 C 
BRANCH  64  65
ATOM     65  C   UNL A   1      35.139  34.383  33.121  1.00  0.00     0.021 C 
BRANCH  65  66
ATOM     66  C   UNL A   1      36.627  34.384  33.476  1.00  0.00     0.116 C 
BRANCH  66  67
ATOM     67  N   UNL A   1      36.909  34.038  34.858  1.00  0.00    -0.352 N 
ATOM     68  C   UNL A   1      37.698  33.015  35.335  1.00  0.00     0.251 C 
ATOM     69  H   UNL A   1      36.484  34.608  35.539  1.00  0.00     0.163 HD
ATOM     70  O   UNL A   1      38.080  33.000  36.497  1.00  0.00    -0.269 OA
BRANCH  68  71
ATOM     71  C   UNL A   1      38.020  31.884  34.446  1.00  0.00     0.041 A 
ATOM     72  C   UNL A   1      36.985  31.389  33.644  1.00  0.00     0.014 A 
ATOM     73  C   UNL A   1      39.308  31.323  34.411  1.00  0.00     0.039 A 
ATOM     74  C   UNL A   1      37.240  30.341  32.772  1.00  0.00     0.003 A 
ATOM     75  C   UNL A   1      39.574  30.283  33.512  1.00  0.00     0.039 A 
ATOM     76  C   UNL A   1      38.525  29.807  32.702  1.00  0.00     0.026 A 
BRANCH  75  77
ATOM     77  N   UNL A   1      40.885  29.818  33.267  1.00  0.00    -0.355 N 
ATOM     78  H   UNL A   1      41.335  30.126  32.447  1.00  0.00     0.167 HD
BRANCH  77  79
ATOM     79  C   UNL A   1      41.597  28.937  34.122  1.00  0.00     0.050 A 
ATOM     80  C   UNL A   1      41.363  27.562  33.983  1.00  0.00     0.047 A 
ATOM     81  C   UNL A   1      42.448  29.379  35.168  1.00  0.00     0.025 A 
ATOM     82  C   UNL A   1      41.942  26.685  34.870  1.00  0.00     0.114 A 
ATOM     83  C   UNL A   1      43.015  28.378  35.997  1.00  0.00     0.072 A 
ATOM     84  C   UNL A   1      42.727  30.736  35.469  1.00  0.00     0.033 A 
ATOM     85  N   UNL A   1      42.765  27.069  35.858  1.00  0.00    -0.256 NA
ATOM     86  C   UNL A   1      43.862  28.741  37.032  1.00  0.00     0.030 A 
ATOM     87  C   UNL A   1      43.568  31.070  36.534  1.00  0.00     0.041 A 
ATOM     88  C   UNL A   1      44.151  30.076  37.308  1.00  0.00     0.023 A 
ATOM     89  Cl  UNL A   1      43.878  32.721  36.908  1.00  0.00    -0.084 Cl
ENDBRANCH  77  79
ENDBRANCH  75  77
ENDBRANCH  68  71
ENDBRANCH  66  67
ENDBRANCH  65  66
ENDBRANCH  64  65
ENDBRANCH   1  64
TORSDOF 15
ENDMDL
