MODEL 1
REMARK VINA RESULT:      -8.9      0.000      0.000
REMARK SMILES COc1ccc(CN(CC(=O)NCCCCCCNC(=O)c2ccc(-c3c4nc(c(-c5c(F)cccc5F)c5ccc([nH]5)c(-c5c(F)cccc5F)c5nc(c(-c6c(F)cccc6F)c6ccc3[nH]6)C=C5)C=C4)cc2)N=O)cc1
REMARK SMILES IDX 14 1 13 2 12 3 10 4 11 5 9 7 8 8 7 9 6 10 3 11 4 12 79 13
REMARK SMILES IDX 5 14 78 15 2 16 1 17 76 18 77 19 15 20 16 21 17 22 18 23
REMARK SMILES IDX 19 24 20 25 21 27 22 28 23 29 75 30 24 31 74 32 25 33 26 34
REMARK SMILES IDX 27 35 68 36 28 37 73 38 67 39 69 40 29 41 72 42 66 43 65 44
REMARK SMILES IDX 30 46 56 47 39 48 55 49 40 50 43 51 54 52 70 53 41 54 42 55
REMARK SMILES IDX 53 57 71 58 44 59 31 60 32 61 37 62 33 63 34 64 36 65 38 66
REMARK SMILES IDX 35 67 57 68 58 69 63 70 59 71 60 72 62 73 64 74 61 75 45 76
REMARK SMILES IDX 46 77 51 78 47 79 48 80 50 81 52 82 49 83
REMARK H PARENT 12 6 19 26 69 45 43 56
REMARK Flexibility Score: inf
ROOT
ATOM      1  C   UNL A   1      34.750  34.584  34.069  1.00  0.00     0.021 C 
ENDROOT
BRANCH   1   2
ATOM      2  C   UNL A   1      36.011  33.951  34.657  1.00  0.00     0.116 C 
BRANCH   2   3
ATOM      3  N   UNL A   1      36.280  32.659  34.064  1.00  0.00    -0.355 N 
ATOM      4  C   UNL A   1      37.397  31.875  34.137  1.00  0.00     0.241 C 
ATOM      5  O   UNL A   1      37.375  30.801  33.531  1.00  0.00    -0.273 OA
ATOM      6  H   UNL A   1      35.545  32.287  33.526  1.00  0.00     0.163 HD
BRANCH   4   7
ATOM      7  C   UNL A   1      38.577  32.263  35.030  1.00  0.00     0.242 C 
BRANCH   7   8
ATOM      8  N   UNL A   1      39.230  31.100  35.628  1.00  0.00    -0.247 NA
BRANCH   8   9
ATOM      9  C   UNL A   1      40.637  30.885  35.313  1.00  0.00     0.178 C 
BRANCH   9  10
ATOM     10  C   UNL A   1      41.071  29.445  35.153  1.00  0.00    -0.027 A 
ATOM     11  C   UNL A   1      41.971  26.806  34.786  1.00  0.00     0.118 A 
ATOM     12  C   UNL A   1      42.039  27.409  36.044  1.00  0.00     0.047 A 
ATOM     13  C   UNL A   1      41.429  27.514  33.715  1.00  0.00     0.047 A 
ATOM     14  C   UNL A   1      41.604  28.723  36.227  1.00  0.00     0.009 A 
ATOM     15  C   UNL A   1      40.983  28.825  33.897  1.00  0.00     0.009 A 
BRANCH  11  16
ATOM     16  O   UNL A   1      42.417  25.515  34.728  1.00  0.00    -0.497 OA
ATOM     17  C   UNL A   1      41.792  24.612  35.634  1.00  0.00     0.278 C 
ENDBRANCH  11  16
ENDBRANCH   9  10
ENDBRANCH   8   9
BRANCH   8  18
ATOM     18  N   UNL A   1      38.679  30.343  36.539  1.00  0.00     0.053 NA
ATOM     19  O   UNL A   1      38.056  30.981  37.393  1.00  0.00    -0.125 OA
ENDBRANCH   8  18
ENDBRANCH   7   8
ENDBRANCH   4   7
ENDBRANCH   2   3
ENDBRANCH   1   2
BRANCH   1  20
ATOM     20  C   UNL A   1      35.032  35.616  32.969  1.00  0.00     0.002 C 
BRANCH  20  21
ATOM     21  C   UNL A   1      33.927  36.659  32.761  1.00  0.00     0.002 C 
BRANCH  21  22
ATOM     22  C   UNL A   1      32.867  36.279  31.726  1.00  0.00     0.021 C 
BRANCH  22  23
ATOM     23  C   UNL A   1      33.253  36.598  30.287  1.00  0.00     0.116 C 
BRANCH  23  24
ATOM     24  N   UNL A   1      32.654  35.666  29.342  1.00  0.00    -0.352 N 
ATOM     25  C   UNL A   1      33.202  34.544  28.770  1.00  0.00     0.251 C 
ATOM     26  H   UNL A   1      31.728  35.868  29.075  1.00  0.00     0.163 HD
ATOM     27  O   UNL A   1      32.636  33.974  27.842  1.00  0.00    -0.269 OA
BRANCH  25  28
ATOM     28  C   UNL A   1      34.497  34.039  29.269  1.00  0.00     0.039 A 
ATOM     29  C   UNL A   1      34.515  33.176  30.367  1.00  0.00     0.014 A 
ATOM     30  C   UNL A   1      35.687  34.399  28.631  1.00  0.00     0.014 A 
ATOM     31  C   UNL A   1      35.725  32.617  30.782  1.00  0.00     0.010 A 
ATOM     32  C   UNL A   1      36.878  33.784  28.998  1.00  0.00     0.010 A 
ATOM     33  C   UNL A   1      36.909  32.884  30.076  1.00  0.00    -0.014 A 
BRANCH  33  34
ATOM     34  C   UNL A   1      38.192  32.228  30.432  1.00  0.00     0.031 A 
ATOM     35  C   UNL A   1      39.177  32.933  31.321  1.00  0.00     0.074 A 
ATOM     36  C   UNL A   1      38.509  31.039  29.883  1.00  0.00     0.049 A 
ATOM     37  N   UNL A   1      40.392  32.580  31.654  1.00  0.00    -0.248 NA
ATOM     38  C   UNL A   1      38.750  34.223  31.886  1.00  0.00     0.031 C 
ATOM     39  C   UNL A   1      37.657  30.274  28.968  1.00  0.00     0.029 A 
ATOM     40  N   UNL A   1      39.642  30.274  29.999  1.00  0.00    -0.354 N 
ATOM     41  C   UNL A   1      40.880  33.609  32.449  1.00  0.00     0.074 A 
ATOM     42  C   UNL A   1      39.849  34.624  32.506  1.00  0.00     0.031 C 
ATOM     43  C   UNL A   1      38.292  29.143  28.619  1.00  0.00     0.029 A 
ATOM     44  C   UNL A   1      39.610  29.123  29.248  1.00  0.00     0.049 A 
ATOM     45  H   UNL A   1      40.406  30.525  30.566  1.00  0.00     0.167 HD
ATOM     46  C   UNL A   1      42.070  33.693  33.089  1.00  0.00     0.037 A 
ATOM     47  C   UNL A   1      40.542  28.167  29.073  1.00  0.00     0.037 A 
ATOM     48  C   UNL A   1      43.082  32.670  33.048  1.00  0.00     0.049 A 
ATOM     49  C   UNL A   1      41.858  28.286  29.788  1.00  0.00     0.074 A 
ATOM     50  C   UNL A   1      44.295  32.632  33.714  1.00  0.00     0.029 A 
ATOM     51  N   UNL A   1      43.000  31.507  32.298  1.00  0.00    -0.354 N 
ATOM     52  N   UNL A   1      42.281  29.234  30.589  1.00  0.00    -0.248 NA
ATOM     53  C   UNL A   1      42.826  27.199  29.581  1.00  0.00     0.031 C 
ATOM     54  C   UNL A   1      44.969  31.470  33.326  1.00  0.00     0.029 A 
ATOM     55  C   UNL A   1      44.152  30.755  32.465  1.00  0.00     0.049 A 
ATOM     56  H   UNL A   1      42.237  31.252  31.731  1.00  0.00     0.167 HD
ATOM     57  C   UNL A   1      43.548  28.843  31.007  1.00  0.00     0.074 A 
ATOM     58  C   UNL A   1      43.820  27.568  30.377  1.00  0.00     0.031 C 
ATOM     59  C   UNL A   1      44.405  29.482  31.839  1.00  0.00     0.037 A 
BRANCH  46  60
ATOM     60  C   UNL A   1      42.342  34.936  33.887  1.00  0.00     0.057 A 
ATOM     61  C   UNL A   1      42.016  35.031  35.247  1.00  0.00     0.134 A 
ATOM     62  C   UNL A   1      42.967  36.042  33.295  1.00  0.00     0.134 A 
ATOM     63  F   UNL A   1      41.405  34.014  35.872  1.00  0.00    -0.206 F 
ATOM     64  C   UNL A   1      42.272  36.191  35.980  1.00  0.00     0.040 A 
ATOM     65  C   UNL A   1      43.257  37.195  34.026  1.00  0.00     0.040 A 
ATOM     66  F   UNL A   1      43.313  36.016  31.999  1.00  0.00    -0.206 F 
ATOM     67  C   UNL A   1      42.901  37.274  35.371  1.00  0.00     0.006 A 
ENDBRANCH  46  60
BRANCH  47  68
ATOM     68  C   UNL A   1      40.256  27.005  28.195  1.00  0.00     0.057 A 
ATOM     69  C   UNL A   1      39.459  25.943  28.640  1.00  0.00     0.134 A 
ATOM     70  C   UNL A   1      40.772  26.922  26.896  1.00  0.00     0.134 A 
ATOM     71  F   UNL A   1      38.950  25.955  29.880  1.00  0.00    -0.206 F 
ATOM     72  C   UNL A   1      39.201  24.833  27.832  1.00  0.00     0.040 A 
ATOM     73  C   UNL A   1      40.501  25.832  26.069  1.00  0.00     0.040 A 
ATOM     74  F   UNL A   1      41.535  27.911  26.406  1.00  0.00    -0.206 F 
ATOM     75  C   UNL A   1      39.719  24.779  26.540  1.00  0.00     0.006 A 
ENDBRANCH  47  68
BRANCH  59  76
ATOM     76  C   UNL A   1      45.701  28.793  32.157  1.00  0.00     0.057 A 
ATOM     77  C   UNL A   1      45.832  27.924  33.247  1.00  0.00     0.134 A 
ATOM     78  C   UNL A   1      46.818  28.967  31.330  1.00  0.00     0.134 A 
ATOM     79  F   UNL A   1      44.804  27.723  34.085  1.00  0.00    -0.206 F 
ATOM     80  C   UNL A   1      47.036  27.268  33.515  1.00  0.00     0.040 A 
ATOM     81  C   UNL A   1      48.017  28.295  31.571  1.00  0.00     0.040 A 
ATOM     82  F   UNL A   1      46.756  29.779  30.264  1.00  0.00    -0.206 F 
ATOM     83  C   UNL A   1      48.130  27.447  32.669  1.00  0.00     0.006 A 
ENDBRANCH  59  76
ENDBRANCH  33  34
ENDBRANCH  25  28
ENDBRANCH  23  24
ENDBRANCH  22  23
ENDBRANCH  21  22
ENDBRANCH  20  21
ENDBRANCH   1  20
TORSDOF 18
ENDMDL
MODEL 2
REMARK VINA RESULT:      -8.8      4.943     10.933
REMARK SMILES COc1ccc(CN(CC(=O)NCCCCCCNC(=O)c2ccc(-c3c4nc(c(-c5c(F)cccc5F)c5ccc([nH]5)c(-c5c(F)cccc5F)c5nc(c(-c6c(F)cccc6F)c6ccc3[nH]6)C=C5)C=C4)cc2)N=O)cc1
REMARK SMILES IDX 14 1 13 2 12 3 10 4 11 5 9 7 8 8 7 9 6 10 3 11 4 12 79 13
REMARK SMILES IDX 5 14 78 15 2 16 1 17 76 18 77 19 15 20 16 21 17 22 18 23
REMARK SMILES IDX 19 24 20 25 21 27 22 28 23 29 75 30 24 31 74 32 25 33 26 34
REMARK SMILES IDX 27 35 68 36 28 37 73 38 67 39 69 40 29 41 72 42 66 43 65 44
REMARK SMILES IDX 30 46 56 47 39 48 55 49 40 50 43 51 54 52 70 53 41 54 42 55
REMARK SMILES IDX 53 57 71 58 44 59 31 60 32 61 37 62 33 63 34 64 36 65 38 66
REMARK SMILES IDX 35 67 57 68 58 69 63 70 59 71 60 72 62 73 64 74 61 75 45 76
REMARK SMILES IDX 46 77 51 78 47 79 48 80 50 81 52 82 49 83
REMARK H PARENT 12 6 19 26 69 45 43 56
REMARK Flexibility Score: inf
ROOT
ATOM      1  C   UNL A   1      46.561  24.081  24.633  1.00  0.00     0.021 C 
ENDROOT
BRANCH   1   2
ATOM      2  C   UNL A   1      45.808  25.317  25.125  1.00  0.00     0.116 C 
BRANCH   2   3
ATOM      3  N   UNL A   1      46.259  26.514  24.451  1.00  0.00    -0.355 N 
ATOM      4  C   UNL A   1      46.185  27.822  24.841  1.00  0.00     0.241 C 
ATOM      5  O   UNL A   1      46.649  28.668  24.073  1.00  0.00    -0.273 OA
ATOM      6  H   UNL A   1      46.687  26.363  23.578  1.00  0.00     0.163 HD
BRANCH   4   7
ATOM      7  C   UNL A   1      45.655  28.205  26.224  1.00  0.00     0.242 C 
BRANCH   7   8
ATOM      8  N   UNL A   1      44.237  28.555  26.201  1.00  0.00    -0.247 NA
BRANCH   8   9
ATOM      9  C   UNL A   1      43.832  29.764  26.907  1.00  0.00     0.178 C 
BRANCH   9  10
ATOM     10  C   UNL A   1      44.695  30.986  26.684  1.00  0.00    -0.027 A 
ATOM     11  C   UNL A   1      46.232  33.317  26.350  1.00  0.00     0.118 A 
ATOM     12  C   UNL A   1      46.785  32.186  26.953  1.00  0.00     0.047 A 
ATOM     13  C   UNL A   1      44.917  33.277  25.891  1.00  0.00     0.047 A 
ATOM     14  C   UNL A   1      46.021  31.030  27.131  1.00  0.00     0.009 A 
ATOM     15  C   UNL A   1      44.154  32.118  26.057  1.00  0.00     0.009 A 
BRANCH  11  16
ATOM     16  O   UNL A   1      47.075  34.386  26.221  1.00  0.00    -0.497 OA
ATOM     17  C   UNL A   1      46.449  35.665  26.256  1.00  0.00     0.278 C 
ENDBRANCH  11  16
ENDBRANCH   9  10
ENDBRANCH   8   9
BRANCH   8  18
ATOM     18  N   UNL A   1      43.347  27.944  25.465  1.00  0.00     0.053 NA
ATOM     19  O   UNL A   1      42.490  28.704  25.003  1.00  0.00    -0.125 OA
ENDBRANCH   8  18
ENDBRANCH   7   8
ENDBRANCH   4   7
ENDBRANCH   2   3
ENDBRANCH   1   2
BRANCH   1  20
ATOM     20  C   UNL A   1      45.643  22.946  24.160  1.00  0.00     0.002 C 
BRANCH  20  21
ATOM     21  C   UNL A   1      45.772  21.637  24.949  1.00  0.00     0.002 C 
BRANCH  21  22
ATOM     22  C   UNL A   1      44.923  20.479  24.420  1.00  0.00     0.021 C 
BRANCH  22  23
ATOM     23  C   UNL A   1      44.448  19.508  25.494  1.00  0.00     0.116 C 
BRANCH  23  24
ATOM     24  N   UNL A   1      43.053  19.132  25.313  1.00  0.00    -0.352 N 
ATOM     25  C   UNL A   1      41.924  19.748  25.792  1.00  0.00     0.251 C 
ATOM     26  H   UNL A   1      42.898  18.325  24.771  1.00  0.00     0.163 HD
ATOM     27  O   UNL A   1      40.830  19.197  25.715  1.00  0.00    -0.269 OA
BRANCH  25  28
ATOM     28  C   UNL A   1      42.040  21.076  26.427  1.00  0.00     0.039 A 
ATOM     29  C   UNL A   1      42.009  21.171  27.820  1.00  0.00     0.014 A 
ATOM     30  C   UNL A   1      42.205  22.221  25.642  1.00  0.00     0.014 A 
ATOM     31  C   UNL A   1      42.217  22.409  28.430  1.00  0.00     0.010 A 
ATOM     32  C   UNL A   1      42.487  23.438  26.252  1.00  0.00     0.010 A 
ATOM     33  C   UNL A   1      42.499  23.544  27.652  1.00  0.00    -0.014 A 
BRANCH  33  34
ATOM     34  C   UNL A   1      42.821  24.853  28.274  1.00  0.00     0.031 A 
ATOM     35  C   UNL A   1      41.740  25.876  28.481  1.00  0.00     0.074 A 
ATOM     36  C   UNL A   1      44.101  25.155  28.569  1.00  0.00     0.049 A 
ATOM     37  N   UNL A   1      41.838  27.111  28.899  1.00  0.00    -0.248 NA
ATOM     38  C   UNL A   1      40.368  25.463  28.141  1.00  0.00     0.031 C 
ATOM     39  C   UNL A   1      45.248  24.265  28.373  1.00  0.00     0.029 A 
ATOM     40  N   UNL A   1      44.655  26.302  29.078  1.00  0.00    -0.354 N 
ATOM     41  C   UNL A   1      40.549  27.628  28.855  1.00  0.00     0.074 A 
ATOM     42  C   UNL A   1      39.695  26.590  28.321  1.00  0.00     0.031 C 
ATOM     43  C   UNL A   1      46.365  24.894  28.771  1.00  0.00     0.029 A 
ATOM     44  C   UNL A   1      46.022  26.244  29.209  1.00  0.00     0.049 A 
ATOM     45  H   UNL A   1      44.124  27.092  29.327  1.00  0.00     0.167 HD
ATOM     46  C   UNL A   1      40.114  28.850  29.244  1.00  0.00     0.037 A 
ATOM     47  C   UNL A   1      46.901  27.177  29.620  1.00  0.00     0.037 A 
ATOM     48  C   UNL A   1      40.964  29.871  29.797  1.00  0.00     0.049 A 
ATOM     49  C   UNL A   1      46.394  28.529  30.039  1.00  0.00     0.074 A 
ATOM     50  C   UNL A   1      40.609  31.119  30.280  1.00  0.00     0.029 A 
ATOM     51  N   UNL A   1      42.340  29.764  29.939  1.00  0.00    -0.354 N 
ATOM     52  N   UNL A   1      45.164  28.983  30.053  1.00  0.00    -0.248 NA
ATOM     53  C   UNL A   1      47.397  29.498  30.504  1.00  0.00     0.031 C 
ATOM     54  C   UNL A   1      41.776  31.786  30.666  1.00  0.00     0.029 A 
ATOM     55  C   UNL A   1      42.851  30.933  30.479  1.00  0.00     0.049 A 
ATOM     56  H   UNL A   1      42.873  28.974  29.693  1.00  0.00     0.167 HD
ATOM     57  C   UNL A   1      45.241  30.275  30.560  1.00  0.00     0.074 A 
ATOM     58  C   UNL A   1      46.637  30.528  30.847  1.00  0.00     0.031 C 
ATOM     59  C   UNL A   1      44.243  31.168  30.769  1.00  0.00     0.037 A 
BRANCH  46  60
ATOM     60  C   UNL A   1      38.651  29.149  29.080  1.00  0.00     0.057 A 
ATOM     61  C   UNL A   1      37.749  29.048  30.148  1.00  0.00     0.134 A 
ATOM     62  C   UNL A   1      38.143  29.574  27.845  1.00  0.00     0.134 A 
ATOM     63  F   UNL A   1      38.167  28.636  31.354  1.00  0.00    -0.206 F 
ATOM     64  C   UNL A   1      36.391  29.328  29.987  1.00  0.00     0.040 A 
ATOM     65  C   UNL A   1      36.793  29.886  27.680  1.00  0.00     0.040 A 
ATOM     66  F   UNL A   1      38.952  29.699  26.782  1.00  0.00    -0.206 F 
ATOM     67  C   UNL A   1      35.911  29.756  28.751  1.00  0.00     0.006 A 
ENDBRANCH  46  60
BRANCH  47  68
ATOM     68  C   UNL A   1      48.350  26.859  29.671  1.00  0.00     0.057 A 
ATOM     69  C   UNL A   1      48.914  26.241  30.794  1.00  0.00     0.134 A 
ATOM     70  C   UNL A   1      49.207  27.166  28.607  1.00  0.00     0.134 A 
ATOM     71  F   UNL A   1      48.149  25.937  31.852  1.00  0.00    -0.206 F 
ATOM     72  C   UNL A   1      50.279  25.957  30.864  1.00  0.00     0.040 A 
ATOM     73  C   UNL A   1      50.568  26.864  28.653  1.00  0.00     0.040 A 
ATOM     74  F   UNL A   1      48.727  27.751  27.499  1.00  0.00    -0.206 F 
ATOM     75  C   UNL A   1      51.109  26.264  29.789  1.00  0.00     0.006 A 
ENDBRANCH  47  68
BRANCH  59  76
ATOM     76  C   UNL A   1      44.616  32.487  31.381  1.00  0.00     0.057 A 
ATOM     77  C   UNL A   1      44.700  32.666  32.768  1.00  0.00     0.134 A 
ATOM     78  C   UNL A   1      44.941  33.580  30.567  1.00  0.00     0.134 A 
ATOM     79  F   UNL A   1      44.390  31.663  33.603  1.00  0.00    -0.206 F 
ATOM     80  C   UNL A   1      45.075  33.891  33.322  1.00  0.00     0.040 A 
ATOM     81  C   UNL A   1      45.345  34.801  31.109  1.00  0.00     0.040 A 
ATOM     82  F   UNL A   1      44.889  33.473  29.230  1.00  0.00    -0.206 F 
ATOM     83  C   UNL A   1      45.407  34.961  32.491  1.00  0.00     0.006 A 
ENDBRANCH  59  76
ENDBRANCH  33  34
ENDBRANCH  25  28
ENDBRANCH  23  24
ENDBRANCH  22  23
ENDBRANCH  21  22
ENDBRANCH  20  21
ENDBRANCH   1  20
TORSDOF 18
ENDMDL
MODEL 3
REMARK VINA RESULT:      -8.8      4.838     10.912
REMARK SMILES COc1ccc(CN(CC(=O)NCCCCCCNC(=O)c2ccc(-c3c4nc(c(-c5c(F)cccc5F)c5ccc([nH]5)c(-c5c(F)cccc5F)c5nc(c(-c6c(F)cccc6F)c6ccc3[nH]6)C=C5)C=C4)cc2)N=O)cc1
REMARK SMILES IDX 14 1 13 2 12 3 10 4 11 5 9 7 8 8 7 9 6 10 3 11 4 12 79 13
REMARK SMILES IDX 5 14 78 15 2 16 1 17 76 18 77 19 15 20 16 21 17 22 18 23
REMARK SMILES IDX 19 24 20 25 21 27 22 28 23 29 75 30 24 31 74 32 25 33 26 34
REMARK SMILES IDX 27 35 68 36 28 37 73 38 67 39 69 40 29 41 72 42 66 43 65 44
REMARK SMILES IDX 30 46 56 47 39 48 55 49 40 50 43 51 54 52 70 53 41 54 42 55
REMARK SMILES IDX 53 57 71 58 44 59 31 60 32 61 37 62 33 63 34 64 36 65 38 66
REMARK SMILES IDX 35 67 57 68 58 69 63 70 59 71 60 72 62 73 64 74 61 75 45 76
REMARK SMILES IDX 46 77 51 78 47 79 48 80 50 81 52 82 49 83
REMARK H PARENT 12 6 19 26 69 45 43 56
REMARK Flexibility Score: inf
ROOT
ATOM      1  C   UNL A   1      46.451  24.150  24.726  1.00  0.00     0.021 C 
ENDROOT
BRANCH   1   2
ATOM      2  C   UNL A   1      45.568  25.348  25.075  1.00  0.00     0.116 C 
BRANCH   2   3
ATOM      3  N   UNL A   1      46.086  26.571  24.504  1.00  0.00    -0.355 N 
ATOM      4  C   UNL A   1      46.042  27.851  24.981  1.00  0.00     0.241 C 
ATOM      5  O   UNL A   1      46.565  28.730  24.292  1.00  0.00    -0.273 OA
ATOM      6  H   UNL A   1      46.542  26.465  23.638  1.00  0.00     0.163 HD
BRANCH   4   7
ATOM      7  C   UNL A   1      45.472  28.157  26.367  1.00  0.00     0.242 C 
BRANCH   7   8
ATOM      8  N   UNL A   1      44.080  28.596  26.314  1.00  0.00    -0.247 NA
BRANCH   8   9
ATOM      9  C   UNL A   1      43.726  29.797  27.060  1.00  0.00     0.178 C 
BRANCH   9  10
ATOM     10  C   UNL A   1      44.640  30.988  26.878  1.00  0.00    -0.027 A 
ATOM     11  C   UNL A   1      46.269  33.266  26.615  1.00  0.00     0.118 A 
ATOM     12  C   UNL A   1      46.743  32.130  27.273  1.00  0.00     0.047 A 
ATOM     13  C   UNL A   1      44.988  33.256  26.065  1.00  0.00     0.047 A 
ATOM     14  C   UNL A   1      45.933  31.001  27.416  1.00  0.00     0.009 A 
ATOM     15  C   UNL A   1      44.179  32.124  26.196  1.00  0.00     0.009 A 
BRANCH  11  16
ATOM     16  O   UNL A   1      47.151  34.306  26.527  1.00  0.00    -0.497 OA
ATOM     17  C   UNL A   1      48.488  33.946  26.192  1.00  0.00     0.278 C 
ENDBRANCH  11  16
ENDBRANCH   9  10
ENDBRANCH   8   9
BRANCH   8  18
ATOM     18  N   UNL A   1      43.181  28.075  25.523  1.00  0.00     0.053 NA
ATOM     19  O   UNL A   1      42.398  28.908  25.055  1.00  0.00    -0.125 OA
ENDBRANCH   8  18
ENDBRANCH   7   8
ENDBRANCH   4   7
ENDBRANCH   2   3
ENDBRANCH   1   2
BRANCH   1  20
ATOM     20  C   UNL A   1      45.672  22.947  24.178  1.00  0.00     0.002 C 
BRANCH  20  21
ATOM     21  C   UNL A   1      46.043  21.596  24.802  1.00  0.00     0.002 C 
BRANCH  21  22
ATOM     22  C   UNL A   1      45.168  20.420  24.362  1.00  0.00     0.021 C 
BRANCH  22  23
ATOM     23  C   UNL A   1      44.722  19.510  25.500  1.00  0.00     0.116 C 
BRANCH  23  24
ATOM     24  N   UNL A   1      43.348  19.058  25.331  1.00  0.00    -0.352 N 
ATOM     25  C   UNL A   1      42.187  19.638  25.779  1.00  0.00     0.251 C 
ATOM     26  H   UNL A   1      43.236  18.220  24.826  1.00  0.00     0.163 HD
ATOM     27  O   UNL A   1      41.123  19.031  25.723  1.00  0.00    -0.269 OA
BRANCH  25  28
ATOM     28  C   UNL A   1      42.234  20.997  26.353  1.00  0.00     0.039 A 
ATOM     29  C   UNL A   1      42.235  21.151  27.742  1.00  0.00     0.014 A 
ATOM     30  C   UNL A   1      42.305  22.114  25.517  1.00  0.00     0.014 A 
ATOM     31  C   UNL A   1      42.379  22.425  28.293  1.00  0.00     0.010 A 
ATOM     32  C   UNL A   1      42.524  23.373  26.067  1.00  0.00     0.010 A 
ATOM     33  C   UNL A   1      42.566  23.541  27.460  1.00  0.00    -0.014 A 
BRANCH  33  34
ATOM     34  C   UNL A   1      42.820  24.893  28.017  1.00  0.00     0.031 A 
ATOM     35  C   UNL A   1      44.191  25.257  28.514  1.00  0.00     0.074 A 
ATOM     36  C   UNL A   1      41.799  25.760  28.158  1.00  0.00     0.049 A 
ATOM     37  N   UNL A   1      44.587  26.339  29.135  1.00  0.00    -0.248 NA
ATOM     38  C   UNL A   1      45.252  24.257  28.314  1.00  0.00     0.031 C 
ATOM     39  C   UNL A   1      40.413  25.508  27.757  1.00  0.00     0.029 A 
ATOM     40  N   UNL A   1      41.764  27.021  28.697  1.00  0.00    -0.354 N 
ATOM     41  C   UNL A   1      45.932  26.142  29.416  1.00  0.00     0.074 A 
ATOM     42  C   UNL A   1      46.274  24.818  28.944  1.00  0.00     0.031 C 
ATOM     43  C   UNL A   1      39.668  26.587  28.050  1.00  0.00     0.029 A 
ATOM     44  C   UNL A   1      40.511  27.587  28.698  1.00  0.00     0.049 A 
ATOM     45  H   UNL A   1      42.561  27.478  29.050  1.00  0.00     0.167 HD
ATOM     46  C   UNL A   1      46.809  26.996  29.995  1.00  0.00     0.037 A 
ATOM     47  C   UNL A   1      40.087  28.770  29.180  1.00  0.00     0.037 A 
ATOM     48  C   UNL A   1      46.470  28.322  30.441  1.00  0.00     0.049 A 
ATOM     49  C   UNL A   1      41.078  29.698  29.826  1.00  0.00     0.074 A 
ATOM     50  C   UNL A   1      47.301  29.287  30.984  1.00  0.00     0.029 A 
ATOM     51  N   UNL A   1      45.196  28.868  30.400  1.00  0.00    -0.354 N 
ATOM     52  N   UNL A   1      42.362  29.525  30.027  1.00  0.00    -0.248 NA
ATOM     53  C   UNL A   1      40.562  30.987  30.309  1.00  0.00     0.031 C 
ATOM     54  C   UNL A   1      46.520  30.398  31.318  1.00  0.00     0.029 A 
ATOM     55  C   UNL A   1      45.213  30.148  30.929  1.00  0.00     0.049 A 
ATOM     56  H   UNL A   1      44.397  28.414  30.046  1.00  0.00     0.167 HD
ATOM     57  C   UNL A   1      42.814  30.695  30.627  1.00  0.00     0.074 A 
ATOM     58  C   UNL A   1      41.667  31.571  30.750  1.00  0.00     0.031 C 
ATOM     59  C   UNL A   1      44.065  31.013  31.036  1.00  0.00     0.037 A 
BRANCH  46  60
ATOM     60  C   UNL A   1      48.221  26.518  30.183  1.00  0.00     0.057 A 
ATOM     61  C   UNL A   1      49.219  26.761  29.230  1.00  0.00     0.134 A 
ATOM     62  C   UNL A   1      48.594  25.833  31.347  1.00  0.00     0.134 A 
ATOM     63  F   UNL A   1      48.927  27.401  28.087  1.00  0.00    -0.206 F 
ATOM     64  C   UNL A   1      50.529  26.313  29.413  1.00  0.00     0.040 A 
ATOM     65  C   UNL A   1      49.907  25.408  31.555  1.00  0.00     0.040 A 
ATOM     66  F   UNL A   1      47.691  25.573  32.304  1.00  0.00    -0.206 F 
ATOM     67  C   UNL A   1      50.877  25.641  30.582  1.00  0.00     0.006 A 
ENDBRANCH  46  60
BRANCH  47  68
ATOM     68  C   UNL A   1      38.658  29.152  29.053  1.00  0.00     0.057 A 
ATOM     69  C   UNL A   1      37.794  29.091  30.154  1.00  0.00     0.134 A 
ATOM     70  C   UNL A   1      38.119  29.583  27.835  1.00  0.00     0.134 A 
ATOM     71  F   UNL A   1      38.246  28.670  31.343  1.00  0.00    -0.206 F 
ATOM     72  C   UNL A   1      36.444  29.427  30.043  1.00  0.00     0.040 A 
ATOM     73  C   UNL A   1      36.777  29.946  27.716  1.00  0.00     0.040 A 
ATOM     74  F   UNL A   1      38.896  29.672  26.745  1.00  0.00    -0.206 F 
ATOM     75  C   UNL A   1      35.933  29.861  28.822  1.00  0.00     0.006 A 
ENDBRANCH  47  68
BRANCH  59  76
ATOM     76  C   UNL A   1      44.276  32.384  31.613  1.00  0.00     0.057 A 
ATOM     77  C   UNL A   1      44.538  33.497  30.805  1.00  0.00     0.134 A 
ATOM     78  C   UNL A   1      44.165  32.597  32.993  1.00  0.00     0.134 A 
ATOM     79  F   UNL A   1      44.668  33.359  29.477  1.00  0.00    -0.206 F 
ATOM     80  C   UNL A   1      44.703  34.771  31.353  1.00  0.00     0.040 A 
ATOM     81  C   UNL A   1      44.300  33.870  33.549  1.00  0.00     0.040 A 
ATOM     82  F   UNL A   1      43.907  31.574  33.822  1.00  0.00    -0.206 F 
ATOM     83  C   UNL A   1      44.575  34.961  32.728  1.00  0.00     0.006 A 
ENDBRANCH  59  76
ENDBRANCH  33  34
ENDBRANCH  25  28
ENDBRANCH  23  24
ENDBRANCH  22  23
ENDBRANCH  21  22
ENDBRANCH  20  21
ENDBRANCH   1  20
TORSDOF 18
ENDMDL
