MODEL 1
REMARK VINA RESULT:     -10.4      0.000      0.000
REMARK SMILES Cc1noc(C)c1C[NH2+][C@H](C)[C@H](C)C(=O)NCCCCCCNC(=O)c1ccc(-c2c3nc(c(-c4c(F)cccc4F)c4ccc([nH]4)c(-c4c(F)cccc4F)c4nc(c(-c5c(F)cccc5F)c5ccc2[nH]5)C=C4)C=C3)cc1
REMARK SMILES IDX 18 1 17 2 16 3 14 4 15 5 12 7 13 8 10 9 11 10 9 11 8 14 7 15
REMARK SMILES IDX 1 16 2 17 3 18 4 19 5 20 6 21 19 22 20 23 21 24 22 25 23 26
REMARK SMILES IDX 24 27 25 29 26 30 27 31 79 32 28 33 78 34 29 35 30 36 31 37
REMARK SMILES IDX 72 38 32 39 77 40 71 41 73 42 33 43 76 44 70 45 69 46 34 48
REMARK SMILES IDX 60 49 43 50 59 51 44 52 47 53 58 54 74 55 45 56 46 57 57 59
REMARK SMILES IDX 75 60 48 61 35 62 36 63 41 64 37 65 38 66 40 67 42 68 39 69
REMARK SMILES IDX 61 70 62 71 67 72 63 73 64 74 66 75 68 76 65 77 49 78 50 79
REMARK SMILES IDX 55 80 51 81 52 82 54 83 56 84 53 85
REMARK H PARENT 16 6 9 12 9 13 23 28 73 47 47 58
REMARK Flexibility Score: inf
ROOT
ATOM      1  C   UNL A   1      37.008  23.752  25.380  1.00  0.00     0.021 C 
ENDROOT
BRANCH   1   2
ATOM      2  C   UNL A   1      35.611  23.587  24.788  1.00  0.00     0.116 C 
BRANCH   2   3
ATOM      3  N   UNL A   1      34.694  24.599  25.276  1.00  0.00    -0.356 N 
ATOM      4  C   UNL A   1      33.457  24.494  25.828  1.00  0.00     0.228 C 
ATOM      5  O   UNL A   1      32.899  25.536  26.182  1.00  0.00    -0.275 OA
ATOM      6  H   UNL A   1      35.026  25.523  25.192  1.00  0.00     0.163 HD
BRANCH   4   7
ATOM      7  C   UNL A   1      32.765  23.145  26.026  1.00  0.00     0.133 C 
ATOM      8  C   UNL A   1      33.017  22.660  27.462  1.00  0.00     0.024 C 
BRANCH   7   9
ATOM      9  C   UNL A   1      31.279  23.163  25.560  1.00  0.00     0.191 C 
ATOM     10  C   UNL A   1      30.317  23.009  26.757  1.00  0.00     0.076 C 
BRANCH   9  11
ATOM     11  N   UNL A   1      30.781  24.341  24.824  1.00  0.00    -0.339 N 
ATOM     12  H   UNL A   1      29.895  24.612  25.251  1.00  0.00     0.346 HD
ATOM     13  H   UNL A   1      31.538  25.021  24.897  1.00  0.00     0.346 HD
BRANCH  11  14
ATOM     14  C   UNL A   1      30.549  24.213  23.399  1.00  0.00     0.303 C 
BRANCH  14  15
ATOM     15  C   UNL A   1      31.594  25.002  22.699  1.00  0.00     0.071 A 
ATOM     16  C   UNL A   1      33.298  23.132  22.063  1.00  0.00     0.071 C 
ATOM     17  C   UNL A   1      32.804  24.527  22.122  1.00  0.00     0.090 A 
ATOM     18  N   UNL A   1      33.522  25.525  21.592  1.00  0.00    -0.085 NA
ATOM     19  O   UNL A   1      32.782  26.672  21.803  1.00  0.00    -0.361 OA
ATOM     20  C   UNL A   1      31.634  26.360  22.460  1.00  0.00     0.142 A 
ATOM     21  C   UNL A   1      30.725  27.482  22.762  1.00  0.00     0.091 C 
ENDBRANCH  14  15
ENDBRANCH  11  14
ENDBRANCH   9  11
ENDBRANCH   7   9
ENDBRANCH   4   7
ENDBRANCH   2   3
ENDBRANCH   1   2
BRANCH   1  22
ATOM     22  C   UNL A   1      37.800  22.449  25.532  1.00  0.00     0.002 C 
BRANCH  22  23
ATOM     23  C   UNL A   1      37.404  21.320  24.576  1.00  0.00     0.002 C 
BRANCH  23  24
ATOM     24  C   UNL A   1      38.066  19.964  24.838  1.00  0.00     0.021 C 
BRANCH  24  25
ATOM     25  C   UNL A   1      38.976  19.905  26.062  1.00  0.00     0.116 C 
BRANCH  25  26
ATOM     26  N   UNL A   1      40.198  19.165  25.817  1.00  0.00    -0.352 N 
ATOM     27  C   UNL A   1      41.503  19.573  25.920  1.00  0.00     0.251 C 
ATOM     28  H   UNL A   1      40.074  18.230  25.533  1.00  0.00     0.163 HD
ATOM     29  O   UNL A   1      42.405  18.829  25.540  1.00  0.00    -0.269 OA
BRANCH  27  30
ATOM     30  C   UNL A   1      41.840  20.907  26.468  1.00  0.00     0.039 A 
ATOM     31  C   UNL A   1      41.757  21.096  27.850  1.00  0.00     0.014 A 
ATOM     32  C   UNL A   1      42.179  21.981  25.638  1.00  0.00     0.014 A 
ATOM     33  C   UNL A   1      42.033  22.349  28.402  1.00  0.00     0.010 A 
ATOM     34  C   UNL A   1      42.515  23.215  26.194  1.00  0.00     0.010 A 
ATOM     35  C   UNL A   1      42.423  23.416  27.579  1.00  0.00    -0.014 A 
BRANCH  35  36
ATOM     36  C   UNL A   1      42.685  24.758  28.157  1.00  0.00     0.031 A 
ATOM     37  C   UNL A   1      44.079  25.143  28.571  1.00  0.00     0.074 A 
ATOM     38  C   UNL A   1      41.668  25.623  28.330  1.00  0.00     0.049 A 
ATOM     39  N   UNL A   1      44.508  26.265  29.091  1.00  0.00    -0.248 NA
ATOM     40  C   UNL A   1      45.125  24.122  28.402  1.00  0.00     0.031 C 
ATOM     41  C   UNL A   1      40.264  25.353  28.016  1.00  0.00     0.029 A 
ATOM     42  N   UNL A   1      41.661  26.907  28.812  1.00  0.00    -0.354 N 
ATOM     43  C   UNL A   1      45.865  26.080  29.324  1.00  0.00     0.074 A 
ATOM     44  C   UNL A   1      46.178  24.722  28.936  1.00  0.00     0.031 C 
ATOM     45  C   UNL A   1      39.536  26.448  28.290  1.00  0.00     0.029 A 
ATOM     46  C   UNL A   1      40.418  27.488  28.811  1.00  0.00     0.049 A 
ATOM     47  H   UNL A   1      42.472  27.368  29.129  1.00  0.00     0.167 HD
ATOM     48  C   UNL A   1      46.774  26.966  29.796  1.00  0.00     0.037 A 
ATOM     49  C   UNL A   1      40.036  28.726  29.177  1.00  0.00     0.037 A 
ATOM     50  C   UNL A   1      46.470  28.328  30.150  1.00  0.00     0.049 A 
ATOM     51  C   UNL A   1      41.070  29.707  29.652  1.00  0.00     0.074 A 
ATOM     52  C   UNL A   1      47.330  29.319  30.591  1.00  0.00     0.029 A 
ATOM     53  N   UNL A   1      45.205  28.892  30.093  1.00  0.00    -0.354 N 
ATOM     54  N   UNL A   1      42.360  29.537  29.810  1.00  0.00    -0.248 NA
ATOM     55  C   UNL A   1      40.596  31.059  29.983  1.00  0.00     0.031 C 
ATOM     56  C   UNL A   1      46.580  30.478  30.824  1.00  0.00     0.029 A 
ATOM     57  C   UNL A   1      45.260  30.217  30.494  1.00  0.00     0.049 A 
ATOM     58  H   UNL A   1      44.389  28.422  29.809  1.00  0.00     0.167 HD
ATOM     59  C   UNL A   1      42.857  30.765  30.229  1.00  0.00     0.074 A 
ATOM     60  C   UNL A   1      41.730  31.673  30.288  1.00  0.00     0.031 C 
ATOM     61  C   UNL A   1      44.131  31.109  30.535  1.00  0.00     0.037 A 
BRANCH  48  62
ATOM     62  C   UNL A   1      48.186  26.487  29.948  1.00  0.00     0.057 A 
ATOM     63  C   UNL A   1      48.607  25.785  31.086  1.00  0.00     0.134 A 
ATOM     64  C   UNL A   1      49.134  26.715  28.943  1.00  0.00     0.134 A 
ATOM     65  F   UNL A   1      47.753  25.548  32.092  1.00  0.00    -0.206 F 
ATOM     66  C   UNL A   1      49.926  25.351  31.230  1.00  0.00     0.040 A 
ATOM     67  C   UNL A   1      50.449  26.264  29.064  1.00  0.00     0.040 A 
ATOM     68  F   UNL A   1      48.796  27.377  27.826  1.00  0.00    -0.206 F 
ATOM     69  C   UNL A   1      50.850  25.586  30.215  1.00  0.00     0.006 A 
ENDBRANCH  48  62
BRANCH  49  70
ATOM     70  C   UNL A   1      38.613  29.127  29.058  1.00  0.00     0.057 A 
ATOM     71  C   UNL A   1      38.090  29.569  27.837  1.00  0.00     0.134 A 
ATOM     72  C   UNL A   1      37.746  29.082  30.156  1.00  0.00     0.134 A 
ATOM     73  F   UNL A   1      38.879  29.649  26.755  1.00  0.00    -0.206 F 
ATOM     74  C   UNL A   1      36.760  29.972  27.715  1.00  0.00     0.040 A 
ATOM     75  C   UNL A   1      36.408  29.463  30.043  1.00  0.00     0.040 A 
ATOM     76  F   UNL A   1      38.186  28.660  31.350  1.00  0.00    -0.206 F 
ATOM     77  C   UNL A   1      35.914  29.916  28.820  1.00  0.00     0.006 A 
ENDBRANCH  49  70
BRANCH  61  78
ATOM     78  C   UNL A   1      44.377  32.536  30.923  1.00  0.00     0.057 A 
ATOM     79  C   UNL A   1      44.349  32.953  32.260  1.00  0.00     0.134 A 
ATOM     80  C   UNL A   1      44.662  33.500  29.949  1.00  0.00     0.134 A 
ATOM     81  F   UNL A   1      44.067  32.080  33.239  1.00  0.00    -0.206 F 
ATOM     82  C   UNL A   1      44.572  34.285  32.612  1.00  0.00     0.040 A 
ATOM     83  C   UNL A   1      44.910  34.830  30.290  1.00  0.00     0.040 A 
ATOM     84  F   UNL A   1      44.711  33.162  28.651  1.00  0.00    -0.206 F 
ATOM     85  C   UNL A   1      44.858  35.227  31.624  1.00  0.00     0.006 A 
ENDBRANCH  61  78
ENDBRANCH  35  36
ENDBRANCH  27  30
ENDBRANCH  25  26
ENDBRANCH  24  25
ENDBRANCH  23  24
ENDBRANCH  22  23
ENDBRANCH   1  22
TORSDOF 17
ENDMDL
MODEL 2
REMARK VINA RESULT:     -10.2      0.443      6.411
REMARK SMILES Cc1noc(C)c1C[NH2+][C@H](C)[C@H](C)C(=O)NCCCCCCNC(=O)c1ccc(-c2c3nc(c(-c4c(F)cccc4F)c4ccc([nH]4)c(-c4c(F)cccc4F)c4nc(c(-c5c(F)cccc5F)c5ccc2[nH]5)C=C4)C=C3)cc1
REMARK SMILES IDX 18 1 17 2 16 3 14 4 15 5 12 7 13 8 10 9 11 10 9 11 8 14 7 15
REMARK SMILES IDX 1 16 2 17 3 18 4 19 5 20 6 21 19 22 20 23 21 24 22 25 23 26
REMARK SMILES IDX 24 27 25 29 26 30 27 31 79 32 28 33 78 34 29 35 30 36 31 37
REMARK SMILES IDX 72 38 32 39 77 40 71 41 73 42 33 43 76 44 70 45 69 46 34 48
REMARK SMILES IDX 60 49 43 50 59 51 44 52 47 53 58 54 74 55 45 56 46 57 57 59
REMARK SMILES IDX 75 60 48 61 35 62 36 63 41 64 37 65 38 66 40 67 42 68 39 69
REMARK SMILES IDX 61 70 62 71 67 72 63 73 64 74 66 75 68 76 65 77 49 78 50 79
REMARK SMILES IDX 55 80 51 81 52 82 54 83 56 84 53 85
REMARK H PARENT 16 6 9 12 9 13 23 28 73 47 47 58
REMARK Flexibility Score: inf
ROOT
ATOM      1  C   UNL A   1      36.930  23.806  25.413  1.00  0.00     0.021 C 
ENDROOT
BRANCH   1   2
ATOM      2  C   UNL A   1      35.544  23.673  24.786  1.00  0.00     0.116 C 
BRANCH   2   3
ATOM      3  N   UNL A   1      34.615  24.651  25.318  1.00  0.00    -0.356 N 
ATOM      4  C   UNL A   1      33.379  24.505  25.865  1.00  0.00     0.228 C 
ATOM      5  O   UNL A   1      32.808  25.523  26.264  1.00  0.00    -0.275 OA
ATOM      6  H   UNL A   1      34.935  25.581  25.274  1.00  0.00     0.163 HD
BRANCH   4   7
ATOM      7  C   UNL A   1      32.705  23.140  26.003  1.00  0.00     0.133 C 
ATOM      8  C   UNL A   1      32.956  22.600  27.420  1.00  0.00     0.024 C 
BRANCH   7   9
ATOM      9  C   UNL A   1      31.221  23.157  25.530  1.00  0.00     0.191 C 
ATOM     10  C   UNL A   1      30.254  23.000  26.721  1.00  0.00     0.076 C 
BRANCH   9  11
ATOM     11  N   UNL A   1      30.726  24.335  24.793  1.00  0.00    -0.339 N 
ATOM     12  H   UNL A   1      29.830  24.594  25.206  1.00  0.00     0.346 HD
ATOM     13  H   UNL A   1      31.475  25.021  24.884  1.00  0.00     0.346 HD
BRANCH  11  14
ATOM     14  C   UNL A   1      30.521  24.215  23.363  1.00  0.00     0.303 C 
BRANCH  14  15
ATOM     15  C   UNL A   1      31.589  24.992  22.687  1.00  0.00     0.071 A 
ATOM     16  C   UNL A   1      33.294  23.107  22.102  1.00  0.00     0.071 C 
ATOM     17  C   UNL A   1      32.810  24.506  22.143  1.00  0.00     0.090 A 
ATOM     18  N   UNL A   1      33.548  25.496  21.627  1.00  0.00    -0.085 NA
ATOM     19  O   UNL A   1      32.813  26.649  21.814  1.00  0.00    -0.361 OA
ATOM     20  C   UNL A   1      31.646  26.349  22.443  1.00  0.00     0.142 A 
ATOM     21  C   UNL A   1      30.738  27.479  22.717  1.00  0.00     0.091 C 
ENDBRANCH  14  15
ENDBRANCH  11  14
ENDBRANCH   9  11
ENDBRANCH   7   9
ENDBRANCH   4   7
ENDBRANCH   2   3
ENDBRANCH   1   2
BRANCH   1  22
ATOM     22  C   UNL A   1      37.711  22.493  25.532  1.00  0.00     0.002 C 
BRANCH  22  23
ATOM     23  C   UNL A   1      37.327  21.403  24.527  1.00  0.00     0.002 C 
BRANCH  23  24
ATOM     24  C   UNL A   1      37.967  20.031  24.757  1.00  0.00     0.021 C 
BRANCH  24  25
ATOM     25  C   UNL A   1      38.804  19.904  26.027  1.00  0.00     0.116 C 
BRANCH  25  26
ATOM     26  N   UNL A   1      40.036  19.168  25.815  1.00  0.00    -0.352 N 
ATOM     27  C   UNL A   1      41.335  19.575  25.972  1.00  0.00     0.251 C 
ATOM     28  H   UNL A   1      39.922  18.237  25.512  1.00  0.00     0.163 HD
ATOM     29  O   UNL A   1      42.251  18.837  25.613  1.00  0.00    -0.269 OA
BRANCH  27  30
ATOM     30  C   UNL A   1      41.651  20.900  26.553  1.00  0.00     0.039 A 
ATOM     31  C   UNL A   1      41.977  21.944  25.682  1.00  0.00     0.014 A 
ATOM     32  C   UNL A   1      41.687  21.110  27.935  1.00  0.00     0.014 A 
ATOM     33  C   UNL A   1      42.315  23.199  26.192  1.00  0.00     0.010 A 
ATOM     34  C   UNL A   1      41.965  22.380  28.443  1.00  0.00     0.010 A 
ATOM     35  C   UNL A   1      42.303  23.429  27.576  1.00  0.00    -0.014 A 
BRANCH  35  36
ATOM     36  C   UNL A   1      42.695  24.752  28.125  1.00  0.00     0.031 A 
ATOM     37  C   UNL A   1      41.653  25.813  28.354  1.00  0.00     0.074 A 
ATOM     38  C   UNL A   1      43.988  25.008  28.396  1.00  0.00     0.049 A 
ATOM     39  N   UNL A   1      41.797  27.026  28.826  1.00  0.00    -0.248 NA
ATOM     40  C   UNL A   1      40.271  25.475  27.979  1.00  0.00     0.031 C 
ATOM     41  C   UNL A   1      45.100  24.084  28.172  1.00  0.00     0.029 A 
ATOM     42  N   UNL A   1      44.585  26.126  28.923  1.00  0.00    -0.354 N 
ATOM     43  C   UNL A   1      40.531  27.598  28.790  1.00  0.00     0.074 A 
ATOM     44  C   UNL A   1      39.641  26.618  28.205  1.00  0.00     0.031 C 
ATOM     45  C   UNL A   1      46.241  24.662  28.582  1.00  0.00     0.029 A 
ATOM     46  C   UNL A   1      45.942  26.000  29.083  1.00  0.00     0.049 A 
ATOM     47  H   UNL A   1      44.086  26.940  29.162  1.00  0.00     0.167 HD
ATOM     48  C   UNL A   1      40.139  28.818  29.227  1.00  0.00     0.037 A 
ATOM     49  C   UNL A   1      46.842  26.864  29.590  1.00  0.00     0.037 A 
ATOM     50  C   UNL A   1      41.016  29.780  29.841  1.00  0.00     0.049 A 
ATOM     51  C   UNL A   1      46.375  28.193  30.113  1.00  0.00     0.074 A 
ATOM     52  C   UNL A   1      40.706  31.025  30.362  1.00  0.00     0.029 A 
ATOM     53  N   UNL A   1      42.377  29.597  30.026  1.00  0.00    -0.354 N 
ATOM     54  N   UNL A   1      45.165  28.697  30.128  1.00  0.00    -0.248 NA
ATOM     55  C   UNL A   1      47.398  29.067  30.704  1.00  0.00     0.031 C 
ATOM     56  C   UNL A   1      41.886  31.605  30.841  1.00  0.00     0.029 A 
ATOM     57  C   UNL A   1      42.923  30.707  30.650  1.00  0.00     0.049 A 
ATOM     58  H   UNL A   1      42.883  28.797  29.755  1.00  0.00     0.167 HD
ATOM     59  C   UNL A   1      45.275  29.931  30.757  1.00  0.00     0.074 A 
ATOM     60  C   UNL A   1      46.668  30.093  31.118  1.00  0.00     0.031 C 
ATOM     61  C   UNL A   1      44.310  30.846  31.012  1.00  0.00     0.037 A 
BRANCH  48  62
ATOM     62  C   UNL A   1      38.692  29.175  29.060  1.00  0.00     0.057 A 
ATOM     63  C   UNL A   1      38.175  29.594  27.827  1.00  0.00     0.134 A 
ATOM     64  C   UNL A   1      37.802  29.086  30.137  1.00  0.00     0.134 A 
ATOM     65  F   UNL A   1      38.978  29.716  26.760  1.00  0.00    -0.206 F 
ATOM     66  C   UNL A   1      36.830  29.939  27.678  1.00  0.00     0.040 A 
ATOM     67  C   UNL A   1      36.450  29.403  29.995  1.00  0.00     0.040 A 
ATOM     68  F   UNL A   1      38.231  28.687  31.344  1.00  0.00    -0.206 F 
ATOM     69  C   UNL A   1      35.963  29.839  28.763  1.00  0.00     0.006 A 
ENDBRANCH  48  62
BRANCH  49  70
ATOM     70  C   UNL A   1      48.271  26.477  29.679  1.00  0.00     0.057 A 
ATOM     71  C   UNL A   1      48.765  25.802  30.801  1.00  0.00     0.134 A 
ATOM     72  C   UNL A   1      49.173  26.774  28.652  1.00  0.00     0.134 A 
ATOM     73  F   UNL A   1      47.949  25.507  31.823  1.00  0.00    -0.206 F 
ATOM     74  C   UNL A   1      50.111  25.453  30.909  1.00  0.00     0.040 A 
ATOM     75  C   UNL A   1      50.519  26.413  28.737  1.00  0.00     0.040 A 
ATOM     76  F   UNL A   1      48.758  27.411  27.547  1.00  0.00    -0.206 F 
ATOM     77  C   UNL A   1      50.992  25.755  29.873  1.00  0.00     0.006 A 
ENDBRANCH  49  70
BRANCH  61  78
ATOM     78  C   UNL A   1      44.722  32.084  31.750  1.00  0.00     0.057 A 
ATOM     79  C   UNL A   1      45.163  33.232  31.079  1.00  0.00     0.134 A 
ATOM     80  C   UNL A   1      44.661  32.134  33.148  1.00  0.00     0.134 A 
ATOM     81  F   UNL A   1      45.257  33.242  29.741  1.00  0.00    -0.206 F 
ATOM     82  C   UNL A   1      45.551  34.378  31.774  1.00  0.00     0.040 A 
ATOM     83  C   UNL A   1      45.025  33.281  33.853  1.00  0.00     0.040 A 
ATOM     84  F   UNL A   1      44.241  31.070  33.849  1.00  0.00    -0.206 F 
ATOM     85  C   UNL A   1      45.479  34.405  33.166  1.00  0.00     0.006 A 
ENDBRANCH  61  78
ENDBRANCH  35  36
ENDBRANCH  27  30
ENDBRANCH  25  26
ENDBRANCH  24  25
ENDBRANCH  23  24
ENDBRANCH  22  23
ENDBRANCH   1  22
TORSDOF 17
ENDMDL
MODEL 3
REMARK VINA RESULT:     -10.2      5.367     10.331
REMARK SMILES Cc1noc(C)c1C[NH2+][C@H](C)[C@H](C)C(=O)NCCCCCCNC(=O)c1ccc(-c2c3nc(c(-c4c(F)cccc4F)c4ccc([nH]4)c(-c4c(F)cccc4F)c4nc(c(-c5c(F)cccc5F)c5ccc2[nH]5)C=C4)C=C3)cc1
REMARK SMILES IDX 18 1 17 2 16 3 14 4 15 5 12 7 13 8 10 9 11 10 9 11 8 14 7 15
REMARK SMILES IDX 1 16 2 17 3 18 4 19 5 20 6 21 19 22 20 23 21 24 22 25 23 26
REMARK SMILES IDX 24 27 25 29 26 30 27 31 79 32 28 33 78 34 29 35 30 36 31 37
REMARK SMILES IDX 72 38 32 39 77 40 71 41 73 42 33 43 76 44 70 45 69 46 34 48
REMARK SMILES IDX 60 49 43 50 59 51 44 52 47 53 58 54 74 55 45 56 46 57 57 59
REMARK SMILES IDX 75 60 48 61 35 62 36 63 41 64 37 65 38 66 40 67 42 68 39 69
REMARK SMILES IDX 61 70 62 71 67 72 63 73 64 74 66 75 68 76 65 77 49 78 50 79
REMARK SMILES IDX 55 80 51 81 52 82 54 83 56 84 53 85
REMARK H PARENT 16 6 9 12 9 13 23 28 73 47 47 58
REMARK Flexibility Score: inf
ROOT
ATOM      1  C   UNL A   1      35.223  31.517  28.463  1.00  0.00     0.021 C 
ENDROOT
BRANCH   1   2
ATOM      2  C   UNL A   1      34.964  30.287  27.598  1.00  0.00     0.116 C 
BRANCH   2   3
ATOM      3  N   UNL A   1      33.555  29.945  27.552  1.00  0.00    -0.356 N 
ATOM      4  C   UNL A   1      32.857  29.142  26.707  1.00  0.00     0.228 C 
ATOM      5  O   UNL A   1      31.648  29.009  26.915  1.00  0.00    -0.275 OA
ATOM      6  H   UNL A   1      33.011  30.369  28.255  1.00  0.00     0.163 HD
BRANCH   4   7
ATOM      7  C   UNL A   1      33.523  28.410  25.542  1.00  0.00     0.133 C 
ATOM      8  C   UNL A   1      33.335  26.897  25.731  1.00  0.00     0.024 C 
BRANCH   7   9
ATOM      9  C   UNL A   1      33.102  28.985  24.157  1.00  0.00     0.191 C 
ATOM     10  C   UNL A   1      33.415  27.989  23.021  1.00  0.00     0.076 C 
BRANCH   9  11
ATOM     11  N   UNL A   1      31.692  29.366  23.947  1.00  0.00    -0.339 N 
ATOM     12  H   UNL A   1      31.141  28.890  24.662  1.00  0.00     0.346 HD
ATOM     13  H   UNL A   1      31.698  30.386  23.993  1.00  0.00     0.346 HD
BRANCH  11  14
ATOM     14  C   UNL A   1      31.083  29.069  22.666  1.00  0.00     0.303 C 
BRANCH  14  15
ATOM     15  C   UNL A   1      29.704  28.584  22.924  1.00  0.00     0.071 A 
ATOM     16  C   UNL A   1      28.288  30.545  21.948  1.00  0.00     0.071 C 
ATOM     17  C   UNL A   1      28.479  29.238  22.617  1.00  0.00     0.090 A 
ATOM     18  N   UNL A   1      27.423  28.517  23.014  1.00  0.00    -0.085 NA
ATOM     19  O   UNL A   1      27.944  27.368  23.577  1.00  0.00    -0.361 OA
ATOM     20  C   UNL A   1      29.301  27.408  23.521  1.00  0.00     0.142 A 
ATOM     21  C   UNL A   1      30.015  26.246  24.083  1.00  0.00     0.091 C 
ENDBRANCH  14  15
ENDBRANCH  11  14
ENDBRANCH   9  11
ENDBRANCH   7   9
ENDBRANCH   4   7
ENDBRANCH   2   3
ENDBRANCH   1   2
BRANCH   1  22
ATOM     22  C   UNL A   1      34.367  32.741  28.115  1.00  0.00     0.002 C 
BRANCH  22  23
ATOM     23  C   UNL A   1      34.133  33.730  29.260  1.00  0.00     0.002 C 
BRANCH  23  24
ATOM     24  C   UNL A   1      33.104  34.831  28.987  1.00  0.00     0.021 C 
BRANCH  24  25
ATOM     25  C   UNL A   1      33.330  36.139  29.742  1.00  0.00     0.116 C 
BRANCH  25  26
ATOM     26  N   UNL A   1      32.471  36.271  30.903  1.00  0.00    -0.352 N 
ATOM     27  C   UNL A   1      32.614  35.740  32.159  1.00  0.00     0.251 C 
ATOM     28  H   UNL A   1      31.667  36.823  30.770  1.00  0.00     0.163 HD
ATOM     29  O   UNL A   1      31.703  35.861  32.977  1.00  0.00    -0.269 OA
BRANCH  27  30
ATOM     30  C   UNL A   1      33.842  35.006  32.539  1.00  0.00     0.039 A 
ATOM     31  C   UNL A   1      35.073  35.651  32.388  1.00  0.00     0.014 A 
ATOM     32  C   UNL A   1      33.801  33.681  32.986  1.00  0.00     0.014 A 
ATOM     33  C   UNL A   1      36.256  34.980  32.703  1.00  0.00     0.010 A 
ATOM     34  C   UNL A   1      34.978  33.032  33.359  1.00  0.00     0.010 A 
ATOM     35  C   UNL A   1      36.218  33.668  33.199  1.00  0.00    -0.014 A 
BRANCH  35  36
ATOM     36  C   UNL A   1      37.474  32.939  33.503  1.00  0.00     0.031 A 
ATOM     37  C   UNL A   1      38.220  33.219  34.779  1.00  0.00     0.074 A 
ATOM     38  C   UNL A   1      37.958  32.042  32.624  1.00  0.00     0.049 A 
ATOM     39  N   UNL A   1      39.331  32.686  35.223  1.00  0.00    -0.248 NA
ATOM     40  C   UNL A   1      37.657  34.253  35.661  1.00  0.00     0.031 C 
ATOM     41  C   UNL A   1      37.358  31.717  31.329  1.00  0.00     0.029 A 
ATOM     42  N   UNL A   1      39.068  31.238  32.688  1.00  0.00    -0.354 N 
ATOM     43  C   UNL A   1      39.605  33.329  36.424  1.00  0.00     0.074 A 
ATOM     44  C   UNL A   1      38.573  34.325  36.615  1.00  0.00     0.031 C 
ATOM     45  C   UNL A   1      38.092  30.763  30.733  1.00  0.00     0.029 A 
ATOM     46  C   UNL A   1      39.220  30.422  31.596  1.00  0.00     0.049 A 
ATOM     47  H   UNL A   1      39.696  31.247  33.447  1.00  0.00     0.167 HD
ATOM     48  C   UNL A   1      40.610  33.096  37.301  1.00  0.00     0.037 A 
ATOM     49  C   UNL A   1      40.156  29.493  31.327  1.00  0.00     0.037 A 
ATOM     50  C   UNL A   1      41.617  32.081  37.130  1.00  0.00     0.049 A 
ATOM     51  C   UNL A   1      41.234  29.218  32.337  1.00  0.00     0.074 A 
ATOM     52  C   UNL A   1      42.649  31.733  37.984  1.00  0.00     0.029 A 
ATOM     53  N   UNL A   1      41.710  31.244  36.029  1.00  0.00    -0.354 N 
ATOM     54  N   UNL A   1      41.446  29.792  33.496  1.00  0.00    -0.248 NA
ATOM     55  C   UNL A   1      42.193  28.154  32.008  1.00  0.00     0.031 C 
ATOM     56  C   UNL A   1      43.381  30.700  37.389  1.00  0.00     0.029 A 
ATOM     57  C   UNL A   1      42.784  30.382  36.180  1.00  0.00     0.049 A 
ATOM     58  H   UNL A   1      41.103  31.259  35.254  1.00  0.00     0.167 HD
ATOM     59  C   UNL A   1      42.542  29.140  34.048  1.00  0.00     0.074 A 
ATOM     60  C   UNL A   1      42.941  28.120  33.101  1.00  0.00     0.031 C 
ATOM     61  C   UNL A   1      43.160  29.365  35.233  1.00  0.00     0.037 A 
BRANCH  48  62
ATOM     62  C   UNL A   1      40.662  33.952  38.531  1.00  0.00     0.057 A 
ATOM     63  C   UNL A   1      41.438  35.118  38.584  1.00  0.00     0.134 A 
ATOM     64  C   UNL A   1      39.919  33.619  39.670  1.00  0.00     0.134 A 
ATOM     65  F   UNL A   1      42.185  35.485  37.532  1.00  0.00    -0.206 F 
ATOM     66  C   UNL A   1      41.494  35.907  39.734  1.00  0.00     0.040 A 
ATOM     67  C   UNL A   1      39.947  34.413  40.817  1.00  0.00     0.040 A 
ATOM     68  F   UNL A   1      39.151  32.519  39.685  1.00  0.00    -0.206 F 
ATOM     69  C   UNL A   1      40.743  35.557  40.854  1.00  0.00     0.006 A 
ENDBRANCH  48  62
BRANCH  49  70
ATOM     70  C   UNL A   1      40.087  28.714  30.067  1.00  0.00     0.057 A 
ATOM     71  C   UNL A   1      39.339  27.533  29.992  1.00  0.00     0.134 A 
ATOM     72  C   UNL A   1      40.764  29.126  28.914  1.00  0.00     0.134 A 
ATOM     73  F   UNL A   1      38.682  27.081  31.070  1.00  0.00    -0.206 F 
ATOM     74  C   UNL A   1      39.282  26.777  28.821  1.00  0.00     0.040 A 
ATOM     75  C   UNL A   1      40.700  28.391  27.729  1.00  0.00     0.040 A 
ATOM     76  F   UNL A   1      41.490  30.253  28.920  1.00  0.00    -0.206 F 
ATOM     77  C   UNL A   1      39.962  27.208  27.683  1.00  0.00     0.006 A 
ENDBRANCH  49  70
BRANCH  61  78
ATOM     78  C   UNL A   1      44.306  28.466  35.585  1.00  0.00     0.057 A 
ATOM     79  C   UNL A   1      45.627  28.786  35.246  1.00  0.00     0.134 A 
ATOM     80  C   UNL A   1      44.087  27.275  36.288  1.00  0.00     0.134 A 
ATOM     81  F   UNL A   1      45.900  29.906  34.560  1.00  0.00    -0.206 F 
ATOM     82  C   UNL A   1      46.688  27.940  35.572  1.00  0.00     0.040 A 
ATOM     83  C   UNL A   1      45.142  26.432  36.639  1.00  0.00     0.040 A 
ATOM     84  F   UNL A   1      42.846  26.916  36.648  1.00  0.00    -0.206 F 
ATOM     85  C   UNL A   1      46.446  26.760  36.274  1.00  0.00     0.006 A 
ENDBRANCH  61  78
ENDBRANCH  35  36
ENDBRANCH  27  30
ENDBRANCH  25  26
ENDBRANCH  24  25
ENDBRANCH  23  24
ENDBRANCH  22  23
ENDBRANCH   1  22
TORSDOF 17
ENDMDL
