MODEL 1
REMARK VINA RESULT:     -11.2      0.000      0.000
REMARK SMILES O=C(NCCCCCCNC(=O)c1cc(OCc2ccccc2C(F)(F)F)cs1)c1ccc(-c2c3nc(c(-c4c(F)cccc4F)c4ccc([nH]4)c(-c4c(F)cccc4F)c4nc(c(-c5c(F)cccc5F)c5ccc2[nH]5)C=C4)C=C3)cc1
REMARK SMILES IDX 7 1 6 2 5 3 4 4 3 5 1 6 2 7 30 9 31 10 83 11 32 12 82 13
REMARK SMILES IDX 33 14 34 15 35 16 76 17 36 18 81 19 75 20 77 21 37 22 80 23
REMARK SMILES IDX 74 24 73 25 38 27 64 28 47 29 63 30 48 31 51 32 62 33 78 34
REMARK SMILES IDX 49 35 50 36 61 38 79 39 52 40 39 41 40 42 45 43 41 44 42 45
REMARK SMILES IDX 44 46 46 47 43 48 65 49 66 50 71 51 67 52 68 53 70 54 72 55
REMARK SMILES IDX 69 56 53 57 54 58 59 59 55 60 56 61 58 62 60 63 57 64 8 65
REMARK SMILES IDX 9 66 10 67 11 68 12 70 13 71 14 72 29 73 15 74 28 75 16 76
REMARK SMILES IDX 17 77 18 78 19 79 23 80 20 81 22 82 21 83 24 84 25 85 26 86
REMARK SMILES IDX 27 87
REMARK H PARENT 3 8 77 26 51 37 10 69
REMARK Flexibility Score: inf
ROOT
ATOM      1  C   UNL A   1      36.046  21.782  25.702  1.00  0.00     0.002 C 
ENDROOT
BRANCH   1   2
ATOM      2  C   UNL A   1      36.271  20.408  25.063  1.00  0.00     0.002 C 
BRANCH   2   3
ATOM      3  C   UNL A   1      37.711  20.086  24.666  1.00  0.00     0.021 C 
BRANCH   3   4
ATOM      4  C   UNL A   1      38.762  20.338  25.740  1.00  0.00     0.116 C 
BRANCH   4   5
ATOM      5  N   UNL A   1      39.848  19.373  25.716  1.00  0.00    -0.352 N 
ATOM      6  O   UNL A   1      41.972  18.622  25.843  1.00  0.00    -0.269 OA
ATOM      7  C   UNL A   1      41.173  19.531  26.049  1.00  0.00     0.251 C 
ATOM      8  H   UNL A   1      39.598  18.470  25.415  1.00  0.00     0.163 HD
BRANCH   7   9
ATOM      9  C   UNL A   1      41.652  20.810  26.623  1.00  0.00     0.039 A 
ATOM     10  C   UNL A   1      41.620  21.040  28.000  1.00  0.00     0.014 A 
ATOM     11  C   UNL A   1      42.142  21.799  25.764  1.00  0.00     0.014 A 
ATOM     12  C   UNL A   1      41.916  22.306  28.497  1.00  0.00     0.010 A 
ATOM     13  C   UNL A   1      42.523  23.043  26.275  1.00  0.00     0.010 A 
ATOM     14  C   UNL A   1      42.368  23.324  27.641  1.00  0.00    -0.014 A 
BRANCH  14  15
ATOM     15  C   UNL A   1      42.686  24.663  28.207  1.00  0.00     0.031 A 
ATOM     16  C   UNL A   1      44.106  25.061  28.516  1.00  0.00     0.074 A 
ATOM     17  C   UNL A   1      41.688  25.546  28.397  1.00  0.00     0.049 A 
ATOM     18  N   UNL A   1      44.564  26.209  28.948  1.00  0.00    -0.248 NA
ATOM     19  C   UNL A   1      45.145  24.037  28.324  1.00  0.00     0.031 C 
ATOM     20  C   UNL A   1      40.269  25.278  28.153  1.00  0.00     0.029 A 
ATOM     21  N   UNL A   1      41.712  26.854  28.810  1.00  0.00    -0.354 N 
ATOM     22  C   UNL A   1      45.935  26.041  29.103  1.00  0.00     0.074 A 
ATOM     23  C   UNL A   1      46.232  24.672  28.740  1.00  0.00     0.031 C 
ATOM     24  C   UNL A   1      39.566  26.400  28.367  1.00  0.00     0.029 A 
ATOM     25  C   UNL A   1      40.475  27.451  28.811  1.00  0.00     0.049 A 
ATOM     26  H   UNL A   1      42.536  27.319  29.082  1.00  0.00     0.167 HD
ATOM     27  C   UNL A   1      46.861  26.945  29.504  1.00  0.00     0.037 A 
ATOM     28  C   UNL A   1      40.109  28.706  29.133  1.00  0.00     0.037 A 
ATOM     29  C   UNL A   1      46.570  28.315  29.841  1.00  0.00     0.049 A 
ATOM     30  C   UNL A   1      41.158  29.688  29.567  1.00  0.00     0.074 A 
ATOM     31  C   UNL A   1      47.450  29.319  30.213  1.00  0.00     0.029 A 
ATOM     32  N   UNL A   1      45.301  28.876  29.848  1.00  0.00    -0.354 N 
ATOM     33  N   UNL A   1      42.454  29.524  29.664  1.00  0.00    -0.248 NA
ATOM     34  C   UNL A   1      40.690  31.031  29.935  1.00  0.00     0.031 C 
ATOM     35  C   UNL A   1      46.709  30.475  30.482  1.00  0.00     0.029 A 
ATOM     36  C   UNL A   1      45.374  30.205  30.236  1.00  0.00     0.049 A 
ATOM     37  H   UNL A   1      44.473  28.400  29.614  1.00  0.00     0.167 HD
ATOM     38  C   UNL A   1      42.960  30.747  30.084  1.00  0.00     0.074 A 
ATOM     39  C   UNL A   1      41.832  31.647  30.205  1.00  0.00     0.031 C 
ATOM     40  C   UNL A   1      44.244  31.092  30.347  1.00  0.00     0.037 A 
BRANCH  27  41
ATOM     41  C   UNL A   1      48.284  26.481  29.614  1.00  0.00     0.057 A 
ATOM     42  C   UNL A   1      49.214  26.686  28.587  1.00  0.00     0.134 A 
ATOM     43  C   UNL A   1      48.741  25.858  30.784  1.00  0.00     0.134 A 
ATOM     44  F   UNL A   1      48.839  27.265  27.436  1.00  0.00    -0.206 F 
ATOM     45  C   UNL A   1      50.542  26.271  28.711  1.00  0.00     0.040 A 
ATOM     46  C   UNL A   1      50.071  25.459  30.927  1.00  0.00     0.040 A 
ATOM     47  F   UNL A   1      47.904  25.637  31.808  1.00  0.00    -0.206 F 
ATOM     48  C   UNL A   1      50.975  25.662  29.887  1.00  0.00     0.006 A 
ENDBRANCH  27  41
BRANCH  28  49
ATOM     49  C   UNL A   1      38.685  29.106  29.037  1.00  0.00     0.057 A 
ATOM     50  C   UNL A   1      37.842  29.048  30.153  1.00  0.00     0.134 A 
ATOM     51  C   UNL A   1      38.135  29.562  27.834  1.00  0.00     0.134 A 
ATOM     52  F   UNL A   1      38.309  28.603  31.329  1.00  0.00    -0.206 F 
ATOM     53  C   UNL A   1      36.498  29.415  30.072  1.00  0.00     0.040 A 
ATOM     54  C   UNL A   1      36.800  29.958  27.745  1.00  0.00     0.040 A 
ATOM     55  F   UNL A   1      38.895  29.647  26.732  1.00  0.00    -0.206 F 
ATOM     56  C   UNL A   1      35.976  29.878  28.866  1.00  0.00     0.006 A 
ENDBRANCH  28  49
BRANCH  40  57
ATOM     57  C   UNL A   1      44.496  32.512  30.754  1.00  0.00     0.057 A 
ATOM     58  C   UNL A   1      44.740  33.520  29.813  1.00  0.00     0.134 A 
ATOM     59  C   UNL A   1      44.481  32.878  32.107  1.00  0.00     0.134 A 
ATOM     60  F   UNL A   1      44.781  33.230  28.504  1.00  0.00    -0.206 F 
ATOM     61  C   UNL A   1      44.986  34.837  30.204  1.00  0.00     0.040 A 
ATOM     62  C   UNL A   1      44.702  34.196  32.507  1.00  0.00     0.040 A 
ATOM     63  F   UNL A   1      44.247  31.961  33.058  1.00  0.00    -0.206 F 
ATOM     64  C   UNL A   1      44.963  35.179  31.555  1.00  0.00     0.006 A 
ENDBRANCH  40  57
ENDBRANCH  14  15
ENDBRANCH   7   9
ENDBRANCH   4   5
ENDBRANCH   3   4
ENDBRANCH   2   3
ENDBRANCH   1   2
BRANCH   1  65
ATOM     65  C   UNL A   1      34.922  21.862  26.739  1.00  0.00     0.021 C 
BRANCH  65  66
ATOM     66  C   UNL A   1      33.564  21.347  26.265  1.00  0.00     0.116 C 
BRANCH  66  67
ATOM     67  N   UNL A   1      32.457  22.021  26.928  1.00  0.00    -0.351 N 
ATOM     68  C   UNL A   1      31.831  23.200  26.588  1.00  0.00     0.261 C 
ATOM     69  H   UNL A   1      32.107  21.572  27.731  1.00  0.00     0.163 HD
ATOM     70  O   UNL A   1      31.024  23.677  27.388  1.00  0.00    -0.268 OA
BRANCH  68  71
ATOM     71  C   UNL A   1      32.153  23.797  25.311  1.00  0.00     0.096 A 
ATOM     72  C   UNL A   1      33.133  24.729  25.029  1.00  0.00     0.072 A 
ATOM     73  S   UNL A   1      31.278  23.370  23.909  1.00  0.00    -0.135 S 
ATOM     74  C   UNL A   1      33.013  25.258  23.715  1.00  0.00     0.131 A 
ATOM     75  C   UNL A   1      32.069  24.575  22.983  1.00  0.00     0.112 A 
BRANCH  74  76
ATOM     76  O   UNL A   1      33.669  26.305  23.149  1.00  0.00    -0.488 OA
BRANCH  76  77
ATOM     77  C   UNL A   1      32.861  27.452  22.847  1.00  0.00     0.266 C 
BRANCH  77  78
ATOM     78  C   UNL A   1      32.657  28.389  24.032  1.00  0.00     0.001 A 
ATOM     79  C   UNL A   1      33.687  28.456  24.994  1.00  0.00     0.008 A 
ATOM     80  C   UNL A   1      31.490  29.166  24.237  1.00  0.00     0.062 A 
ATOM     81  C   UNL A   1      33.596  29.294  26.106  1.00  0.00     0.000 A 
ATOM     82  C   UNL A   1      31.428  30.015  25.366  1.00  0.00     0.013 A 
ATOM     83  C   UNL A   1      32.469  30.079  26.290  1.00  0.00     0.001 A 
BRANCH  80  84
ATOM     84  C   UNL A   1      30.300  29.217  23.301  1.00  0.00     0.416 C 
ATOM     85  F   UNL A   1      30.643  29.609  22.041  1.00  0.00    -0.166 F 
ATOM     86  F   UNL A   1      29.727  27.989  23.159  1.00  0.00    -0.166 F 
ATOM     87  F   UNL A   1      29.300  30.055  23.675  1.00  0.00    -0.166 F 
ENDBRANCH  80  84
ENDBRANCH  77  78
ENDBRANCH  76  77
ENDBRANCH  74  76
ENDBRANCH  68  71
ENDBRANCH  66  67
ENDBRANCH  65  66
ENDBRANCH   1  65
TORSDOF 17
ENDMDL
MODEL 2
REMARK VINA RESULT:     -11.1      4.535      9.557
REMARK SMILES O=C(NCCCCCCNC(=O)c1cc(OCc2ccccc2C(F)(F)F)cs1)c1ccc(-c2c3nc(c(-c4c(F)cccc4F)c4ccc([nH]4)c(-c4c(F)cccc4F)c4nc(c(-c5c(F)cccc5F)c5ccc2[nH]5)C=C4)C=C3)cc1
REMARK SMILES IDX 7 1 6 2 5 3 4 4 3 5 1 6 2 7 30 9 31 10 83 11 32 12 82 13
REMARK SMILES IDX 33 14 34 15 35 16 76 17 36 18 81 19 75 20 77 21 37 22 80 23
REMARK SMILES IDX 74 24 73 25 38 27 64 28 47 29 63 30 48 31 51 32 62 33 78 34
REMARK SMILES IDX 49 35 50 36 61 38 79 39 52 40 39 41 40 42 45 43 41 44 42 45
REMARK SMILES IDX 44 46 46 47 43 48 65 49 66 50 71 51 67 52 68 53 70 54 72 55
REMARK SMILES IDX 69 56 53 57 54 58 59 59 55 60 56 61 58 62 60 63 57 64 8 65
REMARK SMILES IDX 9 66 10 67 11 68 12 70 13 71 14 72 29 73 15 74 28 75 16 76
REMARK SMILES IDX 17 77 18 78 19 79 23 80 20 81 22 82 21 83 24 84 25 85 26 86
REMARK SMILES IDX 27 87
REMARK H PARENT 3 8 77 26 51 37 10 69
REMARK Flexibility Score: inf
ROOT
ATOM      1  C   UNL A   1      33.042  29.648  25.829  1.00  0.00     0.002 C 
ENDROOT
BRANCH   1   2
ATOM      2  C   UNL A   1      31.650  30.269  25.678  1.00  0.00     0.002 C 
BRANCH   2   3
ATOM      3  C   UNL A   1      31.410  31.563  26.456  1.00  0.00     0.021 C 
BRANCH   3   4
ATOM      4  C   UNL A   1      32.655  32.220  27.040  1.00  0.00     0.116 C 
BRANCH   4   5
ATOM      5  N   UNL A   1      32.438  33.598  27.447  1.00  0.00    -0.352 N 
ATOM      6  O   UNL A   1      32.694  35.474  28.674  1.00  0.00    -0.269 OA
ATOM      7  C   UNL A   1      33.109  34.357  28.377  1.00  0.00     0.251 C 
ATOM      8  H   UNL A   1      31.698  34.057  26.988  1.00  0.00     0.163 HD
BRANCH   7   9
ATOM      9  C   UNL A   1      34.311  33.818  29.055  1.00  0.00     0.039 A 
ATOM     10  C   UNL A   1      35.592  34.243  28.696  1.00  0.00     0.014 A 
ATOM     11  C   UNL A   1      34.151  32.868  30.069  1.00  0.00     0.014 A 
ATOM     12  C   UNL A   1      36.707  33.602  29.228  1.00  0.00     0.010 A 
ATOM     13  C   UNL A   1      35.274  32.287  30.665  1.00  0.00     0.010 A 
ATOM     14  C   UNL A   1      36.562  32.614  30.216  1.00  0.00    -0.014 A 
BRANCH  14  15
ATOM     15  C   UNL A   1      37.776  31.956  30.771  1.00  0.00     0.031 A 
ATOM     16  C   UNL A   1      38.259  32.261  32.164  1.00  0.00     0.074 A 
ATOM     17  C   UNL A   1      38.419  31.037  30.026  1.00  0.00     0.049 A 
ATOM     18  N   UNL A   1      39.257  31.728  32.826  1.00  0.00    -0.248 NA
ATOM     19  C   UNL A   1      37.537  33.302  32.911  1.00  0.00     0.031 C 
ATOM     20  C   UNL A   1      38.062  30.663  28.656  1.00  0.00     0.029 A 
ATOM     21  N   UNL A   1      39.488  30.228  30.322  1.00  0.00    -0.354 N 
ATOM     22  C   UNL A   1      39.298  32.383  34.050  1.00  0.00     0.074 A 
ATOM     23  C   UNL A   1      38.240  33.369  34.034  1.00  0.00     0.031 C 
ATOM     24  C   UNL A   1      38.858  29.664  28.250  1.00  0.00     0.029 A 
ATOM     25  C   UNL A   1      39.814  29.359  29.310  1.00  0.00     0.049 A 
ATOM     26  H   UNL A   1      39.975  30.270  31.177  1.00  0.00     0.167 HD
ATOM     27  C   UNL A   1      40.137  32.178  35.095  1.00  0.00     0.037 A 
ATOM     28  C   UNL A   1      40.775  28.420  29.239  1.00  0.00     0.037 A 
ATOM     29  C   UNL A   1      41.175  31.179  35.123  1.00  0.00     0.049 A 
ATOM     30  C   UNL A   1      41.684  28.209  30.414  1.00  0.00     0.074 A 
ATOM     31  C   UNL A   1      42.044  30.865  36.156  1.00  0.00     0.029 A 
ATOM     32  N   UNL A   1      41.486  30.332  34.070  1.00  0.00    -0.354 N 
ATOM     33  N   UNL A   1      41.680  28.807  31.580  1.00  0.00    -0.248 NA
ATOM     34  C   UNL A   1      42.733  27.192  30.262  1.00  0.00     0.031 C 
ATOM     35  C   UNL A   1      42.905  29.855  35.713  1.00  0.00     0.029 A 
ATOM     36  C   UNL A   1      42.545  29.509  34.422  1.00  0.00     0.049 A 
ATOM     37  H   UNL A   1      41.024  30.318  33.201  1.00  0.00     0.167 HD
ATOM     38  C   UNL A   1      42.709  28.224  32.308  1.00  0.00     0.074 A 
ATOM     39  C   UNL A   1      43.303  27.214  31.458  1.00  0.00     0.031 C 
ATOM     40  C   UNL A   1      43.123  28.503  33.568  1.00  0.00     0.037 A 
BRANCH  27  41
ATOM     41  C   UNL A   1      39.977  33.060  36.299  1.00  0.00     0.057 A 
ATOM     42  C   UNL A   1      40.734  34.226  36.470  1.00  0.00     0.134 A 
ATOM     43  C   UNL A   1      39.020  32.762  37.278  1.00  0.00     0.134 A 
ATOM     44  F   UNL A   1      41.676  34.563  35.575  1.00  0.00    -0.206 F 
ATOM     45  C   UNL A   1      40.559  35.053  37.582  1.00  0.00     0.040 A 
ATOM     46  C   UNL A   1      38.822  33.594  38.383  1.00  0.00     0.040 A 
ATOM     47  F   UNL A   1      38.256  31.665  37.172  1.00  0.00    -0.206 F 
ATOM     48  C   UNL A   1      39.596  34.741  38.538  1.00  0.00     0.006 A 
ENDBRANCH  27  41
BRANCH  28  49
ATOM     49  C   UNL A   1      40.911  27.595  28.014  1.00  0.00     0.057 A 
ATOM     50  C   UNL A   1      40.251  26.367  27.894  1.00  0.00     0.134 A 
ATOM     51  C   UNL A   1      41.697  28.016  26.935  1.00  0.00     0.134 A 
ATOM     52  F   UNL A   1      39.497  25.904  28.902  1.00  0.00    -0.206 F 
ATOM     53  C   UNL A   1      40.377  25.580  26.749  1.00  0.00     0.040 A 
ATOM     54  C   UNL A   1      41.812  27.251  25.774  1.00  0.00     0.040 A 
ATOM     55  F   UNL A   1      42.348  29.188  26.988  1.00  0.00    -0.206 F 
ATOM     56  C   UNL A   1      41.156  26.026  25.682  1.00  0.00     0.006 A 
ENDBRANCH  28  49
BRANCH  40  57
ATOM     57  C   UNL A   1      44.250  27.678  34.111  1.00  0.00     0.057 A 
ATOM     58  C   UNL A   1      44.031  26.435  34.719  1.00  0.00     0.134 A 
ATOM     59  C   UNL A   1      45.574  28.125  34.010  1.00  0.00     0.134 A 
ATOM     60  F   UNL A   1      42.785  25.959  34.859  1.00  0.00    -0.206 F 
ATOM     61  C   UNL A   1      45.086  25.679  35.232  1.00  0.00     0.040 A 
ATOM     62  C   UNL A   1      46.639  27.367  34.498  1.00  0.00     0.040 A 
ATOM     63  F   UNL A   1      45.853  29.303  33.432  1.00  0.00    -0.206 F 
ATOM     64  C   UNL A   1      46.395  26.143  35.118  1.00  0.00     0.006 A 
ENDBRANCH  40  57
ENDBRANCH  14  15
ENDBRANCH   7   9
ENDBRANCH   4   5
ENDBRANCH   3   4
ENDBRANCH   2   3
ENDBRANCH   1   2
BRANCH   1  65
ATOM     65  C   UNL A   1      33.091  28.269  26.494  1.00  0.00     0.021 C 
BRANCH  65  66
ATOM     66  C   UNL A   1      33.607  27.137  25.607  1.00  0.00     0.116 C 
BRANCH  66  67
ATOM     67  N   UNL A   1      33.686  27.527  24.207  1.00  0.00    -0.351 N 
ATOM     68  C   UNL A   1      33.382  26.789  23.084  1.00  0.00     0.261 C 
ATOM     69  H   UNL A   1      34.002  28.444  24.040  1.00  0.00     0.163 HD
ATOM     70  O   UNL A   1      33.685  27.260  21.985  1.00  0.00    -0.268 OA
BRANCH  68  71
ATOM     71  C   UNL A   1      32.719  25.518  23.264  1.00  0.00     0.096 A 
ATOM     72  C   UNL A   1      33.271  24.253  23.209  1.00  0.00     0.072 A 
ATOM     73  S   UNL A   1      31.044  25.453  23.593  1.00  0.00    -0.135 S 
ATOM     74  C   UNL A   1      32.283  23.232  23.208  1.00  0.00     0.131 A 
ATOM     75  C   UNL A   1      31.030  23.744  23.453  1.00  0.00     0.112 A 
BRANCH  74  76
ATOM     76  O   UNL A   1      32.427  21.898  22.984  1.00  0.00    -0.488 OA
BRANCH  76  77
ATOM     77  C   UNL A   1      32.236  21.054  24.130  1.00  0.00     0.266 C 
BRANCH  77  78
ATOM     78  C   UNL A   1      33.038  19.758  24.078  1.00  0.00     0.001 A 
ATOM     79  C   UNL A   1      32.409  18.625  23.520  1.00  0.00     0.008 A 
ATOM     80  C   UNL A   1      34.355  19.620  24.581  1.00  0.00     0.062 A 
ATOM     81  C   UNL A   1      33.068  17.399  23.419  1.00  0.00     0.000 A 
ATOM     82  C   UNL A   1      35.004  18.370  24.456  1.00  0.00     0.013 A 
ATOM     83  C   UNL A   1      34.369  17.272  23.881  1.00  0.00     0.001 A 
BRANCH  80  84
ATOM     84  C   UNL A   1      35.173  20.735  25.201  1.00  0.00     0.416 C 
ATOM     85  F   UNL A   1      35.290  21.816  24.379  1.00  0.00    -0.166 F 
ATOM     86  F   UNL A   1      34.592  21.204  26.341  1.00  0.00    -0.166 F 
ATOM     87  F   UNL A   1      36.446  20.405  25.539  1.00  0.00    -0.166 F 
ENDBRANCH  80  84
ENDBRANCH  77  78
ENDBRANCH  76  77
ENDBRANCH  74  76
ENDBRANCH  68  71
ENDBRANCH  66  67
ENDBRANCH  65  66
ENDBRANCH   1  65
TORSDOF 17
ENDMDL
MODEL 3
REMARK VINA RESULT:     -11.1      4.513      9.452
REMARK SMILES O=C(NCCCCCCNC(=O)c1cc(OCc2ccccc2C(F)(F)F)cs1)c1ccc(-c2c3nc(c(-c4c(F)cccc4F)c4ccc([nH]4)c(-c4c(F)cccc4F)c4nc(c(-c5c(F)cccc5F)c5ccc2[nH]5)C=C4)C=C3)cc1
REMARK SMILES IDX 7 1 6 2 5 3 4 4 3 5 1 6 2 7 30 9 31 10 83 11 32 12 82 13
REMARK SMILES IDX 33 14 34 15 35 16 76 17 36 18 81 19 75 20 77 21 37 22 80 23
REMARK SMILES IDX 74 24 73 25 38 27 64 28 47 29 63 30 48 31 51 32 62 33 78 34
REMARK SMILES IDX 49 35 50 36 61 38 79 39 52 40 39 41 40 42 45 43 41 44 42 45
REMARK SMILES IDX 44 46 46 47 43 48 65 49 66 50 71 51 67 52 68 53 70 54 72 55
REMARK SMILES IDX 69 56 53 57 54 58 59 59 55 60 56 61 58 62 60 63 57 64 8 65
REMARK SMILES IDX 9 66 10 67 11 68 12 70 13 71 14 72 29 73 15 74 28 75 16 76
REMARK SMILES IDX 17 77 18 78 19 79 23 80 20 81 22 82 21 83 24 84 25 85 26 86
REMARK SMILES IDX 27 87
REMARK H PARENT 3 8 77 26 51 37 10 69
REMARK Flexibility Score: inf
ROOT
ATOM      1  C   UNL A   1      32.876  30.043  26.679  1.00  0.00     0.002 C 
ENDROOT
BRANCH   1   2
ATOM      2  C   UNL A   1      31.590  30.701  26.170  1.00  0.00     0.002 C 
BRANCH   2   3
ATOM      3  C   UNL A   1      31.403  32.172  26.539  1.00  0.00     0.021 C 
BRANCH   3   4
ATOM      4  C   UNL A   1      32.608  32.846  27.183  1.00  0.00     0.116 C 
BRANCH   4   5
ATOM      5  N   UNL A   1      32.335  34.204  27.626  1.00  0.00    -0.352 N 
ATOM      6  O   UNL A   1      32.515  36.055  28.902  1.00  0.00    -0.269 OA
ATOM      7  C   UNL A   1      32.974  34.964  28.578  1.00  0.00     0.251 C 
ATOM      8  H   UNL A   1      31.580  34.646  27.176  1.00  0.00     0.163 HD
BRANCH   7   9
ATOM      9  C   UNL A   1      34.194  34.455  29.246  1.00  0.00     0.039 A 
ATOM     10  C   UNL A   1      35.455  34.623  28.670  1.00  0.00     0.014 A 
ATOM     11  C   UNL A   1      34.072  33.795  30.473  1.00  0.00     0.014 A 
ATOM     12  C   UNL A   1      36.561  33.992  29.231  1.00  0.00     0.010 A 
ATOM     13  C   UNL A   1      35.201  33.235  31.081  1.00  0.00     0.010 A 
ATOM     14  C   UNL A   1      36.448  33.288  30.441  1.00  0.00    -0.014 A 
BRANCH  14  15
ATOM     15  C   UNL A   1      37.654  32.634  31.018  1.00  0.00     0.031 A 
ATOM     16  C   UNL A   1      38.229  33.085  32.334  1.00  0.00     0.074 A 
ATOM     17  C   UNL A   1      38.203  31.589  30.371  1.00  0.00     0.049 A 
ATOM     18  N   UNL A   1      39.232  32.582  33.011  1.00  0.00    -0.248 NA
ATOM     19  C   UNL A   1      37.607  34.256  32.971  1.00  0.00     0.031 C 
ATOM     20  C   UNL A   1      37.751  31.066  29.080  1.00  0.00     0.029 A 
ATOM     21  N   UNL A   1      39.241  30.762  30.718  1.00  0.00    -0.354 N 
ATOM     22  C   UNL A   1      39.377  33.385  34.136  1.00  0.00     0.074 A 
ATOM     23  C   UNL A   1      38.374  34.424  34.040  1.00  0.00     0.031 C 
ATOM     24  C   UNL A   1      38.468  29.976  28.771  1.00  0.00     0.029 A 
ATOM     25  C   UNL A   1      39.463  29.752  29.815  1.00  0.00     0.049 A 
ATOM     26  H   UNL A   1      39.777  30.883  31.536  1.00  0.00     0.167 HD
ATOM     27  C   UNL A   1      40.259  33.265  35.157  1.00  0.00     0.037 A 
ATOM     28  C   UNL A   1      40.367  28.755  29.822  1.00  0.00     0.037 A 
ATOM     29  C   UNL A   1      41.242  32.217  35.266  1.00  0.00     0.049 A 
ATOM     30  C   UNL A   1      41.327  28.641  30.969  1.00  0.00     0.074 A 
ATOM     31  C   UNL A   1      42.148  31.986  36.288  1.00  0.00     0.029 A 
ATOM     32  N   UNL A   1      41.448  31.224  34.319  1.00  0.00    -0.354 N 
ATOM     33  N   UNL A   1      41.420  29.383  32.045  1.00  0.00    -0.248 NA
ATOM     34  C   UNL A   1      42.309  27.551  30.901  1.00  0.00     0.031 C 
ATOM     35  C   UNL A   1      42.928  30.877  35.941  1.00  0.00     0.029 A 
ATOM     36  C   UNL A   1      42.478  30.390  34.725  1.00  0.00     0.049 A 
ATOM     37  H   UNL A   1      40.938  31.127  33.483  1.00  0.00     0.167 HD
ATOM     38  C   UNL A   1      42.455  28.837  32.793  1.00  0.00     0.074 A 
ATOM     39  C   UNL A   1      42.945  27.692  32.056  1.00  0.00     0.031 C 
ATOM     40  C   UNL A   1      42.953  29.250  33.984  1.00  0.00     0.037 A 
BRANCH  27  41
ATOM     41  C   UNL A   1      40.215  34.303  36.241  1.00  0.00     0.057 A 
ATOM     42  C   UNL A   1      40.967  35.482  36.170  1.00  0.00     0.134 A 
ATOM     43  C   UNL A   1      39.373  34.140  37.349  1.00  0.00     0.134 A 
ATOM     44  F   UNL A   1      41.802  35.696  35.141  1.00  0.00    -0.206 F 
ATOM     45  C   UNL A   1      40.899  36.453  37.172  1.00  0.00     0.040 A 
ATOM     46  C   UNL A   1      39.280  35.113  38.346  1.00  0.00     0.040 A 
ATOM     47  F   UNL A   1      38.620  33.037  37.475  1.00  0.00    -0.206 F 
ATOM     48  C   UNL A   1      40.048  36.272  38.260  1.00  0.00     0.006 A 
ENDBRANCH  27  41
BRANCH  28  49
ATOM     49  C   UNL A   1      40.390  27.773  28.711  1.00  0.00     0.057 A 
ATOM     50  C   UNL A   1      41.158  27.998  27.563  1.00  0.00     0.134 A 
ATOM     51  C   UNL A   1      39.652  26.585  28.773  1.00  0.00     0.134 A 
ATOM     52  F   UNL A   1      41.872  29.127  27.441  1.00  0.00    -0.206 F 
ATOM     53  C   UNL A   1      41.181  27.084  26.509  1.00  0.00     0.040 A 
ATOM     54  C   UNL A   1      39.686  25.650  27.737  1.00  0.00     0.040 A 
ATOM     55  F   UNL A   1      38.902  26.308  29.850  1.00  0.00    -0.206 F 
ATOM     56  C   UNL A   1      40.448  25.902  26.598  1.00  0.00     0.006 A 
ENDBRANCH  28  49
BRANCH  40  57
ATOM     57  C   UNL A   1      44.062  28.434  34.576  1.00  0.00     0.057 A 
ATOM     58  C   UNL A   1      45.409  28.733  34.339  1.00  0.00     0.134 A 
ATOM     59  C   UNL A   1      43.778  27.341  35.406  1.00  0.00     0.134 A 
ATOM     60  F   UNL A   1      45.746  29.758  33.541  1.00  0.00    -0.206 F 
ATOM     61  C   UNL A   1      46.435  27.959  34.885  1.00  0.00     0.040 A 
ATOM     62  C   UNL A   1      44.795  26.576  35.977  1.00  0.00     0.040 A 
ATOM     63  F   UNL A   1      42.508  27.005  35.679  1.00  0.00    -0.206 F 
ATOM     64  C   UNL A   1      46.128  26.879  35.710  1.00  0.00     0.006 A 
ENDBRANCH  40  57
ENDBRANCH  14  15
ENDBRANCH   7   9
ENDBRANCH   4   5
ENDBRANCH   3   4
ENDBRANCH   2   3
ENDBRANCH   1   2
BRANCH   1  65
ATOM     65  C   UNL A   1      32.694  28.758  27.493  1.00  0.00     0.021 C 
BRANCH  65  66
ATOM     66  C   UNL A   1      32.615  27.474  26.670  1.00  0.00     0.116 C 
BRANCH  66  67
ATOM     67  N   UNL A   1      31.401  26.719  26.943  1.00  0.00    -0.351 N 
ATOM     68  C   UNL A   1      30.626  25.981  26.075  1.00  0.00     0.261 C 
ATOM     69  H   UNL A   1      31.090  26.739  27.876  1.00  0.00     0.163 HD
ATOM     70  O   UNL A   1      29.542  25.560  26.485  1.00  0.00    -0.268 OA
BRANCH  68  71
ATOM     71  C   UNL A   1      31.137  25.738  24.745  1.00  0.00     0.096 A 
ATOM     72  C   UNL A   1      32.132  24.860  24.361  1.00  0.00     0.072 A 
ATOM     73  S   UNL A   1      30.504  26.586  23.405  1.00  0.00    -0.135 S 
ATOM     74  C   UNL A   1      32.529  25.050  23.010  1.00  0.00     0.131 A 
ATOM     75  C   UNL A   1      31.696  25.932  22.361  1.00  0.00     0.112 A 
BRANCH  74  76
ATOM     76  O   UNL A   1      33.583  24.511  22.341  1.00  0.00    -0.488 OA
BRANCH  76  77
ATOM     77  C   UNL A   1      33.635  23.076  22.321  1.00  0.00     0.266 C 
BRANCH  77  78
ATOM     78  C   UNL A   1      34.545  22.481  23.390  1.00  0.00     0.001 A 
ATOM     79  C   UNL A   1      35.872  22.956  23.454  1.00  0.00     0.008 A 
ATOM     80  C   UNL A   1      34.147  21.465  24.294  1.00  0.00     0.062 A 
ATOM     81  C   UNL A   1      36.774  22.480  24.406  1.00  0.00     0.000 A 
ATOM     82  C   UNL A   1      35.077  21.007  25.256  1.00  0.00     0.013 A 
ATOM     83  C   UNL A   1      36.375  21.509  25.313  1.00  0.00     0.001 A 
BRANCH  80  84
ATOM     84  C   UNL A   1      32.762  20.853  24.364  1.00  0.00     0.416 C 
ATOM     85  F   UNL A   1      32.424  20.193  23.220  1.00  0.00    -0.166 F 
ATOM     86  F   UNL A   1      32.679  19.926  25.360  1.00  0.00    -0.166 F 
ATOM     87  F   UNL A   1      31.750  21.729  24.584  1.00  0.00    -0.166 F 
ENDBRANCH  80  84
ENDBRANCH  77  78
ENDBRANCH  76  77
ENDBRANCH  74  76
ENDBRANCH  68  71
ENDBRANCH  66  67
ENDBRANCH  65  66
ENDBRANCH   1  65
TORSDOF 17
ENDMDL
