MODEL 1
REMARK VINA RESULT:     -12.1      0.000      0.000
REMARK SMILES CC1=C(C)C[C@@H](C(=O)NCc2cccnc2)[C@H](C(=O)NCCCCCCNC(=O)c2ccc(-c3c4nc(c(-c5c(F)cccc5F)c5ccc([nH]5)c(-c5c(F)cccc5F)c5nc(c(-c6c(F)cccc6F)c6ccc3[nH]6)C=C5)C=C4)cc2)C1
REMARK SMILES IDX 23 1 22 2 21 3 20 4 18 5 19 6 17 8 1 9 2 10 3 11 84 12 4 13
REMARK SMILES IDX 5 14 6 15 7 16 8 17 9 18 10 20 11 21 12 22 16 23 13 24 15 25
REMARK SMILES IDX 14 26 24 27 25 28 26 29 27 30 28 31 29 33 30 34 31 35 83 36
REMARK SMILES IDX 32 37 82 38 33 39 34 40 35 41 76 42 36 43 81 44 75 45 77 46
REMARK SMILES IDX 37 47 80 48 74 49 73 50 38 52 64 53 47 54 63 55 48 56 51 57
REMARK SMILES IDX 62 58 78 59 49 60 50 61 61 63 79 64 52 65 39 66 40 67 45 68
REMARK SMILES IDX 41 69 42 70 44 71 46 72 43 73 65 74 66 75 71 76 67 77 68 78
REMARK SMILES IDX 70 79 72 80 69 81 53 82 54 83 59 84 55 85 56 86 58 87 60 88
REMARK SMILES IDX 57 89
REMARK H PARENT 20 7 9 19 27 32 77 51 51 62
REMARK Flexibility Score: inf
ROOT
ATOM      1  C   UNL A   1      32.002  27.271  26.480  1.00  0.00     0.002 C 
ENDROOT
BRANCH   1   2
ATOM      2  C   UNL A   1      31.289  26.784  25.220  1.00  0.00     0.021 C 
BRANCH   2   3
ATOM      3  C   UNL A   1      31.611  25.348  24.843  1.00  0.00     0.116 C 
BRANCH   3   4
ATOM      4  N   UNL A   1      32.606  25.258  23.804  1.00  0.00    -0.356 N 
ATOM      5  C   UNL A   1      33.769  24.554  23.794  1.00  0.00     0.224 C 
ATOM      6  O   UNL A   1      34.438  24.571  22.758  1.00  0.00    -0.275 OA
ATOM      7  H   UNL A   1      32.419  25.779  22.991  1.00  0.00     0.163 HD
BRANCH   5   8
ATOM      8  C   UNL A   1      34.247  23.763  25.015  1.00  0.00     0.095 C 
ATOM      9  C   UNL A   1      38.038  23.964  26.065  1.00  0.00     0.039 C 
ATOM     10  C   UNL A   1      36.762  23.320  25.579  1.00  0.00    -0.074 C 
ATOM     11  C   UNL A   1      36.663  22.023  25.223  1.00  0.00    -0.074 C 
ATOM     12  C   UNL A   1      35.595  24.281  25.531  1.00  0.00     0.045 C 
ATOM     13  C   UNL A   1      37.829  21.066  25.158  1.00  0.00     0.039 C 
ATOM     14  C   UNL A   1      35.357  21.385  24.796  1.00  0.00     0.045 C 
ATOM     15  C   UNL A   1      34.090  22.248  24.812  1.00  0.00     0.095 C 
BRANCH  15  16
ATOM     16  C   UNL A   1      33.027  21.672  25.752  1.00  0.00     0.224 C 
ATOM     17  O   UNL A   1      32.764  22.251  26.811  1.00  0.00    -0.275 OA
ATOM     18  N   UNL A   1      32.348  20.526  25.486  1.00  0.00    -0.352 N 
ATOM     19  H   UNL A   1      31.845  20.160  26.250  1.00  0.00     0.163 HD
BRANCH  18  20
ATOM     20  C   UNL A   1      32.241  19.755  24.270  1.00  0.00     0.153 C 
BRANCH  20  21
ATOM     21  C   UNL A   1      32.769  18.357  24.397  1.00  0.00    -0.010 A 
ATOM     22  C   UNL A   1      33.533  17.776  23.380  1.00  0.00     0.009 A 
ATOM     23  C   UNL A   1      32.611  17.617  25.565  1.00  0.00     0.116 A 
ATOM     24  C   UNL A   1      34.107  16.521  23.574  1.00  0.00     0.020 A 
ATOM     25  N   UNL A   1      33.167  16.404  25.786  1.00  0.00    -0.264 NA
ATOM     26  C   UNL A   1      33.905  15.885  24.786  1.00  0.00     0.111 A 
ENDBRANCH  20  21
ENDBRANCH  18  20
ENDBRANCH  15  16
ENDBRANCH   5   8
ENDBRANCH   3   4
ENDBRANCH   2   3
ENDBRANCH   1   2
BRANCH   1  27
ATOM     27  C   UNL A   1      33.429  27.785  26.260  1.00  0.00     0.002 C 
BRANCH  27  28
ATOM     28  C   UNL A   1      33.752  29.136  26.908  1.00  0.00     0.021 C 
BRANCH  28  29
ATOM     29  C   UNL A   1      35.096  29.202  27.624  1.00  0.00     0.116 C 
BRANCH  29  30
ATOM     30  N   UNL A   1      35.088  30.154  28.721  1.00  0.00    -0.352 N 
ATOM     31  C   UNL A   1      36.094  30.506  29.580  1.00  0.00     0.251 C 
ATOM     32  H   UNL A   1      34.231  30.616  28.868  1.00  0.00     0.163 HD
ATOM     33  O   UNL A   1      35.849  31.202  30.559  1.00  0.00    -0.269 OA
BRANCH  31  34
ATOM     34  C   UNL A   1      37.474  30.037  29.338  1.00  0.00     0.039 A 
ATOM     35  C   UNL A   1      37.958  30.041  28.027  1.00  0.00     0.014 A 
ATOM     36  C   UNL A   1      38.274  29.562  30.382  1.00  0.00     0.014 A 
ATOM     37  C   UNL A   1      39.255  29.599  27.768  1.00  0.00     0.010 A 
ATOM     38  C   UNL A   1      39.592  29.187  30.131  1.00  0.00     0.010 A 
ATOM     39  C   UNL A   1      40.089  29.188  28.821  1.00  0.00    -0.014 A 
BRANCH  39  40
ATOM     40  C   UNL A   1      41.477  28.740  28.552  1.00  0.00     0.031 A 
ATOM     41  C   UNL A   1      41.755  27.307  28.191  1.00  0.00     0.074 A 
ATOM     42  C   UNL A   1      42.490  29.620  28.663  1.00  0.00     0.049 A 
ATOM     43  N   UNL A   1      42.899  26.728  27.928  1.00  0.00    -0.248 NA
ATOM     44  C   UNL A   1      40.598  26.399  28.143  1.00  0.00     0.031 C 
ATOM     45  C   UNL A   1      42.353  31.023  29.061  1.00  0.00     0.029 A 
ATOM     46  N   UNL A   1      43.836  29.464  28.451  1.00  0.00    -0.354 N 
ATOM     47  C   UNL A   1      42.602  25.393  27.689  1.00  0.00     0.074 A 
ATOM     48  C   UNL A   1      41.179  25.233  27.899  1.00  0.00     0.031 C 
ATOM     49  C   UNL A   1      43.562  31.605  29.039  1.00  0.00     0.029 A 
ATOM     50  C   UNL A   1      44.560  30.614  28.651  1.00  0.00     0.049 A 
ATOM     51  H   UNL A   1      44.244  28.610  28.182  1.00  0.00     0.167 HD
ATOM     52  C   UNL A   1      43.432  24.395  27.303  1.00  0.00     0.037 A 
ATOM     53  C   UNL A   1      45.880  30.843  28.528  1.00  0.00     0.037 A 
ATOM     54  C   UNL A   1      44.844  24.561  27.080  1.00  0.00     0.049 A 
ATOM     55  C   UNL A   1      46.778  29.726  28.074  1.00  0.00     0.074 A 
ATOM     56  C   UNL A   1      45.770  23.622  26.657  1.00  0.00     0.029 A 
ATOM     57  N   UNL A   1      45.536  25.750  27.257  1.00  0.00    -0.354 N 
ATOM     58  N   UNL A   1      46.473  28.481  27.798  1.00  0.00    -0.248 NA
ATOM     59  C   UNL A   1      48.199  30.052  27.897  1.00  0.00     0.031 C 
ATOM     60  C   UNL A   1      47.027  24.236  26.609  1.00  0.00     0.029 A 
ATOM     61  C   UNL A   1      46.876  25.568  26.958  1.00  0.00     0.049 A 
ATOM     62  H   UNL A   1      45.134  26.599  27.552  1.00  0.00     0.167 HD
ATOM     63  C   UNL A   1      47.657  27.883  27.387  1.00  0.00     0.074 A 
ATOM     64  C   UNL A   1      48.679  28.908  27.433  1.00  0.00     0.031 C 
ATOM     65  C   UNL A   1      47.879  26.601  27.007  1.00  0.00     0.037 A 
BRANCH  52  66
ATOM     66  C   UNL A   1      42.825  23.038  27.086  1.00  0.00     0.057 A 
ATOM     67  C   UNL A   1      42.581  22.540  25.800  1.00  0.00     0.134 A 
ATOM     68  C   UNL A   1      42.503  22.212  28.170  1.00  0.00     0.134 A 
ATOM     69  F   UNL A   1      42.852  23.286  24.718  1.00  0.00    -0.206 F 
ATOM     70  C   UNL A   1      42.013  21.280  25.600  1.00  0.00     0.040 A 
ATOM     71  C   UNL A   1      41.962  20.939  27.981  1.00  0.00     0.040 A 
ATOM     72  F   UNL A   1      42.716  22.624  29.429  1.00  0.00    -0.206 F 
ATOM     73  C   UNL A   1      41.708  20.473  26.693  1.00  0.00     0.006 A 
ENDBRANCH  52  66
BRANCH  53  74
ATOM     74  C   UNL A   1      46.427  32.196  28.801  1.00  0.00     0.057 A 
ATOM     75  C   UNL A   1      46.527  33.155  27.785  1.00  0.00     0.134 A 
ATOM     76  C   UNL A   1      46.865  32.561  30.078  1.00  0.00     0.134 A 
ATOM     77  F   UNL A   1      46.137  32.858  26.537  1.00  0.00    -0.206 F 
ATOM     78  C   UNL A   1      47.065  34.420  28.025  1.00  0.00     0.040 A 
ATOM     79  C   UNL A   1      47.383  33.830  30.338  1.00  0.00     0.040 A 
ATOM     80  F   UNL A   1      46.784  31.691  31.097  1.00  0.00    -0.206 F 
ATOM     81  C   UNL A   1      47.491  34.761  29.307  1.00  0.00     0.006 A 
ENDBRANCH  53  74
BRANCH  65  82
ATOM     82  C   UNL A   1      49.274  26.253  26.576  1.00  0.00     0.057 A 
ATOM     83  C   UNL A   1      50.194  25.661  27.450  1.00  0.00     0.134 A 
ATOM     84  C   UNL A   1      49.696  26.503  25.263  1.00  0.00     0.134 A 
ATOM     85  F   UNL A   1      49.856  25.407  28.723  1.00  0.00    -0.206 F 
ATOM     86  C   UNL A   1      51.497  25.365  27.045  1.00  0.00     0.040 A 
ATOM     87  C   UNL A   1      50.987  26.186  24.839  1.00  0.00     0.040 A 
ATOM     88  F   UNL A   1      48.861  27.059  24.373  1.00  0.00    -0.206 F 
ATOM     89  C   UNL A   1      51.894  25.624  25.735  1.00  0.00     0.006 A 
ENDBRANCH  65  82
ENDBRANCH  39  40
ENDBRANCH  31  34
ENDBRANCH  29  30
ENDBRANCH  28  29
ENDBRANCH  27  28
ENDBRANCH   1  27
TORSDOF 16
ENDMDL
MODEL 2
REMARK VINA RESULT:     -12.1      4.970      9.012
REMARK SMILES CC1=C(C)C[C@@H](C(=O)NCc2cccnc2)[C@H](C(=O)NCCCCCCNC(=O)c2ccc(-c3c4nc(c(-c5c(F)cccc5F)c5ccc([nH]5)c(-c5c(F)cccc5F)c5nc(c(-c6c(F)cccc6F)c6ccc3[nH]6)C=C5)C=C4)cc2)C1
REMARK SMILES IDX 23 1 22 2 21 3 20 4 18 5 19 6 17 8 1 9 2 10 3 11 84 12 4 13
REMARK SMILES IDX 5 14 6 15 7 16 8 17 9 18 10 20 11 21 12 22 16 23 13 24 15 25
REMARK SMILES IDX 14 26 24 27 25 28 26 29 27 30 28 31 29 33 30 34 31 35 83 36
REMARK SMILES IDX 32 37 82 38 33 39 34 40 35 41 76 42 36 43 81 44 75 45 77 46
REMARK SMILES IDX 37 47 80 48 74 49 73 50 38 52 64 53 47 54 63 55 48 56 51 57
REMARK SMILES IDX 62 58 78 59 49 60 50 61 61 63 79 64 52 65 39 66 40 67 45 68
REMARK SMILES IDX 41 69 42 70 44 71 46 72 43 73 65 74 66 75 71 76 67 77 68 78
REMARK SMILES IDX 70 79 72 80 69 81 53 82 54 83 59 84 55 85 56 86 58 87 60 88
REMARK SMILES IDX 57 89
REMARK H PARENT 20 7 9 19 27 32 77 51 51 62
REMARK Flexibility Score: inf
ROOT
ATOM      1  C   UNL A   1      32.119  29.712  27.135  1.00  0.00     0.002 C 
ENDROOT
BRANCH   1   2
ATOM      2  C   UNL A   1      33.637  29.835  27.260  1.00  0.00     0.021 C 
BRANCH   2   3
ATOM      3  C   UNL A   1      34.408  28.757  26.518  1.00  0.00     0.116 C 
BRANCH   3   4
ATOM      4  N   UNL A   1      34.144  28.764  25.101  1.00  0.00    -0.356 N 
ATOM      5  C   UNL A   1      33.541  27.813  24.339  1.00  0.00     0.224 C 
ATOM      6  O   UNL A   1      33.358  28.067  23.147  1.00  0.00    -0.275 OA
ATOM      7  H   UNL A   1      34.441  29.568  24.617  1.00  0.00     0.163 HD
BRANCH   5   8
ATOM      8  C   UNL A   1      33.100  26.468  24.923  1.00  0.00     0.095 C 
ATOM      9  C   UNL A   1      35.420  23.320  24.457  1.00  0.00     0.039 C 
ATOM     10  C   UNL A   1      34.185  24.172  24.297  1.00  0.00    -0.074 C 
ATOM     11  C   UNL A   1      33.107  23.807  23.572  1.00  0.00    -0.074 C 
ATOM     12  C   UNL A   1      34.274  25.488  25.037  1.00  0.00     0.045 C 
ATOM     13  C   UNL A   1      33.028  22.551  22.737  1.00  0.00     0.039 C 
ATOM     14  C   UNL A   1      31.855  24.653  23.478  1.00  0.00     0.045 C 
ATOM     15  C   UNL A   1      31.802  25.961  24.275  1.00  0.00     0.095 C 
BRANCH  15  16
ATOM     16  C   UNL A   1      30.646  25.963  25.280  1.00  0.00     0.224 C 
ATOM     17  O   UNL A   1      30.880  25.857  26.487  1.00  0.00    -0.275 OA
ATOM     18  N   UNL A   1      29.344  26.066  24.907  1.00  0.00    -0.352 N 
ATOM     19  H   UNL A   1      28.695  25.856  25.618  1.00  0.00     0.163 HD
BRANCH  18  20
ATOM     20  C   UNL A   1      28.751  26.433  23.642  1.00  0.00     0.153 C 
BRANCH  20  21
ATOM     21  C   UNL A   1      28.584  27.913  23.464  1.00  0.00    -0.010 A 
ATOM     22  C   UNL A   1      29.690  28.752  23.299  1.00  0.00     0.009 A 
ATOM     23  C   UNL A   1      27.328  28.501  23.354  1.00  0.00     0.116 A 
ATOM     24  C   UNL A   1      29.500  30.104  23.021  1.00  0.00     0.020 A 
ATOM     25  N   UNL A   1      27.113  29.805  23.072  1.00  0.00    -0.264 NA
ATOM     26  C   UNL A   1      28.205  30.577  22.908  1.00  0.00     0.111 A 
ENDBRANCH  20  21
ENDBRANCH  18  20
ENDBRANCH  15  16
ENDBRANCH   5   8
ENDBRANCH   3   4
ENDBRANCH   2   3
ENDBRANCH   1   2
BRANCH   1  27
ATOM     27  C   UNL A   1      31.457  30.744  26.215  1.00  0.00     0.002 C 
BRANCH  27  28
ATOM     28  C   UNL A   1      31.325  32.157  26.793  1.00  0.00     0.021 C 
BRANCH  28  29
ATOM     29  C   UNL A   1      32.629  32.943  26.875  1.00  0.00     0.116 C 
BRANCH  29  30
ATOM     30  N   UNL A   1      32.467  34.203  27.578  1.00  0.00    -0.352 N 
ATOM     31  C   UNL A   1      33.117  34.675  28.687  1.00  0.00     0.251 C 
ATOM     32  H   UNL A   1      31.789  34.809  27.201  1.00  0.00     0.163 HD
ATOM     33  O   UNL A   1      32.719  35.692  29.244  1.00  0.00    -0.269 OA
BRANCH  31  34
ATOM     34  C   UNL A   1      34.288  33.952  29.224  1.00  0.00     0.039 A 
ATOM     35  C   UNL A   1      35.564  34.435  28.922  1.00  0.00     0.014 A 
ATOM     36  C   UNL A   1      34.138  32.788  29.985  1.00  0.00     0.014 A 
ATOM     37  C   UNL A   1      36.688  33.771  29.411  1.00  0.00     0.010 A 
ATOM     38  C   UNL A   1      35.259  32.166  30.530  1.00  0.00     0.010 A 
ATOM     39  C   UNL A   1      36.544  32.643  30.235  1.00  0.00    -0.014 A 
BRANCH  39  40
ATOM     40  C   UNL A   1      37.737  31.947  30.777  1.00  0.00     0.031 A 
ATOM     41  C   UNL A   1      38.255  32.286  32.147  1.00  0.00     0.074 A 
ATOM     42  C   UNL A   1      38.369  31.031  30.020  1.00  0.00     0.049 A 
ATOM     43  N   UNL A   1      39.285  31.792  32.786  1.00  0.00    -0.248 NA
ATOM     44  C   UNL A   1      37.538  33.336  32.887  1.00  0.00     0.031 C 
ATOM     45  C   UNL A   1      37.995  30.658  28.654  1.00  0.00     0.029 A 
ATOM     46  N   UNL A   1      39.462  30.247  30.292  1.00  0.00    -0.354 N 
ATOM     47  C   UNL A   1      39.341  32.471  33.996  1.00  0.00     0.074 A 
ATOM     48  C   UNL A   1      38.281  33.456  33.977  1.00  0.00     0.031 C 
ATOM     49  C   UNL A   1      38.827  29.698  28.219  1.00  0.00     0.029 A 
ATOM     50  C   UNL A   1      39.805  29.408  29.262  1.00  0.00     0.049 A 
ATOM     51  H   UNL A   1      39.952  30.283  31.145  1.00  0.00     0.167 HD
ATOM     52  C   UNL A   1      40.181  32.275  35.040  1.00  0.00     0.037 A 
ATOM     53  C   UNL A   1      40.796  28.501  29.171  1.00  0.00     0.037 A 
ATOM     54  C   UNL A   1      41.225  31.284  35.062  1.00  0.00     0.049 A 
ATOM     55  C   UNL A   1      41.700  28.285  30.352  1.00  0.00     0.074 A 
ATOM     56  C   UNL A   1      42.111  30.983  36.083  1.00  0.00     0.029 A 
ATOM     57  N   UNL A   1      41.520  30.427  34.013  1.00  0.00    -0.354 N 
ATOM     58  N   UNL A   1      41.705  28.897  31.512  1.00  0.00    -0.248 NA
ATOM     59  C   UNL A   1      42.722  27.239  30.218  1.00  0.00     0.031 C 
ATOM     60  C   UNL A   1      42.962  29.965  35.638  1.00  0.00     0.029 A 
ATOM     61  C   UNL A   1      42.577  29.602  34.358  1.00  0.00     0.049 A 
ATOM     62  H   UNL A   1      41.048  30.408  33.149  1.00  0.00     0.167 HD
ATOM     63  C   UNL A   1      42.710  28.292  32.255  1.00  0.00     0.074 A 
ATOM     64  C   UNL A   1      43.278  27.253  31.421  1.00  0.00     0.031 C 
ATOM     65  C   UNL A   1      43.127  28.570  33.515  1.00  0.00     0.037 A 
BRANCH  52  66
ATOM     66  C   UNL A   1      39.992  33.146  36.250  1.00  0.00     0.057 A 
ATOM     67  C   UNL A   1      39.107  32.794  37.277  1.00  0.00     0.134 A 
ATOM     68  C   UNL A   1      40.717  34.335  36.401  1.00  0.00     0.134 A 
ATOM     69  F   UNL A   1      38.371  31.676  37.189  1.00  0.00    -0.206 F 
ATOM     70  C   UNL A   1      38.930  33.606  38.399  1.00  0.00     0.040 A 
ATOM     71  C   UNL A   1      40.569  35.140  37.532  1.00  0.00     0.040 A 
ATOM     72  F   UNL A   1      41.585  34.729  35.458  1.00  0.00    -0.206 F 
ATOM     73  C   UNL A   1      39.667  34.781  38.531  1.00  0.00     0.006 A 
ENDBRANCH  52  66
BRANCH  53  74
ATOM     74  C   UNL A   1      40.960  27.703  27.930  1.00  0.00     0.057 A 
ATOM     75  C   UNL A   1      40.305  26.476  27.768  1.00  0.00     0.134 A 
ATOM     76  C   UNL A   1      41.776  28.143  26.883  1.00  0.00     0.134 A 
ATOM     77  F   UNL A   1      39.522  25.995  28.744  1.00  0.00    -0.206 F 
ATOM     78  C   UNL A   1      40.475  25.704  26.618  1.00  0.00     0.040 A 
ATOM     79  C   UNL A   1      41.935  27.394  25.717  1.00  0.00     0.040 A 
ATOM     80  F   UNL A   1      42.420  29.316  26.972  1.00  0.00    -0.206 F 
ATOM     81  C   UNL A   1      41.289  26.166  25.585  1.00  0.00     0.006 A 
ENDBRANCH  53  74
BRANCH  65  82
ATOM     82  C   UNL A   1      44.223  27.711  34.073  1.00  0.00     0.057 A 
ATOM     83  C   UNL A   1      43.960  26.486  34.699  1.00  0.00     0.134 A 
ATOM     84  C   UNL A   1      45.562  28.113  33.972  1.00  0.00     0.134 A 
ATOM     85  F   UNL A   1      42.698  26.051  34.838  1.00  0.00    -0.206 F 
ATOM     86  C   UNL A   1      44.987  25.707  35.237  1.00  0.00     0.040 A 
ATOM     87  C   UNL A   1      46.599  27.330  34.482  1.00  0.00     0.040 A 
ATOM     88  F   UNL A   1      45.884  29.270  33.375  1.00  0.00    -0.206 F 
ATOM     89  C   UNL A   1      46.310  26.128  35.125  1.00  0.00     0.006 A 
ENDBRANCH  65  82
ENDBRANCH  39  40
ENDBRANCH  31  34
ENDBRANCH  29  30
ENDBRANCH  28  29
ENDBRANCH  27  28
ENDBRANCH   1  27
TORSDOF 16
ENDMDL
MODEL 3
REMARK VINA RESULT:     -12.0      2.313      7.533
REMARK SMILES CC1=C(C)C[C@@H](C(=O)NCc2cccnc2)[C@H](C(=O)NCCCCCCNC(=O)c2ccc(-c3c4nc(c(-c5c(F)cccc5F)c5ccc([nH]5)c(-c5c(F)cccc5F)c5nc(c(-c6c(F)cccc6F)c6ccc3[nH]6)C=C5)C=C4)cc2)C1
REMARK SMILES IDX 23 1 22 2 21 3 20 4 18 5 19 6 17 8 1 9 2 10 3 11 84 12 4 13
REMARK SMILES IDX 5 14 6 15 7 16 8 17 9 18 10 20 11 21 12 22 16 23 13 24 15 25
REMARK SMILES IDX 14 26 24 27 25 28 26 29 27 30 28 31 29 33 30 34 31 35 83 36
REMARK SMILES IDX 32 37 82 38 33 39 34 40 35 41 76 42 36 43 81 44 75 45 77 46
REMARK SMILES IDX 37 47 80 48 74 49 73 50 38 52 64 53 47 54 63 55 48 56 51 57
REMARK SMILES IDX 62 58 78 59 49 60 50 61 61 63 79 64 52 65 39 66 40 67 45 68
REMARK SMILES IDX 41 69 42 70 44 71 46 72 43 73 65 74 66 75 71 76 67 77 68 78
REMARK SMILES IDX 70 79 72 80 69 81 53 82 54 83 59 84 55 85 56 86 58 87 60 88
REMARK SMILES IDX 57 89
REMARK H PARENT 20 7 9 19 27 32 77 51 51 62
REMARK Flexibility Score: inf
ROOT
ATOM      1  C   UNL A   1      36.345  21.324  25.462  1.00  0.00     0.002 C 
ENDROOT
BRANCH   1   2
ATOM      2  C   UNL A   1      35.025  21.474  26.218  1.00  0.00     0.021 C 
BRANCH   2   3
ATOM      3  C   UNL A   1      34.819  22.846  26.836  1.00  0.00     0.116 C 
BRANCH   3   4
ATOM      4  N   UNL A   1      33.501  23.008  27.396  1.00  0.00    -0.356 N 
ATOM      5  C   UNL A   1      32.408  23.603  26.849  1.00  0.00     0.224 C 
ATOM      6  O   UNL A   1      31.355  23.563  27.490  1.00  0.00    -0.275 OA
ATOM      7  H   UNL A   1      33.375  22.638  28.299  1.00  0.00     0.163 HD
BRANCH   5   8
ATOM      8  C   UNL A   1      32.463  24.303  25.489  1.00  0.00     0.095 C 
ATOM      9  C   UNL A   1      31.516  28.120  25.256  1.00  0.00     0.039 C 
ATOM     10  C   UNL A   1      31.390  26.637  24.998  1.00  0.00    -0.074 C 
ATOM     11  C   UNL A   1      30.398  26.081  24.272  1.00  0.00    -0.074 C 
ATOM     12  C   UNL A   1      32.496  25.830  25.639  1.00  0.00     0.045 C 
ATOM     13  C   UNL A   1      29.223  26.845  23.710  1.00  0.00     0.039 C 
ATOM     14  C   UNL A   1      30.328  24.598  23.977  1.00  0.00     0.045 C 
ATOM     15  C   UNL A   1      31.458  23.701  24.494  1.00  0.00     0.095 C 
BRANCH  15  16
ATOM     16  C   UNL A   1      32.178  22.983  23.349  1.00  0.00     0.224 C 
ATOM     17  O   UNL A   1      32.644  23.635  22.410  1.00  0.00    -0.275 OA
ATOM     18  N   UNL A   1      32.325  21.633  23.301  1.00  0.00    -0.352 N 
ATOM     19  H   UNL A   1      32.623  21.283  22.430  1.00  0.00     0.163 HD
BRANCH  18  20
ATOM     20  C   UNL A   1      32.119  20.625  24.315  1.00  0.00     0.153 C 
BRANCH  20  21
ATOM     21  C   UNL A   1      32.687  19.285  23.954  1.00  0.00    -0.010 A 
ATOM     22  C   UNL A   1      33.363  18.507  24.898  1.00  0.00     0.009 A 
ATOM     23  C   UNL A   1      32.481  18.715  22.701  1.00  0.00     0.116 A 
ATOM     24  C   UNL A   1      33.779  17.219  24.566  1.00  0.00     0.020 A 
ATOM     25  N   UNL A   1      32.861  17.465  22.356  1.00  0.00    -0.264 NA
ATOM     26  C   UNL A   1      33.498  16.743  23.298  1.00  0.00     0.111 A 
ENDBRANCH  20  21
ENDBRANCH  18  20
ENDBRANCH  15  16
ENDBRANCH   5   8
ENDBRANCH   3   4
ENDBRANCH   2   3
ENDBRANCH   1   2
BRANCH   1  27
ATOM     27  C   UNL A   1      36.601  19.933  24.871  1.00  0.00     0.002 C 
BRANCH  27  28
ATOM     28  C   UNL A   1      38.073  19.554  24.686  1.00  0.00     0.021 C 
BRANCH  28  29
ATOM     29  C   UNL A   1      38.974  19.867  25.876  1.00  0.00     0.116 C 
BRANCH  29  30
ATOM     30  N   UNL A   1      40.155  19.023  25.909  1.00  0.00    -0.352 N 
ATOM     31  C   UNL A   1      41.467  19.363  26.096  1.00  0.00     0.251 C 
ATOM     32  H   UNL A   1      39.986  18.062  25.778  1.00  0.00     0.163 HD
ATOM     33  O   UNL A   1      42.348  18.530  25.914  1.00  0.00    -0.269 OA
BRANCH  31  34
ATOM     34  C   UNL A   1      41.827  20.738  26.501  1.00  0.00     0.039 A 
ATOM     35  C   UNL A   1      41.924  21.025  27.865  1.00  0.00     0.014 A 
ATOM     36  C   UNL A   1      42.030  21.745  25.553  1.00  0.00     0.014 A 
ATOM     37  C   UNL A   1      42.257  22.315  28.277  1.00  0.00     0.010 A 
ATOM     38  C   UNL A   1      42.431  23.015  25.964  1.00  0.00     0.010 A 
ATOM     39  C   UNL A   1      42.533  23.315  27.329  1.00  0.00    -0.014 A 
BRANCH  39  40
ATOM     40  C   UNL A   1      42.910  24.681  27.764  1.00  0.00     0.031 A 
ATOM     41  C   UNL A   1      44.356  25.094  27.798  1.00  0.00     0.074 A 
ATOM     42  C   UNL A   1      41.951  25.541  28.154  1.00  0.00     0.049 A 
ATOM     43  N   UNL A   1      44.880  26.240  28.154  1.00  0.00    -0.248 NA
ATOM     44  C   UNL A   1      45.345  24.078  27.406  1.00  0.00     0.031 C 
ATOM     45  C   UNL A   1      40.519  25.239  28.219  1.00  0.00     0.029 A 
ATOM     46  N   UNL A   1      42.035  26.844  28.573  1.00  0.00    -0.354 N 
ATOM     47  C   UNL A   1      46.255  26.081  28.033  1.00  0.00     0.074 A 
ATOM     48  C   UNL A   1      46.488  24.710  27.631  1.00  0.00     0.031 C 
ATOM     49  C   UNL A   1      39.858  26.334  28.625  1.00  0.00     0.029 A 
ATOM     50  C   UNL A   1      40.818  27.404  28.874  1.00  0.00     0.049 A 
ATOM     51  H   UNL A   1      42.887  27.332  28.650  1.00  0.00     0.167 HD
ATOM     52  C   UNL A   1      47.233  26.999  28.212  1.00  0.00     0.037 A 
ATOM     53  C   UNL A   1      40.511  28.644  29.297  1.00  0.00     0.037 A 
ATOM     54  C   UNL A   1      46.997  28.366  28.596  1.00  0.00     0.049 A 
ATOM     55  C   UNL A   1      41.613  29.653  29.465  1.00  0.00     0.074 A 
ATOM     56  C   UNL A   1      47.917  29.386  28.775  1.00  0.00     0.029 A 
ATOM     57  N   UNL A   1      45.747  28.907  28.857  1.00  0.00    -0.354 N 
ATOM     58  N   UNL A   1      42.904  29.504  29.293  1.00  0.00    -0.248 NA
ATOM     59  C   UNL A   1      41.211  31.008  29.868  1.00  0.00     0.031 C 
ATOM     60  C   UNL A   1      47.224  30.535  29.174  1.00  0.00     0.029 A 
ATOM     61  C   UNL A   1      45.871  30.243  29.200  1.00  0.00     0.049 A 
ATOM     62  H   UNL A   1      44.896  28.413  28.806  1.00  0.00     0.167 HD
ATOM     63  C   UNL A   1      43.465  30.750  29.538  1.00  0.00     0.074 A 
ATOM     64  C   UNL A   1      42.372  31.646  29.852  1.00  0.00     0.031 C 
ATOM     65  C   UNL A   1      44.769  31.121  29.506  1.00  0.00     0.037 A 
BRANCH  52  66
ATOM     66  C   UNL A   1      48.649  26.553  27.981  1.00  0.00     0.057 A 
ATOM     67  C   UNL A   1      49.434  26.032  29.018  1.00  0.00     0.134 A 
ATOM     68  C   UNL A   1      49.226  26.622  26.707  1.00  0.00     0.134 A 
ATOM     69  F   UNL A   1      48.948  25.952  30.266  1.00  0.00    -0.206 F 
ATOM     70  C   UNL A   1      50.751  25.622  28.802  1.00  0.00     0.040 A 
ATOM     71  C   UNL A   1      50.532  26.188  26.473  1.00  0.00     0.040 A 
ATOM     72  F   UNL A   1      48.529  27.105  25.668  1.00  0.00    -0.206 F 
ATOM     73  C   UNL A   1      51.301  25.693  27.524  1.00  0.00     0.006 A 
ENDBRANCH  52  66
BRANCH  53  74
ATOM     74  C   UNL A   1      39.096  29.012  29.553  1.00  0.00     0.057 A 
ATOM     75  C   UNL A   1      38.285  29.522  28.532  1.00  0.00     0.134 A 
ATOM     76  C   UNL A   1      38.524  28.867  30.821  1.00  0.00     0.134 A 
ATOM     77  F   UNL A   1      38.783  29.698  27.300  1.00  0.00    -0.206 F 
ATOM     78  C   UNL A   1      36.962  29.898  28.769  1.00  0.00     0.040 A 
ATOM     79  C   UNL A   1      37.195  29.215  31.067  1.00  0.00     0.040 A 
ATOM     80  F   UNL A   1      39.245  28.372  31.838  1.00  0.00    -0.206 F 
ATOM     81  C   UNL A   1      36.412  29.740  30.040  1.00  0.00     0.006 A 
ENDBRANCH  53  74
BRANCH  65  82
ATOM     82  C   UNL A   1      45.072  32.564  29.783  1.00  0.00     0.057 A 
ATOM     83  C   UNL A   1      45.366  33.026  31.072  1.00  0.00     0.134 A 
ATOM     84  C   UNL A   1      45.080  33.501  28.741  1.00  0.00     0.134 A 
ATOM     85  F   UNL A   1      45.362  32.182  32.115  1.00  0.00    -0.206 F 
ATOM     86  C   UNL A   1      45.621  34.376  31.322  1.00  0.00     0.040 A 
ATOM     87  C   UNL A   1      45.361  34.848  28.974  1.00  0.00     0.040 A 
ATOM     88  F   UNL A   1      44.817  33.123  27.481  1.00  0.00    -0.206 F 
ATOM     89  C   UNL A   1      45.622  35.290  30.269  1.00  0.00     0.006 A 
ENDBRANCH  65  82
ENDBRANCH  39  40
ENDBRANCH  31  34
ENDBRANCH  29  30
ENDBRANCH  28  29
ENDBRANCH  27  28
ENDBRANCH   1  27
TORSDOF 16
ENDMDL
