MODEL 1
REMARK VINA RESULT:     -12.7      0.000      0.000
REMARK SMILES O=C(NCCCCCCNC(=O)[C@@H]1CCCN1S(=O)(=O)c1ccc2c3c(cccc13)C(=O)N2)c1ccc(-c2c3nc(c(-c4c(F)cccc4F)c4ccc([nH]4)c(-c4c(F)cccc4F)c4nc(c(-c5c(F)cccc5F)c5ccc2[nH]5)C=C4)C=C3)cc1
REMARK SMILES IDX 6 1 5 2 4 3 3 4 1 5 2 6 34 8 35 9 87 10 36 11 86 12 37 13
REMARK SMILES IDX 38 14 39 15 80 16 40 17 85 18 79 19 81 20 41 21 84 22 78 23
REMARK SMILES IDX 77 24 42 26 68 27 51 28 67 29 52 30 55 31 66 32 82 33 53 34
REMARK SMILES IDX 54 35 65 37 83 38 56 39 43 40 44 41 49 42 45 43 46 44 48 45
REMARK SMILES IDX 50 46 47 47 69 48 70 49 75 50 71 51 72 52 74 53 76 54 73 55
REMARK SMILES IDX 57 56 58 57 63 58 59 59 60 60 62 61 64 62 61 63 7 64 8 65
REMARK SMILES IDX 9 66 10 67 11 68 12 70 13 71 14 72 17 73 15 74 16 75 18 76
REMARK SMILES IDX 19 77 20 78 21 79 22 80 30 81 23 82 25 83 29 84 24 85 26 86
REMARK SMILES IDX 28 87 33 88 27 89 31 90 32 92
REMARK H PARENT 3 7 81 25 55 36 10 69 33 91
REMARK Flexibility Score: inf
ROOT
ATOM      1  C   UNL A   1      31.047  31.070  25.551  1.00  0.00     0.002 C 
ENDROOT
BRANCH   1   2
ATOM      2  C   UNL A   1      31.040  32.207  26.576  1.00  0.00     0.021 C 
BRANCH   2   3
ATOM      3  C   UNL A   1      32.426  32.691  26.992  1.00  0.00     0.116 C 
BRANCH   3   4
ATOM      4  N   UNL A   1      32.388  34.065  27.454  1.00  0.00    -0.352 N 
ATOM      5  O   UNL A   1      32.778  35.717  28.946  1.00  0.00    -0.269 OA
ATOM      6  C   UNL A   1      33.099  34.631  28.479  1.00  0.00     0.251 C 
ATOM      7  H   UNL A   1      31.775  34.666  26.973  1.00  0.00     0.163 HD
BRANCH   6   8
ATOM      8  C   UNL A   1      34.264  33.904  29.018  1.00  0.00     0.039 A 
ATOM      9  C   UNL A   1      34.073  32.851  29.919  1.00  0.00     0.014 A 
ATOM     10  C   UNL A   1      35.547  34.279  28.619  1.00  0.00     0.014 A 
ATOM     11  C   UNL A   1      35.175  32.225  30.490  1.00  0.00     0.010 A 
ATOM     12  C   UNL A   1      36.651  33.613  29.152  1.00  0.00     0.010 A 
ATOM     13  C   UNL A   1      36.473  32.596  30.104  1.00  0.00    -0.014 A 
BRANCH  13  14
ATOM     14  C   UNL A   1      37.637  31.883  30.681  1.00  0.00     0.031 A 
ATOM     15  C   UNL A   1      38.096  32.175  32.079  1.00  0.00     0.074 A 
ATOM     16  C   UNL A   1      38.260  30.950  29.940  1.00  0.00     0.049 A 
ATOM     17  N   UNL A   1      39.078  31.633  32.755  1.00  0.00    -0.248 NA
ATOM     18  C   UNL A   1      37.357  33.211  32.816  1.00  0.00     0.031 C 
ATOM     19  C   UNL A   1      37.894  30.576  28.572  1.00  0.00     0.029 A 
ATOM     20  N   UNL A   1      39.326  30.140  30.233  1.00  0.00    -0.354 N 
ATOM     21  C   UNL A   1      39.065  32.247  34.000  1.00  0.00     0.074 A 
ATOM     22  C   UNL A   1      38.014  33.243  33.968  1.00  0.00     0.031 C 
ATOM     23  C   UNL A   1      38.707  29.594  28.154  1.00  0.00     0.029 A 
ATOM     24  C   UNL A   1      39.677  29.302  29.203  1.00  0.00     0.049 A 
ATOM     25  H   UNL A   1      39.794  30.157  31.099  1.00  0.00     0.167 HD
ATOM     26  C   UNL A   1      39.845  31.990  35.079  1.00  0.00     0.037 A 
ATOM     27  C   UNL A   1      40.681  28.412  29.113  1.00  0.00     0.037 A 
ATOM     28  C   UNL A   1      40.913  31.021  35.094  1.00  0.00     0.049 A 
ATOM     29  C   UNL A   1      41.601  28.231  30.289  1.00  0.00     0.074 A 
ATOM     30  C   UNL A   1      41.768  30.693  36.132  1.00  0.00     0.029 A 
ATOM     31  N   UNL A   1      41.281  30.235  34.012  1.00  0.00    -0.354 N 
ATOM     32  N   UNL A   1      41.554  28.787  31.476  1.00  0.00    -0.248 NA
ATOM     33  C   UNL A   1      42.717  27.294  30.110  1.00  0.00     0.031 C 
ATOM     34  C   UNL A   1      42.687  29.749  35.661  1.00  0.00     0.029 A 
ATOM     35  C   UNL A   1      42.367  29.442  34.349  1.00  0.00     0.049 A 
ATOM     36  H   UNL A   1      40.836  30.240  33.133  1.00  0.00     0.167 HD
ATOM     37  C   UNL A   1      42.610  28.241  32.194  1.00  0.00     0.074 A 
ATOM     38  C   UNL A   1      43.264  27.293  31.315  1.00  0.00     0.031 C 
ATOM     39  C   UNL A   1      43.005  28.500  33.465  1.00  0.00     0.037 A 
BRANCH  26  40
ATOM     40  C   UNL A   1      39.576  32.784  36.326  1.00  0.00     0.057 A 
ATOM     41  C   UNL A   1      38.630  32.352  37.265  1.00  0.00     0.134 A 
ATOM     42  C   UNL A   1      40.239  33.991  36.590  1.00  0.00     0.134 A 
ATOM     43  F   UNL A   1      37.951  31.212  37.073  1.00  0.00    -0.206 F 
ATOM     44  C   UNL A   1      38.358  33.088  38.419  1.00  0.00     0.040 A 
ATOM     45  C   UNL A   1      39.997  34.720  37.756  1.00  0.00     0.040 A 
ATOM     46  F   UNL A   1      41.166  34.458  35.738  1.00  0.00    -0.206 F 
ATOM     47  C   UNL A   1      39.048  34.271  38.672  1.00  0.00     0.006 A 
ENDBRANCH  26  40
BRANCH  27  48
ATOM     48  C   UNL A   1      40.887  27.627  27.870  1.00  0.00     0.057 A 
ATOM     49  C   UNL A   1      41.686  28.107  26.825  1.00  0.00     0.134 A 
ATOM     50  C   UNL A   1      40.339  26.346  27.725  1.00  0.00     0.134 A 
ATOM     51  F   UNL A   1      42.235  29.329  26.898  1.00  0.00    -0.206 F 
ATOM     52  C   UNL A   1      41.940  27.341  25.687  1.00  0.00     0.040 A 
ATOM     53  C   UNL A   1      40.612  25.556  26.608  1.00  0.00     0.040 A 
ATOM     54  F   UNL A   1      39.580  25.823  28.699  1.00  0.00    -0.206 F 
ATOM     55  C   UNL A   1      41.416  26.054  25.584  1.00  0.00     0.006 A 
ENDBRANCH  27  48
BRANCH  39  56
ATOM     56  C   UNL A   1      44.173  27.709  33.988  1.00  0.00     0.057 A 
ATOM     57  C   UNL A   1      43.977  26.449  34.567  1.00  0.00     0.134 A 
ATOM     58  C   UNL A   1      45.488  28.189  33.919  1.00  0.00     0.134 A 
ATOM     59  F   UNL A   1      42.744  25.931  34.673  1.00  0.00    -0.206 F 
ATOM     60  C   UNL A   1      45.044  25.693  35.052  1.00  0.00     0.040 A 
ATOM     61  C   UNL A   1      46.568  27.427  34.370  1.00  0.00     0.040 A 
ATOM     62  F   UNL A   1      45.749  29.382  33.363  1.00  0.00    -0.206 F 
ATOM     63  C   UNL A   1      46.346  26.176  34.943  1.00  0.00     0.006 A 
ENDBRANCH  39  56
ENDBRANCH  13  14
ENDBRANCH   6   8
ENDBRANCH   3   4
ENDBRANCH   2   3
ENDBRANCH   1   2
BRANCH   1  64
ATOM     64  C   UNL A   1      32.168  30.054  25.737  1.00  0.00     0.002 C 
BRANCH  64  65
ATOM     65  C   UNL A   1      31.712  28.673  26.199  1.00  0.00     0.021 C 
BRANCH  65  66
ATOM     66  C   UNL A   1      32.643  27.939  27.154  1.00  0.00     0.116 C 
BRANCH  66  67
ATOM     67  N   UNL A   1      33.645  27.184  26.446  1.00  0.00    -0.355 N 
ATOM     68  C   UNL A   1      33.622  25.927  25.951  1.00  0.00     0.238 C 
ATOM     69  H   UNL A   1      34.492  27.665  26.299  1.00  0.00     0.163 HD
ATOM     70  O   UNL A   1      34.629  25.572  25.323  1.00  0.00    -0.273 OA
BRANCH  68  71
ATOM     71  C   UNL A   1      32.453  24.980  26.095  1.00  0.00     0.162 C 
ATOM     72  C   UNL A   1      32.894  23.659  26.729  1.00  0.00     0.032 C 
ATOM     73  N   UNL A   1      31.388  24.657  25.116  1.00  0.00    -0.185 NA
ATOM     74  C   UNL A   1      31.683  22.765  26.619  1.00  0.00     0.019 C 
ATOM     75  C   UNL A   1      30.973  23.230  25.363  1.00  0.00     0.103 C 
BRANCH  73  76
ATOM     76  S   UNL A   1      31.237  25.035  23.477  1.00  0.00     0.244 S 
ATOM     77  O   UNL A   1      32.485  24.624  22.863  1.00  0.00    -0.207 OA
ATOM     78  O   UNL A   1      30.007  24.394  23.054  1.00  0.00    -0.207 OA
BRANCH  76  79
ATOM     79  C   UNL A   1      31.017  26.757  23.108  1.00  0.00     0.090 A 
ATOM     80  C   UNL A   1      32.077  27.585  22.689  1.00  0.00     0.024 A 
ATOM     81  C   UNL A   1      29.685  27.285  23.207  1.00  0.00     0.005 A 
ATOM     82  C   UNL A   1      31.859  28.894  22.205  1.00  0.00     0.028 A 
ATOM     83  C   UNL A   1      29.548  28.577  22.787  1.00  0.00     0.019 A 
ATOM     84  C   UNL A   1      28.476  26.708  23.684  1.00  0.00     0.010 A 
ATOM     85  C   UNL A   1      30.560  29.354  22.278  1.00  0.00     0.050 A 
ATOM     86  C   UNL A   1      28.387  29.339  22.817  1.00  0.00     0.050 A 
ATOM     87  C   UNL A   1      27.280  27.457  23.754  1.00  0.00     0.002 A 
ATOM     88  N   UNL A   1      30.015  30.585  21.958  1.00  0.00    -0.321 N 
ATOM     89  C   UNL A   1      27.215  28.794  23.331  1.00  0.00     0.014 A 
ATOM     90  C   UNL A   1      28.656  30.661  22.289  1.00  0.00     0.256 C 
ATOM     91  H   UNL A   1      30.523  31.321  21.547  1.00  0.00     0.170 HD
ATOM     92  O   UNL A   1      27.954  31.653  22.136  1.00  0.00    -0.269 OA
ENDBRANCH  76  79
ENDBRANCH  73  76
ENDBRANCH  68  71
ENDBRANCH  66  67
ENDBRANCH  65  66
ENDBRANCH  64  65
ENDBRANCH   1  64
TORSDOF 15
ENDMDL
MODEL 2
REMARK VINA RESULT:     -12.5      0.211      1.271
REMARK SMILES O=C(NCCCCCCNC(=O)[C@@H]1CCCN1S(=O)(=O)c1ccc2c3c(cccc13)C(=O)N2)c1ccc(-c2c3nc(c(-c4c(F)cccc4F)c4ccc([nH]4)c(-c4c(F)cccc4F)c4nc(c(-c5c(F)cccc5F)c5ccc2[nH]5)C=C4)C=C3)cc1
REMARK SMILES IDX 6 1 5 2 4 3 3 4 1 5 2 6 34 8 35 9 87 10 36 11 86 12 37 13
REMARK SMILES IDX 38 14 39 15 80 16 40 17 85 18 79 19 81 20 41 21 84 22 78 23
REMARK SMILES IDX 77 24 42 26 68 27 51 28 67 29 52 30 55 31 66 32 82 33 53 34
REMARK SMILES IDX 54 35 65 37 83 38 56 39 43 40 44 41 49 42 45 43 46 44 48 45
REMARK SMILES IDX 50 46 47 47 69 48 70 49 75 50 71 51 72 52 74 53 76 54 73 55
REMARK SMILES IDX 57 56 58 57 63 58 59 59 60 60 62 61 64 62 61 63 7 64 8 65
REMARK SMILES IDX 9 66 10 67 11 68 12 70 13 71 14 72 17 73 15 74 16 75 18 76
REMARK SMILES IDX 19 77 20 78 21 79 22 80 30 81 23 82 25 83 29 84 24 85 26 86
REMARK SMILES IDX 28 87 33 88 27 89 31 90 32 92
REMARK H PARENT 3 7 81 25 55 36 10 69 33 91
REMARK Flexibility Score: inf
ROOT
ATOM      1  C   UNL A   1      31.148  31.212  25.717  1.00  0.00     0.002 C 
ENDROOT
BRANCH   1   2
ATOM      2  C   UNL A   1      31.219  32.254  26.836  1.00  0.00     0.021 C 
BRANCH   2   3
ATOM      3  C   UNL A   1      32.624  32.772  27.129  1.00  0.00     0.116 C 
BRANCH   3   4
ATOM      4  N   UNL A   1      32.593  34.145  27.594  1.00  0.00    -0.352 N 
ATOM      5  O   UNL A   1      32.986  35.791  29.092  1.00  0.00    -0.269 OA
ATOM      6  C   UNL A   1      33.301  34.704  28.625  1.00  0.00     0.251 C 
ATOM      7  H   UNL A   1      31.988  34.751  27.109  1.00  0.00     0.163 HD
BRANCH   6   8
ATOM      8  C   UNL A   1      34.456  33.966  29.171  1.00  0.00     0.039 A 
ATOM      9  C   UNL A   1      34.252  32.930  30.088  1.00  0.00     0.014 A 
ATOM     10  C   UNL A   1      35.744  34.314  28.762  1.00  0.00     0.014 A 
ATOM     11  C   UNL A   1      35.346  32.295  30.665  1.00  0.00     0.010 A 
ATOM     12  C   UNL A   1      36.839  33.639  29.301  1.00  0.00     0.010 A 
ATOM     13  C   UNL A   1      36.648  32.639  30.269  1.00  0.00    -0.014 A 
BRANCH  13  14
ATOM     14  C   UNL A   1      37.803  31.917  30.853  1.00  0.00     0.031 A 
ATOM     15  C   UNL A   1      38.268  32.217  32.247  1.00  0.00     0.074 A 
ATOM     16  C   UNL A   1      38.412  30.967  30.121  1.00  0.00     0.049 A 
ATOM     17  N   UNL A   1      39.242  31.669  32.928  1.00  0.00    -0.248 NA
ATOM     18  C   UNL A   1      37.543  33.271  32.974  1.00  0.00     0.031 C 
ATOM     19  C   UNL A   1      38.039  30.584  28.757  1.00  0.00     0.029 A 
ATOM     20  N   UNL A   1      39.467  30.146  30.422  1.00  0.00    -0.354 N 
ATOM     21  C   UNL A   1      39.239  32.297  34.166  1.00  0.00     0.074 A 
ATOM     22  C   UNL A   1      38.202  33.306  34.124  1.00  0.00     0.031 C 
ATOM     23  C   UNL A   1      38.838  29.586  28.349  1.00  0.00     0.029 A 
ATOM     24  C   UNL A   1      39.806  29.292  29.400  1.00  0.00     0.049 A 
ATOM     25  H   UNL A   1      39.936  30.166  31.287  1.00  0.00     0.167 HD
ATOM     26  C   UNL A   1      40.017  32.041  35.247  1.00  0.00     0.037 A 
ATOM     27  C   UNL A   1      40.797  28.387  29.319  1.00  0.00     0.037 A 
ATOM     28  C   UNL A   1      41.071  31.058  35.271  1.00  0.00     0.049 A 
ATOM     29  C   UNL A   1      41.716  28.206  30.497  1.00  0.00     0.074 A 
ATOM     30  C   UNL A   1      41.923  30.728  36.312  1.00  0.00     0.029 A 
ATOM     31  N   UNL A   1      41.428  30.254  34.198  1.00  0.00    -0.354 N 
ATOM     32  N   UNL A   1      41.678  28.776  31.677  1.00  0.00    -0.248 NA
ATOM     33  C   UNL A   1      42.819  27.251  30.326  1.00  0.00     0.031 C 
ATOM     34  C   UNL A   1      42.829  29.767  35.851  1.00  0.00     0.029 A 
ATOM     35  C   UNL A   1      42.503  29.450  34.542  1.00  0.00     0.049 A 
ATOM     36  H   UNL A   1      40.982  30.256  33.319  1.00  0.00     0.167 HD
ATOM     37  C   UNL A   1      42.727  28.222  32.400  1.00  0.00     0.074 A 
ATOM     38  C   UNL A   1      43.367  27.256  31.531  1.00  0.00     0.031 C 
ATOM     39  C   UNL A   1      43.127  28.489  33.668  1.00  0.00     0.037 A 
BRANCH  26  40
ATOM     40  C   UNL A   1      39.760  32.851  36.485  1.00  0.00     0.057 A 
ATOM     41  C   UNL A   1      38.765  32.477  37.398  1.00  0.00     0.134 A 
ATOM     42  C   UNL A   1      40.484  34.019  36.767  1.00  0.00     0.134 A 
ATOM     43  F   UNL A   1      38.027  31.377  37.189  1.00  0.00    -0.206 F 
ATOM     44  C   UNL A   1      38.505  33.230  38.544  1.00  0.00     0.040 A 
ATOM     45  C   UNL A   1      40.253  34.764  37.925  1.00  0.00     0.040 A 
ATOM     46  F   UNL A   1      41.459  34.429  35.940  1.00  0.00    -0.206 F 
ATOM     47  C   UNL A   1      39.255  34.372  38.815  1.00  0.00     0.006 A 
ENDBRANCH  26  40
BRANCH  27  48
ATOM     48  C   UNL A   1      40.991  27.586  28.084  1.00  0.00     0.057 A 
ATOM     49  C   UNL A   1      40.379  26.338  27.919  1.00  0.00     0.134 A 
ATOM     50  C   UNL A   1      41.745  28.081  27.013  1.00  0.00     0.134 A 
ATOM     51  F   UNL A   1      39.649  25.803  28.910  1.00  0.00    -0.206 F 
ATOM     52  C   UNL A   1      40.501  25.615  26.732  1.00  0.00     0.040 A 
ATOM     53  C   UNL A   1      41.847  27.385  25.808  1.00  0.00     0.040 A 
ATOM     54  F   UNL A   1      42.341  29.279  27.103  1.00  0.00    -0.206 F 
ATOM     55  C   UNL A   1      41.223  26.147  25.665  1.00  0.00     0.006 A 
ENDBRANCH  27  48
BRANCH  39  56
ATOM     56  C   UNL A   1      44.284  27.689  34.199  1.00  0.00     0.057 A 
ATOM     57  C   UNL A   1      45.593  28.179  34.101  1.00  0.00     0.134 A 
ATOM     58  C   UNL A   1      44.108  26.439  34.808  1.00  0.00     0.134 A 
ATOM     59  F   UNL A   1      45.836  29.364  33.522  1.00  0.00    -0.206 F 
ATOM     60  C   UNL A   1      46.682  27.459  34.594  1.00  0.00     0.040 A 
ATOM     61  C   UNL A   1      45.186  25.725  35.335  1.00  0.00     0.040 A 
ATOM     62  F   UNL A   1      42.879  25.918  34.948  1.00  0.00    -0.206 F 
ATOM     63  C   UNL A   1      46.478  26.234  35.224  1.00  0.00     0.006 A 
ENDBRANCH  39  56
ENDBRANCH  13  14
ENDBRANCH   6   8
ENDBRANCH   3   4
ENDBRANCH   2   3
ENDBRANCH   1   2
BRANCH   1  64
ATOM     64  C   UNL A   1      32.195  30.107  25.811  1.00  0.00     0.002 C 
BRANCH  64  65
ATOM     65  C   UNL A   1      31.648  28.735  26.195  1.00  0.00     0.021 C 
BRANCH  65  66
ATOM     66  C   UNL A   1      32.500  27.912  27.150  1.00  0.00     0.116 C 
BRANCH  66  67
ATOM     67  N   UNL A   1      33.547  27.205  26.458  1.00  0.00    -0.355 N 
ATOM     68  C   UNL A   1      33.590  25.949  25.962  1.00  0.00     0.238 C 
ATOM     69  H   UNL A   1      34.372  27.726  26.323  1.00  0.00     0.163 HD
ATOM     70  O   UNL A   1      34.623  25.643  25.349  1.00  0.00    -0.273 OA
BRANCH  68  71
ATOM     71  C   UNL A   1      32.466  24.949  26.088  1.00  0.00     0.162 C 
ATOM     72  C   UNL A   1      32.967  23.637  26.697  1.00  0.00     0.032 C 
ATOM     73  N   UNL A   1      31.415  24.597  25.104  1.00  0.00    -0.185 NA
ATOM     74  C   UNL A   1      31.797  22.691  26.571  1.00  0.00     0.019 C 
ATOM     75  C   UNL A   1      31.064  23.148  25.324  1.00  0.00     0.103 C 
BRANCH  73  76
ATOM     76  S   UNL A   1      31.244  24.999  23.473  1.00  0.00     0.244 S 
ATOM     77  O   UNL A   1      32.481  24.590  22.837  1.00  0.00    -0.207 OA
ATOM     78  O   UNL A   1      30.006  24.371  23.057  1.00  0.00    -0.207 OA
BRANCH  76  79
ATOM     79  C   UNL A   1      31.028  26.727  23.132  1.00  0.00     0.090 A 
ATOM     80  C   UNL A   1      32.092  27.561  22.734  1.00  0.00     0.024 A 
ATOM     81  C   UNL A   1      29.696  27.255  23.231  1.00  0.00     0.005 A 
ATOM     82  C   UNL A   1      31.879  28.878  22.270  1.00  0.00     0.028 A 
ATOM     83  C   UNL A   1      29.563  28.555  22.833  1.00  0.00     0.019 A 
ATOM     84  C   UNL A   1      28.484  26.672  23.691  1.00  0.00     0.010 A 
ATOM     85  C   UNL A   1      30.580  29.338  22.343  1.00  0.00     0.050 A 
ATOM     86  C   UNL A   1      28.404  29.317  22.869  1.00  0.00     0.050 A 
ATOM     87  C   UNL A   1      27.289  27.421  23.767  1.00  0.00     0.002 A 
ATOM     88  N   UNL A   1      30.038  30.575  22.040  1.00  0.00    -0.321 N 
ATOM     89  C   UNL A   1      27.228  28.765  23.366  1.00  0.00     0.014 A 
ATOM     90  C   UNL A   1      28.678  30.647  22.364  1.00  0.00     0.256 C 
ATOM     91  H   UNL A   1      30.549  31.317  21.645  1.00  0.00     0.170 HD
ATOM     92  O   UNL A   1      27.977  31.643  22.224  1.00  0.00    -0.269 OA
ENDBRANCH  76  79
ENDBRANCH  73  76
ENDBRANCH  68  71
ENDBRANCH  66  67
ENDBRANCH  65  66
ENDBRANCH  64  65
ENDBRANCH   1  64
TORSDOF 15
ENDMDL
MODEL 3
REMARK VINA RESULT:     -12.5      4.072      8.177
REMARK SMILES O=C(NCCCCCCNC(=O)[C@@H]1CCCN1S(=O)(=O)c1ccc2c3c(cccc13)C(=O)N2)c1ccc(-c2c3nc(c(-c4c(F)cccc4F)c4ccc([nH]4)c(-c4c(F)cccc4F)c4nc(c(-c5c(F)cccc5F)c5ccc2[nH]5)C=C4)C=C3)cc1
REMARK SMILES IDX 6 1 5 2 4 3 3 4 1 5 2 6 34 8 35 9 87 10 36 11 86 12 37 13
REMARK SMILES IDX 38 14 39 15 80 16 40 17 85 18 79 19 81 20 41 21 84 22 78 23
REMARK SMILES IDX 77 24 42 26 68 27 51 28 67 29 52 30 55 31 66 32 82 33 53 34
REMARK SMILES IDX 54 35 65 37 83 38 56 39 43 40 44 41 49 42 45 43 46 44 48 45
REMARK SMILES IDX 50 46 47 47 69 48 70 49 75 50 71 51 72 52 74 53 76 54 73 55
REMARK SMILES IDX 57 56 58 57 63 58 59 59 60 60 62 61 64 62 61 63 7 64 8 65
REMARK SMILES IDX 9 66 10 67 11 68 12 70 13 71 14 72 17 73 15 74 16 75 18 76
REMARK SMILES IDX 19 77 20 78 21 79 22 80 30 81 23 82 25 83 29 84 24 85 26 86
REMARK SMILES IDX 28 87 33 88 27 89 31 90 32 92
REMARK H PARENT 3 7 81 25 55 36 10 69 33 91
REMARK Flexibility Score: inf
ROOT
ATOM      1  C   UNL A   1      36.195  20.310  24.994  1.00  0.00     0.002 C 
ENDROOT
BRANCH   1   2
ATOM      2  C   UNL A   1      37.588  19.724  24.755  1.00  0.00     0.021 C 
BRANCH   2   3
ATOM      3  C   UNL A   1      38.666  20.249  25.698  1.00  0.00     0.116 C 
BRANCH   3   4
ATOM      4  N   UNL A   1      39.764  19.310  25.819  1.00  0.00    -0.352 N 
ATOM      5  O   UNL A   1      41.950  18.736  25.868  1.00  0.00    -0.269 OA
ATOM      6  C   UNL A   1      41.084  19.581  26.063  1.00  0.00     0.251 C 
ATOM      7  H   UNL A   1      39.533  18.359  25.711  1.00  0.00     0.163 HD
BRANCH   6   8
ATOM      8  C   UNL A   1      41.450  20.919  26.565  1.00  0.00     0.039 A 
ATOM      9  C   UNL A   1      41.914  21.895  25.676  1.00  0.00     0.014 A 
ATOM     10  C   UNL A   1      41.327  21.195  27.927  1.00  0.00     0.014 A 
ATOM     11  C   UNL A   1      42.339  23.125  26.165  1.00  0.00     0.010 A 
ATOM     12  C   UNL A   1      41.702  22.449  28.408  1.00  0.00     0.010 A 
ATOM     13  C   UNL A   1      42.228  23.415  27.534  1.00  0.00    -0.014 A 
BRANCH  13  14
ATOM     14  C   UNL A   1      42.634  24.750  28.031  1.00  0.00     0.031 A 
ATOM     15  C   UNL A   1      41.617  25.834  28.233  1.00  0.00     0.074 A 
ATOM     16  C   UNL A   1      43.929  24.967  28.324  1.00  0.00     0.049 A 
ATOM     17  N   UNL A   1      41.787  27.052  28.683  1.00  0.00    -0.248 NA
ATOM     18  C   UNL A   1      40.225  25.509  27.887  1.00  0.00     0.031 C 
ATOM     19  C   UNL A   1      45.004  23.983  28.176  1.00  0.00     0.029 A 
ATOM     20  N   UNL A   1      44.561  26.080  28.815  1.00  0.00    -0.354 N 
ATOM     21  C   UNL A   1      40.527  27.633  28.689  1.00  0.00     0.074 A 
ATOM     22  C   UNL A   1      39.609  26.653  28.146  1.00  0.00     0.031 C 
ATOM     23  C   UNL A   1      46.158  24.530  28.590  1.00  0.00     0.029 A 
ATOM     24  C   UNL A   1      45.913  25.912  28.987  1.00  0.00     0.049 A 
ATOM     25  H   UNL A   1      44.090  26.919  29.023  1.00  0.00     0.167 HD
ATOM     26  C   UNL A   1      40.164  28.865  29.126  1.00  0.00     0.037 A 
ATOM     27  C   UNL A   1      46.849  26.783  29.402  1.00  0.00     0.037 A 
ATOM     28  C   UNL A   1      41.088  29.847  29.634  1.00  0.00     0.049 A 
ATOM     29  C   UNL A   1      46.430  28.180  29.774  1.00  0.00     0.074 A 
ATOM     30  C   UNL A   1      40.824  31.127  30.093  1.00  0.00     0.029 A 
ATOM     31  N   UNL A   1      42.459  29.665  29.736  1.00  0.00    -0.354 N 
ATOM     32  N   UNL A   1      45.230  28.705  29.815  1.00  0.00    -0.248 NA
ATOM     33  C   UNL A   1      47.504  29.105  30.158  1.00  0.00     0.031 C 
ATOM     34  C   UNL A   1      42.040  31.736  30.419  1.00  0.00     0.029 A 
ATOM     35  C   UNL A   1      43.057  30.816  30.223  1.00  0.00     0.049 A 
ATOM     36  H   UNL A   1      42.938  28.838  29.496  1.00  0.00     0.167 HD
ATOM     37  C   UNL A   1      45.401  30.009  30.264  1.00  0.00     0.074 A 
ATOM     38  C   UNL A   1      46.819  30.184  30.501  1.00  0.00     0.031 C 
ATOM     39  C   UNL A   1      44.470  30.975  30.459  1.00  0.00     0.037 A 
BRANCH  26  40
ATOM     40  C   UNL A   1      38.705  29.215  29.059  1.00  0.00     0.057 A 
ATOM     41  C   UNL A   1      37.884  29.107  30.189  1.00  0.00     0.134 A 
ATOM     42  C   UNL A   1      38.103  29.640  27.866  1.00  0.00     0.134 A 
ATOM     43  F   UNL A   1      38.390  28.698  31.362  1.00  0.00    -0.206 F 
ATOM     44  C   UNL A   1      36.523  29.414  30.136  1.00  0.00     0.040 A 
ATOM     45  C   UNL A   1      36.749  29.978  27.807  1.00  0.00     0.040 A 
ATOM     46  F   UNL A   1      38.833  29.776  26.747  1.00  0.00    -0.206 F 
ATOM     47  C   UNL A   1      35.954  29.860  28.945  1.00  0.00     0.006 A 
ENDBRANCH  26  40
BRANCH  27  48
ATOM     48  C   UNL A   1      48.275  26.379  29.484  1.00  0.00     0.057 A 
ATOM     49  C   UNL A   1      49.165  26.621  28.431  1.00  0.00     0.134 A 
ATOM     50  C   UNL A   1      48.796  25.798  30.647  1.00  0.00     0.134 A 
ATOM     51  F   UNL A   1      48.730  27.169  27.287  1.00  0.00    -0.206 F 
ATOM     52  C   UNL A   1      50.521  26.309  28.533  1.00  0.00     0.040 A 
ATOM     53  C   UNL A   1      50.156  25.511  30.775  1.00  0.00     0.040 A 
ATOM     54  F   UNL A   1      47.998  25.558  31.698  1.00  0.00    -0.206 F 
ATOM     55  C   UNL A   1      51.023  25.767  29.715  1.00  0.00     0.006 A 
ENDBRANCH  27  48
BRANCH  39  56
ATOM     56  C   UNL A   1      44.959  32.291  31.000  1.00  0.00     0.057 A 
ATOM     57  C   UNL A   1      45.278  33.342  30.131  1.00  0.00     0.134 A 
ATOM     58  C   UNL A   1      45.112  32.522  32.373  1.00  0.00     0.134 A 
ATOM     59  F   UNL A   1      45.163  33.189  28.803  1.00  0.00    -0.206 F 
ATOM     60  C   UNL A   1      45.725  34.575  30.607  1.00  0.00     0.040 A 
ATOM     61  C   UNL A   1      45.526  33.762  32.864  1.00  0.00     0.040 A 
ATOM     62  F   UNL A   1      44.810  31.562  33.262  1.00  0.00    -0.206 F 
ATOM     63  C   UNL A   1      45.839  34.791  31.979  1.00  0.00     0.006 A 
ENDBRANCH  39  56
ENDBRANCH  13  14
ENDBRANCH   6   8
ENDBRANCH   3   4
ENDBRANCH   2   3
ENDBRANCH   1   2
BRANCH   1  64
ATOM     64  C   UNL A   1      36.178  21.807  25.289  1.00  0.00     0.002 C 
BRANCH  64  65
ATOM     65  C   UNL A   1      35.219  22.232  26.397  1.00  0.00     0.021 C 
BRANCH  65  66
ATOM     66  C   UNL A   1      34.116  21.245  26.752  1.00  0.00     0.116 C 
BRANCH  66  67
ATOM     67  N   UNL A   1      32.964  21.909  27.306  1.00  0.00    -0.355 N 
ATOM     68  C   UNL A   1      31.925  22.531  26.703  1.00  0.00     0.238 C 
ATOM     69  H   UNL A   1      32.926  21.911  28.289  1.00  0.00     0.163 HD
ATOM     70  O   UNL A   1      31.038  22.956  27.456  1.00  0.00    -0.273 OA
BRANCH  68  71
ATOM     71  C   UNL A   1      31.788  22.697  25.209  1.00  0.00     0.162 C 
ATOM     72  C   UNL A   1      32.141  21.398  24.479  1.00  0.00     0.032 C 
ATOM     73  N   UNL A   1      32.242  23.815  24.348  1.00  0.00    -0.185 NA
ATOM     74  C   UNL A   1      32.153  21.777  23.018  1.00  0.00     0.019 C 
ATOM     75  C   UNL A   1      32.581  23.232  23.000  1.00  0.00     0.103 C 
BRANCH  73  76
ATOM     76  S   UNL A   1      33.240  25.135  24.682  1.00  0.00     0.244 S 
ATOM     77  O   UNL A   1      33.162  25.334  26.116  1.00  0.00    -0.207 OA
ATOM     78  O   UNL A   1      34.521  24.798  24.094  1.00  0.00    -0.207 OA
BRANCH  76  79
ATOM     79  C   UNL A   1      32.763  26.664  23.917  1.00  0.00     0.090 A 
ATOM     80  C   UNL A   1      33.703  27.606  23.454  1.00  0.00     0.024 A 
ATOM     81  C   UNL A   1      31.358  26.899  23.737  1.00  0.00     0.005 A 
ATOM     82  C   UNL A   1      33.326  28.718  22.669  1.00  0.00     0.028 A 
ATOM     83  C   UNL A   1      31.051  28.026  23.028  1.00  0.00     0.019 A 
ATOM     84  C   UNL A   1      30.218  26.177  24.183  1.00  0.00     0.010 A 
ATOM     85  C   UNL A   1      31.969  28.890  22.483  1.00  0.00     0.050 A 
ATOM     86  C   UNL A   1      29.779  28.508  22.750  1.00  0.00     0.050 A 
ATOM     87  C   UNL A   1      28.907  26.648  23.943  1.00  0.00     0.002 A 
ATOM     88  N   UNL A   1      31.263  29.888  21.836  1.00  0.00    -0.321 N 
ATOM     89  C   UNL A   1      28.663  27.831  23.229  1.00  0.00     0.014 A 
ATOM     90  C   UNL A   1      29.878  29.730  21.978  1.00  0.00     0.256 C 
ATOM     91  H   UNL A   1      31.683  30.623  21.335  1.00  0.00     0.170 HD
ATOM     92  O   UNL A   1      29.037  30.497  21.527  1.00  0.00    -0.269 OA
ENDBRANCH  76  79
ENDBRANCH  73  76
ENDBRANCH  68  71
ENDBRANCH  66  67
ENDBRANCH  65  66
ENDBRANCH  64  65
ENDBRANCH   1  64
TORSDOF 15
ENDMDL
