MODEL 1
REMARK VINA RESULT:     -10.9      0.000      0.000
REMARK SMILES O=C(CNc1ccccc1C(=O)N1CCCC1)NCCCCCCNC(=O)c1ccc(-c2c3nc(c(-c4c(F)cccc4F)c4ccc([nH]4)c(-c4c(F)cccc4F)c4nc(c(-c5c(F)cccc5F)c5ccc2[nH]5)C=C4)C=C3)cc1
REMARK SMILES IDX 21 1 20 2 19 3 18 4 1 5 2 6 3 8 4 9 5 11 6 12 10 13 7 14
REMARK SMILES IDX 9 15 8 16 11 17 12 18 13 19 14 20 17 21 15 22 16 23 22 24
REMARK SMILES IDX 23 25 24 26 25 27 26 28 27 30 28 31 29 32 81 33 30 34 80 35
REMARK SMILES IDX 31 36 32 37 33 38 74 39 34 40 79 41 73 42 75 43 35 44 78 45
REMARK SMILES IDX 72 46 71 47 36 49 62 50 45 51 61 52 46 53 49 54 60 55 76 56
REMARK SMILES IDX 47 57 48 58 59 60 77 61 50 62 37 63 38 64 43 65 39 66 40 67
REMARK SMILES IDX 42 68 44 69 41 70 63 71 64 72 69 73 65 74 66 75 68 76 70 77
REMARK SMILES IDX 67 78 51 79 52 80 57 81 53 82 54 83 56 84 58 85 55 86
REMARK H PARENT 18 7 4 10 25 29 75 48 49 59
REMARK Flexibility Score: inf
ROOT
ATOM      1  C   UNL A   1      34.955  33.544  28.902  1.00  0.00     0.002 C 
ENDROOT
BRANCH   1   2
ATOM      2  C   UNL A   1      35.065  32.376  27.905  1.00  0.00     0.021 C 
BRANCH   2   3
ATOM      3  C   UNL A   1      34.013  31.274  28.086  1.00  0.00     0.116 C 
BRANCH   3   4
ATOM      4  N   UNL A   1      33.655  30.730  26.801  1.00  0.00    -0.355 N 
ATOM      5  O   UNL A   1      31.537  31.614  26.754  1.00  0.00    -0.273 OA
ATOM      6  C   UNL A   1      32.339  30.758  26.395  1.00  0.00     0.239 C 
ATOM      7  H   UNL A   1      34.345  30.339  26.218  1.00  0.00     0.163 HD
BRANCH   6   8
ATOM      8  C   UNL A   1      31.960  29.535  25.576  1.00  0.00     0.213 C 
BRANCH   8   9
ATOM      9  N   UNL A   1      31.583  29.886  24.212  1.00  0.00    -0.376 N 
ATOM     10  H   UNL A   1      32.251  30.206  23.564  1.00  0.00     0.161 HD
BRANCH   9  11
ATOM     11  C   UNL A   1      30.238  29.748  23.858  1.00  0.00     0.047 A 
ATOM     12  C   UNL A   1      29.442  30.906  23.965  1.00  0.00     0.026 A 
ATOM     13  C   UNL A   1      29.665  28.605  23.251  1.00  0.00     0.063 A 
ATOM     14  C   UNL A   1      28.147  30.960  23.445  1.00  0.00     0.002 A 
ATOM     15  C   UNL A   1      28.354  28.670  22.736  1.00  0.00     0.016 A 
ATOM     16  C   UNL A   1      27.604  29.842  22.825  1.00  0.00     0.001 A 
BRANCH  13  17
ATOM     17  C   UNL A   1      30.405  27.348  22.944  1.00  0.00     0.255 C 
ATOM     18  O   UNL A   1      30.829  27.217  21.793  1.00  0.00    -0.269 OA
ATOM     19  N   UNL A   1      30.677  26.409  23.922  1.00  0.00    -0.339 N 
ATOM     20  C   UNL A   1      30.080  26.226  25.230  1.00  0.00     0.120 C 
ATOM     21  C   UNL A   1      31.758  25.461  23.744  1.00  0.00     0.120 C 
ATOM     22  C   UNL A   1      31.248  25.804  26.109  1.00  0.00     0.023 C 
ATOM     23  C   UNL A   1      32.289  25.211  25.153  1.00  0.00     0.023 C 
ENDBRANCH  13  17
ENDBRANCH   9  11
ENDBRANCH   8   9
ENDBRANCH   6   8
ENDBRANCH   3   4
ENDBRANCH   2   3
ENDBRANCH   1   2
BRANCH   1  24
ATOM     24  C   UNL A   1      34.938  34.944  28.282  1.00  0.00     0.002 C 
BRANCH  24  25
ATOM     25  C   UNL A   1      33.820  35.852  28.787  1.00  0.00     0.021 C 
BRANCH  25  26
ATOM     26  C   UNL A   1      32.802  35.148  29.668  1.00  0.00     0.116 C 
BRANCH  26  27
ATOM     27  N   UNL A   1      32.359  35.990  30.766  1.00  0.00    -0.352 N 
ATOM     28  C   UNL A   1      32.802  35.995  32.063  1.00  0.00     0.251 C 
ATOM     29  H   UNL A   1      31.651  36.640  30.550  1.00  0.00     0.163 HD
ATOM     30  O   UNL A   1      32.196  36.624  32.926  1.00  0.00    -0.269 OA
BRANCH  28  31
ATOM     31  C   UNL A   1      34.006  35.215  32.419  1.00  0.00     0.039 A 
ATOM     32  C   UNL A   1      33.850  33.924  32.925  1.00  0.00     0.014 A 
ATOM     33  C   UNL A   1      35.282  35.758  32.244  1.00  0.00     0.014 A 
ATOM     34  C   UNL A   1      34.980  33.162  33.222  1.00  0.00     0.010 A 
ATOM     35  C   UNL A   1      36.405  34.968  32.460  1.00  0.00     0.010 A 
ATOM     36  C   UNL A   1      36.266  33.671  32.974  1.00  0.00    -0.014 A 
BRANCH  36  37
ATOM     37  C   UNL A   1      37.479  32.881  33.302  1.00  0.00     0.031 A 
ATOM     38  C   UNL A   1      38.217  33.149  34.586  1.00  0.00     0.074 A 
ATOM     39  C   UNL A   1      37.933  31.953  32.438  1.00  0.00     0.049 A 
ATOM     40  N   UNL A   1      39.322  32.610  35.034  1.00  0.00    -0.248 NA
ATOM     41  C   UNL A   1      37.653  34.183  35.472  1.00  0.00     0.031 C 
ATOM     42  C   UNL A   1      37.332  31.634  31.141  1.00  0.00     0.029 A 
ATOM     43  N   UNL A   1      39.013  31.112  32.520  1.00  0.00    -0.354 N 
ATOM     44  C   UNL A   1      39.583  33.238  36.245  1.00  0.00     0.074 A 
ATOM     45  C   UNL A   1      38.565  34.247  36.429  1.00  0.00     0.031 C 
ATOM     46  C   UNL A   1      38.041  30.653  30.559  1.00  0.00     0.029 A 
ATOM     47  C   UNL A   1      39.160  30.295  31.425  1.00  0.00     0.049 A 
ATOM     48  H   UNL A   1      39.625  31.094  33.291  1.00  0.00     0.167 HD
ATOM     49  C   UNL A   1      40.562  32.975  37.143  1.00  0.00     0.037 A 
ATOM     50  C   UNL A   1      40.095  29.365  31.152  1.00  0.00     0.037 A 
ATOM     51  C   UNL A   1      41.563  31.957  36.968  1.00  0.00     0.049 A 
ATOM     52  C   UNL A   1      41.171  29.091  32.167  1.00  0.00     0.074 A 
ATOM     53  C   UNL A   1      42.592  31.601  37.822  1.00  0.00     0.029 A 
ATOM     54  N   UNL A   1      41.653  31.124  35.864  1.00  0.00    -0.354 N 
ATOM     55  N   UNL A   1      41.379  29.663  33.329  1.00  0.00    -0.248 NA
ATOM     56  C   UNL A   1      42.133  28.030  31.840  1.00  0.00     0.031 C 
ATOM     57  C   UNL A   1      43.321  30.570  37.222  1.00  0.00     0.029 A 
ATOM     58  C   UNL A   1      42.718  30.253  36.016  1.00  0.00     0.049 A 
ATOM     59  H   UNL A   1      41.049  31.148  35.086  1.00  0.00     0.167 HD
ATOM     60  C   UNL A   1      42.469  29.006  33.887  1.00  0.00     0.074 A 
ATOM     61  C   UNL A   1      42.869  27.985  32.942  1.00  0.00     0.031 C 
ATOM     62  C   UNL A   1      43.084  29.227  35.074  1.00  0.00     0.037 A 
BRANCH  49  63
ATOM     63  C   UNL A   1      40.577  33.787  38.404  1.00  0.00     0.057 A 
ATOM     64  C   UNL A   1      41.389  34.923  38.534  1.00  0.00     0.134 A 
ATOM     65  C   UNL A   1      39.755  33.454  39.488  1.00  0.00     0.134 A 
ATOM     66  F   UNL A   1      42.213  35.287  37.540  1.00  0.00    -0.206 F 
ATOM     67  C   UNL A   1      41.399  35.684  39.704  1.00  0.00     0.040 A 
ATOM     68  C   UNL A   1      39.736  34.225  40.652  1.00  0.00     0.040 A 
ATOM     69  F   UNL A   1      38.952  32.382  39.430  1.00  0.00    -0.206 F 
ATOM     70  C   UNL A   1      40.564  35.340  40.765  1.00  0.00     0.006 A 
ENDBRANCH  49  63
BRANCH  50  71
ATOM     71  C   UNL A   1      40.049  28.605  29.877  1.00  0.00     0.057 A 
ATOM     72  C   UNL A   1      39.325  27.411  29.769  1.00  0.00     0.134 A 
ATOM     73  C   UNL A   1      40.754  29.034  28.746  1.00  0.00     0.134 A 
ATOM     74  F   UNL A   1      38.642  26.940  30.823  1.00  0.00    -0.206 F 
ATOM     75  C   UNL A   1      39.334  26.654  28.598  1.00  0.00     0.040 A 
ATOM     76  C   UNL A   1      40.750  28.301  27.559  1.00  0.00     0.040 A 
ATOM     77  F   UNL A   1      41.458  30.176  28.780  1.00  0.00    -0.206 F 
ATOM     78  C   UNL A   1      40.047  27.100  27.486  1.00  0.00     0.006 A 
ENDBRANCH  50  71
BRANCH  62  79
ATOM     79  C   UNL A   1      44.212  28.309  35.442  1.00  0.00     0.057 A 
ATOM     80  C   UNL A   1      44.004  27.129  36.167  1.00  0.00     0.134 A 
ATOM     81  C   UNL A   1      45.522  28.599  35.040  1.00  0.00     0.134 A 
ATOM     82  F   UNL A   1      42.774  26.800  36.592  1.00  0.00    -0.206 F 
ATOM     83  C   UNL A   1      45.064  26.287  36.507  1.00  0.00     0.040 A 
ATOM     84  C   UNL A   1      46.585  27.751  35.350  1.00  0.00     0.040 A 
ATOM     85  F   UNL A   1      45.788  29.708  34.333  1.00  0.00    -0.206 F 
ATOM     86  C   UNL A   1      46.359  26.594  36.093  1.00  0.00     0.006 A 
ENDBRANCH  62  79
ENDBRANCH  36  37
ENDBRANCH  28  31
ENDBRANCH  26  27
ENDBRANCH  25  26
ENDBRANCH  24  25
ENDBRANCH   1  24
TORSDOF 16
ENDMDL
MODEL 2
REMARK VINA RESULT:     -10.7      1.097      2.304
REMARK SMILES O=C(CNc1ccccc1C(=O)N1CCCC1)NCCCCCCNC(=O)c1ccc(-c2c3nc(c(-c4c(F)cccc4F)c4ccc([nH]4)c(-c4c(F)cccc4F)c4nc(c(-c5c(F)cccc5F)c5ccc2[nH]5)C=C4)C=C3)cc1
REMARK SMILES IDX 21 1 20 2 19 3 18 4 1 5 2 6 3 8 4 9 5 11 6 12 10 13 7 14
REMARK SMILES IDX 9 15 8 16 11 17 12 18 13 19 14 20 17 21 15 22 16 23 22 24
REMARK SMILES IDX 23 25 24 26 25 27 26 28 27 30 28 31 29 32 81 33 30 34 80 35
REMARK SMILES IDX 31 36 32 37 33 38 74 39 34 40 79 41 73 42 75 43 35 44 78 45
REMARK SMILES IDX 72 46 71 47 36 49 62 50 45 51 61 52 46 53 49 54 60 55 76 56
REMARK SMILES IDX 47 57 48 58 59 60 77 61 50 62 37 63 38 64 43 65 39 66 40 67
REMARK SMILES IDX 42 68 44 69 41 70 63 71 64 72 69 73 65 74 66 75 68 76 70 77
REMARK SMILES IDX 67 78 51 79 52 80 57 81 53 82 54 83 56 84 58 85 55 86
REMARK H PARENT 18 7 4 10 25 29 75 48 49 59
REMARK Flexibility Score: inf
ROOT
ATOM      1  C   UNL A   1      34.267  32.749  29.547  1.00  0.00     0.002 C 
ENDROOT
BRANCH   1   2
ATOM      2  C   UNL A   1      34.794  31.572  28.707  1.00  0.00     0.021 C 
BRANCH   2   3
ATOM      3  C   UNL A   1      34.278  31.530  27.262  1.00  0.00     0.116 C 
BRANCH   3   4
ATOM      4  N   UNL A   1      33.049  30.781  27.209  1.00  0.00    -0.355 N 
ATOM      5  O   UNL A   1      34.026  28.763  26.712  1.00  0.00    -0.273 OA
ATOM      6  C   UNL A   1      33.053  29.509  26.679  1.00  0.00     0.239 C 
ATOM      7  H   UNL A   1      32.213  31.175  27.546  1.00  0.00     0.163 HD
BRANCH   6   8
ATOM      8  C   UNL A   1      31.770  29.193  25.927  1.00  0.00     0.213 C 
BRANCH   8   9
ATOM      9  N   UNL A   1      31.816  29.662  24.547  1.00  0.00    -0.376 N 
ATOM     10  H   UNL A   1      31.714  30.616  24.329  1.00  0.00     0.161 HD
BRANCH   9  11
ATOM     11  C   UNL A   1      32.012  28.707  23.546  1.00  0.00     0.047 A 
ATOM     12  C   UNL A   1      33.342  28.295  23.327  1.00  0.00     0.026 A 
ATOM     13  C   UNL A   1      30.984  28.010  22.867  1.00  0.00     0.063 A 
ATOM     14  C   UNL A   1      33.650  27.202  22.515  1.00  0.00     0.002 A 
ATOM     15  C   UNL A   1      31.308  26.913  22.045  1.00  0.00     0.016 A 
ATOM     16  C   UNL A   1      32.632  26.506  21.876  1.00  0.00     0.001 A 
BRANCH  13  17
ATOM     17  C   UNL A   1      29.525  28.232  23.084  1.00  0.00     0.255 C 
ATOM     18  O   UNL A   1      28.924  27.381  23.744  1.00  0.00    -0.269 OA
ATOM     19  N   UNL A   1      28.892  29.377  22.637  1.00  0.00    -0.339 N 
ATOM     20  C   UNL A   1      29.315  30.352  21.653  1.00  0.00     0.120 C 
ATOM     21  C   UNL A   1      27.641  29.799  23.235  1.00  0.00     0.120 C 
ATOM     22  C   UNL A   1      28.828  31.678  22.219  1.00  0.00     0.023 C 
ATOM     23  C   UNL A   1      27.673  31.322  23.162  1.00  0.00     0.023 C 
ENDBRANCH  13  17
ENDBRANCH   9  11
ENDBRANCH   8   9
ENDBRANCH   6   8
ENDBRANCH   3   4
ENDBRANCH   2   3
ENDBRANCH   1   2
BRANCH   1  24
ATOM     24  C   UNL A   1      34.442  34.137  28.925  1.00  0.00     0.002 C 
BRANCH  24  25
ATOM     25  C   UNL A   1      33.200  35.023  28.980  1.00  0.00     0.021 C 
BRANCH  25  26
ATOM     26  C   UNL A   1      33.393  36.311  29.762  1.00  0.00     0.116 C 
BRANCH  26  27
ATOM     27  N   UNL A   1      32.470  36.412  30.879  1.00  0.00    -0.352 N 
ATOM     28  C   UNL A   1      32.541  35.789  32.098  1.00  0.00     0.251 C 
ATOM     29  H   UNL A   1      31.695  37.005  30.744  1.00  0.00     0.163 HD
ATOM     30  O   UNL A   1      31.586  35.815  32.869  1.00  0.00    -0.269 OA
BRANCH  28  31
ATOM     31  C   UNL A   1      33.774  35.062  32.467  1.00  0.00     0.039 A 
ATOM     32  C   UNL A   1      33.671  33.758  32.955  1.00  0.00     0.014 A 
ATOM     33  C   UNL A   1      35.026  35.666  32.323  1.00  0.00     0.014 A 
ATOM     34  C   UNL A   1      34.830  33.047  33.264  1.00  0.00     0.010 A 
ATOM     35  C   UNL A   1      36.181  34.928  32.550  1.00  0.00     0.010 A 
ATOM     36  C   UNL A   1      36.094  33.619  33.047  1.00  0.00    -0.014 A 
BRANCH  36  37
ATOM     37  C   UNL A   1      37.337  32.883  33.388  1.00  0.00     0.031 A 
ATOM     38  C   UNL A   1      38.055  33.191  34.674  1.00  0.00     0.074 A 
ATOM     39  C   UNL A   1      37.835  31.969  32.533  1.00  0.00     0.049 A 
ATOM     40  N   UNL A   1      39.179  32.702  35.133  1.00  0.00    -0.248 NA
ATOM     41  C   UNL A   1      37.442  34.206  35.549  1.00  0.00     0.031 C 
ATOM     42  C   UNL A   1      37.257  31.616  31.235  1.00  0.00     0.029 A 
ATOM     43  N   UNL A   1      38.949  31.175  32.628  1.00  0.00    -0.354 N 
ATOM     44  C   UNL A   1      39.405  33.349  36.341  1.00  0.00     0.074 A 
ATOM     45  C   UNL A   1      38.345  34.316  36.511  1.00  0.00     0.031 C 
ATOM     46  C   UNL A   1      38.010  30.661  30.665  1.00  0.00     0.029 A 
ATOM     47  C   UNL A   1      39.137  30.357  31.540  1.00  0.00     0.049 A 
ATOM     48  H   UNL A   1      39.557  31.188  33.403  1.00  0.00     0.167 HD
ATOM     49  C   UNL A   1      40.389  33.133  37.247  1.00  0.00     0.037 A 
ATOM     50  C   UNL A   1      40.112  29.465  31.280  1.00  0.00     0.037 A 
ATOM     51  C   UNL A   1      41.432  32.158  37.086  1.00  0.00     0.049 A 
ATOM     52  C   UNL A   1      41.193  29.243  32.304  1.00  0.00     0.074 A 
ATOM     53  C   UNL A   1      42.470  31.851  37.949  1.00  0.00     0.029 A 
ATOM     54  N   UNL A   1      41.565  31.321  35.988  1.00  0.00    -0.354 N 
ATOM     55  N   UNL A   1      41.369  29.832  33.463  1.00  0.00    -0.248 NA
ATOM     56  C   UNL A   1      42.201  28.222  31.991  1.00  0.00     0.031 C 
ATOM     57  C   UNL A   1      43.245  30.847  37.361  1.00  0.00     0.029 A 
ATOM     58  C   UNL A   1      42.664  30.497  36.154  1.00  0.00     0.049 A 
ATOM     59  H   UNL A   1      40.965  31.314  35.207  1.00  0.00     0.167 HD
ATOM     60  C   UNL A   1      42.481  29.225  34.032  1.00  0.00     0.074 A 
ATOM     61  C   UNL A   1      42.930  28.215  33.097  1.00  0.00     0.031 C 
ATOM     62  C   UNL A   1      43.079  29.481  35.221  1.00  0.00     0.037 A 
BRANCH  49  63
ATOM     63  C   UNL A   1      40.362  33.955  38.502  1.00  0.00     0.057 A 
ATOM     64  C   UNL A   1      41.080  35.154  38.609  1.00  0.00     0.134 A 
ATOM     65  C   UNL A   1      39.589  33.565  39.604  1.00  0.00     0.134 A 
ATOM     66  F   UNL A   1      41.854  35.575  37.596  1.00  0.00    -0.206 F 
ATOM     67  C   UNL A   1      41.051  35.923  39.773  1.00  0.00     0.040 A 
ATOM     68  C   UNL A   1      39.529  34.342  40.763  1.00  0.00     0.040 A 
ATOM     69  F   UNL A   1      38.874  32.432  39.568  1.00  0.00    -0.206 F 
ATOM     70  C   UNL A   1      40.267  35.521  40.852  1.00  0.00     0.006 A 
ENDBRANCH  49  63
BRANCH  50  71
ATOM     71  C   UNL A   1      40.106  28.695  30.010  1.00  0.00     0.057 A 
ATOM     72  C   UNL A   1      40.815  29.140  28.887  1.00  0.00     0.134 A 
ATOM     73  C   UNL A   1      39.366  27.515  29.877  1.00  0.00     0.134 A 
ATOM     74  F   UNL A   1      41.530  30.273  28.948  1.00  0.00    -0.206 F 
ATOM     75  C   UNL A   1      40.758  28.462  27.670  1.00  0.00     0.040 A 
ATOM     76  C   UNL A   1      39.322  26.810  28.673  1.00  0.00     0.040 A 
ATOM     77  F   UNL A   1      38.674  27.028  30.918  1.00  0.00    -0.206 F 
ATOM     78  C   UNL A   1      40.011  27.291  27.560  1.00  0.00     0.006 A 
ENDBRANCH  50  71
BRANCH  62  79
ATOM     79  C   UNL A   1      44.242  28.613  35.603  1.00  0.00     0.057 A 
ATOM     80  C   UNL A   1      44.081  27.441  36.352  1.00  0.00     0.134 A 
ATOM     81  C   UNL A   1      45.539  28.945  35.191  1.00  0.00     0.134 A 
ATOM     82  F   UNL A   1      42.866  27.073  36.787  1.00  0.00    -0.206 F 
ATOM     83  C   UNL A   1      45.173  26.646  36.704  1.00  0.00     0.040 A 
ATOM     84  C   UNL A   1      46.635  28.144  35.513  1.00  0.00     0.040 A 
ATOM     85  F   UNL A   1      45.761  30.049  34.462  1.00  0.00    -0.206 F 
ATOM     86  C   UNL A   1      46.454  26.994  36.280  1.00  0.00     0.006 A 
ENDBRANCH  62  79
ENDBRANCH  36  37
ENDBRANCH  28  31
ENDBRANCH  26  27
ENDBRANCH  25  26
ENDBRANCH  24  25
ENDBRANCH   1  24
TORSDOF 16
ENDMDL
MODEL 3
REMARK VINA RESULT:     -10.7      7.289     12.662
REMARK SMILES O=C(CNc1ccccc1C(=O)N1CCCC1)NCCCCCCNC(=O)c1ccc(-c2c3nc(c(-c4c(F)cccc4F)c4ccc([nH]4)c(-c4c(F)cccc4F)c4nc(c(-c5c(F)cccc5F)c5ccc2[nH]5)C=C4)C=C3)cc1
REMARK SMILES IDX 21 1 20 2 19 3 18 4 1 5 2 6 3 8 4 9 5 11 6 12 10 13 7 14
REMARK SMILES IDX 9 15 8 16 11 17 12 18 13 19 14 20 17 21 15 22 16 23 22 24
REMARK SMILES IDX 23 25 24 26 25 27 26 28 27 30 28 31 29 32 81 33 30 34 80 35
REMARK SMILES IDX 31 36 32 37 33 38 74 39 34 40 79 41 73 42 75 43 35 44 78 45
REMARK SMILES IDX 72 46 71 47 36 49 62 50 45 51 61 52 46 53 49 54 60 55 76 56
REMARK SMILES IDX 47 57 48 58 59 60 77 61 50 62 37 63 38 64 43 65 39 66 40 67
REMARK SMILES IDX 42 68 44 69 41 70 63 71 64 72 69 73 65 74 66 75 68 76 70 77
REMARK SMILES IDX 67 78 51 79 52 80 57 81 53 82 54 83 56 84 58 85 55 86
REMARK H PARENT 18 7 4 10 25 29 75 48 49 59
REMARK Flexibility Score: inf
ROOT
ATOM      1  C   UNL A   1      40.891  21.028  26.731  1.00  0.00     0.002 C 
ENDROOT
BRANCH   1   2
ATOM      2  C   UNL A   1      40.487  22.319  27.465  1.00  0.00     0.021 C 
BRANCH   2   3
ATOM      3  C   UNL A   1      39.295  23.063  26.849  1.00  0.00     0.116 C 
BRANCH   3   4
ATOM      4  N   UNL A   1      38.691  22.250  25.827  1.00  0.00    -0.355 N 
ATOM      5  O   UNL A   1      36.613  23.219  25.953  1.00  0.00    -0.273 OA
ATOM      6  C   UNL A   1      37.322  22.257  25.674  1.00  0.00     0.239 C 
ATOM      7  H   UNL A   1      39.251  21.692  25.241  1.00  0.00     0.163 HD
BRANCH   6   8
ATOM      8  C   UNL A   1      36.779  20.898  25.265  1.00  0.00     0.213 C 
BRANCH   8   9
ATOM      9  N   UNL A   1      35.356  20.765  25.560  1.00  0.00    -0.376 N 
ATOM     10  H   UNL A   1      34.934  21.285  26.281  1.00  0.00     0.161 HD
BRANCH   9  11
ATOM     11  C   UNL A   1      34.615  19.875  24.779  1.00  0.00     0.047 A 
ATOM     12  C   UNL A   1      35.191  18.607  24.561  1.00  0.00     0.026 A 
ATOM     13  C   UNL A   1      33.284  20.080  24.345  1.00  0.00     0.063 A 
ATOM     14  C   UNL A   1      34.468  17.560  23.986  1.00  0.00     0.002 A 
ATOM     15  C   UNL A   1      32.567  19.017  23.759  1.00  0.00     0.016 A 
ATOM     16  C   UNL A   1      33.153  17.763  23.589  1.00  0.00     0.001 A 
BRANCH  13  17
ATOM     17  C   UNL A   1      32.486  21.311  24.612  1.00  0.00     0.255 C 
ATOM     18  O   UNL A   1      31.541  21.204  25.397  1.00  0.00    -0.269 OA
ATOM     19  N   UNL A   1      32.837  22.534  24.071  1.00  0.00    -0.339 N 
ATOM     20  C   UNL A   1      33.712  22.845  22.959  1.00  0.00     0.120 C 
ATOM     21  C   UNL A   1      32.371  23.763  24.682  1.00  0.00     0.120 C 
ATOM     22  C   UNL A   1      34.417  24.122  23.394  1.00  0.00     0.023 C 
ATOM     23  C   UNL A   1      33.493  24.767  24.433  1.00  0.00     0.023 C 
ENDBRANCH  13  17
ENDBRANCH   9  11
ENDBRANCH   8   9
ENDBRANCH   6   8
ENDBRANCH   3   4
ENDBRANCH   2   3
ENDBRANCH   1   2
BRANCH   1  24
ATOM     24  C   UNL A   1      41.659  20.002  27.570  1.00  0.00     0.002 C 
BRANCH  24  25
ATOM     25  C   UNL A   1      42.556  19.064  26.768  1.00  0.00     0.021 C 
BRANCH  25  26
ATOM     26  C   UNL A   1      42.588  19.362  25.278  1.00  0.00     0.116 C 
BRANCH  26  27
ATOM     27  N   UNL A   1      43.790  18.847  24.646  1.00  0.00    -0.352 N 
ATOM     28  C   UNL A   1      44.920  19.534  24.284  1.00  0.00     0.251 C 
ATOM     29  H   UNL A   1      43.793  17.881  24.453  1.00  0.00     0.163 HD
ATOM     30  O   UNL A   1      45.773  19.004  23.579  1.00  0.00    -0.269 OA
BRANCH  28  31
ATOM     31  C   UNL A   1      45.090  20.932  24.733  1.00  0.00     0.039 A 
ATOM     32  C   UNL A   1      44.800  21.968  23.845  1.00  0.00     0.014 A 
ATOM     33  C   UNL A   1      45.527  21.214  26.031  1.00  0.00     0.014 A 
ATOM     34  C   UNL A   1      44.914  23.291  24.271  1.00  0.00     0.010 A 
ATOM     35  C   UNL A   1      45.558  22.529  26.479  1.00  0.00     0.010 A 
ATOM     36  C   UNL A   1      45.276  23.582  25.597  1.00  0.00    -0.014 A 
BRANCH  36  37
ATOM     37  C   UNL A   1      45.420  24.984  26.062  1.00  0.00     0.031 A 
ATOM     38  C   UNL A   1      46.767  25.652  26.002  1.00  0.00     0.074 A 
ATOM     39  C   UNL A   1      44.357  25.639  26.566  1.00  0.00     0.049 A 
ATOM     40  N   UNL A   1      47.117  26.848  26.405  1.00  0.00    -0.248 NA
ATOM     41  C   UNL A   1      47.875  24.862  25.439  1.00  0.00     0.031 C 
ATOM     42  C   UNL A   1      43.012  25.084  26.720  1.00  0.00     0.029 A 
ATOM     43  N   UNL A   1      44.246  26.918  27.049  1.00  0.00    -0.354 N 
ATOM     44  C   UNL A   1      48.478  26.948  26.147  1.00  0.00     0.074 A 
ATOM     45  C   UNL A   1      48.907  25.672  25.622  1.00  0.00     0.031 C 
ATOM     46  C   UNL A   1      42.206  26.023  27.242  1.00  0.00     0.029 A 
ATOM     47  C   UNL A   1      42.983  27.234  27.486  1.00  0.00     0.049 A 
ATOM     48  H   UNL A   1      45.000  27.551  27.079  1.00  0.00     0.167 HD
ATOM     49  C   UNL A   1      49.293  28.018  26.301  1.00  0.00     0.037 A 
ATOM     50  C   UNL A   1      42.508  28.373  28.026  1.00  0.00     0.037 A 
ATOM     51  C   UNL A   1      48.861  29.294  26.806  1.00  0.00     0.049 A 
ATOM     52  C   UNL A   1      43.434  29.549  28.184  1.00  0.00     0.074 A 
ATOM     53  C   UNL A   1      49.604  30.447  26.989  1.00  0.00     0.029 A 
ATOM     54  N   UNL A   1      47.565  29.586  27.199  1.00  0.00    -0.354 N 
ATOM     55  N   UNL A   1      44.710  29.643  27.894  1.00  0.00    -0.248 NA
ATOM     56  C   UNL A   1      42.851  30.782  28.729  1.00  0.00     0.031 C 
ATOM     57  C   UNL A   1      48.762  31.430  27.519  1.00  0.00     0.029 A 
ATOM     58  C   UNL A   1      47.485  30.902  27.622  1.00  0.00     0.049 A 
ATOM     59  H   UNL A   1      46.812  28.952  27.181  1.00  0.00     0.167 HD
ATOM     60  C   UNL A   1      45.070  30.953  28.184  1.00  0.00     0.074 A 
ATOM     61  C   UNL A   1      43.876  31.618  28.660  1.00  0.00     0.031 C 
ATOM     62  C   UNL A   1      46.280  31.552  28.068  1.00  0.00     0.037 A 
BRANCH  49  63
ATOM     63  C   UNL A   1      50.728  27.856  25.893  1.00  0.00     0.057 A 
ATOM     64  C   UNL A   1      51.727  27.560  26.830  1.00  0.00     0.134 A 
ATOM     65  C   UNL A   1      51.114  27.966  24.551  1.00  0.00     0.134 A 
ATOM     66  F   UNL A   1      51.427  27.459  28.134  1.00  0.00    -0.206 F 
ATOM     67  C   UNL A   1      53.061  27.402  26.452  1.00  0.00     0.040 A 
ATOM     68  C   UNL A   1      52.441  27.781  24.157  1.00  0.00     0.040 A 
ATOM     69  F   UNL A   1      50.209  28.245  23.602  1.00  0.00    -0.206 F 
ATOM     70  C   UNL A   1      53.420  27.505  25.110  1.00  0.00     0.006 A 
ENDBRANCH  49  63
BRANCH  50  71
ATOM     71  C   UNL A   1      41.084  28.474  28.436  1.00  0.00     0.057 A 
ATOM     72  C   UNL A   1      40.670  28.094  29.719  1.00  0.00     0.134 A 
ATOM     73  C   UNL A   1      40.099  28.918  27.547  1.00  0.00     0.134 A 
ATOM     74  F   UNL A   1      41.565  27.644  30.611  1.00  0.00    -0.206 F 
ATOM     75  C   UNL A   1      39.326  28.118  30.090  1.00  0.00     0.040 A 
ATOM     76  C   UNL A   1      38.753  28.974  27.914  1.00  0.00     0.040 A 
ATOM     77  F   UNL A   1      40.431  29.308  26.307  1.00  0.00    -0.206 F 
ATOM     78  C   UNL A   1      38.362  28.561  29.187  1.00  0.00     0.006 A 
ENDBRANCH  50  71
BRANCH  62  79
ATOM     79  C   UNL A   1      46.356  33.013  28.402  1.00  0.00     0.057 A 
ATOM     80  C   UNL A   1      46.671  33.466  29.689  1.00  0.00     0.134 A 
ATOM     81  C   UNL A   1      46.135  33.978  27.412  1.00  0.00     0.134 A 
ATOM     82  F   UNL A   1      46.883  32.592  30.685  1.00  0.00    -0.206 F 
ATOM     83  C   UNL A   1      46.732  34.829  29.986  1.00  0.00     0.040 A 
ATOM     84  C   UNL A   1      46.221  35.343  27.690  1.00  0.00     0.040 A 
ATOM     85  F   UNL A   1      45.839  33.611  26.156  1.00  0.00    -0.206 F 
ATOM     86  C   UNL A   1      46.513  35.771  28.984  1.00  0.00     0.006 A 
ENDBRANCH  62  79
ENDBRANCH  36  37
ENDBRANCH  28  31
ENDBRANCH  26  27
ENDBRANCH  25  26
ENDBRANCH  24  25
ENDBRANCH   1  24
TORSDOF 16
ENDMDL
