MODEL 1
REMARK VINA RESULT:     -12.1      0.000      0.000
REMARK SMILES NS(=O)(=O)c1ccc(/N=C/c2ccc(O)c(C(=O)NCCCCCCNC(=O)c3ccc(-c4c5nc(c(-c6c(F)cccc6F)c6ccc([nH]6)c(-c6c(F)cccc6F)c6nc(c(-c7c(F)cccc7F)c7ccc4[nH]7)C=C6)C=C5)cc3)c2)cc1
REMARK SMILES IDX 21 1 20 2 19 3 17 4 18 5 16 7 11 8 12 9 83 10 13 11 14 12
REMARK SMILES IDX 10 13 9 14 8 15 5 16 6 17 85 18 7 19 84 20 2 21 3 22 4 23
REMARK SMILES IDX 1 24 15 27 22 29 23 30 24 31 25 32 26 33 27 34 28 36 29 37
REMARK SMILES IDX 30 38 82 39 31 40 81 41 32 42 33 43 34 44 75 45 35 46 80 47
REMARK SMILES IDX 74 48 76 49 36 50 79 51 73 52 72 53 37 55 63 56 46 57 62 58
REMARK SMILES IDX 47 59 50 60 61 61 77 62 48 63 49 64 60 66 78 67 51 68 38 69
REMARK SMILES IDX 39 70 44 71 40 72 41 73 43 74 45 75 42 76 64 77 65 78 70 79
REMARK SMILES IDX 66 80 67 81 69 82 71 83 68 84 52 85 53 86 58 87 54 88 55 89
REMARK SMILES IDX 57 90 59 91 56 92
REMARK H PARENT 19 6 1 25 1 26 15 28 26 35 76 54 50 65
REMARK Flexibility Score: inf
ROOT
ATOM      1  C   UNL A   1      37.374  22.923  25.437  1.00  0.00     0.021 C 
ENDROOT
BRANCH   1   2
ATOM      2  C   UNL A   1      36.160  23.649  26.008  1.00  0.00     0.116 C 
BRANCH   2   3
ATOM      3  N   UNL A   1      35.370  22.850  26.931  1.00  0.00    -0.352 N 
ATOM      4  C   UNL A   1      34.193  22.163  26.741  1.00  0.00     0.255 C 
ATOM      5  O   UNL A   1      33.657  21.614  27.704  1.00  0.00    -0.269 OA
ATOM      6  H   UNL A   1      35.738  22.790  27.842  1.00  0.00     0.163 HD
BRANCH   4   7
ATOM      7  C   UNL A   1      33.489  22.121  25.433  1.00  0.00     0.082 A 
ATOM      8  C   UNL A   1      32.206  23.190  23.675  1.00  0.00    -0.006 A 
ATOM      9  C   UNL A   1      31.924  21.952  23.098  1.00  0.00     0.013 A 
ATOM     10  C   UNL A   1      33.045  23.277  24.791  1.00  0.00     0.027 A 
ATOM     11  C   UNL A   1      32.471  20.796  23.659  1.00  0.00     0.047 A 
ATOM     12  C   UNL A   1      33.240  20.881  24.822  1.00  0.00     0.128 A 
BRANCH   8  13
ATOM     13  C   UNL A   1      31.532  24.410  23.182  1.00  0.00     0.119 C 
ATOM     14  N   UNL A   1      31.192  25.346  24.011  1.00  0.00    -0.256 NA
BRANCH  14  15
ATOM     15  C   UNL A   1      30.482  26.464  23.551  1.00  0.00     0.063 A 
ATOM     16  C   UNL A   1      29.200  28.824  22.743  1.00  0.00     0.082 A 
ATOM     17  C   UNL A   1      30.579  28.692  22.570  1.00  0.00     0.024 A 
ATOM     18  C   UNL A   1      28.460  27.797  23.334  1.00  0.00     0.024 A 
ATOM     19  C   UNL A   1      31.210  27.513  22.978  1.00  0.00     0.030 A 
ATOM     20  C   UNL A   1      29.105  26.625  23.742  1.00  0.00     0.030 A 
BRANCH  16  21
ATOM     21  S   UNL A   1      28.360  30.308  22.271  1.00  0.00     0.238 S 
ATOM     22  O   UNL A   1      27.383  30.621  23.287  1.00  0.00    -0.207 OA
ATOM     23  O   UNL A   1      28.029  30.208  20.870  1.00  0.00    -0.207 OA
BRANCH  21  24
ATOM     24  N   UNL A   1      29.529  31.509  22.393  1.00  0.00    -0.225 NA
ATOM     25  H   UNL A   1      29.290  32.280  21.770  1.00  0.00     0.137 HD
ATOM     26  H   UNL A   1      30.438  31.127  22.129  1.00  0.00     0.137 HD
ENDBRANCH  21  24
ENDBRANCH  16  21
ENDBRANCH  14  15
ENDBRANCH   8  13
BRANCH  12  27
ATOM     27  O   UNL A   1      33.715  19.697  25.320  1.00  0.00    -0.507 OA
ATOM     28  H   UNL A   1      33.244  18.901  25.168  1.00  0.00     0.293 HD
ENDBRANCH  12  27
ENDBRANCH   4   7
ENDBRANCH   2   3
ENDBRANCH   1   2
BRANCH   1  29
ATOM     29  C   UNL A   1      37.097  21.851  24.384  1.00  0.00     0.002 C 
BRANCH  29  30
ATOM     30  C   UNL A   1      36.904  20.422  24.899  1.00  0.00     0.002 C 
BRANCH  30  31
ATOM     31  C   UNL A   1      38.138  19.518  24.880  1.00  0.00     0.021 C 
BRANCH  31  32
ATOM     32  C   UNL A   1      39.215  19.837  25.911  1.00  0.00     0.116 C 
BRANCH  32  33
ATOM     33  N   UNL A   1      40.343  18.925  25.852  1.00  0.00    -0.352 N 
ATOM     34  C   UNL A   1      41.686  19.180  25.981  1.00  0.00     0.251 C 
ATOM     35  H   UNL A   1      40.110  17.982  25.696  1.00  0.00     0.163 HD
ATOM     36  O   UNL A   1      42.501  18.289  25.758  1.00  0.00    -0.269 OA
BRANCH  34  37
ATOM     37  C   UNL A   1      42.163  20.528  26.363  1.00  0.00     0.039 A 
ATOM     38  C   UNL A   1      42.553  21.411  25.352  1.00  0.00     0.014 A 
ATOM     39  C   UNL A   1      42.251  20.919  27.702  1.00  0.00     0.014 A 
ATOM     40  C   UNL A   1      42.977  22.701  25.680  1.00  0.00     0.010 A 
ATOM     41  C   UNL A   1      42.604  22.229  28.023  1.00  0.00     0.010 A 
ATOM     42  C   UNL A   1      42.976  23.132  27.016  1.00  0.00    -0.014 A 
BRANCH  42  43
ATOM     43  C   UNL A   1      43.367  24.521  27.370  1.00  0.00     0.031 A 
ATOM     44  C   UNL A   1      44.806  24.950  27.299  1.00  0.00     0.074 A 
ATOM     45  C   UNL A   1      42.428  25.387  27.798  1.00  0.00     0.049 A 
ATOM     46  N   UNL A   1      45.339  26.111  27.590  1.00  0.00    -0.248 NA
ATOM     47  C   UNL A   1      45.779  23.935  26.868  1.00  0.00     0.031 C 
ATOM     48  C   UNL A   1      41.004  25.083  27.951  1.00  0.00     0.029 A 
ATOM     49  N   UNL A   1      42.530  26.701  28.181  1.00  0.00    -0.354 N 
ATOM     50  C   UNL A   1      46.704  25.963  27.382  1.00  0.00     0.074 A 
ATOM     51  C   UNL A   1      46.925  24.585  27.002  1.00  0.00     0.031 C 
ATOM     52  C   UNL A   1      40.360  26.188  28.359  1.00  0.00     0.029 A 
ATOM     53  C   UNL A   1      41.328  27.267  28.532  1.00  0.00     0.049 A 
ATOM     54  H   UNL A   1      43.384  27.191  28.203  1.00  0.00     0.167 HD
ATOM     55  C   UNL A   1      47.684  26.895  27.473  1.00  0.00     0.037 A 
ATOM     56  C   UNL A   1      41.038  28.515  28.943  1.00  0.00     0.037 A 
ATOM     57  C   UNL A   1      47.462  28.270  27.841  1.00  0.00     0.049 A 
ATOM     58  C   UNL A   1      42.144  29.528  29.054  1.00  0.00     0.074 A 
ATOM     59  C   UNL A   1      48.381  29.302  27.924  1.00  0.00     0.029 A 
ATOM     60  N   UNL A   1      46.231  28.803  28.194  1.00  0.00    -0.354 N 
ATOM     61  N   UNL A   1      43.422  29.389  28.800  1.00  0.00    -0.248 NA
ATOM     62  C   UNL A   1      41.763  30.874  29.504  1.00  0.00     0.031 C 
ATOM     63  C   UNL A   1      47.714  30.448  28.370  1.00  0.00     0.029 A 
ATOM     64  C   UNL A   1      46.369  30.144  28.516  1.00  0.00     0.049 A 
ATOM     65  H   UNL A   1      45.383  28.303  28.214  1.00  0.00     0.167 HD
ATOM     66  C   UNL A   1      43.993  30.634  29.028  1.00  0.00     0.074 A 
ATOM     67  C   UNL A   1      42.918  31.518  29.429  1.00  0.00     0.031 C 
ATOM     68  C   UNL A   1      45.291  31.012  28.915  1.00  0.00     0.037 A 
BRANCH  55  69
ATOM     69  C   UNL A   1      49.087  26.451  27.167  1.00  0.00     0.057 A 
ATOM     70  C   UNL A   1      49.607  26.490  25.865  1.00  0.00     0.134 A 
ATOM     71  C   UNL A   1      49.933  25.992  28.183  1.00  0.00     0.134 A 
ATOM     72  F   UNL A   1      48.846  26.909  24.842  1.00  0.00    -0.206 F 
ATOM     73  C   UNL A   1      50.902  26.056  25.582  1.00  0.00     0.040 A 
ATOM     74  C   UNL A   1      51.242  25.584  27.917  1.00  0.00     0.040 A 
ATOM     75  F   UNL A   1      49.505  25.935  29.453  1.00  0.00    -0.206 F 
ATOM     76  C   UNL A   1      51.726  25.606  26.610  1.00  0.00     0.006 A 
ENDBRANCH  55  69
BRANCH  56  77
ATOM     77  C   UNL A   1      39.634  28.892  29.241  1.00  0.00     0.057 A 
ATOM     78  C   UNL A   1      39.130  28.809  30.543  1.00  0.00     0.134 A 
ATOM     79  C   UNL A   1      38.765  29.341  28.239  1.00  0.00     0.134 A 
ATOM     80  F   UNL A   1      39.909  28.370  31.542  1.00  0.00    -0.206 F 
ATOM     81  C   UNL A   1      37.806  29.140  30.838  1.00  0.00     0.040 A 
ATOM     82  C   UNL A   1      37.447  29.700  28.523  1.00  0.00     0.040 A 
ATOM     83  F   UNL A   1      39.189  29.447  26.970  1.00  0.00    -0.206 F 
ATOM     84  C   UNL A   1      36.962  29.593  29.825  1.00  0.00     0.006 A 
ENDBRANCH  56  77
BRANCH  68  85
ATOM     85  C   UNL A   1      45.610  32.453  29.197  1.00  0.00     0.057 A 
ATOM     86  C   UNL A   1      45.982  32.893  30.475  1.00  0.00     0.134 A 
ATOM     87  C   UNL A   1      45.562  33.407  28.173  1.00  0.00     0.134 A 
ATOM     88  F   UNL A   1      46.031  32.032  31.503  1.00  0.00    -0.206 F 
ATOM     89  C   UNL A   1      46.264  34.236  30.729  1.00  0.00     0.040 A 
ATOM     90  C   UNL A   1      45.871  34.747  28.409  1.00  0.00     0.040 A 
ATOM     91  F   UNL A   1      45.222  33.051  26.926  1.00  0.00    -0.206 F 
ATOM     92  C   UNL A   1      46.214  35.167  29.693  1.00  0.00     0.006 A 
ENDBRANCH  68  85
ENDBRANCH  42  43
ENDBRANCH  34  37
ENDBRANCH  32  33
ENDBRANCH  31  32
ENDBRANCH  30  31
ENDBRANCH  29  30
ENDBRANCH   1  29
TORSDOF 18
ENDMDL
MODEL 2
REMARK VINA RESULT:     -12.0      0.355      6.027
REMARK SMILES NS(=O)(=O)c1ccc(/N=C/c2ccc(O)c(C(=O)NCCCCCCNC(=O)c3ccc(-c4c5nc(c(-c6c(F)cccc6F)c6ccc([nH]6)c(-c6c(F)cccc6F)c6nc(c(-c7c(F)cccc7F)c7ccc4[nH]7)C=C6)C=C5)cc3)c2)cc1
REMARK SMILES IDX 21 1 20 2 19 3 17 4 18 5 16 7 11 8 12 9 83 10 13 11 14 12
REMARK SMILES IDX 10 13 9 14 8 15 5 16 6 17 85 18 7 19 84 20 2 21 3 22 4 23
REMARK SMILES IDX 1 24 15 27 22 29 23 30 24 31 25 32 26 33 27 34 28 36 29 37
REMARK SMILES IDX 30 38 82 39 31 40 81 41 32 42 33 43 34 44 75 45 35 46 80 47
REMARK SMILES IDX 74 48 76 49 36 50 79 51 73 52 72 53 37 55 63 56 46 57 62 58
REMARK SMILES IDX 47 59 50 60 61 61 77 62 48 63 49 64 60 66 78 67 51 68 38 69
REMARK SMILES IDX 39 70 44 71 40 72 41 73 43 74 45 75 42 76 64 77 65 78 70 79
REMARK SMILES IDX 66 80 67 81 69 82 71 83 68 84 52 85 53 86 58 87 54 88 55 89
REMARK SMILES IDX 57 90 59 91 56 92
REMARK H PARENT 19 6 1 25 1 26 15 28 26 35 76 54 50 65
REMARK Flexibility Score: inf
ROOT
ATOM      1  C   UNL A   1      37.380  22.890  25.385  1.00  0.00     0.021 C 
ENDROOT
BRANCH   1   2
ATOM      2  C   UNL A   1      36.159  23.580  25.983  1.00  0.00     0.116 C 
BRANCH   2   3
ATOM      3  N   UNL A   1      35.395  22.748  26.899  1.00  0.00    -0.352 N 
ATOM      4  C   UNL A   1      34.229  22.044  26.709  1.00  0.00     0.255 C 
ATOM      5  O   UNL A   1      33.715  21.464  27.666  1.00  0.00    -0.269 OA
ATOM      6  H   UNL A   1      35.775  22.675  27.804  1.00  0.00     0.163 HD
BRANCH   4   7
ATOM      7  C   UNL A   1      33.509  22.015  25.408  1.00  0.00     0.082 A 
ATOM      8  C   UNL A   1      32.230  23.111  23.664  1.00  0.00    -0.006 A 
ATOM      9  C   UNL A   1      31.914  21.879  23.092  1.00  0.00     0.013 A 
ATOM     10  C   UNL A   1      33.083  23.180  24.771  1.00  0.00     0.027 A 
ATOM     11  C   UNL A   1      32.441  20.712  23.648  1.00  0.00     0.047 A 
ATOM     12  C   UNL A   1      33.225  20.781  24.802  1.00  0.00     0.128 A 
BRANCH   8  13
ATOM     13  C   UNL A   1      31.577  24.346  23.178  1.00  0.00     0.119 C 
ATOM     14  N   UNL A   1      31.063  25.185  24.020  1.00  0.00    -0.256 NA
BRANCH  14  15
ATOM     15  C   UNL A   1      30.376  26.314  23.551  1.00  0.00     0.063 A 
ATOM     16  C   UNL A   1      29.159  28.693  22.698  1.00  0.00     0.082 A 
ATOM     17  C   UNL A   1      30.495  28.446  22.378  1.00  0.00     0.024 A 
ATOM     18  C   UNL A   1      28.432  27.772  23.456  1.00  0.00     0.024 A 
ATOM     19  C   UNL A   1      31.095  27.258  22.810  1.00  0.00     0.030 A 
ATOM     20  C   UNL A   1      29.044  26.590  23.885  1.00  0.00     0.030 A 
BRANCH  16  21
ATOM     21  S   UNL A   1      28.365  30.194  22.201  1.00  0.00     0.238 S 
ATOM     22  O   UNL A   1      27.399  30.554  23.212  1.00  0.00    -0.207 OA
ATOM     23  O   UNL A   1      28.028  30.079  20.802  1.00  0.00    -0.207 OA
BRANCH  21  24
ATOM     24  N   UNL A   1      29.571  31.359  22.301  1.00  0.00    -0.225 NA
ATOM     25  H   UNL A   1      29.170  32.235  22.638  1.00  0.00     0.137 HD
ATOM     26  H   UNL A   1      29.980  31.505  21.378  1.00  0.00     0.137 HD
ENDBRANCH  21  24
ENDBRANCH  16  21
ENDBRANCH  14  15
ENDBRANCH   8  13
BRANCH  12  27
ATOM     27  O   UNL A   1      33.680  19.587  25.296  1.00  0.00    -0.507 OA
ATOM     28  H   UNL A   1      34.427  19.567  25.861  1.00  0.00     0.293 HD
ENDBRANCH  12  27
ENDBRANCH   4   7
ENDBRANCH   2   3
ENDBRANCH   1   2
BRANCH   1  29
ATOM     29  C   UNL A   1      37.111  21.773  24.378  1.00  0.00     0.002 C 
BRANCH  29  30
ATOM     30  C   UNL A   1      36.918  20.368  24.954  1.00  0.00     0.002 C 
BRANCH  30  31
ATOM     31  C   UNL A   1      38.147  19.456  24.951  1.00  0.00     0.021 C 
BRANCH  31  32
ATOM     32  C   UNL A   1      39.326  19.923  25.797  1.00  0.00     0.116 C 
BRANCH  32  33
ATOM     33  N   UNL A   1      40.397  18.944  25.865  1.00  0.00    -0.352 N 
ATOM     34  C   UNL A   1      41.740  19.126  26.078  1.00  0.00     0.251 C 
ATOM     35  H   UNL A   1      40.116  18.009  25.739  1.00  0.00     0.163 HD
ATOM     36  O   UNL A   1      42.512  18.179  25.959  1.00  0.00    -0.269 OA
BRANCH  34  37
ATOM     37  C   UNL A   1      42.273  20.463  26.427  1.00  0.00     0.039 A 
ATOM     38  C   UNL A   1      42.769  21.274  25.402  1.00  0.00     0.014 A 
ATOM     39  C   UNL A   1      42.309  20.912  27.750  1.00  0.00     0.014 A 
ATOM     40  C   UNL A   1      43.249  22.552  25.696  1.00  0.00     0.010 A 
ATOM     41  C   UNL A   1      42.719  22.214  28.032  1.00  0.00     0.010 A 
ATOM     42  C   UNL A   1      43.198  23.045  27.010  1.00  0.00    -0.014 A 
BRANCH  42  43
ATOM     43  C   UNL A   1      43.649  24.426  27.324  1.00  0.00     0.031 A 
ATOM     44  C   UNL A   1      42.658  25.473  27.752  1.00  0.00     0.074 A 
ATOM     45  C   UNL A   1      44.949  24.750  27.182  1.00  0.00     0.049 A 
ATOM     46  N   UNL A   1      42.860  26.733  28.046  1.00  0.00    -0.248 NA
ATOM     47  C   UNL A   1      41.250  25.055  27.838  1.00  0.00     0.031 C 
ATOM     48  C   UNL A   1      46.004  23.839  26.735  1.00  0.00     0.029 A 
ATOM     49  N   UNL A   1      45.605  25.935  27.403  1.00  0.00    -0.354 N 
ATOM     50  C   UNL A   1      41.609  27.257  28.346  1.00  0.00     0.074 A 
ATOM     51  C   UNL A   1      40.647  26.196  28.137  1.00  0.00     0.031 C 
ATOM     52  C   UNL A   1      47.179  24.486  26.750  1.00  0.00     0.029 A 
ATOM     53  C   UNL A   1      46.958  25.866  27.171  1.00  0.00     0.049 A 
ATOM     54  H   UNL A   1      45.150  26.756  27.698  1.00  0.00     0.167 HD
ATOM     55  C   UNL A   1      41.290  28.500  28.781  1.00  0.00     0.037 A 
ATOM     56  C   UNL A   1      47.912  26.808  27.289  1.00  0.00     0.037 A 
ATOM     57  C   UNL A   1      42.248  29.552  28.998  1.00  0.00     0.049 A 
ATOM     58  C   UNL A   1      47.532  28.186  27.756  1.00  0.00     0.074 A 
ATOM     59  C   UNL A   1      42.032  30.834  29.475  1.00  0.00     0.029 A 
ATOM     60  N   UNL A   1      43.608  29.445  28.747  1.00  0.00    -0.354 N 
ATOM     61  N   UNL A   1      46.353  28.650  28.089  1.00  0.00    -0.248 NA
ATOM     62  C   UNL A   1      48.620  29.168  27.867  1.00  0.00     0.031 C 
ATOM     63  C   UNL A   1      43.253  31.517  29.469  1.00  0.00     0.029 A 
ATOM     64  C   UNL A   1      44.240  30.644  29.038  1.00  0.00     0.049 A 
ATOM     65  H   UNL A   1      44.059  28.637  28.411  1.00  0.00     0.167 HD
ATOM     66  C   UNL A   1      46.560  29.967  28.479  1.00  0.00     0.074 A 
ATOM     67  C   UNL A   1      47.980  30.221  28.352  1.00  0.00     0.031 C 
ATOM     68  C   UNL A   1      45.655  30.884  28.906  1.00  0.00     0.037 A 
BRANCH  55  69
ATOM     69  C   UNL A   1      39.838  28.783  29.049  1.00  0.00     0.057 A 
ATOM     70  C   UNL A   1      38.971  29.219  28.037  1.00  0.00     0.134 A 
ATOM     71  C   UNL A   1      39.296  28.606  30.328  1.00  0.00     0.134 A 
ATOM     72  F   UNL A   1      39.427  29.419  26.792  1.00  0.00    -0.206 F 
ATOM     73  C   UNL A   1      37.629  29.502  28.296  1.00  0.00     0.040 A 
ATOM     74  C   UNL A   1      37.948  28.857  30.592  1.00  0.00     0.040 A 
ATOM     75  F   UNL A   1      40.066  28.184  31.342  1.00  0.00    -0.206 F 
ATOM     76  C   UNL A   1      37.113  29.316  29.576  1.00  0.00     0.006 A 
ENDBRANCH  55  69
BRANCH  56  77
ATOM     77  C   UNL A   1      49.328  26.471  26.999  1.00  0.00     0.057 A 
ATOM     78  C   UNL A   1      49.873  26.690  25.729  1.00  0.00     0.134 A 
ATOM     79  C   UNL A   1      50.168  25.923  27.977  1.00  0.00     0.134 A 
ATOM     80  F   UNL A   1      49.113  27.197  24.747  1.00  0.00    -0.206 F 
ATOM     81  C   UNL A   1      51.197  26.360  25.433  1.00  0.00     0.040 A 
ATOM     82  C   UNL A   1      51.500  25.612  27.703  1.00  0.00     0.040 A 
ATOM     83  F   UNL A   1      49.707  25.692  29.215  1.00  0.00    -0.206 F 
ATOM     84  C   UNL A   1      52.016  25.824  26.425  1.00  0.00     0.006 A 
ENDBRANCH  56  77
BRANCH  68  85
ATOM     85  C   UNL A   1      46.184  32.234  29.297  1.00  0.00     0.057 A 
ATOM     86  C   UNL A   1      46.598  32.517  30.606  1.00  0.00     0.134 A 
ATOM     87  C   UNL A   1      46.296  33.258  28.348  1.00  0.00     0.134 A 
ATOM     88  F   UNL A   1      46.501  31.584  31.566  1.00  0.00    -0.206 F 
ATOM     89  C   UNL A   1      47.075  33.779  30.962  1.00  0.00     0.040 A 
ATOM     90  C   UNL A   1      46.800  34.514  28.686  1.00  0.00     0.040 A 
ATOM     91  F   UNL A   1      45.926  33.052  27.076  1.00  0.00    -0.206 F 
ATOM     92  C   UNL A   1      47.183  34.781  29.999  1.00  0.00     0.006 A 
ENDBRANCH  68  85
ENDBRANCH  42  43
ENDBRANCH  34  37
ENDBRANCH  32  33
ENDBRANCH  31  32
ENDBRANCH  30  31
ENDBRANCH  29  30
ENDBRANCH   1  29
TORSDOF 18
ENDMDL
MODEL 3
REMARK VINA RESULT:     -12.0      4.964     10.764
REMARK SMILES NS(=O)(=O)c1ccc(/N=C/c2ccc(O)c(C(=O)NCCCCCCNC(=O)c3ccc(-c4c5nc(c(-c6c(F)cccc6F)c6ccc([nH]6)c(-c6c(F)cccc6F)c6nc(c(-c7c(F)cccc7F)c7ccc4[nH]7)C=C6)C=C5)cc3)c2)cc1
REMARK SMILES IDX 21 1 20 2 19 3 17 4 18 5 16 7 11 8 12 9 83 10 13 11 14 12
REMARK SMILES IDX 10 13 9 14 8 15 5 16 6 17 85 18 7 19 84 20 2 21 3 22 4 23
REMARK SMILES IDX 1 24 15 27 22 29 23 30 24 31 25 32 26 33 27 34 28 36 29 37
REMARK SMILES IDX 30 38 82 39 31 40 81 41 32 42 33 43 34 44 75 45 35 46 80 47
REMARK SMILES IDX 74 48 76 49 36 50 79 51 73 52 72 53 37 55 63 56 46 57 62 58
REMARK SMILES IDX 47 59 50 60 61 61 77 62 48 63 49 64 60 66 78 67 51 68 38 69
REMARK SMILES IDX 39 70 44 71 40 72 41 73 43 74 45 75 42 76 64 77 65 78 70 79
REMARK SMILES IDX 66 80 67 81 69 82 71 83 68 84 52 85 53 86 58 87 54 88 55 89
REMARK SMILES IDX 57 90 59 91 56 92
REMARK H PARENT 19 6 1 25 1 26 15 28 26 35 76 54 50 65
REMARK Flexibility Score: inf
ROOT
ATOM      1  C   UNL A   1      31.814  28.183  27.242  1.00  0.00     0.021 C 
ENDROOT
BRANCH   1   2
ATOM      2  C   UNL A   1      31.697  26.987  26.303  1.00  0.00     0.116 C 
BRANCH   2   3
ATOM      3  N   UNL A   1      30.994  25.850  26.875  1.00  0.00    -0.352 N 
ATOM      4  C   UNL A   1      31.042  24.513  26.553  1.00  0.00     0.255 C 
ATOM      5  O   UNL A   1      30.286  23.730  27.130  1.00  0.00    -0.269 OA
ATOM      6  H   UNL A   1      30.383  26.073  27.614  1.00  0.00     0.163 HD
BRANCH   4   7
ATOM      7  C   UNL A   1      31.914  23.975  25.477  1.00  0.00     0.082 A 
ATOM      8  C   UNL A   1      34.047  23.126  24.696  1.00  0.00    -0.006 A 
ATOM      9  C   UNL A   1      33.627  23.229  23.370  1.00  0.00     0.013 A 
ATOM     10  C   UNL A   1      33.169  23.426  25.743  1.00  0.00     0.027 A 
ATOM     11  C   UNL A   1      32.327  23.657  23.097  1.00  0.00     0.047 A 
ATOM     12  C   UNL A   1      31.481  24.034  24.142  1.00  0.00     0.128 A 
BRANCH   8  13
ATOM     13  C   UNL A   1      35.457  22.807  25.007  1.00  0.00     0.119 C 
ATOM     14  N   UNL A   1      35.944  21.645  24.703  1.00  0.00    -0.256 NA
BRANCH  14  15
ATOM     15  C   UNL A   1      37.257  21.319  25.072  1.00  0.00     0.063 A 
ATOM     16  C   UNL A   1      39.801  20.501  25.923  1.00  0.00     0.082 A 
ATOM     17  C   UNL A   1      38.946  19.580  25.313  1.00  0.00     0.024 A 
ATOM     18  C   UNL A   1      39.389  21.820  26.129  1.00  0.00     0.024 A 
ATOM     19  C   UNL A   1      37.678  19.996  24.895  1.00  0.00     0.030 A 
ATOM     20  C   UNL A   1      38.117  22.222  25.709  1.00  0.00     0.030 A 
BRANCH  16  21
ATOM     21  S   UNL A   1      41.403  20.016  26.497  1.00  0.00     0.238 S 
ATOM     22  O   UNL A   1      42.242  21.190  26.550  1.00  0.00    -0.207 OA
ATOM     23  O   UNL A   1      41.783  18.812  25.796  1.00  0.00    -0.207 OA
BRANCH  21  24
ATOM     24  N   UNL A   1      41.158  19.571  28.098  1.00  0.00    -0.225 NA
ATOM     25  H   UNL A   1      41.079  20.408  28.675  1.00  0.00     0.137 HD
ATOM     26  H   UNL A   1      41.946  19.008  28.419  1.00  0.00     0.137 HD
ENDBRANCH  21  24
ENDBRANCH  16  21
ENDBRANCH  14  15
ENDBRANCH   8  13
BRANCH  12  27
ATOM     27  O   UNL A   1      30.232  24.467  23.783  1.00  0.00    -0.507 OA
ATOM     28  H   UNL A   1      29.888  24.256  22.938  1.00  0.00     0.293 HD
ENDBRANCH  12  27
ENDBRANCH   4   7
ENDBRANCH   2   3
ENDBRANCH   1   2
BRANCH   1  29
ATOM     29  C   UNL A   1      32.370  29.473  26.641  1.00  0.00     0.002 C 
BRANCH  29  30
ATOM     30  C   UNL A   1      31.364  30.386  25.935  1.00  0.00     0.002 C 
BRANCH  30  31
ATOM     31  C   UNL A   1      31.273  31.825  26.448  1.00  0.00     0.021 C 
BRANCH  31  32
ATOM     32  C   UNL A   1      32.590  32.468  26.868  1.00  0.00     0.116 C 
BRANCH  32  33
ATOM     33  N   UNL A   1      32.425  33.818  27.376  1.00  0.00    -0.352 N 
ATOM     34  C   UNL A   1      33.100  34.467  28.380  1.00  0.00     0.251 C 
ATOM     35  H   UNL A   1      31.724  34.348  26.934  1.00  0.00     0.163 HD
ATOM     36  O   UNL A   1      32.716  35.569  28.761  1.00  0.00    -0.269 OA
BRANCH  34  37
ATOM     37  C   UNL A   1      34.274  33.838  29.027  1.00  0.00     0.039 A 
ATOM     38  C   UNL A   1      34.065  32.753  29.882  1.00  0.00     0.014 A 
ATOM     39  C   UNL A   1      35.568  34.321  28.818  1.00  0.00     0.014 A 
ATOM     40  C   UNL A   1      35.155  32.119  30.483  1.00  0.00     0.010 A 
ATOM     41  C   UNL A   1      36.660  33.642  29.358  1.00  0.00     0.010 A 
ATOM     42  C   UNL A   1      36.464  32.539  30.201  1.00  0.00    -0.014 A 
BRANCH  42  43
ATOM     43  C   UNL A   1      37.635  31.833  30.785  1.00  0.00     0.031 A 
ATOM     44  C   UNL A   1      38.123  32.178  32.164  1.00  0.00     0.074 A 
ATOM     45  C   UNL A   1      38.287  30.908  30.053  1.00  0.00     0.049 A 
ATOM     46  N   UNL A   1      39.138  31.686  32.830  1.00  0.00    -0.248 NA
ATOM     47  C   UNL A   1      37.388  33.231  32.882  1.00  0.00     0.031 C 
ATOM     48  C   UNL A   1      37.939  30.511  28.687  1.00  0.00     0.029 A 
ATOM     49  N   UNL A   1      39.377  30.132  30.357  1.00  0.00    -0.354 N 
ATOM     50  C   UNL A   1      39.166  32.372  34.038  1.00  0.00     0.074 A 
ATOM     51  C   UNL A   1      38.107  33.356  33.987  1.00  0.00     0.031 C 
ATOM     52  C   UNL A   1      38.775  29.541  28.285  1.00  0.00     0.029 A 
ATOM     53  C   UNL A   1      39.738  29.272  29.348  1.00  0.00     0.049 A 
ATOM     54  H   UNL A   1      39.853  30.186  31.217  1.00  0.00     0.167 HD
ATOM     55  C   UNL A   1      39.982  32.184  35.103  1.00  0.00     0.037 A 
ATOM     56  C   UNL A   1      40.732  28.366  29.288  1.00  0.00     0.037 A 
ATOM     57  C   UNL A   1      41.029  31.197  35.156  1.00  0.00     0.049 A 
ATOM     58  C   UNL A   1      41.636  28.187  30.476  1.00  0.00     0.074 A 
ATOM     59  C   UNL A   1      41.885  30.900  36.203  1.00  0.00     0.029 A 
ATOM     60  N   UNL A   1      41.368  30.348  34.112  1.00  0.00    -0.354 N 
ATOM     61  N   UNL A   1      41.615  28.803  31.632  1.00  0.00    -0.248 NA
ATOM     62  C   UNL A   1      42.700  27.181  30.350  1.00  0.00     0.031 C 
ATOM     63  C   UNL A   1      42.771  29.904  35.777  1.00  0.00     0.029 A 
ATOM     64  C   UNL A   1      42.433  29.543  34.482  1.00  0.00     0.049 A 
ATOM     65  H   UNL A   1      40.919  30.323  33.237  1.00  0.00     0.167 HD
ATOM     66  C   UNL A   1      42.640  28.240  32.382  1.00  0.00     0.074 A 
ATOM     67  C   UNL A   1      43.253  27.223  31.553  1.00  0.00     0.031 C 
ATOM     68  C   UNL A   1      43.036  28.536  33.645  1.00  0.00     0.037 A 
BRANCH  55  69
ATOM     69  C   UNL A   1      39.767  33.068  36.299  1.00  0.00     0.057 A 
ATOM     70  C   UNL A   1      40.434  34.293  36.442  1.00  0.00     0.134 A 
ATOM     71  C   UNL A   1      38.873  32.702  37.312  1.00  0.00     0.134 A 
ATOM     72  F   UNL A   1      41.312  34.700  35.513  1.00  0.00    -0.206 F 
ATOM     73  C   UNL A   1      40.248  35.101  37.564  1.00  0.00     0.040 A 
ATOM     74  C   UNL A   1      38.655  33.516  38.426  1.00  0.00     0.040 A 
ATOM     75  F   UNL A   1      38.194  31.547  37.238  1.00  0.00    -0.206 F 
ATOM     76  C   UNL A   1      39.352  34.716  38.558  1.00  0.00     0.006 A 
ENDBRANCH  55  69
BRANCH  56  77
ATOM     77  C   UNL A   1      40.901  27.528  28.075  1.00  0.00     0.057 A 
ATOM     78  C   UNL A   1      41.703  27.957  27.012  1.00  0.00     0.134 A 
ATOM     79  C   UNL A   1      40.269  26.286  27.947  1.00  0.00     0.134 A 
ATOM     80  F   UNL A   1      42.321  29.146  27.070  1.00  0.00    -0.206 F 
ATOM     81  C   UNL A   1      41.857  27.191  25.855  1.00  0.00     0.040 A 
ATOM     82  C   UNL A   1      40.434  25.497  26.807  1.00  0.00     0.040 A 
ATOM     83  F   UNL A   1      39.489  25.815  28.932  1.00  0.00    -0.206 F 
ATOM     84  C   UNL A   1      41.224  25.954  25.754  1.00  0.00     0.006 A 
ENDBRANCH  56  77
BRANCH  68  85
ATOM     85  C   UNL A   1      44.164  27.725  34.215  1.00  0.00     0.057 A 
ATOM     86  C   UNL A   1      45.496  28.157  34.145  1.00  0.00     0.134 A 
ATOM     87  C   UNL A   1      43.913  26.507  34.859  1.00  0.00     0.134 A 
ATOM     88  F   UNL A   1      45.807  29.307  33.527  1.00  0.00    -0.206 F 
ATOM     89  C   UNL A   1      46.538  27.389  34.666  1.00  0.00     0.040 A 
ATOM     90  C   UNL A   1      44.944  25.746  35.410  1.00  0.00     0.040 A 
ATOM     91  F   UNL A   1      42.661  26.040  34.968  1.00  0.00    -0.206 F 
ATOM     92  C   UNL A   1      46.263  26.182  35.306  1.00  0.00     0.006 A 
ENDBRANCH  68  85
ENDBRANCH  42  43
ENDBRANCH  34  37
ENDBRANCH  32  33
ENDBRANCH  31  32
ENDBRANCH  30  31
ENDBRANCH  29  30
ENDBRANCH   1  29
TORSDOF 18
ENDMDL
