MODEL 1
REMARK VINA RESULT:     -12.1      0.000      0.000
REMARK SMILES CCOc1ccc(-c2ccc(C(=O)NCCCCCCNC(=O)c3ccc(-c4c5nc(c(-c6c(F)cccc6F)c6ccc([nH]6)c(-c6c(F)cccc6F)c6nc(c(-c7c(F)cccc7F)c7ccc4[nH]7)C=C6)C=C5)cc3)cn2)c(C)c1
REMARK SMILES IDX 17 1 16 2 15 3 14 4 12 5 13 6 11 8 8 9 9 10 79 11 10 12
REMARK SMILES IDX 78 13 7 14 4 15 5 16 82 17 6 18 80 19 81 20 3 21 2 22 1 23
REMARK SMILES IDX 18 24 19 25 20 26 21 27 22 28 23 30 24 31 25 32 77 33 26 34
REMARK SMILES IDX 76 35 27 36 28 37 29 38 70 39 30 40 75 41 69 42 71 43 31 44
REMARK SMILES IDX 74 45 68 46 67 47 32 49 58 50 41 51 57 52 42 53 45 54 56 55
REMARK SMILES IDX 72 56 43 57 44 58 55 60 73 61 46 62 33 63 34 64 39 65 35 66
REMARK SMILES IDX 36 67 38 68 40 69 37 70 59 71 60 72 65 73 61 74 62 75 64 76
REMARK SMILES IDX 66 77 63 78 47 79 48 80 53 81 49 82 50 83 52 84 54 85 51 86
REMARK H PARENT 14 7 21 29 71 48 45 59
REMARK Flexibility Score: inf
ROOT
ATOM      1  C   UNL A   1      35.486  21.034  25.455  1.00  0.00     0.002 C 
ENDROOT
BRANCH   1   2
ATOM      2  C   UNL A   1      34.333  20.451  24.621  1.00  0.00     0.021 C 
BRANCH   2   3
ATOM      3  C   UNL A   1      32.942  20.650  25.227  1.00  0.00     0.116 C 
BRANCH   3   4
ATOM      4  N   UNL A   1      33.032  21.095  26.603  1.00  0.00    -0.352 N 
ATOM      5  C   UNL A   1      32.862  22.328  27.177  1.00  0.00     0.252 C 
ATOM      6  O   UNL A   1      32.896  22.406  28.405  1.00  0.00    -0.269 OA
ATOM      7  H   UNL A   1      33.258  20.380  27.242  1.00  0.00     0.163 HD
BRANCH   5   8
ATOM      8  C   UNL A   1      32.594  23.551  26.391  1.00  0.00     0.058 A 
ATOM      9  C   UNL A   1      31.828  25.819  25.012  1.00  0.00     0.070 A 
ATOM     10  C   UNL A   1      33.153  25.395  24.943  1.00  0.00     0.030 A 
ATOM     11  N   UNL A   1      30.902  25.178  25.762  1.00  0.00    -0.255 NA
ATOM     12  C   UNL A   1      33.543  24.262  25.659  1.00  0.00     0.018 A 
ATOM     13  C   UNL A   1      31.304  24.069  26.432  1.00  0.00     0.125 A 
BRANCH   9  14
ATOM     14  C   UNL A   1      31.374  27.041  24.342  1.00  0.00     0.003 A 
ATOM     15  C   UNL A   1      30.351  29.272  22.973  1.00  0.00     0.119 A 
ATOM     16  C   UNL A   1      30.388  28.037  22.342  1.00  0.00     0.047 A 
ATOM     17  C   UNL A   1      30.879  29.424  24.252  1.00  0.00     0.050 A 
ATOM     18  C   UNL A   1      30.881  26.929  23.028  1.00  0.00     0.014 A 
ATOM     19  C   UNL A   1      31.408  28.318  24.946  1.00  0.00    -0.038 A 
ATOM     20  C   UNL A   1      31.995  28.557  26.312  1.00  0.00     0.045 C 
BRANCH  15  21
ATOM     21  O   UNL A   1      29.898  30.378  22.309  1.00  0.00    -0.494 OA
BRANCH  21  22
ATOM     22  C   UNL A   1      28.525  30.253  21.913  1.00  0.00     0.226 C 
ATOM     23  C   UNL A   1      27.587  30.368  23.105  1.00  0.00     0.049 C 
ENDBRANCH  21  22
ENDBRANCH  15  21
ENDBRANCH   9  14
ENDBRANCH   5   8
ENDBRANCH   3   4
ENDBRANCH   2   3
ENDBRANCH   1   2
BRANCH   1  24
ATOM     24  C   UNL A   1      36.737  21.478  24.677  1.00  0.00     0.002 C 
BRANCH  24  25
ATOM     25  C   UNL A   1      38.055  21.428  25.453  1.00  0.00     0.021 C 
BRANCH  25  26
ATOM     26  C   UNL A   1      38.586  22.799  25.854  1.00  0.00     0.116 C 
BRANCH  26  27
ATOM     27  N   UNL A   1      40.022  22.805  26.125  1.00  0.00    -0.352 N 
ATOM     28  C   UNL A   1      40.821  23.835  26.591  1.00  0.00     0.251 C 
ATOM     29  H   UNL A   1      40.486  21.956  25.951  1.00  0.00     0.163 HD
ATOM     30  O   UNL A   1      42.013  23.662  26.781  1.00  0.00    -0.269 OA
BRANCH  28  31
ATOM     31  C   UNL A   1      40.177  25.106  26.994  1.00  0.00     0.039 A 
ATOM     32  C   UNL A   1      40.518  26.254  26.271  1.00  0.00     0.014 A 
ATOM     33  C   UNL A   1      39.477  25.202  28.194  1.00  0.00     0.014 A 
ATOM     34  C   UNL A   1      40.404  27.495  26.886  1.00  0.00     0.010 A 
ATOM     35  C   UNL A   1      39.441  26.421  28.839  1.00  0.00     0.010 A 
ATOM     36  C   UNL A   1      39.990  27.548  28.215  1.00  0.00    -0.014 A 
BRANCH  36  37
ATOM     37  C   UNL A   1      40.238  28.706  29.064  1.00  0.00     0.031 A 
ATOM     38  C   UNL A   1      39.218  29.760  29.207  1.00  0.00     0.074 A 
ATOM     39  C   UNL A   1      41.408  28.788  29.737  1.00  0.00     0.049 A 
ATOM     40  N   UNL A   1      39.460  30.961  29.612  1.00  0.00    -0.248 NA
ATOM     41  C   UNL A   1      37.833  29.559  28.806  1.00  0.00     0.031 C 
ATOM     42  C   UNL A   1      41.760  29.721  30.801  1.00  0.00     0.029 A 
ATOM     43  N   UNL A   1      42.620  28.165  29.401  1.00  0.00    -0.354 N 
ATOM     44  C   UNL A   1      38.256  31.607  29.775  1.00  0.00     0.074 A 
ATOM     45  C   UNL A   1      37.294  30.730  29.157  1.00  0.00     0.031 C 
ATOM     46  C   UNL A   1      43.097  29.838  30.848  1.00  0.00     0.029 A 
ATOM     47  C   UNL A   1      43.633  29.093  29.722  1.00  0.00     0.049 A 
ATOM     48  H   UNL A   1      42.739  27.265  29.020  1.00  0.00     0.167 HD
ATOM     49  C   UNL A   1      38.222  32.746  30.529  1.00  0.00     0.037 A 
ATOM     50  C   UNL A   1      44.451  29.615  28.762  1.00  0.00     0.037 A 
ATOM     51  C   UNL A   1      39.584  33.233  30.781  1.00  0.00     0.049 A 
ATOM     52  C   UNL A   1      44.383  31.119  28.648  1.00  0.00     0.074 A 
ATOM     53  C   UNL A   1      40.435  33.157  31.871  1.00  0.00     0.029 A 
ATOM     54  N   UNL A   1      40.363  33.659  29.706  1.00  0.00    -0.354 N 
ATOM     55  N   UNL A   1      43.408  31.844  29.123  1.00  0.00    -0.248 NA
ATOM     56  C   UNL A   1      45.393  31.921  27.962  1.00  0.00     0.031 C 
ATOM     57  C   UNL A   1      41.748  33.461  31.426  1.00  0.00     0.029 A 
ATOM     58  C   UNL A   1      41.691  33.751  30.074  1.00  0.00     0.049 A 
ATOM     59  H   UNL A   1      40.015  33.865  28.809  1.00  0.00     0.167 HD
ATOM     60  C   UNL A   1      43.614  33.159  28.792  1.00  0.00     0.074 A 
ATOM     61  C   UNL A   1      44.885  33.159  28.092  1.00  0.00     0.031 C 
ATOM     62  C   UNL A   1      42.710  34.134  29.104  1.00  0.00     0.037 A 
BRANCH  49  63
ATOM     63  C   UNL A   1      36.996  33.272  31.266  1.00  0.00     0.057 A 
ATOM     64  C   UNL A   1      36.820  32.998  32.641  1.00  0.00     0.134 A 
ATOM     65  C   UNL A   1      35.903  33.951  30.692  1.00  0.00     0.134 A 
ATOM     66  F   UNL A   1      37.783  32.426  33.375  1.00  0.00    -0.206 F 
ATOM     67  C   UNL A   1      35.637  33.285  33.343  1.00  0.00     0.040 A 
ATOM     68  C   UNL A   1      34.710  34.230  31.376  1.00  0.00     0.040 A 
ATOM     69  F   UNL A   1      35.921  34.420  29.445  1.00  0.00    -0.206 F 
ATOM     70  C   UNL A   1      34.564  33.882  32.705  1.00  0.00     0.006 A 
ENDBRANCH  49  63
BRANCH  50  71
ATOM     71  C   UNL A   1      44.720  28.687  27.635  1.00  0.00     0.057 A 
ATOM     72  C   UNL A   1      45.651  27.650  27.821  1.00  0.00     0.134 A 
ATOM     73  C   UNL A   1      43.856  28.577  26.542  1.00  0.00     0.134 A 
ATOM     74  F   UNL A   1      46.510  27.695  28.853  1.00  0.00    -0.206 F 
ATOM     75  C   UNL A   1      45.653  26.505  27.022  1.00  0.00     0.040 A 
ATOM     76  C   UNL A   1      43.855  27.438  25.727  1.00  0.00     0.040 A 
ATOM     77  F   UNL A   1      42.925  29.513  26.310  1.00  0.00    -0.206 F 
ATOM     78  C   UNL A   1      44.730  26.383  25.989  1.00  0.00     0.006 A 
ENDBRANCH  50  71
BRANCH  62  79
ATOM     79  C   UNL A   1      42.739  35.553  28.588  1.00  0.00     0.057 A 
ATOM     80  C   UNL A   1      42.336  35.933  27.298  1.00  0.00     0.134 A 
ATOM     81  C   UNL A   1      43.046  36.623  29.458  1.00  0.00     0.134 A 
ATOM     82  F   UNL A   1      41.904  35.035  26.404  1.00  0.00    -0.206 F 
ATOM     83  C   UNL A   1      42.305  37.273  26.884  1.00  0.00     0.040 A 
ATOM     84  C   UNL A   1      42.967  37.965  29.071  1.00  0.00     0.040 A 
ATOM     85  F   UNL A   1      43.417  36.410  30.730  1.00  0.00    -0.206 F 
ATOM     86  C   UNL A   1      42.610  38.294  27.774  1.00  0.00     0.006 A 
ENDBRANCH  62  79
ENDBRANCH  36  37
ENDBRANCH  28  31
ENDBRANCH  26  27
ENDBRANCH  25  26
ENDBRANCH  24  25
ENDBRANCH   1  24
TORSDOF 16
ENDMDL
MODEL 2
REMARK VINA RESULT:     -11.7      3.405      9.146
REMARK SMILES CCOc1ccc(-c2ccc(C(=O)NCCCCCCNC(=O)c3ccc(-c4c5nc(c(-c6c(F)cccc6F)c6ccc([nH]6)c(-c6c(F)cccc6F)c6nc(c(-c7c(F)cccc7F)c7ccc4[nH]7)C=C6)C=C5)cc3)cn2)c(C)c1
REMARK SMILES IDX 17 1 16 2 15 3 14 4 12 5 13 6 11 8 8 9 9 10 79 11 10 12
REMARK SMILES IDX 78 13 7 14 4 15 5 16 82 17 6 18 80 19 81 20 3 21 2 22 1 23
REMARK SMILES IDX 18 24 19 25 20 26 21 27 22 28 23 30 24 31 25 32 77 33 26 34
REMARK SMILES IDX 76 35 27 36 28 37 29 38 70 39 30 40 75 41 69 42 71 43 31 44
REMARK SMILES IDX 74 45 68 46 67 47 32 49 58 50 41 51 57 52 42 53 45 54 56 55
REMARK SMILES IDX 72 56 43 57 44 58 55 60 73 61 46 62 33 63 34 64 39 65 35 66
REMARK SMILES IDX 36 67 38 68 40 69 37 70 59 71 60 72 65 73 61 74 62 75 64 76
REMARK SMILES IDX 66 77 63 78 47 79 48 80 53 81 49 82 50 83 52 84 54 85 51 86
REMARK H PARENT 14 7 21 29 71 48 45 59
REMARK Flexibility Score: inf
ROOT
ATOM      1  C   UNL A   1      32.704  30.007  25.611  1.00  0.00     0.002 C 
ENDROOT
BRANCH   1   2
ATOM      2  C   UNL A   1      31.295  29.717  25.068  1.00  0.00     0.021 C 
BRANCH   2   3
ATOM      3  C   UNL A   1      31.261  28.816  23.831  1.00  0.00     0.116 C 
BRANCH   3   4
ATOM      4  N   UNL A   1      32.452  28.993  23.025  1.00  0.00    -0.352 N 
ATOM      5  C   UNL A   1      33.467  28.133  22.695  1.00  0.00     0.252 C 
ATOM      6  O   UNL A   1      34.318  28.520  21.894  1.00  0.00    -0.269 OA
ATOM      7  H   UNL A   1      32.549  29.896  22.645  1.00  0.00     0.163 HD
BRANCH   5   8
ATOM      8  C   UNL A   1      33.557  26.755  23.221  1.00  0.00     0.058 A 
ATOM      9  C   UNL A   1      33.706  24.090  23.938  1.00  0.00     0.070 A 
ATOM     10  C   UNL A   1      33.767  25.066  24.930  1.00  0.00     0.030 A 
ATOM     11  N   UNL A   1      33.609  24.399  22.624  1.00  0.00    -0.255 NA
ATOM     12  C   UNL A   1      33.715  26.413  24.563  1.00  0.00     0.018 A 
ATOM     13  C   UNL A   1      33.541  25.715  22.298  1.00  0.00     0.125 A 
BRANCH   9  14
ATOM     14  C   UNL A   1      33.828  22.663  24.253  1.00  0.00     0.003 A 
ATOM     15  C   UNL A   1      33.920  19.892  24.710  1.00  0.00     0.119 A 
ATOM     16  C   UNL A   1      32.701  20.509  24.471  1.00  0.00     0.047 A 
ATOM     17  C   UNL A   1      35.087  20.649  24.790  1.00  0.00     0.050 A 
ATOM     18  C   UNL A   1      32.659  21.880  24.229  1.00  0.00     0.014 A 
ATOM     19  C   UNL A   1      35.054  22.042  24.577  1.00  0.00    -0.038 A 
ATOM     20  C   UNL A   1      36.344  22.806  24.713  1.00  0.00     0.045 C 
BRANCH  15  21
ATOM     21  O   UNL A   1      33.982  18.554  24.978  1.00  0.00    -0.494 OA
BRANCH  21  22
ATOM     22  C   UNL A   1      32.978  17.809  24.274  1.00  0.00     0.226 C 
ATOM     23  C   UNL A   1      33.546  17.141  23.032  1.00  0.00     0.049 C 
ENDBRANCH  21  22
ENDBRANCH  15  21
ENDBRANCH   9  14
ENDBRANCH   5   8
ENDBRANCH   3   4
ENDBRANCH   2   3
ENDBRANCH   1   2
BRANCH   1  24
ATOM     24  C   UNL A   1      33.060  29.370  26.966  1.00  0.00     0.002 C 
BRANCH  24  25
ATOM     25  C   UNL A   1      34.552  29.158  27.230  1.00  0.00     0.021 C 
BRANCH  25  26
ATOM     26  C   UNL A   1      35.201  30.277  28.035  1.00  0.00     0.116 C 
BRANCH  26  27
ATOM     27  N   UNL A   1      34.295  31.388  28.314  1.00  0.00    -0.352 N 
ATOM     28  C   UNL A   1      34.473  32.475  29.154  1.00  0.00     0.251 C 
ATOM     29  H   UNL A   1      33.435  31.360  27.837  1.00  0.00     0.163 HD
ATOM     30  O   UNL A   1      33.611  33.331  29.256  1.00  0.00    -0.269 OA
BRANCH  28  31
ATOM     31  C   UNL A   1      35.787  32.654  29.811  1.00  0.00     0.039 A 
ATOM     32  C   UNL A   1      36.774  33.336  29.092  1.00  0.00     0.014 A 
ATOM     33  C   UNL A   1      36.108  31.952  30.970  1.00  0.00     0.014 A 
ATOM     34  C   UNL A   1      38.111  33.082  29.376  1.00  0.00     0.010 A 
ATOM     35  C   UNL A   1      37.431  31.632  31.200  1.00  0.00     0.010 A 
ATOM     36  C   UNL A   1      38.419  32.127  30.343  1.00  0.00    -0.014 A 
BRANCH  36  37
ATOM     37  C   UNL A   1      39.727  31.489  30.419  1.00  0.00     0.031 A 
ATOM     38  C   UNL A   1      39.976  30.210  29.730  1.00  0.00     0.074 A 
ATOM     39  C   UNL A   1      40.716  32.099  31.111  1.00  0.00     0.049 A 
ATOM     40  N   UNL A   1      40.935  29.398  30.022  1.00  0.00    -0.248 NA
ATOM     41  C   UNL A   1      39.085  29.698  28.698  1.00  0.00     0.031 C 
ATOM     42  C   UNL A   1      42.135  31.762  31.120  1.00  0.00     0.029 A 
ATOM     43  N   UNL A   1      40.568  33.025  32.155  1.00  0.00    -0.354 N 
ATOM     44  C   UNL A   1      40.953  28.401  29.072  1.00  0.00     0.074 A 
ATOM     45  C   UNL A   1      39.721  28.578  28.346  1.00  0.00     0.031 C 
ATOM     46  C   UNL A   1      42.679  32.219  32.259  1.00  0.00     0.029 A 
ATOM     47  C   UNL A   1      41.595  32.735  33.077  1.00  0.00     0.049 A 
ATOM     48  H   UNL A   1      39.887  33.733  32.228  1.00  0.00     0.167 HD
ATOM     49  C   UNL A   1      42.078  27.636  28.949  1.00  0.00     0.037 A 
ATOM     50  C   UNL A   1      41.316  32.325  34.348  1.00  0.00     0.037 A 
ATOM     51  C   UNL A   1      42.968  27.847  30.098  1.00  0.00     0.049 A 
ATOM     52  C   UNL A   1      41.879  30.967  34.694  1.00  0.00     0.074 A 
ATOM     53  C   UNL A   1      44.122  28.590  30.284  1.00  0.00     0.029 A 
ATOM     54  N   UNL A   1      42.537  27.469  31.369  1.00  0.00    -0.354 N 
ATOM     55  N   UNL A   1      42.268  30.091  33.809  1.00  0.00    -0.248 NA
ATOM     56  C   UNL A   1      42.017  30.478  36.063  1.00  0.00     0.031 C 
ATOM     57  C   UNL A   1      44.336  28.726  31.680  1.00  0.00     0.029 A 
ATOM     58  C   UNL A   1      43.332  28.041  32.343  1.00  0.00     0.049 A 
ATOM     59  H   UNL A   1      41.772  26.876  31.548  1.00  0.00     0.167 HD
ATOM     60  C   UNL A   1      42.659  28.942  34.446  1.00  0.00     0.074 A 
ATOM     61  C   UNL A   1      42.511  29.245  35.858  1.00  0.00     0.031 C 
ATOM     62  C   UNL A   1      43.050  27.830  33.757  1.00  0.00     0.037 A 
BRANCH  49  63
ATOM     63  C   UNL A   1      42.510  26.909  27.680  1.00  0.00     0.057 A 
ATOM     64  C   UNL A   1      43.167  27.613  26.645  1.00  0.00     0.134 A 
ATOM     65  C   UNL A   1      42.228  25.570  27.348  1.00  0.00     0.134 A 
ATOM     66  F   UNL A   1      43.582  28.876  26.804  1.00  0.00    -0.206 F 
ATOM     67  C   UNL A   1      43.427  27.063  25.379  1.00  0.00     0.040 A 
ATOM     68  C   UNL A   1      42.467  25.012  26.083  1.00  0.00     0.040 A 
ATOM     69  F   UNL A   1      41.733  24.699  28.226  1.00  0.00    -0.206 F 
ATOM     70  C   UNL A   1      43.055  25.763  25.083  1.00  0.00     0.006 A 
ENDBRANCH  49  63
BRANCH  50  71
ATOM     71  C   UNL A   1      40.058  32.890  34.897  1.00  0.00     0.057 A 
ATOM     72  C   UNL A   1      38.894  32.100  34.868  1.00  0.00     0.134 A 
ATOM     73  C   UNL A   1      40.049  34.002  35.742  1.00  0.00     0.134 A 
ATOM     74  F   UNL A   1      38.836  31.016  34.078  1.00  0.00    -0.206 F 
ATOM     75  C   UNL A   1      37.814  32.343  35.719  1.00  0.00     0.040 A 
ATOM     76  C   UNL A   1      38.968  34.262  36.593  1.00  0.00     0.040 A 
ATOM     77  F   UNL A   1      41.128  34.791  35.843  1.00  0.00    -0.206 F 
ATOM     78  C   UNL A   1      37.863  33.410  36.609  1.00  0.00     0.006 A 
ENDBRANCH  50  71
BRANCH  62  79
ATOM     79  C   UNL A   1      43.275  26.462  34.356  1.00  0.00     0.057 A 
ATOM     80  C   UNL A   1      44.538  25.872  34.525  1.00  0.00     0.134 A 
ATOM     81  C   UNL A   1      42.200  25.745  34.927  1.00  0.00     0.134 A 
ATOM     82  F   UNL A   1      45.660  26.493  34.139  1.00  0.00    -0.206 F 
ATOM     83  C   UNL A   1      44.711  24.632  35.157  1.00  0.00     0.040 A 
ATOM     84  C   UNL A   1      42.368  24.534  35.606  1.00  0.00     0.040 A 
ATOM     85  F   UNL A   1      40.941  26.204  34.868  1.00  0.00    -0.206 F 
ATOM     86  C   UNL A   1      43.627  23.964  35.710  1.00  0.00     0.006 A 
ENDBRANCH  62  79
ENDBRANCH  36  37
ENDBRANCH  28  31
ENDBRANCH  26  27
ENDBRANCH  25  26
ENDBRANCH  24  25
ENDBRANCH   1  24
TORSDOF 16
ENDMDL
MODEL 3
REMARK VINA RESULT:     -11.5      2.582      4.269
REMARK SMILES CCOc1ccc(-c2ccc(C(=O)NCCCCCCNC(=O)c3ccc(-c4c5nc(c(-c6c(F)cccc6F)c6ccc([nH]6)c(-c6c(F)cccc6F)c6nc(c(-c7c(F)cccc7F)c7ccc4[nH]7)C=C6)C=C5)cc3)cn2)c(C)c1
REMARK SMILES IDX 17 1 16 2 15 3 14 4 12 5 13 6 11 8 8 9 9 10 79 11 10 12
REMARK SMILES IDX 78 13 7 14 4 15 5 16 82 17 6 18 80 19 81 20 3 21 2 22 1 23
REMARK SMILES IDX 18 24 19 25 20 26 21 27 22 28 23 30 24 31 25 32 77 33 26 34
REMARK SMILES IDX 76 35 27 36 28 37 29 38 70 39 30 40 75 41 69 42 71 43 31 44
REMARK SMILES IDX 74 45 68 46 67 47 32 49 58 50 41 51 57 52 42 53 45 54 56 55
REMARK SMILES IDX 72 56 43 57 44 58 55 60 73 61 46 62 33 63 34 64 39 65 35 66
REMARK SMILES IDX 36 67 38 68 40 69 37 70 59 71 60 72 65 73 61 74 62 75 64 76
REMARK SMILES IDX 66 77 63 78 47 79 48 80 53 81 49 82 50 83 52 84 54 85 51 86
REMARK H PARENT 14 7 21 29 71 48 45 59
REMARK Flexibility Score: inf
ROOT
ATOM      1  C   UNL A   1      38.901  23.802  26.152  1.00  0.00     0.002 C 
ENDROOT
BRANCH   1   2
ATOM      2  C   UNL A   1      37.379  23.608  26.239  1.00  0.00     0.021 C 
BRANCH   2   3
ATOM      3  C   UNL A   1      36.843  22.400  25.467  1.00  0.00     0.116 C 
BRANCH   3   4
ATOM      4  N   UNL A   1      35.842  21.690  26.238  1.00  0.00    -0.352 N 
ATOM      5  C   UNL A   1      34.501  21.910  26.414  1.00  0.00     0.252 C 
ATOM      6  O   UNL A   1      33.855  21.078  27.050  1.00  0.00    -0.269 OA
ATOM      7  H   UNL A   1      36.190  20.908  26.724  1.00  0.00     0.163 HD
BRANCH   5   8
ATOM      8  C   UNL A   1      33.793  23.073  25.836  1.00  0.00     0.058 A 
ATOM      9  C   UNL A   1      32.389  25.074  24.549  1.00  0.00     0.070 A 
ATOM     10  C   UNL A   1      33.046  25.363  25.743  1.00  0.00     0.030 A 
ATOM     11  N   UNL A   1      32.383  23.834  24.009  1.00  0.00    -0.255 NA
ATOM     12  C   UNL A   1      33.736  24.345  26.404  1.00  0.00     0.018 A 
ATOM     13  C   UNL A   1      33.078  22.868  24.662  1.00  0.00     0.125 A 
BRANCH   9  14
ATOM     14  C   UNL A   1      31.589  26.082  23.847  1.00  0.00     0.003 A 
ATOM     15  C   UNL A   1      29.966  28.059  22.682  1.00  0.00     0.119 A 
ATOM     16  C   UNL A   1      29.435  27.214  23.646  1.00  0.00     0.047 A 
ATOM     17  C   UNL A   1      31.277  27.887  22.242  1.00  0.00     0.050 A 
ATOM     18  C   UNL A   1      30.246  26.245  24.234  1.00  0.00     0.014 A 
ATOM     19  C   UNL A   1      32.098  26.891  22.807  1.00  0.00    -0.038 A 
ATOM     20  C   UNL A   1      33.493  26.735  22.262  1.00  0.00     0.045 C 
BRANCH  15  21
ATOM     21  O   UNL A   1      29.182  28.997  22.072  1.00  0.00    -0.494 OA
BRANCH  21  22
ATOM     22  C   UNL A   1      29.058  30.195  22.851  1.00  0.00     0.226 C 
ATOM     23  C   UNL A   1      27.607  30.482  23.205  1.00  0.00     0.049 C 
ENDBRANCH  21  22
ENDBRANCH  15  21
ENDBRANCH   9  14
ENDBRANCH   5   8
ENDBRANCH   3   4
ENDBRANCH   2   3
ENDBRANCH   1   2
BRANCH   1  24
ATOM     24  C   UNL A   1      39.763  22.829  26.977  1.00  0.00     0.002 C 
BRANCH  24  25
ATOM     25  C   UNL A   1      40.525  21.772  26.176  1.00  0.00     0.021 C 
BRANCH  25  26
ATOM     26  C   UNL A   1      41.993  21.642  26.566  1.00  0.00     0.116 C 
BRANCH  26  27
ATOM     27  N   UNL A   1      42.809  21.001  25.538  1.00  0.00    -0.352 N 
ATOM     28  C   UNL A   1      44.000  21.426  24.973  1.00  0.00     0.251 C 
ATOM     29  H   UNL A   1      42.463  20.145  25.199  1.00  0.00     0.163 HD
ATOM     30  O   UNL A   1      44.565  20.751  24.130  1.00  0.00    -0.269 OA
BRANCH  28  31
ATOM     31  C   UNL A   1      44.648  22.640  25.518  1.00  0.00     0.039 A 
ATOM     32  C   UNL A   1      45.186  22.556  26.807  1.00  0.00     0.014 A 
ATOM     33  C   UNL A   1      44.496  23.874  24.890  1.00  0.00     0.014 A 
ATOM     34  C   UNL A   1      45.306  23.715  27.564  1.00  0.00     0.010 A 
ATOM     35  C   UNL A   1      44.533  25.016  25.664  1.00  0.00     0.010 A 
ATOM     36  C   UNL A   1      44.850  24.917  27.024  1.00  0.00    -0.014 A 
BRANCH  36  37
ATOM     37  C   UNL A   1      44.538  26.075  27.852  1.00  0.00     0.031 A 
ATOM     38  C   UNL A   1      43.170  26.622  27.887  1.00  0.00     0.074 A 
ATOM     39  C   UNL A   1      45.516  26.625  28.606  1.00  0.00     0.049 A 
ATOM     40  N   UNL A   1      42.871  27.817  28.271  1.00  0.00    -0.248 NA
ATOM     41  C   UNL A   1      42.023  25.874  27.391  1.00  0.00     0.031 C 
ATOM     42  C   UNL A   1      45.373  27.619  29.664  1.00  0.00     0.029 A 
ATOM     43  N   UNL A   1      46.899  26.550  28.380  1.00  0.00    -0.354 N 
ATOM     44  C   UNL A   1      41.499  27.916  28.324  1.00  0.00     0.074 A 
ATOM     45  C   UNL A   1      41.029  26.724  27.665  1.00  0.00     0.031 C 
ATOM     46  C   UNL A   1      46.539  28.269  29.805  1.00  0.00     0.029 A 
ATOM     47  C   UNL A   1      47.419  27.809  28.745  1.00  0.00     0.049 A 
ATOM     48  H   UNL A   1      47.404  25.777  28.037  1.00  0.00     0.167 HD
ATOM     49  C   UNL A   1      40.945  28.941  29.037  1.00  0.00     0.037 A 
ATOM     50  C   UNL A   1      48.028  28.620  27.833  1.00  0.00     0.037 A 
ATOM     51  C   UNL A   1      41.968  29.941  29.374  1.00  0.00     0.049 A 
ATOM     52  C   UNL A   1      47.365  29.967  27.667  1.00  0.00     0.074 A 
ATOM     53  C   UNL A   1      42.686  30.216  30.526  1.00  0.00     0.029 A 
ATOM     54  N   UNL A   1      42.590  30.648  28.347  1.00  0.00    -0.354 N 
ATOM     55  N   UNL A   1      46.145  30.231  28.046  1.00  0.00    -0.248 NA
ATOM     56  C   UNL A   1      48.014  31.111  27.033  1.00  0.00     0.031 C 
ATOM     57  C   UNL A   1      43.793  31.028  30.169  1.00  0.00     0.029 A 
ATOM     58  C   UNL A   1      43.732  31.273  28.808  1.00  0.00     0.049 A 
ATOM     59  H   UNL A   1      42.261  30.696  27.420  1.00  0.00     0.167 HD
ATOM     60  C   UNL A   1      45.826  31.516  27.691  1.00  0.00     0.074 A 
ATOM     61  C   UNL A   1      47.039  32.035  27.086  1.00  0.00     0.031 C 
ATOM     62  C   UNL A   1      44.582  32.038  27.904  1.00  0.00     0.037 A 
BRANCH  49  63
ATOM     63  C   UNL A   1      39.557  28.922  29.666  1.00  0.00     0.057 A 
ATOM     64  C   UNL A   1      38.431  29.340  28.920  1.00  0.00     0.134 A 
ATOM     65  C   UNL A   1      39.251  28.619  31.007  1.00  0.00     0.134 A 
ATOM     66  F   UNL A   1      38.511  29.599  27.608  1.00  0.00    -0.206 F 
ATOM     67  C   UNL A   1      37.157  29.527  29.480  1.00  0.00     0.040 A 
ATOM     68  C   UNL A   1      37.988  28.816  31.584  1.00  0.00     0.040 A 
ATOM     69  F   UNL A   1      40.138  28.083  31.844  1.00  0.00    -0.206 F 
ATOM     70  C   UNL A   1      36.934  29.289  30.825  1.00  0.00     0.006 A 
ENDBRANCH  49  63
BRANCH  50  71
ATOM     71  C   UNL A   1      48.740  27.884  26.758  1.00  0.00     0.057 A 
ATOM     72  C   UNL A   1      48.073  27.655  25.541  1.00  0.00     0.134 A 
ATOM     73  C   UNL A   1      50.127  27.721  26.762  1.00  0.00     0.134 A 
ATOM     74  F   UNL A   1      46.739  27.794  25.468  1.00  0.00    -0.206 F 
ATOM     75  C   UNL A   1      48.764  27.382  24.358  1.00  0.00     0.040 A 
ATOM     76  C   UNL A   1      50.831  27.438  25.584  1.00  0.00     0.040 A 
ATOM     77  F   UNL A   1      50.837  27.944  27.876  1.00  0.00    -0.206 F 
ATOM     78  C   UNL A   1      50.152  27.304  24.372  1.00  0.00     0.006 A 
ENDBRANCH  50  71
BRANCH  62  79
ATOM     79  C   UNL A   1      44.073  33.347  27.348  1.00  0.00     0.057 A 
ATOM     80  C   UNL A   1      43.823  33.583  25.987  1.00  0.00     0.134 A 
ATOM     81  C   UNL A   1      43.674  34.386  28.218  1.00  0.00     0.134 A 
ATOM     82  F   UNL A   1      44.042  32.642  25.059  1.00  0.00    -0.206 F 
ATOM     83  C   UNL A   1      43.277  34.788  25.520  1.00  0.00     0.040 A 
ATOM     84  C   UNL A   1      43.079  35.569  27.768  1.00  0.00     0.040 A 
ATOM     85  F   UNL A   1      43.824  34.285  29.547  1.00  0.00    -0.206 F 
ATOM     86  C   UNL A   1      42.893  35.781  26.411  1.00  0.00     0.006 A 
ENDBRANCH  62  79
ENDBRANCH  36  37
ENDBRANCH  28  31
ENDBRANCH  26  27
ENDBRANCH  25  26
ENDBRANCH  24  25
ENDBRANCH   1  24
TORSDOF 16
ENDMDL
