MODEL 1
REMARK VINA RESULT:     -12.7      0.000      0.000
REMARK SMILES Cc1cccc(-c2cc(C[C@]3(C(=O)NCCCCCCNC(=O)c4ccc(-c5c6nc(c(-c7c(F)cccc7F)c7ccc([nH]7)c(-c7c(F)cccc7F)c7nc(c(-c8c(F)cccc8F)c8ccc5[nH]8)C=C7)C=C6)cc4)CCCN(C(=O)C(C)C)C3)on2)c1
REMARK SMILES IDX 17 1 16 2 15 3 14 4 12 5 13 6 11 8 78 9 87 10 79 11 81 12
REMARK SMILES IDX 80 13 10 14 9 15 7 16 8 17 89 18 88 19 6 20 1 21 2 22 3 23
REMARK SMILES IDX 90 24 4 25 5 26 82 27 83 28 84 29 85 30 86 31 18 32 19 33
REMARK SMILES IDX 20 34 21 35 22 36 23 38 24 39 25 40 77 41 26 42 76 43 27 44
REMARK SMILES IDX 28 45 29 46 70 47 30 48 75 49 69 50 71 51 31 52 74 53 68 54
REMARK SMILES IDX 67 55 32 57 58 58 41 59 57 60 42 61 45 62 56 63 72 64 43 65
REMARK SMILES IDX 44 66 55 68 73 69 46 70 33 71 34 72 39 73 35 74 36 75 38 76
REMARK SMILES IDX 40 77 37 78 59 79 60 80 65 81 61 82 62 83 64 84 66 85 63 86
REMARK SMILES IDX 47 87 48 88 53 89 49 90 50 91 52 92 54 93 51 94
REMARK H PARENT 14 7 21 37 71 56 45 67
REMARK Flexibility Score: inf
ROOT
ATOM      1  C   UNL A   1      33.744  28.675  25.800  1.00  0.00     0.002 C 
ENDROOT
BRANCH   1   2
ATOM      2  C   UNL A   1      32.349  29.175  25.407  1.00  0.00     0.021 C 
BRANCH   2   3
ATOM      3  C   UNL A   1      31.900  28.854  23.982  1.00  0.00     0.116 C 
BRANCH   3   4
ATOM      4  N   UNL A   1      30.627  28.164  23.916  1.00  0.00    -0.356 N 
ATOM      5  C   UNL A   1      30.278  26.867  24.161  1.00  0.00     0.228 C 
ATOM      6  O   UNL A   1      29.065  26.633  24.114  1.00  0.00    -0.274 OA
ATOM      7  H   UNL A   1      29.874  28.738  23.644  1.00  0.00     0.163 HD
BRANCH   5   8
ATOM      8  C   UNL A   1      31.313  25.743  24.466  1.00  0.00     0.074 C 
ATOM      9  C   UNL A   1      31.643  25.782  25.990  1.00  0.00     0.021 C 
ATOM     10  C   UNL A   1      30.730  24.397  23.953  1.00  0.00     0.136 C 
ATOM     11  C   UNL A   1      31.948  24.436  26.650  1.00  0.00     0.023 C 
ATOM     12  N   UNL A   1      31.222  23.226  24.688  1.00  0.00    -0.341 N 
ATOM     13  C   UNL A   1      31.067  23.318  26.126  1.00  0.00     0.119 C 
BRANCH   8  14
ATOM     14  C   UNL A   1      32.590  26.109  23.628  1.00  0.00     0.097 C 
BRANCH  14  15
ATOM     15  C   UNL A   1      33.738  25.161  23.668  1.00  0.00     0.138 A 
ATOM     16  C   UNL A   1      35.417  23.768  24.049  1.00  0.00     0.114 A 
ATOM     17  C   UNL A   1      34.587  24.738  24.664  1.00  0.00     0.077 A 
ATOM     18  N   UNL A   1      35.076  23.607  22.761  1.00  0.00    -0.080 NA
ATOM     19  O   UNL A   1      34.010  24.461  22.536  1.00  0.00    -0.361 OA
BRANCH  16  20
ATOM     20  C   UNL A   1      36.527  23.041  24.651  1.00  0.00     0.004 A 
ATOM     21  C   UNL A   1      38.002  19.524  24.751  1.00  0.00     0.044 C 
ATOM     22  C   UNL A   1      37.771  20.982  25.016  1.00  0.00    -0.050 A 
ATOM     23  C   UNL A   1      38.632  21.664  25.887  1.00  0.00     0.003 A 
ATOM     24  C   UNL A   1      36.710  21.675  24.410  1.00  0.00     0.014 A 
ATOM     25  C   UNL A   1      38.458  23.023  26.126  1.00  0.00     0.001 A 
ATOM     26  C   UNL A   1      37.418  23.706  25.498  1.00  0.00     0.010 A 
ENDBRANCH  16  20
ENDBRANCH  14  15
ENDBRANCH   8  14
BRANCH  12  27
ATOM     27  C   UNL A   1      31.776  22.169  23.986  1.00  0.00     0.225 C 
ATOM     28  O   UNL A   1      31.863  22.215  22.752  1.00  0.00    -0.275 OA
BRANCH  27  29
ATOM     29  C   UNL A   1      32.256  20.891  24.689  1.00  0.00     0.072 C 
ATOM     30  C   UNL A   1      32.528  19.673  23.812  1.00  0.00     0.018 C 
ATOM     31  C   UNL A   1      33.403  21.179  25.648  1.00  0.00     0.018 C 
ENDBRANCH  27  29
ENDBRANCH  12  27
ENDBRANCH   5   8
ENDBRANCH   3   4
ENDBRANCH   2   3
ENDBRANCH   1   2
BRANCH   1  32
ATOM     32  C   UNL A   1      34.308  29.172  27.141  1.00  0.00     0.002 C 
BRANCH  32  33
ATOM     33  C   UNL A   1      33.821  30.539  27.624  1.00  0.00     0.021 C 
BRANCH  33  34
ATOM     34  C   UNL A   1      34.879  31.635  27.627  1.00  0.00     0.116 C 
BRANCH  34  35
ATOM     35  N   UNL A   1      35.311  32.045  28.955  1.00  0.00    -0.352 N 
ATOM     36  C   UNL A   1      36.189  31.431  29.837  1.00  0.00     0.251 C 
ATOM     37  H   UNL A   1      34.919  32.889  29.278  1.00  0.00     0.163 HD
ATOM     38  O   UNL A   1      36.392  31.921  30.932  1.00  0.00    -0.269 OA
BRANCH  36  39
ATOM     39  C   UNL A   1      36.995  30.266  29.383  1.00  0.00     0.039 A 
ATOM     40  C   UNL A   1      37.068  29.162  30.243  1.00  0.00     0.014 A 
ATOM     41  C   UNL A   1      37.830  30.337  28.273  1.00  0.00     0.014 A 
ATOM     42  C   UNL A   1      38.154  28.298  30.154  1.00  0.00     0.010 A 
ATOM     43  C   UNL A   1      38.958  29.543  28.239  1.00  0.00     0.010 A 
ATOM     44  C   UNL A   1      39.160  28.584  29.235  1.00  0.00    -0.014 A 
BRANCH  44  45
ATOM     45  C   UNL A   1      40.515  28.064  29.355  1.00  0.00     0.031 A 
ATOM     46  C   UNL A   1      40.875  26.745  28.805  1.00  0.00     0.074 A 
ATOM     47  C   UNL A   1      41.467  28.860  29.892  1.00  0.00     0.049 A 
ATOM     48  N   UNL A   1      41.928  26.084  29.148  1.00  0.00    -0.248 NA
ATOM     49  C   UNL A   1      40.022  26.018  27.872  1.00  0.00     0.031 C 
ATOM     50  C   UNL A   1      42.915  28.691  29.822  1.00  0.00     0.029 A 
ATOM     51  N   UNL A   1      41.282  29.900  30.815  1.00  0.00    -0.354 N 
ATOM     52  C   UNL A   1      42.057  25.022  28.284  1.00  0.00     0.074 A 
ATOM     53  C   UNL A   1      40.778  24.944  27.624  1.00  0.00     0.031 C 
ATOM     54  C   UNL A   1      43.480  29.369  30.833  1.00  0.00     0.029 A 
ATOM     55  C   UNL A   1      42.403  29.864  31.672  1.00  0.00     0.049 A 
ATOM     56  H   UNL A   1      40.525  30.527  30.856  1.00  0.00     0.167 HD
ATOM     57  C   UNL A   1      43.287  24.450  28.136  1.00  0.00     0.037 A 
ATOM     58  C   UNL A   1      42.272  29.600  33.005  1.00  0.00     0.037 A 
ATOM     59  C   UNL A   1      44.202  24.917  29.186  1.00  0.00     0.049 A 
ATOM     60  C   UNL A   1      43.038  28.383  33.469  1.00  0.00     0.074 A 
ATOM     61  C   UNL A   1      45.262  25.809  29.194  1.00  0.00     0.029 A 
ATOM     62  N   UNL A   1      43.909  24.643  30.521  1.00  0.00    -0.354 N 
ATOM     63  N   UNL A   1      43.475  27.452  32.668  1.00  0.00    -0.248 NA
ATOM     64  C   UNL A   1      43.342  28.101  34.869  1.00  0.00     0.031 C 
ATOM     65  C   UNL A   1      45.554  26.128  30.546  1.00  0.00     0.029 A 
ATOM     66  C   UNL A   1      44.696  25.408  31.359  1.00  0.00     0.049 A 
ATOM     67  H   UNL A   1      43.233  23.995  30.823  1.00  0.00     0.167 HD
ATOM     68  C   UNL A   1      44.063  26.454  33.400  1.00  0.00     0.074 A 
ATOM     69  C   UNL A   1      43.980  26.920  34.771  1.00  0.00     0.031 C 
ATOM     70  C   UNL A   1      44.548  25.323  32.807  1.00  0.00     0.037 A 
BRANCH  57  71
ATOM     71  C   UNL A   1      43.768  23.677  26.911  1.00  0.00     0.057 A 
ATOM     72  C   UNL A   1      44.466  24.348  25.882  1.00  0.00     0.134 A 
ATOM     73  C   UNL A   1      43.486  22.331  26.607  1.00  0.00     0.134 A 
ATOM     74  F   UNL A   1      44.869  25.619  26.016  1.00  0.00    -0.206 F 
ATOM     75  C   UNL A   1      44.781  23.756  24.647  1.00  0.00     0.040 A 
ATOM     76  C   UNL A   1      43.810  21.722  25.384  1.00  0.00     0.040 A 
ATOM     77  F   UNL A   1      42.870  21.507  27.454  1.00  0.00    -0.206 F 
ATOM     78  C   UNL A   1      44.443  22.439  24.387  1.00  0.00     0.006 A 
ENDBRANCH  57  71
BRANCH  58  79
ATOM     79  C   UNL A   1      40.977  30.058  33.573  1.00  0.00     0.057 A 
ATOM     80  C   UNL A   1      40.847  31.406  33.952  1.00  0.00     0.134 A 
ATOM     81  C   UNL A   1      39.799  29.327  33.403  1.00  0.00     0.134 A 
ATOM     82  F   UNL A   1      41.941  32.164  34.129  1.00  0.00    -0.206 F 
ATOM     83  C   UNL A   1      39.601  32.030  34.046  1.00  0.00     0.040 A 
ATOM     84  C   UNL A   1      38.543  29.939  33.507  1.00  0.00     0.040 A 
ATOM     85  F   UNL A   1      39.840  28.043  33.020  1.00  0.00    -0.206 F 
ATOM     86  C   UNL A   1      38.444  31.300  33.791  1.00  0.00     0.006 A 
ENDBRANCH  58  79
BRANCH  70  87
ATOM     87  C   UNL A   1      44.994  24.065  33.517  1.00  0.00     0.057 A 
ATOM     88  C   UNL A   1      46.312  23.801  33.918  1.00  0.00     0.134 A 
ATOM     89  C   UNL A   1      44.040  23.119  33.960  1.00  0.00     0.134 A 
ATOM     90  F   UNL A   1      47.308  24.664  33.672  1.00  0.00    -0.206 F 
ATOM     91  C   UNL A   1      46.665  22.659  34.653  1.00  0.00     0.040 A 
ATOM     92  C   UNL A   1      44.371  22.006  34.738  1.00  0.00     0.040 A 
ATOM     93  F   UNL A   1      42.735  23.248  33.676  1.00  0.00    -0.206 F 
ATOM     94  C   UNL A   1      45.693  21.763  35.076  1.00  0.00     0.006 A 
ENDBRANCH  70  87
ENDBRANCH  44  45
ENDBRANCH  36  39
ENDBRANCH  34  35
ENDBRANCH  33  34
ENDBRANCH  32  33
ENDBRANCH   1  32
TORSDOF 18
ENDMDL
MODEL 2
REMARK VINA RESULT:     -12.7      1.819      3.092
REMARK SMILES Cc1cccc(-c2cc(C[C@]3(C(=O)NCCCCCCNC(=O)c4ccc(-c5c6nc(c(-c7c(F)cccc7F)c7ccc([nH]7)c(-c7c(F)cccc7F)c7nc(c(-c8c(F)cccc8F)c8ccc5[nH]8)C=C7)C=C6)cc4)CCCN(C(=O)C(C)C)C3)on2)c1
REMARK SMILES IDX 17 1 16 2 15 3 14 4 12 5 13 6 11 8 78 9 87 10 79 11 81 12
REMARK SMILES IDX 80 13 10 14 9 15 7 16 8 17 89 18 88 19 6 20 1 21 2 22 3 23
REMARK SMILES IDX 90 24 4 25 5 26 82 27 83 28 84 29 85 30 86 31 18 32 19 33
REMARK SMILES IDX 20 34 21 35 22 36 23 38 24 39 25 40 77 41 26 42 76 43 27 44
REMARK SMILES IDX 28 45 29 46 70 47 30 48 75 49 69 50 71 51 31 52 74 53 68 54
REMARK SMILES IDX 67 55 32 57 58 58 41 59 57 60 42 61 45 62 56 63 72 64 43 65
REMARK SMILES IDX 44 66 55 68 73 69 46 70 33 71 34 72 39 73 35 74 36 75 38 76
REMARK SMILES IDX 40 77 37 78 59 79 60 80 65 81 61 82 62 83 64 84 66 85 63 86
REMARK SMILES IDX 47 87 48 88 53 89 49 90 50 91 52 92 54 93 51 94
REMARK H PARENT 14 7 21 37 71 56 45 67
REMARK Flexibility Score: inf
ROOT
ATOM      1  C   UNL A   1      31.817  28.715  26.962  1.00  0.00     0.002 C 
ENDROOT
BRANCH   1   2
ATOM      2  C   UNL A   1      31.534  29.305  25.575  1.00  0.00     0.021 C 
BRANCH   2   3
ATOM      3  C   UNL A   1      31.767  28.370  24.390  1.00  0.00     0.116 C 
BRANCH   3   4
ATOM      4  N   UNL A   1      30.597  27.602  24.016  1.00  0.00    -0.356 N 
ATOM      5  C   UNL A   1      30.349  26.259  24.011  1.00  0.00     0.228 C 
ATOM      6  O   UNL A   1      29.188  25.940  23.732  1.00  0.00    -0.274 OA
ATOM      7  H   UNL A   1      29.839  28.150  23.708  1.00  0.00     0.163 HD
BRANCH   5   8
ATOM      8  C   UNL A   1      31.436  25.185  24.320  1.00  0.00     0.074 C 
ATOM      9  C   UNL A   1      31.720  25.203  25.853  1.00  0.00     0.021 C 
ATOM     10  C   UNL A   1      30.942  23.823  23.758  1.00  0.00     0.136 C 
ATOM     11  C   UNL A   1      32.080  23.859  26.490  1.00  0.00     0.023 C 
ATOM     12  N   UNL A   1      31.477  22.662  24.479  1.00  0.00    -0.341 N 
ATOM     13  C   UNL A   1      31.277  22.708  25.914  1.00  0.00     0.119 C 
BRANCH   8  14
ATOM     14  C   UNL A   1      32.714  25.642  23.529  1.00  0.00     0.097 C 
BRANCH  14  15
ATOM     15  C   UNL A   1      33.967  24.862  23.732  1.00  0.00     0.138 A 
ATOM     16  C   UNL A   1      35.787  23.761  24.348  1.00  0.00     0.114 A 
ATOM     17  C   UNL A   1      34.820  24.695  24.797  1.00  0.00     0.077 A 
ATOM     18  N   UNL A   1      35.521  23.378  23.090  1.00  0.00    -0.080 NA
ATOM     19  O   UNL A   1      34.368  24.049  22.720  1.00  0.00    -0.361 OA
BRANCH  16  20
ATOM     20  C   UNL A   1      36.952  23.273  25.074  1.00  0.00     0.004 A 
ATOM     21  C   UNL A   1      39.484  24.461  27.669  1.00  0.00     0.044 C 
ATOM     22  C   UNL A   1      38.762  23.613  26.665  1.00  0.00    -0.050 A 
ATOM     23  C   UNL A   1      39.234  22.320  26.395  1.00  0.00     0.003 A 
ATOM     24  C   UNL A   1      37.627  24.090  25.989  1.00  0.00     0.014 A 
ATOM     25  C   UNL A   1      38.564  21.503  25.491  1.00  0.00     0.001 A 
ATOM     26  C   UNL A   1      37.422  21.976  24.847  1.00  0.00     0.010 A 
ENDBRANCH  16  20
ENDBRANCH  14  15
ENDBRANCH   8  14
BRANCH  12  27
ATOM     27  C   UNL A   1      32.108  21.655  23.768  1.00  0.00     0.225 C 
ATOM     28  O   UNL A   1      32.227  21.736  22.539  1.00  0.00    -0.275 OA
BRANCH  27  29
ATOM     29  C   UNL A   1      32.639  20.388  24.455  1.00  0.00     0.072 C 
ATOM     30  C   UNL A   1      32.511  19.074  23.689  1.00  0.00     0.018 C 
ATOM     31  C   UNL A   1      34.041  20.599  25.008  1.00  0.00     0.018 C 
ENDBRANCH  27  29
ENDBRANCH  12  27
ENDBRANCH   5   8
ENDBRANCH   3   4
ENDBRANCH   2   3
ENDBRANCH   1   2
BRANCH   1  32
ATOM     32  C   UNL A   1      33.271  28.321  27.265  1.00  0.00     0.002 C 
BRANCH  32  33
ATOM     33  C   UNL A   1      34.361  29.209  26.662  1.00  0.00     0.021 C 
BRANCH  33  34
ATOM     34  C   UNL A   1      34.960  30.232  27.617  1.00  0.00     0.116 C 
BRANCH  34  35
ATOM     35  N   UNL A   1      34.180  31.454  27.752  1.00  0.00    -0.352 N 
ATOM     36  C   UNL A   1      34.390  32.561  28.561  1.00  0.00     0.251 C 
ATOM     37  H   UNL A   1      33.381  31.502  27.179  1.00  0.00     0.163 HD
ATOM     38  O   UNL A   1      33.590  33.478  28.556  1.00  0.00    -0.269 OA
BRANCH  36  39
ATOM     39  C   UNL A   1      35.666  32.692  29.315  1.00  0.00     0.039 A 
ATOM     40  C   UNL A   1      36.721  33.359  28.679  1.00  0.00     0.014 A 
ATOM     41  C   UNL A   1      35.897  31.995  30.496  1.00  0.00     0.014 A 
ATOM     42  C   UNL A   1      38.031  33.087  29.061  1.00  0.00     0.010 A 
ATOM     43  C   UNL A   1      37.193  31.645  30.818  1.00  0.00     0.010 A 
ATOM     44  C   UNL A   1      38.252  32.122  30.040  1.00  0.00    -0.014 A 
BRANCH  44  45
ATOM     45  C   UNL A   1      39.521  31.424  30.194  1.00  0.00     0.031 A 
ATOM     46  C   UNL A   1      39.760  30.127  29.537  1.00  0.00     0.074 A 
ATOM     47  C   UNL A   1      40.518  32.039  30.869  1.00  0.00     0.049 A 
ATOM     48  N   UNL A   1      40.696  29.307  29.879  1.00  0.00    -0.248 NA
ATOM     49  C   UNL A   1      38.899  29.604  28.483  1.00  0.00     0.031 C 
ATOM     50  C   UNL A   1      41.937  31.693  30.875  1.00  0.00     0.029 A 
ATOM     51  N   UNL A   1      40.391  33.004  31.879  1.00  0.00    -0.354 N 
ATOM     52  C   UNL A   1      40.760  28.322  28.921  1.00  0.00     0.074 A 
ATOM     53  C   UNL A   1      39.536  28.470  28.176  1.00  0.00     0.031 C 
ATOM     54  C   UNL A   1      42.501  32.197  31.984  1.00  0.00     0.029 A 
ATOM     55  C   UNL A   1      41.430  32.745  32.798  1.00  0.00     0.049 A 
ATOM     56  H   UNL A   1      39.714  33.716  31.935  1.00  0.00     0.167 HD
ATOM     57  C   UNL A   1      41.921  27.614  28.796  1.00  0.00     0.037 A 
ATOM     58  C   UNL A   1      41.167  32.378  34.086  1.00  0.00     0.037 A 
ATOM     59  C   UNL A   1      42.802  27.860  29.944  1.00  0.00     0.049 A 
ATOM     60  C   UNL A   1      41.741  31.036  34.473  1.00  0.00     0.074 A 
ATOM     61  C   UNL A   1      43.958  28.605  30.111  1.00  0.00     0.029 A 
ATOM     62  N   UNL A   1      42.376  27.504  31.223  1.00  0.00    -0.354 N 
ATOM     63  N   UNL A   1      42.123  30.134  33.611  1.00  0.00    -0.248 NA
ATOM     64  C   UNL A   1      41.901  30.588  35.853  1.00  0.00     0.031 C 
ATOM     65  C   UNL A   1      44.183  28.758  31.504  1.00  0.00     0.029 A 
ATOM     66  C   UNL A   1      43.184  28.081  32.183  1.00  0.00     0.049 A 
ATOM     67  H   UNL A   1      41.606  26.923  31.414  1.00  0.00     0.167 HD
ATOM     68  C   UNL A   1      42.528  29.005  34.275  1.00  0.00     0.074 A 
ATOM     69  C   UNL A   1      42.397  29.350  35.678  1.00  0.00     0.031 C 
ATOM     70  C   UNL A   1      42.916  27.881  33.603  1.00  0.00     0.037 A 
BRANCH  57  71
ATOM     71  C   UNL A   1      42.396  26.902  27.532  1.00  0.00     0.057 A 
ATOM     72  C   UNL A   1      42.899  25.584  27.611  1.00  0.00     0.134 A 
ATOM     73  C   UNL A   1      42.512  27.466  26.246  1.00  0.00     0.134 A 
ATOM     74  F   UNL A   1      42.824  24.867  28.741  1.00  0.00    -0.206 F 
ATOM     75  C   UNL A   1      43.523  24.928  26.536  1.00  0.00     0.040 A 
ATOM     76  C   UNL A   1      43.117  26.815  25.160  1.00  0.00     0.040 A 
ATOM     77  F   UNL A   1      42.065  28.685  25.944  1.00  0.00    -0.206 F 
ATOM     78  C   UNL A   1      43.645  25.547  25.305  1.00  0.00     0.006 A 
ENDBRANCH  57  71
BRANCH  58  79
ATOM     79  C   UNL A   1      39.897  32.943  34.613  1.00  0.00     0.057 A 
ATOM     80  C   UNL A   1      38.738  32.147  34.572  1.00  0.00     0.134 A 
ATOM     81  C   UNL A   1      39.880  34.050  35.464  1.00  0.00     0.134 A 
ATOM     82  F   UNL A   1      38.690  31.067  33.776  1.00  0.00    -0.206 F 
ATOM     83  C   UNL A   1      37.655  32.375  35.425  1.00  0.00     0.040 A 
ATOM     84  C   UNL A   1      38.795  34.296  36.315  1.00  0.00     0.040 A 
ATOM     85  F   UNL A   1      40.956  34.843  35.576  1.00  0.00    -0.206 F 
ATOM     86  C   UNL A   1      37.697  33.436  36.324  1.00  0.00     0.006 A 
ENDBRANCH  58  79
BRANCH  70  87
ATOM     87  C   UNL A   1      43.152  26.516  34.209  1.00  0.00     0.057 A 
ATOM     88  C   UNL A   1      44.408  25.908  34.336  1.00  0.00     0.134 A 
ATOM     89  C   UNL A   1      42.090  25.822  34.834  1.00  0.00     0.134 A 
ATOM     90  F   UNL A   1      45.525  26.501  33.896  1.00  0.00    -0.206 F 
ATOM     91  C   UNL A   1      44.590  24.677  34.986  1.00  0.00     0.040 A 
ATOM     92  C   UNL A   1      42.266  24.622  35.530  1.00  0.00     0.040 A 
ATOM     93  F   UNL A   1      40.833  26.291  34.818  1.00  0.00    -0.206 F 
ATOM     94  C   UNL A   1      43.520  24.036  35.596  1.00  0.00     0.006 A 
ENDBRANCH  70  87
ENDBRANCH  44  45
ENDBRANCH  36  39
ENDBRANCH  34  35
ENDBRANCH  33  34
ENDBRANCH  32  33
ENDBRANCH   1  32
TORSDOF 18
ENDMDL
MODEL 3
REMARK VINA RESULT:     -12.5      3.715      9.434
REMARK SMILES Cc1cccc(-c2cc(C[C@]3(C(=O)NCCCCCCNC(=O)c4ccc(-c5c6nc(c(-c7c(F)cccc7F)c7ccc([nH]7)c(-c7c(F)cccc7F)c7nc(c(-c8c(F)cccc8F)c8ccc5[nH]8)C=C7)C=C6)cc4)CCCN(C(=O)C(C)C)C3)on2)c1
REMARK SMILES IDX 17 1 16 2 15 3 14 4 12 5 13 6 11 8 78 9 87 10 79 11 81 12
REMARK SMILES IDX 80 13 10 14 9 15 7 16 8 17 89 18 88 19 6 20 1 21 2 22 3 23
REMARK SMILES IDX 90 24 4 25 5 26 82 27 83 28 84 29 85 30 86 31 18 32 19 33
REMARK SMILES IDX 20 34 21 35 22 36 23 38 24 39 25 40 77 41 26 42 76 43 27 44
REMARK SMILES IDX 28 45 29 46 70 47 30 48 75 49 69 50 71 51 31 52 74 53 68 54
REMARK SMILES IDX 67 55 32 57 58 58 41 59 57 60 42 61 45 62 56 63 72 64 43 65
REMARK SMILES IDX 44 66 55 68 73 69 46 70 33 71 34 72 39 73 35 74 36 75 38 76
REMARK SMILES IDX 40 77 37 78 59 79 60 80 65 81 61 82 62 83 64 84 66 85 63 86
REMARK SMILES IDX 47 87 48 88 53 89 49 90 50 91 52 92 54 93 51 94
REMARK H PARENT 14 7 21 37 71 56 45 67
REMARK Flexibility Score: inf
ROOT
ATOM      1  C   UNL A   1      35.745  22.657  25.680  1.00  0.00     0.002 C 
ENDROOT
BRANCH   1   2
ATOM      2  C   UNL A   1      34.359  22.510  26.316  1.00  0.00     0.021 C 
BRANCH   2   3
ATOM      3  C   UNL A   1      33.203  22.252  25.350  1.00  0.00     0.116 C 
BRANCH   3   4
ATOM      4  N   UNL A   1      33.563  22.416  23.956  1.00  0.00    -0.356 N 
ATOM      5  C   UNL A   1      33.396  23.455  23.086  1.00  0.00     0.228 C 
ATOM      6  O   UNL A   1      33.926  23.303  21.980  1.00  0.00    -0.274 OA
ATOM      7  H   UNL A   1      34.012  21.631  23.564  1.00  0.00     0.163 HD
BRANCH   5   8
ATOM      8  C   UNL A   1      32.590  24.743  23.433  1.00  0.00     0.074 C 
ATOM      9  C   UNL A   1      31.123  24.328  23.759  1.00  0.00     0.021 C 
ATOM     10  C   UNL A   1      33.334  25.485  24.577  1.00  0.00     0.136 C 
ATOM     11  C   UNL A   1      30.401  25.170  24.814  1.00  0.00     0.023 C 
ATOM     12  N   UNL A   1      32.452  26.296  25.423  1.00  0.00    -0.341 N 
ATOM     13  C   UNL A   1      31.313  25.576  25.957  1.00  0.00     0.119 C 
BRANCH   8  14
ATOM     14  C   UNL A   1      32.626  25.623  22.132  1.00  0.00     0.097 C 
BRANCH  14  15
ATOM     15  C   UNL A   1      32.069  27.002  22.216  1.00  0.00     0.138 A 
ATOM     16  C   UNL A   1      30.964  28.910  22.429  1.00  0.00     0.114 A 
ATOM     17  C   UNL A   1      30.794  27.508  22.318  1.00  0.00     0.077 A 
ATOM     18  N   UNL A   1      32.268  29.227  22.410  1.00  0.00    -0.080 NA
ATOM     19  O   UNL A   1      32.954  28.029  22.303  1.00  0.00    -0.361 OA
BRANCH  16  20
ATOM     20  C   UNL A   1      29.924  29.926  22.512  1.00  0.00     0.004 A 
ATOM     21  C   UNL A   1      27.851  32.176  20.233  1.00  0.00     0.044 C 
ATOM     22  C   UNL A   1      28.428  31.529  21.457  1.00  0.00    -0.050 A 
ATOM     23  C   UNL A   1      27.973  31.928  22.721  1.00  0.00     0.003 A 
ATOM     24  C   UNL A   1      29.416  30.535  21.359  1.00  0.00     0.014 A 
ATOM     25  C   UNL A   1      28.470  31.322  23.870  1.00  0.00     0.001 A 
ATOM     26  C   UNL A   1      29.430  30.317  23.761  1.00  0.00     0.010 A 
ENDBRANCH  16  20
ENDBRANCH  14  15
ENDBRANCH   8  14
BRANCH  12  27
ATOM     27  C   UNL A   1      32.755  27.630  25.635  1.00  0.00     0.225 C 
ATOM     28  O   UNL A   1      33.859  28.082  25.306  1.00  0.00    -0.275 OA
BRANCH  27  29
ATOM     29  C   UNL A   1      31.769  28.587  26.322  1.00  0.00     0.072 C 
ATOM     30  C   UNL A   1      31.463  28.333  27.795  1.00  0.00     0.018 C 
ATOM     31  C   UNL A   1      32.120  30.043  26.049  1.00  0.00     0.018 C 
ENDBRANCH  27  29
ENDBRANCH  12  27
ENDBRANCH   5   8
ENDBRANCH   3   4
ENDBRANCH   2   3
ENDBRANCH   1   2
BRANCH   1  32
ATOM     32  C   UNL A   1      36.520  21.361  25.394  1.00  0.00     0.002 C 
BRANCH  32  33
ATOM     33  C   UNL A   1      38.041  21.424  25.548  1.00  0.00     0.021 C 
BRANCH  33  34
ATOM     34  C   UNL A   1      38.604  22.815  25.807  1.00  0.00     0.116 C 
BRANCH  34  35
ATOM     35  N   UNL A   1      39.989  22.825  26.257  1.00  0.00    -0.352 N 
ATOM     36  C   UNL A   1      40.754  23.866  26.763  1.00  0.00     0.251 C 
ATOM     37  H   UNL A   1      40.454  21.960  26.193  1.00  0.00     0.163 HD
ATOM     38  O   UNL A   1      41.921  23.678  27.051  1.00  0.00    -0.269 OA
BRANCH  36  39
ATOM     39  C   UNL A   1      40.106  25.164  27.096  1.00  0.00     0.039 A 
ATOM     40  C   UNL A   1      40.494  26.284  26.350  1.00  0.00     0.014 A 
ATOM     41  C   UNL A   1      39.327  25.324  28.236  1.00  0.00     0.014 A 
ATOM     42  C   UNL A   1      40.351  27.554  26.900  1.00  0.00     0.010 A 
ATOM     43  C   UNL A   1      39.269  26.568  28.830  1.00  0.00     0.010 A 
ATOM     44  C   UNL A   1      39.862  27.666  28.199  1.00  0.00    -0.014 A 
BRANCH  44  45
ATOM     45  C   UNL A   1      40.096  28.834  29.037  1.00  0.00     0.031 A 
ATOM     46  C   UNL A   1      39.065  29.875  29.194  1.00  0.00     0.074 A 
ATOM     47  C   UNL A   1      41.241  28.897  29.752  1.00  0.00     0.049 A 
ATOM     48  N   UNL A   1      39.303  31.066  29.631  1.00  0.00    -0.248 NA
ATOM     49  C   UNL A   1      37.678  29.683  28.787  1.00  0.00     0.031 C 
ATOM     50  C   UNL A   1      41.544  29.779  30.875  1.00  0.00     0.029 A 
ATOM     51  N   UNL A   1      42.467  28.288  29.447  1.00  0.00    -0.354 N 
ATOM     52  C   UNL A   1      38.094  31.681  29.854  1.00  0.00     0.074 A 
ATOM     53  C   UNL A   1      37.138  30.843  29.174  1.00  0.00     0.031 C 
ATOM     54  C   UNL A   1      42.877  29.882  30.998  1.00  0.00     0.029 A 
ATOM     55  C   UNL A   1      43.466  29.195  29.863  1.00  0.00     0.049 A 
ATOM     56  H   UNL A   1      42.603  27.408  29.028  1.00  0.00     0.167 HD
ATOM     57  C   UNL A   1      38.051  32.736  30.719  1.00  0.00     0.037 A 
ATOM     58  C   UNL A   1      44.326  29.766  28.970  1.00  0.00     0.037 A 
ATOM     59  C   UNL A   1      39.408  33.203  31.029  1.00  0.00     0.049 A 
ATOM     60  C   UNL A   1      44.270  31.275  28.940  1.00  0.00     0.074 A 
ATOM     61  C   UNL A   1      40.225  33.076  32.141  1.00  0.00     0.029 A 
ATOM     62  N   UNL A   1      40.214  33.695  30.004  1.00  0.00    -0.354 N 
ATOM     63  N   UNL A   1      43.276  31.974  29.414  1.00  0.00    -0.248 NA
ATOM     64  C   UNL A   1      45.307  32.114  28.348  1.00  0.00     0.031 C 
ATOM     65  C   UNL A   1      41.546  33.424  31.755  1.00  0.00     0.029 A 
ATOM     66  C   UNL A   1      41.527  33.793  30.421  1.00  0.00     0.049 A 
ATOM     67  H   UNL A   1      39.891  33.938  29.107  1.00  0.00     0.167 HD
ATOM     68  C   UNL A   1      43.492  33.305  29.172  1.00  0.00     0.074 A 
ATOM     69  C   UNL A   1      44.791  33.344  28.527  1.00  0.00     0.031 C 
ATOM     70  C   UNL A   1      42.568  34.253  29.509  1.00  0.00     0.037 A 
BRANCH  57  71
ATOM     71  C   UNL A   1      36.824  33.196  31.502  1.00  0.00     0.057 A 
ATOM     72  C   UNL A   1      36.663  32.811  32.852  1.00  0.00     0.134 A 
ATOM     73  C   UNL A   1      35.716  33.896  30.986  1.00  0.00     0.134 A 
ATOM     74  F   UNL A   1      37.636  32.184  33.528  1.00  0.00    -0.206 F 
ATOM     75  C   UNL A   1      35.485  33.035  33.585  1.00  0.00     0.040 A 
ATOM     76  C   UNL A   1      34.541  34.142  31.713  1.00  0.00     0.040 A 
ATOM     77  F   UNL A   1      35.676  34.383  29.746  1.00  0.00    -0.206 F 
ATOM     78  C   UNL A   1      34.411  33.693  33.013  1.00  0.00     0.006 A 
ENDBRANCH  57  71
BRANCH  58  79
ATOM     79  C   UNL A   1      44.616  28.902  27.795  1.00  0.00     0.057 A 
ATOM     80  C   UNL A   1      45.520  27.836  27.950  1.00  0.00     0.134 A 
ATOM     81  C   UNL A   1      43.775  28.869  26.680  1.00  0.00     0.134 A 
ATOM     82  F   UNL A   1      46.354  27.807  29.002  1.00  0.00    -0.206 F 
ATOM     83  C   UNL A   1      45.508  26.728  27.098  1.00  0.00     0.040 A 
ATOM     84  C   UNL A   1      43.763  27.769  25.812  1.00  0.00     0.040 A 
ATOM     85  F   UNL A   1      42.871  29.837  26.477  1.00  0.00    -0.206 F 
ATOM     86  C   UNL A   1      44.603  26.680  26.042  1.00  0.00     0.006 A 
ENDBRANCH  58  79
BRANCH  70  87
ATOM     87  C   UNL A   1      42.583  35.704  29.086  1.00  0.00     0.057 A 
ATOM     88  C   UNL A   1      43.390  36.694  29.665  1.00  0.00     0.134 A 
ATOM     89  C   UNL A   1      41.863  36.120  27.941  1.00  0.00     0.134 A 
ATOM     90  F   UNL A   1      44.215  36.422  30.684  1.00  0.00    -0.206 F 
ATOM     91  C   UNL A   1      43.435  38.011  29.181  1.00  0.00     0.040 A 
ATOM     92  C   UNL A   1      41.941  37.413  27.417  1.00  0.00     0.040 A 
ATOM     93  F   UNL A   1      41.067  35.278  27.265  1.00  0.00    -0.206 F 
ATOM     94  C   UNL A   1      42.720  38.372  28.047  1.00  0.00     0.006 A 
ENDBRANCH  70  87
ENDBRANCH  44  45
ENDBRANCH  36  39
ENDBRANCH  34  35
ENDBRANCH  33  34
ENDBRANCH  32  33
ENDBRANCH   1  32
TORSDOF 18
ENDMDL
