MODEL 1
REMARK VINA RESULT:     -11.5      0.000      0.000
REMARK SMILES [NH3+]Cc1c(-c2ccccc2)c(C(=O)NCCCCCCNC(=O)c2ccc(-c3c4nc(c(-c5c(F)cccc5F)c5ccc([nH]5)c(-c5c(F)cccc5F)c5nc(c(-c6c(F)cccc6F)c6ccc3[nH]6)C=C5)C=C4)cc2)c2ccccn12
REMARK SMILES IDX 17 1 16 2 15 3 14 4 12 5 13 6 11 8 3 9 4 10 83 11 78 12
REMARK SMILES IDX 82 13 79 14 81 15 80 16 2 17 1 18 5 22 6 23 10 24 7 25 9 26
REMARK SMILES IDX 8 27 18 28 19 29 20 30 21 31 22 32 23 34 24 35 25 36 77 37
REMARK SMILES IDX 26 38 76 39 27 40 28 41 29 42 70 43 30 44 75 45 69 46 71 47
REMARK SMILES IDX 31 48 74 49 68 50 67 51 32 53 58 54 41 55 57 56 42 57 45 58
REMARK SMILES IDX 56 59 72 60 43 61 44 62 55 64 73 65 46 66 33 67 34 68 39 69
REMARK SMILES IDX 35 70 36 71 38 72 40 73 37 74 59 75 60 76 65 77 61 78 62 79
REMARK SMILES IDX 64 80 66 81 63 82 47 83 48 84 53 85 49 86 50 87 52 88 54 89
REMARK SMILES IDX 51 90
REMARK H PARENT 14 7 1 19 1 20 1 21 21 33 71 52 45 63
REMARK Flexibility Score: inf
ROOT
ATOM      1  C   UNL A   1      31.745  29.512  26.595  1.00  0.00     0.002 C 
ENDROOT
BRANCH   1   2
ATOM      2  C   UNL A   1      33.179  29.342  27.100  1.00  0.00     0.021 C 
BRANCH   2   3
ATOM      3  C   UNL A   1      34.015  28.233  26.469  1.00  0.00     0.116 C 
BRANCH   3   4
ATOM      4  N   UNL A   1      34.412  28.465  25.099  1.00  0.00    -0.352 N 
ATOM      5  C   UNL A   1      33.801  28.110  23.916  1.00  0.00     0.254 C 
ATOM      6  O   UNL A   1      34.328  28.532  22.886  1.00  0.00    -0.269 OA
ATOM      7  H   UNL A   1      35.257  28.958  24.995  1.00  0.00     0.163 HD
BRANCH   5   8
ATOM      8  C   UNL A   1      32.637  27.215  23.879  1.00  0.00     0.073 A 
ATOM      9  C   UNL A   1      31.389  25.282  24.021  1.00  0.00     0.086 A 
ATOM     10  C   UNL A   1      32.684  25.785  24.078  1.00  0.00     0.022 A 
ATOM     11  N   UNL A   1      30.545  26.360  23.828  1.00  0.00    -0.314 N 
ATOM     12  C   UNL A   1      31.315  27.488  23.538  1.00  0.00     0.059 A 
ATOM     13  C   UNL A   1      29.144  26.398  23.862  1.00  0.00     0.092 A 
ATOM     14  C   UNL A   1      30.612  28.617  23.017  1.00  0.00     0.027 A 
ATOM     15  C   UNL A   1      28.496  27.525  23.528  1.00  0.00     0.018 A 
ATOM     16  C   UNL A   1      29.267  28.650  23.042  1.00  0.00     0.004 A 
BRANCH   9  17
ATOM     17  C   UNL A   1      30.882  23.882  24.148  1.00  0.00     0.315 C 
BRANCH  17  18
ATOM     18  N   UNL A   1      30.837  23.238  22.839  1.00  0.00    -0.353 N 
ATOM     19  H   UNL A   1      30.544  22.267  22.948  1.00  0.00     0.344 HD
ATOM     20  H   UNL A   1      31.764  23.268  22.414  1.00  0.00     0.344 HD
ATOM     21  H   UNL A   1      30.172  23.730  22.242  1.00  0.00     0.344 HD
ENDBRANCH  17  18
ENDBRANCH   9  17
BRANCH  10  22
ATOM     22  C   UNL A   1      33.853  24.942  24.292  1.00  0.00    -0.016 A 
ATOM     23  C   UNL A   1      34.466  24.882  25.548  1.00  0.00     0.009 A 
ATOM     24  C   UNL A   1      34.407  24.224  23.224  1.00  0.00     0.009 A 
ATOM     25  C   UNL A   1      35.624  24.121  25.730  1.00  0.00     0.001 A 
ATOM     26  C   UNL A   1      35.560  23.460  23.408  1.00  0.00     0.001 A 
ATOM     27  C   UNL A   1      36.171  23.412  24.659  1.00  0.00     0.000 A 
ENDBRANCH  10  22
ENDBRANCH   5   8
ENDBRANCH   3   4
ENDBRANCH   2   3
ENDBRANCH   1   2
BRANCH   1  28
ATOM     28  C   UNL A   1      31.374  30.846  25.943  1.00  0.00     0.002 C 
BRANCH  28  29
ATOM     29  C   UNL A   1      31.324  32.078  26.849  1.00  0.00     0.021 C 
BRANCH  29  30
ATOM     30  C   UNL A   1      32.523  33.018  26.786  1.00  0.00     0.116 C 
BRANCH  30  31
ATOM     31  N   UNL A   1      32.377  34.194  27.623  1.00  0.00    -0.352 N 
ATOM     32  C   UNL A   1      33.115  34.601  28.712  1.00  0.00     0.251 C 
ATOM     33  H   UNL A   1      31.637  34.794  27.375  1.00  0.00     0.163 HD
ATOM     34  O   UNL A   1      32.765  35.577  29.361  1.00  0.00    -0.269 OA
BRANCH  32  35
ATOM     35  C   UNL A   1      34.313  33.836  29.127  1.00  0.00     0.039 A 
ATOM     36  C   UNL A   1      35.575  34.351  28.818  1.00  0.00     0.014 A 
ATOM     37  C   UNL A   1      34.199  32.627  29.818  1.00  0.00     0.014 A 
ATOM     38  C   UNL A   1      36.723  33.701  29.281  1.00  0.00     0.010 A 
ATOM     39  C   UNL A   1      35.341  32.014  30.332  1.00  0.00     0.010 A 
ATOM     40  C   UNL A   1      36.612  32.555  30.084  1.00  0.00    -0.014 A 
BRANCH  40  41
ATOM     41  C   UNL A   1      37.806  31.937  30.716  1.00  0.00     0.031 A 
ATOM     42  C   UNL A   1      38.566  30.849  30.011  1.00  0.00     0.074 A 
ATOM     43  C   UNL A   1      38.153  32.298  31.967  1.00  0.00     0.049 A 
ATOM     44  N   UNL A   1      39.561  30.120  30.448  1.00  0.00    -0.248 NA
ATOM     45  C   UNL A   1      38.135  30.524  28.643  1.00  0.00     0.031 C 
ATOM     46  C   UNL A   1      37.473  33.316  32.772  1.00  0.00     0.029 A 
ATOM     47  N   UNL A   1      39.150  31.837  32.790  1.00  0.00    -0.354 N 
ATOM     48  C   UNL A   1      39.870  29.244  29.416  1.00  0.00     0.074 A 
ATOM     49  C   UNL A   1      38.927  29.502  28.348  1.00  0.00     0.031 C 
ATOM     50  C   UNL A   1      38.080  33.411  33.965  1.00  0.00     0.029 A 
ATOM     51  C   UNL A   1      39.161  32.430  34.029  1.00  0.00     0.049 A 
ATOM     52  H   UNL A   1      39.797  31.146  32.518  1.00  0.00     0.167 HD
ATOM     53  C   UNL A   1      40.860  28.322  29.359  1.00  0.00     0.037 A 
ATOM     54  C   UNL A   1      39.937  32.199  35.104  1.00  0.00     0.037 A 
ATOM     55  C   UNL A   1      41.805  28.078  30.418  1.00  0.00     0.049 A 
ATOM     56  C   UNL A   1      41.003  31.143  35.029  1.00  0.00     0.074 A 
ATOM     57  C   UNL A   1      42.882  27.208  30.428  1.00  0.00     0.029 A 
ATOM     58  N   UNL A   1      41.781  28.698  31.658  1.00  0.00    -0.354 N 
ATOM     59  N   UNL A   1      41.324  30.365  34.023  1.00  0.00    -0.248 NA
ATOM     60  C   UNL A   1      41.811  30.927  36.237  1.00  0.00     0.031 C 
ATOM     61  C   UNL A   1      43.478  27.265  31.692  1.00  0.00     0.029 A 
ATOM     62  C   UNL A   1      42.803  28.205  32.452  1.00  0.00     0.049 A 
ATOM     63  H   UNL A   1      41.133  29.387  31.932  1.00  0.00     0.167 HD
ATOM     64  C   UNL A   1      42.384  29.586  34.468  1.00  0.00     0.074 A 
ATOM     65  C   UNL A   1      42.661  29.994  35.831  1.00  0.00     0.031 C 
ATOM     66  C   UNL A   1      43.066  28.619  33.808  1.00  0.00     0.037 A 
BRANCH  53  67
ATOM     67  C   UNL A   1      40.970  27.500  28.106  1.00  0.00     0.057 A 
ATOM     68  C   UNL A   1      40.311  26.271  27.969  1.00  0.00     0.134 A 
ATOM     69  C   UNL A   1      41.710  27.962  27.010  1.00  0.00     0.134 A 
ATOM     70  F   UNL A   1      39.593  25.767  28.984  1.00  0.00    -0.206 F 
ATOM     71  C   UNL A   1      40.405  25.519  26.796  1.00  0.00     0.040 A 
ATOM     72  C   UNL A   1      41.789  27.232  25.823  1.00  0.00     0.040 A 
ATOM     73  F   UNL A   1      42.359  29.134  27.071  1.00  0.00    -0.206 F 
ATOM     74  C   UNL A   1      41.141  26.003  25.716  1.00  0.00     0.006 A 
ENDBRANCH  53  67
BRANCH  54  75
ATOM     75  C   UNL A   1      39.738  32.988  36.347  1.00  0.00     0.057 A 
ATOM     76  C   UNL A   1      38.805  32.588  37.311  1.00  0.00     0.134 A 
ATOM     77  C   UNL A   1      40.469  34.154  36.600  1.00  0.00     0.134 A 
ATOM     78  F   UNL A   1      38.060  31.490  37.116  1.00  0.00    -0.206 F 
ATOM     79  C   UNL A   1      38.596  33.328  38.476  1.00  0.00     0.040 A 
ATOM     80  C   UNL A   1      40.287  34.890  37.773  1.00  0.00     0.040 A 
ATOM     81  F   UNL A   1      41.383  34.587  35.719  1.00  0.00    -0.206 F 
ATOM     82  C   UNL A   1      39.343  34.480  38.711  1.00  0.00     0.006 A 
ENDBRANCH  54  75
BRANCH  66  83
ATOM     83  C   UNL A   1      44.190  27.947  34.540  1.00  0.00     0.057 A 
ATOM     84  C   UNL A   1      44.000  26.752  35.244  1.00  0.00     0.134 A 
ATOM     85  C   UNL A   1      45.486  28.475  34.497  1.00  0.00     0.134 A 
ATOM     86  F   UNL A   1      42.779  26.203  35.337  1.00  0.00    -0.206 F 
ATOM     87  C   UNL A   1      45.058  26.113  35.893  1.00  0.00     0.040 A 
ATOM     88  C   UNL A   1      46.558  27.832  35.120  1.00  0.00     0.040 A 
ATOM     89  F   UNL A   1      45.738  29.613  33.833  1.00  0.00    -0.206 F 
ATOM     90  C   UNL A   1      46.342  26.649  35.824  1.00  0.00     0.006 A 
ENDBRANCH  66  83
ENDBRANCH  40  41
ENDBRANCH  32  35
ENDBRANCH  30  31
ENDBRANCH  29  30
ENDBRANCH  28  29
ENDBRANCH   1  28
TORSDOF 16
ENDMDL
MODEL 2
REMARK VINA RESULT:     -11.5      0.841      6.121
REMARK SMILES [NH3+]Cc1c(-c2ccccc2)c(C(=O)NCCCCCCNC(=O)c2ccc(-c3c4nc(c(-c5c(F)cccc5F)c5ccc([nH]5)c(-c5c(F)cccc5F)c5nc(c(-c6c(F)cccc6F)c6ccc3[nH]6)C=C5)C=C4)cc2)c2ccccn12
REMARK SMILES IDX 17 1 16 2 15 3 14 4 12 5 13 6 11 8 3 9 4 10 83 11 78 12
REMARK SMILES IDX 82 13 79 14 81 15 80 16 2 17 1 18 5 22 6 23 10 24 7 25 9 26
REMARK SMILES IDX 8 27 18 28 19 29 20 30 21 31 22 32 23 34 24 35 25 36 77 37
REMARK SMILES IDX 26 38 76 39 27 40 28 41 29 42 70 43 30 44 75 45 69 46 71 47
REMARK SMILES IDX 31 48 74 49 68 50 67 51 32 53 58 54 41 55 57 56 42 57 45 58
REMARK SMILES IDX 56 59 72 60 43 61 44 62 55 64 73 65 46 66 33 67 34 68 39 69
REMARK SMILES IDX 35 70 36 71 38 72 40 73 37 74 59 75 60 76 65 77 61 78 62 79
REMARK SMILES IDX 64 80 66 81 63 82 47 83 48 84 53 85 49 86 50 87 52 88 54 89
REMARK SMILES IDX 51 90
REMARK H PARENT 14 7 1 19 1 20 1 21 21 33 71 52 45 63
REMARK Flexibility Score: inf
ROOT
ATOM      1  C   UNL A   1      31.833  29.572  26.772  1.00  0.00     0.002 C 
ENDROOT
BRANCH   1   2
ATOM      2  C   UNL A   1      33.287  29.336  27.188  1.00  0.00     0.021 C 
BRANCH   2   3
ATOM      3  C   UNL A   1      34.033  28.196  26.501  1.00  0.00     0.116 C 
BRANCH   3   4
ATOM      4  N   UNL A   1      34.420  28.451  25.133  1.00  0.00    -0.352 N 
ATOM      5  C   UNL A   1      33.803  28.111  23.948  1.00  0.00     0.254 C 
ATOM      6  O   UNL A   1      34.322  28.551  22.921  1.00  0.00    -0.269 OA
ATOM      7  H   UNL A   1      35.262  28.949  25.031  1.00  0.00     0.163 HD
BRANCH   5   8
ATOM      8  C   UNL A   1      32.643  27.212  23.904  1.00  0.00     0.073 A 
ATOM      9  C   UNL A   1      31.402  25.274  24.036  1.00  0.00     0.086 A 
ATOM     10  C   UNL A   1      32.695  25.781  24.098  1.00  0.00     0.022 A 
ATOM     11  N   UNL A   1      30.554  26.349  23.844  1.00  0.00    -0.314 N 
ATOM     12  C   UNL A   1      31.321  27.481  23.561  1.00  0.00     0.059 A 
ATOM     13  C   UNL A   1      29.153  26.382  23.874  1.00  0.00     0.092 A 
ATOM     14  C   UNL A   1      30.615  28.609  23.042  1.00  0.00     0.027 A 
ATOM     15  C   UNL A   1      28.502  27.507  23.543  1.00  0.00     0.018 A 
ATOM     16  C   UNL A   1      29.270  28.637  23.063  1.00  0.00     0.004 A 
BRANCH   9  17
ATOM     17  C   UNL A   1      30.901  23.871  24.156  1.00  0.00     0.315 C 
BRANCH  17  18
ATOM     18  N   UNL A   1      31.001  23.185  22.873  1.00  0.00    -0.353 N 
ATOM     19  H   UNL A   1      31.247  23.857  22.146  1.00  0.00     0.344 HD
ATOM     20  H   UNL A   1      30.105  22.753  22.647  1.00  0.00     0.344 HD
ATOM     21  H   UNL A   1      31.721  22.464  22.928  1.00  0.00     0.344 HD
ENDBRANCH  17  18
ENDBRANCH   9  17
BRANCH  10  22
ATOM     22  C   UNL A   1      33.867  24.942  24.313  1.00  0.00    -0.016 A 
ATOM     23  C   UNL A   1      34.461  24.860  25.577  1.00  0.00     0.009 A 
ATOM     24  C   UNL A   1      34.442  24.251  23.238  1.00  0.00     0.009 A 
ATOM     25  C   UNL A   1      35.622  24.104  25.760  1.00  0.00     0.001 A 
ATOM     26  C   UNL A   1      35.598  23.491  23.424  1.00  0.00     0.001 A 
ATOM     27  C   UNL A   1      36.190  23.421  24.683  1.00  0.00     0.000 A 
ENDBRANCH  10  22
ENDBRANCH   5   8
ENDBRANCH   3   4
ENDBRANCH   2   3
ENDBRANCH   1   2
BRANCH   1  28
ATOM     28  C   UNL A   1      31.521  30.831  25.959  1.00  0.00     0.002 C 
BRANCH  28  29
ATOM     29  C   UNL A   1      31.295  32.128  26.737  1.00  0.00     0.021 C 
BRANCH  29  30
ATOM     30  C   UNL A   1      32.541  32.831  27.265  1.00  0.00     0.116 C 
BRANCH  30  31
ATOM     31  N   UNL A   1      32.306  34.212  27.643  1.00  0.00    -0.352 N 
ATOM     32  C   UNL A   1      32.963  35.001  28.560  1.00  0.00     0.251 C 
ATOM     33  H   UNL A   1      31.562  34.653  27.173  1.00  0.00     0.163 HD
ATOM     34  O   UNL A   1      32.543  36.120  28.821  1.00  0.00    -0.269 OA
BRANCH  32  35
ATOM     35  C   UNL A   1      34.159  34.485  29.264  1.00  0.00     0.039 A 
ATOM     36  C   UNL A   1      33.999  33.940  30.541  1.00  0.00     0.014 A 
ATOM     37  C   UNL A   1      35.426  34.533  28.676  1.00  0.00     0.014 A 
ATOM     38  C   UNL A   1      35.093  33.358  31.191  1.00  0.00     0.010 A 
ATOM     39  C   UNL A   1      36.500  33.898  29.296  1.00  0.00     0.010 A 
ATOM     40  C   UNL A   1      36.340  33.289  30.551  1.00  0.00    -0.014 A 
BRANCH  40  41
ATOM     41  C   UNL A   1      37.475  32.542  31.152  1.00  0.00     0.031 A 
ATOM     42  C   UNL A   1      38.139  33.039  32.404  1.00  0.00     0.074 A 
ATOM     43  C   UNL A   1      37.964  31.459  30.515  1.00  0.00     0.049 A 
ATOM     44  N   UNL A   1      39.205  32.583  33.011  1.00  0.00    -0.248 NA
ATOM     45  C   UNL A   1      37.536  34.216  33.047  1.00  0.00     0.031 C 
ATOM     46  C   UNL A   1      37.431  30.898  29.271  1.00  0.00     0.029 A 
ATOM     47  N   UNL A   1      39.031  30.649  30.813  1.00  0.00    -0.354 N 
ATOM     48  C   UNL A   1      39.408  33.421  34.100  1.00  0.00     0.074 A 
ATOM     49  C   UNL A   1      38.382  34.440  34.044  1.00  0.00     0.031 C 
ATOM     50  C   UNL A   1      38.164  29.829  28.922  1.00  0.00     0.029 A 
ATOM     51  C   UNL A   1      39.246  29.657  29.887  1.00  0.00     0.049 A 
ATOM     52  H   UNL A   1      39.590  30.767  31.615  1.00  0.00     0.167 HD
ATOM     53  C   UNL A   1      40.355  33.338  35.065  1.00  0.00     0.037 A 
ATOM     54  C   UNL A   1      40.215  28.725  29.811  1.00  0.00     0.037 A 
ATOM     55  C   UNL A   1      41.366  32.314  35.124  1.00  0.00     0.049 A 
ATOM     56  C   UNL A   1      41.276  28.678  30.873  1.00  0.00     0.074 A 
ATOM     57  C   UNL A   1      42.329  32.110  36.098  1.00  0.00     0.029 A 
ATOM     58  N   UNL A   1      41.551  31.329  34.166  1.00  0.00    -0.354 N 
ATOM     59  N   UNL A   1      41.418  29.439  31.932  1.00  0.00    -0.248 NA
ATOM     60  C   UNL A   1      42.314  27.648  30.730  1.00  0.00     0.031 C 
ATOM     61  C   UNL A   1      43.129  31.033  35.702  1.00  0.00     0.029 A 
ATOM     62  C   UNL A   1      42.634  30.535  34.509  1.00  0.00     0.049 A 
ATOM     63  H   UNL A   1      40.995  31.211  33.362  1.00  0.00     0.167 HD
ATOM     64  C   UNL A   1      42.545  28.966  32.591  1.00  0.00     0.074 A 
ATOM     65  C   UNL A   1      43.042  27.844  31.821  1.00  0.00     0.031 C 
ATOM     66  C   UNL A   1      43.118  29.422  33.731  1.00  0.00     0.037 A 
BRANCH  53  67
ATOM     67  C   UNL A   1      40.344  34.388  36.138  1.00  0.00     0.057 A 
ATOM     68  C   UNL A   1      39.635  34.214  37.334  1.00  0.00     0.134 A 
ATOM     69  C   UNL A   1      41.084  35.569  35.992  1.00  0.00     0.134 A 
ATOM     70  F   UNL A   1      38.899  33.111  37.535  1.00  0.00    -0.206 F 
ATOM     71  C   UNL A   1      39.641  35.189  38.335  1.00  0.00     0.040 A 
ATOM     72  C   UNL A   1      41.119  36.538  36.996  1.00  0.00     0.040 A 
ATOM     73  F   UNL A   1      41.791  35.795  34.875  1.00  0.00    -0.206 F 
ATOM     74  C   UNL A   1      40.390  36.351  38.169  1.00  0.00     0.006 A 
ENDBRANCH  53  67
BRANCH  54  75
ATOM     75  C   UNL A   1      40.225  27.755  28.685  1.00  0.00     0.057 A 
ATOM     76  C   UNL A   1      39.555  26.531  28.785  1.00  0.00     0.134 A 
ATOM     77  C   UNL A   1      40.900  28.027  27.491  1.00  0.00     0.134 A 
ATOM     78  F   UNL A   1      38.907  26.205  29.913  1.00  0.00    -0.206 F 
ATOM     79  C   UNL A   1      39.570  25.604  27.741  1.00  0.00     0.040 A 
ATOM     80  C   UNL A   1      40.902  27.120  26.429  1.00  0.00     0.040 A 
ATOM     81  F   UNL A   1      41.556  29.187  27.330  1.00  0.00    -0.206 F 
ATOM     82  C   UNL A   1      40.241  25.901  26.557  1.00  0.00     0.006 A 
ENDBRANCH  54  75
BRANCH  66  83
ATOM     83  C   UNL A   1      44.334  28.696  34.228  1.00  0.00     0.057 A 
ATOM     84  C   UNL A   1      45.629  29.116  33.899  1.00  0.00     0.134 A 
ATOM     85  C   UNL A   1      44.208  27.597  35.087  1.00  0.00     0.134 A 
ATOM     86  F   UNL A   1      45.816  30.153  33.068  1.00  0.00    -0.206 F 
ATOM     87  C   UNL A   1      46.756  28.459  34.394  1.00  0.00     0.040 A 
ATOM     88  C   UNL A   1      45.328  26.947  35.609  1.00  0.00     0.040 A 
ATOM     89  F   UNL A   1      42.997  27.149  35.448  1.00  0.00    -0.206 F 
ATOM     90  C   UNL A   1      46.606  27.376  35.258  1.00  0.00     0.006 A 
ENDBRANCH  66  83
ENDBRANCH  40  41
ENDBRANCH  32  35
ENDBRANCH  30  31
ENDBRANCH  29  30
ENDBRANCH  28  29
ENDBRANCH   1  28
TORSDOF 16
ENDMDL
MODEL 3
REMARK VINA RESULT:     -11.5      2.879      8.384
REMARK SMILES [NH3+]Cc1c(-c2ccccc2)c(C(=O)NCCCCCCNC(=O)c2ccc(-c3c4nc(c(-c5c(F)cccc5F)c5ccc([nH]5)c(-c5c(F)cccc5F)c5nc(c(-c6c(F)cccc6F)c6ccc3[nH]6)C=C5)C=C4)cc2)c2ccccn12
REMARK SMILES IDX 17 1 16 2 15 3 14 4 12 5 13 6 11 8 3 9 4 10 83 11 78 12
REMARK SMILES IDX 82 13 79 14 81 15 80 16 2 17 1 18 5 22 6 23 10 24 7 25 9 26
REMARK SMILES IDX 8 27 18 28 19 29 20 30 21 31 22 32 23 34 24 35 25 36 77 37
REMARK SMILES IDX 26 38 76 39 27 40 28 41 29 42 70 43 30 44 75 45 69 46 71 47
REMARK SMILES IDX 31 48 74 49 68 50 67 51 32 53 58 54 41 55 57 56 42 57 45 58
REMARK SMILES IDX 56 59 72 60 43 61 44 62 55 64 73 65 46 66 33 67 34 68 39 69
REMARK SMILES IDX 35 70 36 71 38 72 40 73 37 74 59 75 60 76 65 77 61 78 62 79
REMARK SMILES IDX 64 80 66 81 63 82 47 83 48 84 53 85 49 86 50 87 52 88 54 89
REMARK SMILES IDX 51 90
REMARK H PARENT 14 7 1 19 1 20 1 21 21 33 71 52 45 63
REMARK Flexibility Score: inf
ROOT
ATOM      1  C   UNL A   1      39.274  21.862  26.133  1.00  0.00     0.002 C 
ENDROOT
BRANCH   1   2
ATOM      2  C   UNL A   1      38.674  23.220  26.506  1.00  0.00     0.021 C 
BRANCH   2   3
ATOM      3  C   UNL A   1      37.336  23.590  25.872  1.00  0.00     0.116 C 
BRANCH   3   4
ATOM      4  N   UNL A   1      37.258  23.396  24.443  1.00  0.00    -0.352 N 
ATOM      5  C   UNL A   1      36.188  23.065  23.639  1.00  0.00     0.254 C 
ATOM      6  O   UNL A   1      36.402  23.061  22.427  1.00  0.00    -0.269 OA
ATOM      7  H   UNL A   1      38.109  23.520  23.965  1.00  0.00     0.163 HD
BRANCH   5   8
ATOM      8  C   UNL A   1      34.891  22.662  24.198  1.00  0.00     0.073 A 
ATOM      9  C   UNL A   1      32.743  22.830  25.018  1.00  0.00     0.086 A 
ATOM     10  C   UNL A   1      33.834  23.572  24.577  1.00  0.00     0.022 A 
ATOM     11  N   UNL A   1      33.082  21.496  24.890  1.00  0.00    -0.314 N 
ATOM     12  C   UNL A   1      34.444  21.405  24.593  1.00  0.00     0.059 A 
ATOM     13  C   UNL A   1      32.273  20.362  25.050  1.00  0.00     0.092 A 
ATOM     14  C   UNL A   1      35.034  20.110  24.722  1.00  0.00     0.027 A 
ATOM     15  C   UNL A   1      32.818  19.138  25.002  1.00  0.00     0.018 A 
ATOM     16  C   UNL A   1      34.257  19.023  24.884  1.00  0.00     0.004 A 
BRANCH   9  17
ATOM     17  C   UNL A   1      31.411  23.272  25.531  1.00  0.00     0.315 C 
BRANCH  17  18
ATOM     18  N   UNL A   1      30.610  23.833  24.448  1.00  0.00    -0.353 N 
ATOM     19  H   UNL A   1      30.890  24.800  24.285  1.00  0.00     0.344 HD
ATOM     20  H   UNL A   1      29.623  23.802  24.704  1.00  0.00     0.344 HD
ATOM     21  H   UNL A   1      30.758  23.287  23.598  1.00  0.00     0.344 HD
ENDBRANCH  17  18
ENDBRANCH   9  17
BRANCH  10  22
ATOM     22  C   UNL A   1      33.842  25.028  24.544  1.00  0.00    -0.016 A 
ATOM     23  C   UNL A   1      34.016  25.764  25.721  1.00  0.00     0.009 A 
ATOM     24  C   UNL A   1      33.621  25.705  23.338  1.00  0.00     0.009 A 
ATOM     25  C   UNL A   1      33.959  27.161  25.692  1.00  0.00     0.001 A 
ATOM     26  C   UNL A   1      33.570  27.100  23.309  1.00  0.00     0.001 A 
ATOM     27  C   UNL A   1      33.735  27.827  24.486  1.00  0.00     0.000 A 
ENDBRANCH  10  22
ENDBRANCH   5   8
ENDBRANCH   3   4
ENDBRANCH   2   3
ENDBRANCH   1   2
BRANCH   1  28
ATOM     28  C   UNL A   1      40.457  21.356  26.962  1.00  0.00     0.002 C 
BRANCH  28  29
ATOM     29  C   UNL A   1      41.776  21.116  26.226  1.00  0.00     0.021 C 
BRANCH  29  30
ATOM     30  C   UNL A   1      42.985  21.902  26.724  1.00  0.00     0.116 C 
BRANCH  30  31
ATOM     31  N   UNL A   1      43.713  22.572  25.662  1.00  0.00    -0.352 N 
ATOM     32  C   UNL A   1      43.853  23.915  25.399  1.00  0.00     0.251 C 
ATOM     33  H   UNL A   1      44.178  21.974  25.034  1.00  0.00     0.163 HD
ATOM     34  O   UNL A   1      44.422  24.286  24.382  1.00  0.00    -0.269 OA
BRANCH  32  35
ATOM     35  C   UNL A   1      43.281  24.920  26.325  1.00  0.00     0.039 A 
ATOM     36  C   UNL A   1      42.180  24.558  27.107  1.00  0.00     0.014 A 
ATOM     37  C   UNL A   1      43.823  26.203  26.429  1.00  0.00     0.014 A 
ATOM     38  C   UNL A   1      41.679  25.451  28.058  1.00  0.00     0.010 A 
ATOM     39  C   UNL A   1      43.364  27.069  27.420  1.00  0.00     0.010 A 
ATOM     40  C   UNL A   1      42.300  26.695  28.255  1.00  0.00    -0.014 A 
BRANCH  40  41
ATOM     41  C   UNL A   1      41.886  27.596  29.362  1.00  0.00     0.031 A 
ATOM     42  C   UNL A   1      42.579  27.539  30.694  1.00  0.00     0.074 A 
ATOM     43  C   UNL A   1      40.823  28.407  29.191  1.00  0.00     0.049 A 
ATOM     44  N   UNL A   1      42.289  28.166  31.804  1.00  0.00    -0.248 NA
ATOM     45  C   UNL A   1      43.740  26.640  30.794  1.00  0.00     0.031 C 
ATOM     46  C   UNL A   1      40.043  28.529  27.958  1.00  0.00     0.029 A 
ATOM     47  N   UNL A   1      40.203  29.269  30.062  1.00  0.00    -0.354 N 
ATOM     48  C   UNL A   1      43.220  27.733  32.739  1.00  0.00     0.074 A 
ATOM     49  C   UNL A   1      44.058  26.755  32.077  1.00  0.00     0.031 C 
ATOM     50  C   UNL A   1      39.058  29.421  28.146  1.00  0.00     0.029 A 
ATOM     51  C   UNL A   1      39.107  29.900  29.525  1.00  0.00     0.049 A 
ATOM     52  H   UNL A   1      40.514  29.420  30.984  1.00  0.00     0.167 HD
ATOM     53  C   UNL A   1      43.372  28.128  34.025  1.00  0.00     0.037 A 
ATOM     54  C   UNL A   1      38.227  30.752  30.084  1.00  0.00     0.037 A 
ATOM     55  C   UNL A   1      42.546  29.111  34.676  1.00  0.00     0.049 A 
ATOM     56  C   UNL A   1      38.395  31.144  31.525  1.00  0.00     0.074 A 
ATOM     57  C   UNL A   1      42.663  29.623  35.957  1.00  0.00     0.029 A 
ATOM     58  N   UNL A   1      41.445  29.726  34.100  1.00  0.00    -0.354 N 
ATOM     59  N   UNL A   1      39.319  30.774  32.378  1.00  0.00    -0.248 NA
ATOM     60  C   UNL A   1      37.396  32.067  32.082  1.00  0.00     0.031 C 
ATOM     61  C   UNL A   1      41.601  30.508  36.173  1.00  0.00     0.029 A 
ATOM     62  C   UNL A   1      40.853  30.586  35.011  1.00  0.00     0.049 A 
ATOM     63  H   UNL A   1      41.131  29.573  33.179  1.00  0.00     0.167 HD
ATOM     64  C   UNL A   1      39.028  31.435  33.564  1.00  0.00     0.074 A 
ATOM     65  C   UNL A   1      37.848  32.240  33.317  1.00  0.00     0.031 C 
ATOM     66  C   UNL A   1      39.678  31.379  34.751  1.00  0.00     0.037 A 
BRANCH  53  67
ATOM     67  C   UNL A   1      44.476  27.490  34.820  1.00  0.00     0.057 A 
ATOM     68  C   UNL A   1      45.764  28.039  34.867  1.00  0.00     0.134 A 
ATOM     69  C   UNL A   1      44.237  26.337  35.579  1.00  0.00     0.134 A 
ATOM     70  F   UNL A   1      46.062  29.137  34.156  1.00  0.00    -0.206 F 
ATOM     71  C   UNL A   1      46.782  27.449  35.620  1.00  0.00     0.040 A 
ATOM     72  C   UNL A   1      45.240  25.754  36.356  1.00  0.00     0.040 A 
ATOM     73  F   UNL A   1      43.024  25.764  35.585  1.00  0.00    -0.206 F 
ATOM     74  C   UNL A   1      46.519  26.307  36.372  1.00  0.00     0.006 A 
ENDBRANCH  53  67
BRANCH  54  75
ATOM     75  C   UNL A   1      37.106  31.296  29.275  1.00  0.00     0.057 A 
ATOM     76  C   UNL A   1      37.145  32.604  28.779  1.00  0.00     0.134 A 
ATOM     77  C   UNL A   1      35.974  30.528  28.981  1.00  0.00     0.134 A 
ATOM     78  F   UNL A   1      38.194  33.396  29.045  1.00  0.00    -0.206 F 
ATOM     79  C   UNL A   1      36.092  33.134  28.032  1.00  0.00     0.040 A 
ATOM     80  C   UNL A   1      34.924  31.037  28.214  1.00  0.00     0.040 A 
ATOM     81  F   UNL A   1      35.878  29.264  29.422  1.00  0.00    -0.206 F 
ATOM     82  C   UNL A   1      34.979  32.346  27.743  1.00  0.00     0.006 A 
ENDBRANCH  54  75
BRANCH  66  83
ATOM     83  C   UNL A   1      39.143  32.225  35.870  1.00  0.00     0.057 A 
ATOM     84  C   UNL A   1      38.269  31.706  36.833  1.00  0.00     0.134 A 
ATOM     85  C   UNL A   1      39.547  33.558  36.013  1.00  0.00     0.134 A 
ATOM     86  F   UNL A   1      37.831  30.441  36.743  1.00  0.00    -0.206 F 
ATOM     87  C   UNL A   1      37.804  32.489  37.891  1.00  0.00     0.040 A 
ATOM     88  C   UNL A   1      39.110  34.343  37.081  1.00  0.00     0.040 A 
ATOM     89  F   UNL A   1      40.389  34.114  35.129  1.00  0.00    -0.206 F 
ATOM     90  C   UNL A   1      38.231  33.808  38.021  1.00  0.00     0.006 A 
ENDBRANCH  66  83
ENDBRANCH  40  41
ENDBRANCH  32  35
ENDBRANCH  30  31
ENDBRANCH  29  30
ENDBRANCH  28  29
ENDBRANCH   1  28
TORSDOF 16
ENDMDL
