MODEL 1
REMARK VINA RESULT:     -11.9      0.000      0.000
REMARK SMILES O=C(NCCCCCCNC(=O)[C@H](Cc1ccccn1)[C@H]1CCS(=O)(=O)C1)c1ccc(-c2c3nc(c(-c4c(F)cccc4F)c4ccc([nH]4)c(-c4c(F)cccc4F)c4nc(c(-c5c(F)cccc5F)c5ccc2[nH]5)C=C4)C=C3)cc1
REMARK SMILES IDX 6 1 5 2 4 3 3 4 1 5 2 6 28 8 29 9 81 10 30 11 80 12 31 13
REMARK SMILES IDX 32 14 33 15 74 16 34 17 79 18 73 19 75 20 35 21 78 22 72 23
REMARK SMILES IDX 71 24 36 26 62 27 45 28 61 29 46 30 49 31 60 32 76 33 47 34
REMARK SMILES IDX 48 35 59 37 77 38 50 39 37 40 38 41 43 42 39 43 40 44 42 45
REMARK SMILES IDX 44 46 41 47 63 48 64 49 69 50 65 51 66 52 68 53 70 54 67 55
REMARK SMILES IDX 51 56 52 57 57 58 53 59 54 60 56 61 58 62 55 63 7 64 8 65
REMARK SMILES IDX 9 66 10 67 11 68 12 70 13 71 14 72 15 73 16 74 20 75 17 76
REMARK SMILES IDX 19 77 18 78 21 79 22 80 27 81 23 82 24 83 25 84 26 85
REMARK H PARENT 3 7 75 25 49 36 10 69
REMARK Flexibility Score: inf
ROOT
ATOM      1  C   UNL A   1      36.754  20.419  24.791  1.00  0.00     0.002 C 
ENDROOT
BRANCH   1   2
ATOM      2  C   UNL A   1      37.888  19.416  25.002  1.00  0.00     0.021 C 
BRANCH   2   3
ATOM      3  C   UNL A   1      39.100  19.977  25.738  1.00  0.00     0.116 C 
BRANCH   3   4
ATOM      4  N   UNL A   1      40.194  19.020  25.798  1.00  0.00    -0.352 N 
ATOM      5  O   UNL A   1      42.351  18.350  25.751  1.00  0.00    -0.269 OA
ATOM      6  C   UNL A   1      41.540  19.248  25.954  1.00  0.00     0.251 C 
ATOM      7  H   UNL A   1      39.933  18.076  25.716  1.00  0.00     0.163 HD
BRANCH   6   8
ATOM      8  C   UNL A   1      42.010  20.590  26.358  1.00  0.00     0.039 A 
ATOM      9  C   UNL A   1      42.269  21.560  25.390  1.00  0.00     0.014 A 
ATOM     10  C   UNL A   1      42.176  20.888  27.713  1.00  0.00     0.014 A 
ATOM     11  C   UNL A   1      42.840  22.769  25.761  1.00  0.00     0.010 A 
ATOM     12  C   UNL A   1      42.646  22.150  28.094  1.00  0.00     0.010 A 
ATOM     13  C   UNL A   1      43.002  23.095  27.119  1.00  0.00    -0.014 A 
BRANCH  13  14
ATOM     14  C   UNL A   1      43.439  24.469  27.473  1.00  0.00     0.031 A 
ATOM     15  C   UNL A   1      44.872  24.901  27.348  1.00  0.00     0.074 A 
ATOM     16  C   UNL A   1      42.498  25.347  27.874  1.00  0.00     0.049 A 
ATOM     17  N   UNL A   1      45.396  26.079  27.579  1.00  0.00    -0.248 NA
ATOM     18  C   UNL A   1      45.846  23.889  26.914  1.00  0.00     0.031 C 
ATOM     19  C   UNL A   1      41.076  25.035  28.053  1.00  0.00     0.029 A 
ATOM     20  N   UNL A   1      42.581  26.681  28.181  1.00  0.00    -0.354 N 
ATOM     21  C   UNL A   1      46.756  25.951  27.327  1.00  0.00     0.074 A 
ATOM     22  C   UNL A   1      46.985  24.570  26.955  1.00  0.00     0.031 C 
ATOM     23  C   UNL A   1      40.415  26.151  28.381  1.00  0.00     0.029 A 
ATOM     24  C   UNL A   1      41.371  27.241  28.516  1.00  0.00     0.049 A 
ATOM     25  H   UNL A   1      43.425  27.187  28.164  1.00  0.00     0.167 HD
ATOM     26  C   UNL A   1      47.720  26.902  27.391  1.00  0.00     0.037 A 
ATOM     27  C   UNL A   1      41.066  28.488  28.914  1.00  0.00     0.037 A 
ATOM     28  C   UNL A   1      47.483  28.274  27.766  1.00  0.00     0.049 A 
ATOM     29  C   UNL A   1      42.166  29.504  29.017  1.00  0.00     0.074 A 
ATOM     30  C   UNL A   1      48.393  29.316  27.842  1.00  0.00     0.029 A 
ATOM     31  N   UNL A   1      46.252  28.797  28.136  1.00  0.00    -0.354 N 
ATOM     32  N   UNL A   1      43.438  29.376  28.734  1.00  0.00    -0.248 NA
ATOM     33  C   UNL A   1      41.785  30.839  29.495  1.00  0.00     0.031 C 
ATOM     34  C   UNL A   1      47.723  30.453  28.307  1.00  0.00     0.029 A 
ATOM     35  C   UNL A   1      46.384  30.137  28.463  1.00  0.00     0.049 A 
ATOM     36  H   UNL A   1      45.409  28.288  28.162  1.00  0.00     0.167 HD
ATOM     37  C   UNL A   1      44.008  30.616  28.983  1.00  0.00     0.074 A 
ATOM     38  C   UNL A   1      42.934  31.491  29.405  1.00  0.00     0.031 C 
ATOM     39  C   UNL A   1      45.305  30.996  28.882  1.00  0.00     0.037 A 
BRANCH  26  40
ATOM     40  C   UNL A   1      49.129  26.499  27.057  1.00  0.00     0.057 A 
ATOM     41  C   UNL A   1      50.012  26.021  28.034  1.00  0.00     0.134 A 
ATOM     42  C   UNL A   1      49.582  26.509  25.731  1.00  0.00     0.134 A 
ATOM     43  F   UNL A   1      49.647  25.992  29.326  1.00  0.00    -0.206 F 
ATOM     44  C   UNL A   1      51.297  25.582  27.707  1.00  0.00     0.040 A 
ATOM     45  C   UNL A   1      50.854  26.048  25.388  1.00  0.00     0.040 A 
ATOM     46  F   UNL A   1      48.786  26.945  24.743  1.00  0.00    -0.206 F 
ATOM     47  C   UNL A   1      51.717  25.585  26.377  1.00  0.00     0.006 A 
ENDBRANCH  26  40
BRANCH  27  48
ATOM     48  C   UNL A   1      39.668  28.837  29.276  1.00  0.00     0.057 A 
ATOM     49  C   UNL A   1      39.187  28.667  30.579  1.00  0.00     0.134 A 
ATOM     50  C   UNL A   1      38.770  29.324  28.317  1.00  0.00     0.134 A 
ATOM     51  F   UNL A   1      39.993  28.190  31.540  1.00  0.00    -0.206 F 
ATOM     52  C   UNL A   1      37.858  28.934  30.907  1.00  0.00     0.040 A 
ATOM     53  C   UNL A   1      37.449  29.630  28.640  1.00  0.00     0.040 A 
ATOM     54  F   UNL A   1      39.170  29.521  27.052  1.00  0.00    -0.206 F 
ATOM     55  C   UNL A   1      36.985  29.422  29.936  1.00  0.00     0.006 A 
ENDBRANCH  27  48
BRANCH  39  56
ATOM     56  C   UNL A   1      45.617  32.430  29.203  1.00  0.00     0.057 A 
ATOM     57  C   UNL A   1      45.552  33.438  28.233  1.00  0.00     0.134 A 
ATOM     58  C   UNL A   1      45.991  32.804  30.500  1.00  0.00     0.134 A 
ATOM     59  F   UNL A   1      45.215  33.145  26.967  1.00  0.00    -0.206 F 
ATOM     60  C   UNL A   1      45.885  34.760  28.532  1.00  0.00     0.040 A 
ATOM     61  C   UNL A   1      46.295  34.127  30.818  1.00  0.00     0.040 A 
ATOM     62  F   UNL A   1      46.066  31.889  31.479  1.00  0.00    -0.206 F 
ATOM     63  C   UNL A   1      46.254  35.108  29.830  1.00  0.00     0.006 A 
ENDBRANCH  39  56
ENDBRANCH  13  14
ENDBRANCH   6   8
ENDBRANCH   3   4
ENDBRANCH   2   3
ENDBRANCH   1   2
BRANCH   1  64
ATOM     64  C   UNL A   1      37.203  21.846  24.474  1.00  0.00     0.002 C 
BRANCH  64  65
ATOM     65  C   UNL A   1      36.300  22.601  23.500  1.00  0.00     0.021 C 
BRANCH  65  66
ATOM     66  C   UNL A   1      35.180  23.419  24.134  1.00  0.00     0.116 C 
BRANCH  66  67
ATOM     67  N   UNL A   1      33.958  23.197  23.397  1.00  0.00    -0.356 N 
ATOM     68  C   UNL A   1      33.219  22.066  23.253  1.00  0.00     0.223 C 
ATOM     69  H   UNL A   1      33.606  23.987  22.925  1.00  0.00     0.163 HD
ATOM     70  O   UNL A   1      32.460  22.037  22.281  1.00  0.00    -0.275 OA
BRANCH  68  71
ATOM     71  C   UNL A   1      33.231  20.941  24.306  1.00  0.00     0.088 C 
BRANCH  71  72
ATOM     72  C   UNL A   1      32.554  19.632  23.841  1.00  0.00     0.070 C 
BRANCH  72  73
ATOM     73  C   UNL A   1      33.058  18.300  24.328  1.00  0.00     0.041 A 
ATOM     74  C   UNL A   1      34.382  17.896  24.179  1.00  0.00     0.024 A 
ATOM     75  N   UNL A   1      32.153  17.547  25.001  1.00  0.00    -0.261 NA
ATOM     76  C   UNL A   1      34.770  16.660  24.703  1.00  0.00     0.003 A 
ATOM     77  C   UNL A   1      32.555  16.362  25.507  1.00  0.00     0.111 A 
ATOM     78  C   UNL A   1      33.841  15.873  25.376  1.00  0.00     0.020 A 
ENDBRANCH  72  73
ENDBRANCH  71  72
BRANCH  71  79
ATOM     79  C   UNL A   1      32.496  21.526  25.567  1.00  0.00     0.018 C 
ATOM     80  C   UNL A   1      33.424  22.013  26.709  1.00  0.00     0.021 C 
ATOM     81  C   UNL A   1      31.593  22.732  25.274  1.00  0.00     0.141 C 
ATOM     82  C   UNL A   1      32.529  22.619  27.780  1.00  0.00     0.137 C 
ATOM     83  S   UNL A   1      31.227  23.444  26.881  1.00  0.00     0.150 S 
ATOM     84  O   UNL A   1      29.953  22.935  27.336  1.00  0.00    -0.229 OA
ATOM     85  O   UNL A   1      31.520  24.864  26.828  1.00  0.00    -0.229 OA
ENDBRANCH  71  79
ENDBRANCH  68  71
ENDBRANCH  66  67
ENDBRANCH  65  66
ENDBRANCH  64  65
ENDBRANCH   1  64
TORSDOF 16
ENDMDL
MODEL 2
REMARK VINA RESULT:     -11.8      0.296      6.310
REMARK SMILES O=C(NCCCCCCNC(=O)[C@H](Cc1ccccn1)[C@H]1CCS(=O)(=O)C1)c1ccc(-c2c3nc(c(-c4c(F)cccc4F)c4ccc([nH]4)c(-c4c(F)cccc4F)c4nc(c(-c5c(F)cccc5F)c5ccc2[nH]5)C=C4)C=C3)cc1
REMARK SMILES IDX 6 1 5 2 4 3 3 4 1 5 2 6 28 8 29 9 81 10 30 11 80 12 31 13
REMARK SMILES IDX 32 14 33 15 74 16 34 17 79 18 73 19 75 20 35 21 78 22 72 23
REMARK SMILES IDX 71 24 36 26 62 27 45 28 61 29 46 30 49 31 60 32 76 33 47 34
REMARK SMILES IDX 48 35 59 37 77 38 50 39 37 40 38 41 43 42 39 43 40 44 42 45
REMARK SMILES IDX 44 46 41 47 63 48 64 49 69 50 65 51 66 52 68 53 70 54 67 55
REMARK SMILES IDX 51 56 52 57 57 58 53 59 54 60 56 61 58 62 55 63 7 64 8 65
REMARK SMILES IDX 9 66 10 67 11 68 12 70 13 71 14 72 15 73 16 74 20 75 17 76
REMARK SMILES IDX 19 77 18 78 21 79 22 80 27 81 23 82 24 83 25 84 26 85
REMARK H PARENT 3 7 75 25 49 36 10 69
REMARK Flexibility Score: inf
ROOT
ATOM      1  C   UNL A   1      36.787  20.456  24.831  1.00  0.00     0.002 C 
ENDROOT
BRANCH   1   2
ATOM      2  C   UNL A   1      38.002  19.531  24.895  1.00  0.00     0.021 C 
BRANCH   2   3
ATOM      3  C   UNL A   1      39.049  19.933  25.928  1.00  0.00     0.116 C 
BRANCH   3   4
ATOM      4  N   UNL A   1      40.168  19.004  25.962  1.00  0.00    -0.352 N 
ATOM      5  O   UNL A   1      42.338  18.385  25.847  1.00  0.00    -0.269 OA
ATOM      6  C   UNL A   1      41.513  19.267  26.065  1.00  0.00     0.251 C 
ATOM      7  H   UNL A   1      39.928  18.052  25.904  1.00  0.00     0.163 HD
BRANCH   6   8
ATOM      8  C   UNL A   1      41.963  20.626  26.433  1.00  0.00     0.039 A 
ATOM      9  C   UNL A   1      42.191  21.578  25.440  1.00  0.00     0.014 A 
ATOM     10  C   UNL A   1      42.143  20.958  27.779  1.00  0.00     0.014 A 
ATOM     11  C   UNL A   1      42.745  22.806  25.776  1.00  0.00     0.010 A 
ATOM     12  C   UNL A   1      42.595  22.236  28.124  1.00  0.00     0.010 A 
ATOM     13  C   UNL A   1      42.919  23.165  27.124  1.00  0.00    -0.014 A 
BRANCH  13  14
ATOM     14  C   UNL A   1      43.336  24.554  27.441  1.00  0.00     0.031 A 
ATOM     15  C   UNL A   1      42.349  25.596  27.884  1.00  0.00     0.074 A 
ATOM     16  C   UNL A   1      44.649  24.853  27.362  1.00  0.00     0.049 A 
ATOM     17  N   UNL A   1      42.571  26.838  28.235  1.00  0.00    -0.248 NA
ATOM     18  C   UNL A   1      40.933  25.203  27.938  1.00  0.00     0.031 C 
ATOM     19  C   UNL A   1      45.698  23.927  26.923  1.00  0.00     0.029 A 
ATOM     20  N   UNL A   1      45.333  26.001  27.667  1.00  0.00    -0.354 N 
ATOM     21  C   UNL A   1      41.329  27.377  28.545  1.00  0.00     0.074 A 
ATOM     22  C   UNL A   1      40.350  26.336  28.310  1.00  0.00     0.031 C 
ATOM     23  C   UNL A   1      46.891  24.522  27.040  1.00  0.00     0.029 A 
ATOM     24  C   UNL A   1      46.690  25.894  27.484  1.00  0.00     0.049 A 
ATOM     25  H   UNL A   1      44.893  26.822  27.986  1.00  0.00     0.167 HD
ATOM     26  C   UNL A   1      41.038  28.623  28.994  1.00  0.00     0.037 A 
ATOM     27  C   UNL A   1      47.667  26.806  27.631  1.00  0.00     0.037 A 
ATOM     28  C   UNL A   1      42.019  29.654  29.222  1.00  0.00     0.049 A 
ATOM     29  C   UNL A   1      47.302  28.189  28.087  1.00  0.00     0.074 A 
ATOM     30  C   UNL A   1      41.822  30.942  29.694  1.00  0.00     0.029 A 
ATOM     31  N   UNL A   1      43.381  29.522  28.989  1.00  0.00    -0.354 N 
ATOM     32  N   UNL A   1      46.128  28.668  28.415  1.00  0.00    -0.248 NA
ATOM     33  C   UNL A   1      48.401  29.158  28.191  1.00  0.00     0.031 C 
ATOM     34  C   UNL A   1      43.055  31.603  29.696  1.00  0.00     0.029 A 
ATOM     35  C   UNL A   1      44.030  30.711  29.285  1.00  0.00     0.049 A 
ATOM     36  H   UNL A   1      43.819  28.704  28.662  1.00  0.00     0.167 HD
ATOM     37  C   UNL A   1      46.348  29.988  28.782  1.00  0.00     0.074 A 
ATOM     38  C   UNL A   1      47.772  30.221  28.670  1.00  0.00     0.031 C 
ATOM     39  C   UNL A   1      45.450  30.928  29.168  1.00  0.00     0.037 A 
BRANCH  26  40
ATOM     40  C   UNL A   1      39.596  28.954  29.264  1.00  0.00     0.057 A 
ATOM     41  C   UNL A   1      38.737  29.394  28.249  1.00  0.00     0.134 A 
ATOM     42  C   UNL A   1      39.040  28.751  30.534  1.00  0.00     0.134 A 
ATOM     43  F   UNL A   1      39.204  29.618  27.011  1.00  0.00    -0.206 F 
ATOM     44  C   UNL A   1      37.381  29.632  28.491  1.00  0.00     0.040 A 
ATOM     45  C   UNL A   1      37.683  28.960  30.781  1.00  0.00     0.040 A 
ATOM     46  F   UNL A   1      39.804  28.321  31.551  1.00  0.00    -0.206 F 
ATOM     47  C   UNL A   1      36.849  29.405  29.759  1.00  0.00     0.006 A 
ENDBRANCH  26  40
BRANCH  27  48
ATOM     48  C   UNL A   1      49.075  26.453  27.314  1.00  0.00     0.057 A 
ATOM     49  C   UNL A   1      49.554  26.472  25.999  1.00  0.00     0.134 A 
ATOM     50  C   UNL A   1      49.968  26.059  28.319  1.00  0.00     0.134 A 
ATOM     51  F   UNL A   1      48.743  26.826  24.990  1.00  0.00    -0.206 F 
ATOM     52  C   UNL A   1      50.857  26.081  25.691  1.00  0.00     0.040 A 
ATOM     53  C   UNL A   1      51.284  25.701  28.029  1.00  0.00     0.040 A 
ATOM     54  F   UNL A   1      49.577  26.030  29.601  1.00  0.00    -0.206 F 
ATOM     55  C   UNL A   1      51.728  25.698  26.709  1.00  0.00     0.006 A 
ENDBRANCH  27  48
BRANCH  39  56
ATOM     56  C   UNL A   1      45.998  32.279  29.526  1.00  0.00     0.057 A 
ATOM     57  C   UNL A   1      46.414  32.589  30.827  1.00  0.00     0.134 A 
ATOM     58  C   UNL A   1      46.106  33.284  28.556  1.00  0.00     0.134 A 
ATOM     59  F   UNL A   1      46.322  31.677  31.807  1.00  0.00    -0.206 F 
ATOM     60  C   UNL A   1      46.882  33.862  31.159  1.00  0.00     0.040 A 
ATOM     61  C   UNL A   1      46.603  34.549  28.869  1.00  0.00     0.040 A 
ATOM     62  F   UNL A   1      45.733  33.052  27.288  1.00  0.00    -0.206 F 
ATOM     63  C   UNL A   1      46.981  34.845  30.177  1.00  0.00     0.006 A 
ENDBRANCH  39  56
ENDBRANCH  13  14
ENDBRANCH   6   8
ENDBRANCH   3   4
ENDBRANCH   2   3
ENDBRANCH   1   2
BRANCH   1  64
ATOM     64  C   UNL A   1      37.104  21.923  24.541  1.00  0.00     0.002 C 
BRANCH  64  65
ATOM     65  C   UNL A   1      36.197  22.582  23.503  1.00  0.00     0.021 C 
BRANCH  65  66
ATOM     66  C   UNL A   1      35.148  23.542  24.054  1.00  0.00     0.116 C 
BRANCH  66  67
ATOM     67  N   UNL A   1      33.901  23.330  23.356  1.00  0.00    -0.356 N 
ATOM     68  C   UNL A   1      33.161  22.199  23.217  1.00  0.00     0.223 C 
ATOM     69  H   UNL A   1      33.531  24.127  22.912  1.00  0.00     0.163 HD
ATOM     70  O   UNL A   1      32.369  22.185  22.271  1.00  0.00    -0.275 OA
BRANCH  68  71
ATOM     71  C   UNL A   1      33.213  21.054  24.246  1.00  0.00     0.088 C 
BRANCH  71  72
ATOM     72  C   UNL A   1      32.541  19.746  23.772  1.00  0.00     0.070 C 
BRANCH  72  73
ATOM     73  C   UNL A   1      33.004  18.416  24.306  1.00  0.00     0.041 A 
ATOM     74  C   UNL A   1      34.244  17.869  23.992  1.00  0.00     0.024 A 
ATOM     75  N   UNL A   1      32.163  17.820  25.187  1.00  0.00    -0.261 NA
ATOM     76  C   UNL A   1      34.608  16.650  24.571  1.00  0.00     0.003 A 
ATOM     77  C   UNL A   1      32.541  16.647  25.741  1.00  0.00     0.111 A 
ATOM     78  C   UNL A   1      33.740  16.022  25.458  1.00  0.00     0.020 A 
ENDBRANCH  72  73
ENDBRANCH  71  72
BRANCH  71  79
ATOM     79  C   UNL A   1      32.501  21.604  25.536  1.00  0.00     0.018 C 
ATOM     80  C   UNL A   1      33.451  22.077  26.666  1.00  0.00     0.021 C 
ATOM     81  C   UNL A   1      31.580  22.807  25.289  1.00  0.00     0.141 C 
ATOM     82  C   UNL A   1      32.575  22.652  27.770  1.00  0.00     0.137 C 
ATOM     83  S   UNL A   1      31.245  23.482  26.918  1.00  0.00     0.150 S 
ATOM     84  O   UNL A   1      29.987  22.950  27.392  1.00  0.00    -0.229 OA
ATOM     85  O   UNL A   1      31.523  24.905  26.890  1.00  0.00    -0.229 OA
ENDBRANCH  71  79
ENDBRANCH  68  71
ENDBRANCH  66  67
ENDBRANCH  65  66
ENDBRANCH  64  65
ENDBRANCH   1  64
TORSDOF 16
ENDMDL
MODEL 3
REMARK VINA RESULT:     -11.7      5.310      9.690
REMARK SMILES O=C(NCCCCCCNC(=O)[C@H](Cc1ccccn1)[C@H]1CCS(=O)(=O)C1)c1ccc(-c2c3nc(c(-c4c(F)cccc4F)c4ccc([nH]4)c(-c4c(F)cccc4F)c4nc(c(-c5c(F)cccc5F)c5ccc2[nH]5)C=C4)C=C3)cc1
REMARK SMILES IDX 6 1 5 2 4 3 3 4 1 5 2 6 28 8 29 9 81 10 30 11 80 12 31 13
REMARK SMILES IDX 32 14 33 15 74 16 34 17 79 18 73 19 75 20 35 21 78 22 72 23
REMARK SMILES IDX 71 24 36 26 62 27 45 28 61 29 46 30 49 31 60 32 76 33 47 34
REMARK SMILES IDX 48 35 59 37 77 38 50 39 37 40 38 41 43 42 39 43 40 44 42 45
REMARK SMILES IDX 44 46 41 47 63 48 64 49 69 50 65 51 66 52 68 53 70 54 67 55
REMARK SMILES IDX 51 56 52 57 57 58 53 59 54 60 56 61 58 62 55 63 7 64 8 65
REMARK SMILES IDX 9 66 10 67 11 68 12 70 13 71 14 72 15 73 16 74 20 75 17 76
REMARK SMILES IDX 19 77 18 78 21 79 22 80 27 81 23 82 24 83 25 84 26 85
REMARK H PARENT 3 7 75 25 49 36 10 69
REMARK Flexibility Score: inf
ROOT
ATOM      1  C   UNL A   1      35.760  23.865  25.570  1.00  0.00     0.002 C 
ENDROOT
BRANCH   1   2
ATOM      2  C   UNL A   1      37.248  23.656  25.290  1.00  0.00     0.021 C 
BRANCH   2   3
ATOM      3  C   UNL A   1      38.174  24.148  26.398  1.00  0.00     0.116 C 
BRANCH   3   4
ATOM      4  N   UNL A   1      39.571  23.865  26.107  1.00  0.00    -0.352 N 
ATOM      5  O   UNL A   1      41.776  24.329  25.932  1.00  0.00    -0.269 OA
ATOM      6  C   UNL A   1      40.693  24.580  26.452  1.00  0.00     0.251 C 
ATOM      7  H   UNL A   1      39.736  23.044  25.591  1.00  0.00     0.163 HD
BRANCH   6   8
ATOM      8  C   UNL A   1      40.587  25.665  27.449  1.00  0.00     0.039 A 
ATOM      9  C   UNL A   1      39.785  25.498  28.579  1.00  0.00     0.014 A 
ATOM     10  C   UNL A   1      41.305  26.850  27.267  1.00  0.00     0.014 A 
ATOM     11  C   UNL A   1      39.578  26.567  29.441  1.00  0.00     0.010 A 
ATOM     12  C   UNL A   1      41.183  27.887  28.198  1.00  0.00     0.010 A 
ATOM     13  C   UNL A   1      40.302  27.761  29.283  1.00  0.00    -0.014 A 
BRANCH  13  14
ATOM     14  C   UNL A   1      40.189  28.804  30.334  1.00  0.00     0.031 A 
ATOM     15  C   UNL A   1      39.162  29.898  30.258  1.00  0.00     0.074 A 
ATOM     16  C   UNL A   1      41.015  28.721  31.398  1.00  0.00     0.049 A 
ATOM     17  N   UNL A   1      38.917  30.852  31.121  1.00  0.00    -0.248 NA
ATOM     18  C   UNL A   1      38.302  29.933  29.066  1.00  0.00     0.031 C 
ATOM     19  C   UNL A   1      42.067  27.713  31.570  1.00  0.00     0.029 A 
ATOM     20  N   UNL A   1      41.090  29.471  32.542  1.00  0.00    -0.354 N 
ATOM     21  C   UNL A   1      37.883  31.604  30.577  1.00  0.00     0.074 A 
ATOM     22  C   UNL A   1      37.567  31.015  29.293  1.00  0.00     0.031 C 
ATOM     23  C   UNL A   1      42.641  27.872  32.768  1.00  0.00     0.029 A 
ATOM     24  C   UNL A   1      42.057  29.038  33.417  1.00  0.00     0.049 A 
ATOM     25  H   UNL A   1      40.508  30.245  32.719  1.00  0.00     0.167 HD
ATOM     26  C   UNL A   1      37.253  32.680  31.108  1.00  0.00     0.037 A 
ATOM     27  C   UNL A   1      42.454  29.539  34.600  1.00  0.00     0.037 A 
ATOM     28  C   UNL A   1      37.577  33.263  32.386  1.00  0.00     0.049 A 
ATOM     29  C   UNL A   1      41.762  30.758  35.137  1.00  0.00     0.074 A 
ATOM     30  C   UNL A   1      36.981  34.342  33.018  1.00  0.00     0.029 A 
ATOM     31  N   UNL A   1      38.588  32.822  33.228  1.00  0.00    -0.354 N 
ATOM     32  N   UNL A   1      40.759  31.431  34.629  1.00  0.00    -0.248 NA
ATOM     33  C   UNL A   1      42.260  31.288  36.413  1.00  0.00     0.031 C 
ATOM     34  C   UNL A   1      37.665  34.586  34.214  1.00  0.00     0.029 A 
ATOM     35  C   UNL A   1      38.648  33.622  34.359  1.00  0.00     0.049 A 
ATOM     36  H   UNL A   1      39.177  32.054  33.047  1.00  0.00     0.167 HD
ATOM     37  C   UNL A   1      40.494  32.452  35.530  1.00  0.00     0.074 A 
ATOM     38  C   UNL A   1      41.418  32.287  36.632  1.00  0.00     0.031 C 
ATOM     39  C   UNL A   1      39.574  33.445  35.449  1.00  0.00     0.037 A 
BRANCH  26  40
ATOM     40  C   UNL A   1      36.148  33.313  30.309  1.00  0.00     0.057 A 
ATOM     41  C   UNL A   1      36.412  34.131  29.202  1.00  0.00     0.134 A 
ATOM     42  C   UNL A   1      34.805  33.036  30.597  1.00  0.00     0.134 A 
ATOM     43  F   UNL A   1      37.675  34.445  28.873  1.00  0.00    -0.206 F 
ATOM     44  C   UNL A   1      35.381  34.659  28.421  1.00  0.00     0.040 A 
ATOM     45  C   UNL A   1      33.768  33.536  29.809  1.00  0.00     0.040 A 
ATOM     46  F   UNL A   1      34.480  32.253  31.638  1.00  0.00    -0.206 F 
ATOM     47  C   UNL A   1      34.054  34.352  28.718  1.00  0.00     0.006 A 
ENDBRANCH  26  40
BRANCH  27  48
ATOM     48  C   UNL A   1      43.577  28.910  35.341  1.00  0.00     0.057 A 
ATOM     49  C   UNL A   1      44.908  29.247  35.071  1.00  0.00     0.134 A 
ATOM     50  C   UNL A   1      43.346  27.934  36.319  1.00  0.00     0.134 A 
ATOM     51  F   UNL A   1      45.197  30.164  34.135  1.00  0.00    -0.206 F 
ATOM     52  C   UNL A   1      45.968  28.613  35.720  1.00  0.00     0.040 A 
ATOM     53  C   UNL A   1      44.394  27.319  37.002  1.00  0.00     0.040 A 
ATOM     54  F   UNL A   1      42.093  27.573  36.634  1.00  0.00    -0.206 F 
ATOM     55  C   UNL A   1      45.711  27.648  36.693  1.00  0.00     0.006 A 
ENDBRANCH  27  48
BRANCH  39  56
ATOM     56  C   UNL A   1      39.510  34.403  36.603  1.00  0.00     0.057 A 
ATOM     57  C   UNL A   1      40.168  35.639  36.579  1.00  0.00     0.134 A 
ATOM     58  C   UNL A   1      38.782  34.082  37.755  1.00  0.00     0.134 A 
ATOM     59  F   UNL A   1      40.897  36.001  35.511  1.00  0.00    -0.206 F 
ATOM     60  C   UNL A   1      40.137  36.504  37.674  1.00  0.00     0.040 A 
ATOM     61  C   UNL A   1      38.716  34.952  38.843  1.00  0.00     0.040 A 
ATOM     62  F   UNL A   1      38.120  32.917  37.843  1.00  0.00    -0.206 F 
ATOM     63  C   UNL A   1      39.405  36.163  38.809  1.00  0.00     0.006 A 
ENDBRANCH  39  56
ENDBRANCH  13  14
ENDBRANCH   6   8
ENDBRANCH   3   4
ENDBRANCH   2   3
ENDBRANCH   1   2
BRANCH   1  64
ATOM     64  C   UNL A   1      35.015  22.628  26.073  1.00  0.00     0.002 C 
BRANCH  64  65
ATOM     65  C   UNL A   1      33.497  22.685  25.916  1.00  0.00     0.021 C 
BRANCH  65  66
ATOM     66  C   UNL A   1      32.735  23.320  27.074  1.00  0.00     0.116 C 
BRANCH  66  67
ATOM     67  N   UNL A   1      31.458  23.795  26.595  1.00  0.00    -0.356 N 
ATOM     68  C   UNL A   1      31.033  25.063  26.354  1.00  0.00     0.223 C 
ATOM     69  H   UNL A   1      30.791  23.093  26.417  1.00  0.00     0.163 HD
ATOM     70  O   UNL A   1      29.811  25.229  26.330  1.00  0.00    -0.275 OA
BRANCH  68  71
ATOM     71  C   UNL A   1      32.012  26.202  26.005  1.00  0.00     0.088 C 
BRANCH  71  72
ATOM     72  C   UNL A   1      31.576  27.591  26.522  1.00  0.00     0.070 C 
BRANCH  72  73
ATOM     73  C   UNL A   1      32.608  28.624  26.889  1.00  0.00     0.041 A 
ATOM     74  C   UNL A   1      33.954  28.315  27.064  1.00  0.00     0.024 A 
ATOM     75  N   UNL A   1      32.154  29.900  26.956  1.00  0.00    -0.261 NA
ATOM     76  C   UNL A   1      34.848  29.348  27.360  1.00  0.00     0.003 A 
ATOM     77  C   UNL A   1      33.039  30.882  27.233  1.00  0.00     0.111 A 
ATOM     78  C   UNL A   1      34.384  30.656  27.452  1.00  0.00     0.020 A 
ENDBRANCH  72  73
ENDBRANCH  71  72
BRANCH  71  79
ATOM     79  C   UNL A   1      32.122  26.206  24.436  1.00  0.00     0.018 C 
ATOM     80  C   UNL A   1      31.257  27.270  23.714  1.00  0.00     0.021 C 
ATOM     81  C   UNL A   1      33.541  26.446  23.900  1.00  0.00     0.141 C 
ATOM     82  C   UNL A   1      31.577  27.169  22.229  1.00  0.00     0.137 C 
ATOM     83  S   UNL A   1      33.325  26.818  22.157  1.00  0.00     0.150 S 
ATOM     84  O   UNL A   1      33.525  25.607  21.394  1.00  0.00    -0.229 OA
ATOM     85  O   UNL A   1      34.038  28.047  21.861  1.00  0.00    -0.229 OA
ENDBRANCH  71  79
ENDBRANCH  68  71
ENDBRANCH  66  67
ENDBRANCH  65  66
ENDBRANCH  64  65
ENDBRANCH   1  64
TORSDOF 16
ENDMDL
