MODEL 1
REMARK VINA RESULT:     -13.2      0.000      0.000
REMARK SMILES Cc1ccc(C)c(-c2cc(C(=O)NCCCCCCNC(=O)c3ccc(-c4c5nc(c(-c6c(F)cccc6F)c6ccc([nH]6)c(-c6c(F)cccc6F)c6nc(c(-c7c(F)cccc7F)c7ccc4[nH]7)C=C6)C=C5)cc3)c3cc(C)ccc3n2)c1
REMARK SMILES IDX 17 1 16 2 15 3 14 4 13 5 11 6 12 7 10 9 8 10 9 11 84 12
REMARK SMILES IDX 83 13 77 14 82 15 78 16 81 17 79 18 80 19 7 20 1 21 2 22
REMARK SMILES IDX 3 23 85 24 4 25 5 26 6 27 18 28 19 29 20 30 21 31 22 33
REMARK SMILES IDX 23 34 24 35 76 36 25 37 75 38 26 39 27 40 28 41 69 42 29 43
REMARK SMILES IDX 74 44 68 45 70 46 30 47 73 48 67 49 66 50 31 52 57 53 40 54
REMARK SMILES IDX 56 55 41 56 44 57 55 58 71 59 42 60 43 61 54 63 72 64 45 65
REMARK SMILES IDX 32 66 33 67 38 68 34 69 35 70 37 71 39 72 36 73 58 74 59 75
REMARK SMILES IDX 64 76 60 77 61 78 63 79 65 80 62 81 46 82 47 83 52 84 48 85
REMARK SMILES IDX 49 86 51 87 53 88 50 89
REMARK H PARENT 13 8 20 32 70 51 44 62
REMARK Flexibility Score: inf
ROOT
ATOM      1  C   UNL A   1      34.216  33.275  28.377  1.00  0.00     0.002 C 
ENDROOT
BRANCH   1   2
ATOM      2  C   UNL A   1      33.724  31.862  28.029  1.00  0.00     0.002 C 
BRANCH   2   3
ATOM      3  C   UNL A   1      34.643  30.885  27.284  1.00  0.00     0.021 C 
BRANCH   3   4
ATOM      4  C   UNL A   1      34.142  29.473  27.011  1.00  0.00     0.116 C 
BRANCH   4   5
ATOM      5  N   UNL A   1      32.938  29.056  27.704  1.00  0.00    -0.352 N 
ATOM      6  C   UNL A   1      31.990  28.101  27.385  1.00  0.00     0.252 C 
ATOM      7  O   UNL A   1      31.095  27.892  28.205  1.00  0.00    -0.269 OA
ATOM      8  H   UNL A   1      32.766  29.536  28.546  1.00  0.00     0.163 HD
BRANCH   6   9
ATOM      9  C   UNL A   1      31.925  27.383  26.073  1.00  0.00     0.051 A 
ATOM     10  C   UNL A   1      32.442  25.348  24.902  1.00  0.00     0.072 A 
ATOM     11  C   UNL A   1      32.531  26.117  26.051  1.00  0.00     0.043 A 
ATOM     12  N   UNL A   1      31.675  25.720  23.853  1.00  0.00    -0.248 NA
ATOM     13  C   UNL A   1      31.126  26.941  23.851  1.00  0.00     0.072 A 
ATOM     14  C   UNL A   1      31.324  27.867  24.890  1.00  0.00     0.013 A 
ATOM     15  C   UNL A   1      30.337  27.306  22.768  1.00  0.00     0.029 A 
ATOM     16  C   UNL A   1      30.920  29.202  24.665  1.00  0.00     0.014 A 
ATOM     17  C   UNL A   1      29.764  28.575  22.666  1.00  0.00     0.005 A 
ATOM     18  C   UNL A   1      30.078  29.549  23.607  1.00  0.00    -0.050 A 
ATOM     19  C   UNL A   1      29.436  30.903  23.575  1.00  0.00     0.044 C 
BRANCH  10  20
ATOM     20  C   UNL A   1      33.223  24.114  24.706  1.00  0.00     0.003 A 
ATOM     21  C   UNL A   1      36.669  23.103  23.364  1.00  0.00     0.044 C 
ATOM     22  C   UNL A   1      35.294  23.026  23.954  1.00  0.00    -0.050 A 
ATOM     23  C   UNL A   1      34.777  21.785  24.332  1.00  0.00     0.004 A 
ATOM     24  C   UNL A   1      34.514  24.178  24.144  1.00  0.00     0.014 A 
ATOM     25  C   UNL A   1      33.502  21.695  24.885  1.00  0.00     0.004 A 
ATOM     26  C   UNL A   1      32.711  22.843  25.067  1.00  0.00    -0.042 A 
ATOM     27  C   UNL A   1      31.348  22.648  25.680  1.00  0.00     0.045 C 
ENDBRANCH  10  20
ENDBRANCH   6   9
ENDBRANCH   4   5
ENDBRANCH   3   4
ENDBRANCH   2   3
ENDBRANCH   1   2
BRANCH   1  28
ATOM     28  C   UNL A   1      33.198  34.406  28.522  1.00  0.00     0.021 C 
BRANCH  28  29
ATOM     29  C   UNL A   1      33.631  35.595  29.364  1.00  0.00     0.116 C 
BRANCH  29  30
ATOM     30  N   UNL A   1      32.667  36.040  30.362  1.00  0.00    -0.352 N 
ATOM     31  C   UNL A   1      32.655  35.759  31.724  1.00  0.00     0.251 C 
ATOM     32  H   UNL A   1      31.934  36.607  30.032  1.00  0.00     0.163 HD
ATOM     33  O   UNL A   1      31.780  36.175  32.455  1.00  0.00    -0.269 OA
BRANCH  31  34
ATOM     34  C   UNL A   1      33.804  35.007  32.278  1.00  0.00     0.039 A 
ATOM     35  C   UNL A   1      34.922  35.721  32.719  1.00  0.00     0.014 A 
ATOM     36  C   UNL A   1      33.856  33.628  32.123  1.00  0.00     0.014 A 
ATOM     37  C   UNL A   1      36.154  35.075  32.782  1.00  0.00     0.010 A 
ATOM     38  C   UNL A   1      35.091  33.013  32.097  1.00  0.00     0.010 A 
ATOM     39  C   UNL A   1      36.255  33.742  32.369  1.00  0.00    -0.014 A 
BRANCH  39  40
ATOM     40  C   UNL A   1      37.568  33.127  32.162  1.00  0.00     0.031 A 
ATOM     41  C   UNL A   1      38.482  33.005  33.330  1.00  0.00     0.074 A 
ATOM     42  C   UNL A   1      37.868  32.396  31.069  1.00  0.00     0.049 A 
ATOM     43  N   UNL A   1      39.551  33.686  33.597  1.00  0.00    -0.248 NA
ATOM     44  C   UNL A   1      38.112  32.047  34.381  1.00  0.00     0.031 C 
ATOM     45  C   UNL A   1      36.971  31.953  30.001  1.00  0.00     0.029 A 
ATOM     46  N   UNL A   1      39.048  31.786  30.760  1.00  0.00    -0.354 N 
ATOM     47  C   UNL A   1      40.049  33.142  34.782  1.00  0.00     0.074 A 
ATOM     48  C   UNL A   1      38.984  32.356  35.337  1.00  0.00     0.031 C 
ATOM     49  C   UNL A   1      37.592  30.997  29.271  1.00  0.00     0.029 A 
ATOM     50  C   UNL A   1      38.959  30.845  29.746  1.00  0.00     0.049 A 
ATOM     51  H   UNL A   1      39.894  31.996  31.218  1.00  0.00     0.167 HD
ATOM     52  C   UNL A   1      41.373  33.135  35.105  1.00  0.00     0.037 A 
ATOM     53  C   UNL A   1      39.923  29.965  29.380  1.00  0.00     0.037 A 
ATOM     54  C   UNL A   1      42.141  33.976  34.226  1.00  0.00     0.049 A 
ATOM     55  C   UNL A   1      41.213  30.426  29.955  1.00  0.00     0.074 A 
ATOM     56  C   UNL A   1      42.104  35.305  33.847  1.00  0.00     0.029 A 
ATOM     57  N   UNL A   1      42.970  33.363  33.317  1.00  0.00    -0.354 N 
ATOM     58  N   UNL A   1      41.872  31.479  29.560  1.00  0.00    -0.248 NA
ATOM     59  C   UNL A   1      41.612  29.898  31.252  1.00  0.00     0.031 C 
ATOM     60  C   UNL A   1      42.502  35.313  32.477  1.00  0.00     0.029 A 
ATOM     61  C   UNL A   1      42.775  33.993  32.117  1.00  0.00     0.049 A 
ATOM     62  H   UNL A   1      43.584  32.615  33.495  1.00  0.00     0.167 HD
ATOM     63  C   UNL A   1      42.472  31.978  30.706  1.00  0.00     0.074 A 
ATOM     64  C   UNL A   1      42.377  30.902  31.685  1.00  0.00     0.031 C 
ATOM     65  C   UNL A   1      42.734  33.311  30.845  1.00  0.00     0.037 A 
BRANCH  52  66
ATOM     66  C   UNL A   1      42.040  32.116  36.010  1.00  0.00     0.057 A 
ATOM     67  C   UNL A   1      42.849  32.569  37.069  1.00  0.00     0.134 A 
ATOM     68  C   UNL A   1      42.120  30.729  35.762  1.00  0.00     0.134 A 
ATOM     69  F   UNL A   1      42.896  33.870  37.394  1.00  0.00    -0.206 F 
ATOM     70  C   UNL A   1      43.704  31.721  37.786  1.00  0.00     0.040 A 
ATOM     71  C   UNL A   1      42.913  29.861  36.519  1.00  0.00     0.040 A 
ATOM     72  F   UNL A   1      41.525  30.145  34.716  1.00  0.00    -0.206 F 
ATOM     73  C   UNL A   1      43.734  30.360  37.516  1.00  0.00     0.006 A 
ENDBRANCH  52  66
BRANCH  53  74
ATOM     74  C   UNL A   1      39.784  28.630  28.757  1.00  0.00     0.057 A 
ATOM     75  C   UNL A   1      40.351  28.352  27.504  1.00  0.00     0.134 A 
ATOM     76  C   UNL A   1      39.304  27.522  29.476  1.00  0.00     0.134 A 
ATOM     77  F   UNL A   1      40.877  29.336  26.761  1.00  0.00    -0.206 F 
ATOM     78  C   UNL A   1      40.449  27.048  27.003  1.00  0.00     0.040 A 
ATOM     79  C   UNL A   1      39.384  26.216  28.982  1.00  0.00     0.040 A 
ATOM     80  F   UNL A   1      38.816  27.660  30.718  1.00  0.00    -0.206 F 
ATOM     81  C   UNL A   1      39.970  25.973  27.746  1.00  0.00     0.006 A 
ENDBRANCH  53  74
BRANCH  65  82
ATOM     82  C   UNL A   1      42.667  34.175  29.621  1.00  0.00     0.057 A 
ATOM     83  C   UNL A   1      41.508  34.847  29.207  1.00  0.00     0.134 A 
ATOM     84  C   UNL A   1      43.851  34.463  28.931  1.00  0.00     0.134 A 
ATOM     85  F   UNL A   1      40.354  34.713  29.874  1.00  0.00    -0.206 F 
ATOM     86  C   UNL A   1      41.519  35.730  28.125  1.00  0.00     0.040 A 
ATOM     87  C   UNL A   1      43.881  35.370  27.871  1.00  0.00     0.040 A 
ATOM     88  F   UNL A   1      45.010  33.903  29.312  1.00  0.00    -0.206 F 
ATOM     89  C   UNL A   1      42.710  36.001  27.458  1.00  0.00     0.006 A 
ENDBRANCH  65  82
ENDBRANCH  39  40
ENDBRANCH  31  34
ENDBRANCH  29  30
ENDBRANCH  28  29
ENDBRANCH   1  28
TORSDOF 14
ENDMDL
MODEL 2
REMARK VINA RESULT:     -13.2      4.368      8.499
REMARK SMILES Cc1ccc(C)c(-c2cc(C(=O)NCCCCCCNC(=O)c3ccc(-c4c5nc(c(-c6c(F)cccc6F)c6ccc([nH]6)c(-c6c(F)cccc6F)c6nc(c(-c7c(F)cccc7F)c7ccc4[nH]7)C=C6)C=C5)cc3)c3cc(C)ccc3n2)c1
REMARK SMILES IDX 17 1 16 2 15 3 14 4 13 5 11 6 12 7 10 9 8 10 9 11 84 12
REMARK SMILES IDX 83 13 77 14 82 15 78 16 81 17 79 18 80 19 7 20 1 21 2 22
REMARK SMILES IDX 3 23 85 24 4 25 5 26 6 27 18 28 19 29 20 30 21 31 22 33
REMARK SMILES IDX 23 34 24 35 76 36 25 37 75 38 26 39 27 40 28 41 69 42 29 43
REMARK SMILES IDX 74 44 68 45 70 46 30 47 73 48 67 49 66 50 31 52 57 53 40 54
REMARK SMILES IDX 56 55 41 56 44 57 55 58 71 59 42 60 43 61 54 63 72 64 45 65
REMARK SMILES IDX 32 66 33 67 38 68 34 69 35 70 37 71 39 72 36 73 58 74 59 75
REMARK SMILES IDX 64 76 60 77 61 78 63 79 65 80 62 81 46 82 47 83 52 84 48 85
REMARK SMILES IDX 49 86 51 87 53 88 50 89
REMARK H PARENT 13 8 20 32 70 51 44 62
REMARK Flexibility Score: inf
ROOT
ATOM      1  C   UNL A   1      32.803  28.394  25.916  1.00  0.00     0.002 C 
ENDROOT
BRANCH   1   2
ATOM      2  C   UNL A   1      32.071  29.303  24.918  1.00  0.00     0.002 C 
BRANCH   2   3
ATOM      3  C   UNL A   1      32.099  28.985  23.417  1.00  0.00     0.021 C 
BRANCH   3   4
ATOM      4  C   UNL A   1      33.443  28.721  22.751  1.00  0.00     0.116 C 
BRANCH   4   5
ATOM      5  N   UNL A   1      33.473  27.719  21.704  1.00  0.00    -0.352 N 
ATOM      6  C   UNL A   1      33.273  26.351  21.747  1.00  0.00     0.252 C 
ATOM      7  O   UNL A   1      33.278  25.742  20.677  1.00  0.00    -0.269 OA
ATOM      8  H   UNL A   1      33.672  28.073  20.806  1.00  0.00     0.163 HD
BRANCH   6   9
ATOM      9  C   UNL A   1      33.152  25.556  23.010  1.00  0.00     0.051 A 
ATOM     10  C   UNL A   1      34.311  24.170  24.596  1.00  0.00     0.072 A 
ATOM     11  C   UNL A   1      34.309  24.860  23.395  1.00  0.00     0.043 A 
ATOM     12  N   UNL A   1      33.284  24.258  25.470  1.00  0.00    -0.248 NA
ATOM     13  C   UNL A   1      32.163  24.888  25.095  1.00  0.00     0.072 A 
ATOM     14  C   UNL A   1      31.998  25.452  23.818  1.00  0.00     0.013 A 
ATOM     15  C   UNL A   1      31.120  24.974  26.008  1.00  0.00     0.029 A 
ATOM     16  C   UNL A   1      30.697  25.854  23.442  1.00  0.00     0.014 A 
ATOM     17  C   UNL A   1      29.902  25.574  25.681  1.00  0.00     0.005 A 
ATOM     18  C   UNL A   1      29.670  25.996  24.377  1.00  0.00    -0.050 A 
ATOM     19  C   UNL A   1      28.405  26.704  23.998  1.00  0.00     0.044 C 
BRANCH  10  20
ATOM     20  C   UNL A   1      35.386  23.238  24.978  1.00  0.00     0.003 A 
ATOM     21  C   UNL A   1      38.902  23.409  26.498  1.00  0.00     0.044 C 
ATOM     22  C   UNL A   1      37.630  22.876  25.910  1.00  0.00    -0.050 A 
ATOM     23  C   UNL A   1      37.472  21.498  25.752  1.00  0.00     0.004 A 
ATOM     24  C   UNL A   1      36.588  23.733  25.523  1.00  0.00     0.014 A 
ATOM     25  C   UNL A   1      36.296  20.985  25.211  1.00  0.00     0.004 A 
ATOM     26  C   UNL A   1      35.253  21.837  24.809  1.00  0.00    -0.042 A 
ATOM     27  C   UNL A   1      34.015  21.190  24.242  1.00  0.00     0.045 C 
ENDBRANCH  10  20
ENDBRANCH   6   9
ENDBRANCH   4   5
ENDBRANCH   3   4
ENDBRANCH   2   3
ENDBRANCH   1   2
BRANCH   1  28
ATOM     28  C   UNL A   1      33.307  28.983  27.234  1.00  0.00     0.021 C 
BRANCH  28  29
ATOM     29  C   UNL A   1      34.777  29.367  27.278  1.00  0.00     0.116 C 
BRANCH  29  30
ATOM     30  N   UNL A   1      35.150  30.294  28.339  1.00  0.00    -0.352 N 
ATOM     31  C   UNL A   1      36.329  30.318  29.078  1.00  0.00     0.251 C 
ATOM     32  H   UNL A   1      34.488  30.986  28.560  1.00  0.00     0.163 HD
ATOM     33  O   UNL A   1      36.516  31.134  29.955  1.00  0.00    -0.269 OA
BRANCH  31  34
ATOM     34  C   UNL A   1      37.396  29.366  28.693  1.00  0.00     0.039 A 
ATOM     35  C   UNL A   1      37.797  28.399  29.619  1.00  0.00     0.014 A 
ATOM     36  C   UNL A   1      38.138  29.602  27.542  1.00  0.00     0.014 A 
ATOM     37  C   UNL A   1      39.064  27.833  29.498  1.00  0.00     0.010 A 
ATOM     38  C   UNL A   1      39.426  29.110  27.476  1.00  0.00     0.010 A 
ATOM     39  C   UNL A   1      39.919  28.270  28.480  1.00  0.00    -0.014 A 
BRANCH  39  40
ATOM     40  C   UNL A   1      41.337  27.902  28.495  1.00  0.00     0.031 A 
ATOM     41  C   UNL A   1      41.752  26.662  27.785  1.00  0.00     0.074 A 
ATOM     42  C   UNL A   1      42.312  28.767  28.840  1.00  0.00     0.049 A 
ATOM     43  N   UNL A   1      42.107  25.521  28.285  1.00  0.00    -0.248 NA
ATOM     44  C   UNL A   1      41.689  26.671  26.316  1.00  0.00     0.031 C 
ATOM     45  C   UNL A   1      42.198  30.202  29.103  1.00  0.00     0.029 A 
ATOM     46  N   UNL A   1      43.656  28.543  28.901  1.00  0.00    -0.354 N 
ATOM     47  C   UNL A   1      42.436  24.724  27.188  1.00  0.00     0.074 A 
ATOM     48  C   UNL A   1      41.893  25.386  26.037  1.00  0.00     0.031 C 
ATOM     49  C   UNL A   1      43.437  30.749  29.108  1.00  0.00     0.029 A 
ATOM     50  C   UNL A   1      44.427  29.693  28.964  1.00  0.00     0.049 A 
ATOM     51  H   UNL A   1      44.047  27.640  28.902  1.00  0.00     0.167 HD
ATOM     52  C   UNL A   1      43.357  23.720  27.241  1.00  0.00     0.037 A 
ATOM     53  C   UNL A   1      45.775  29.764  28.838  1.00  0.00     0.037 A 
ATOM     54  C   UNL A   1      43.740  23.416  28.594  1.00  0.00     0.049 A 
ATOM     55  C   UNL A   1      46.330  28.398  29.020  1.00  0.00     0.074 A 
ATOM     56  C   UNL A   1      43.076  23.048  29.749  1.00  0.00     0.029 A 
ATOM     57  N   UNL A   1      44.998  23.789  29.002  1.00  0.00    -0.354 N 
ATOM     58  N   UNL A   1      46.361  27.751  30.152  1.00  0.00    -0.248 NA
ATOM     59  C   UNL A   1      46.540  27.581  27.834  1.00  0.00     0.031 C 
ATOM     60  C   UNL A   1      43.794  23.679  30.809  1.00  0.00     0.029 A 
ATOM     61  C   UNL A   1      44.858  24.373  30.233  1.00  0.00     0.049 A 
ATOM     62  H   UNL A   1      45.837  23.662  28.505  1.00  0.00     0.167 HD
ATOM     63  C   UNL A   1      46.191  26.418  29.807  1.00  0.00     0.074 A 
ATOM     64  C   UNL A   1      46.429  26.364  28.370  1.00  0.00     0.031 C 
ATOM     65  C   UNL A   1      45.598  25.536  30.664  1.00  0.00     0.037 A 
BRANCH  52  66
ATOM     66  C   UNL A   1      44.169  23.225  26.058  1.00  0.00     0.057 A 
ATOM     67  C   UNL A   1      44.163  21.851  25.752  1.00  0.00     0.134 A 
ATOM     68  C   UNL A   1      45.131  23.979  25.353  1.00  0.00     0.134 A 
ATOM     69  F   UNL A   1      43.321  21.010  26.372  1.00  0.00    -0.206 F 
ATOM     70  C   UNL A   1      45.071  21.270  24.858  1.00  0.00     0.040 A 
ATOM     71  C   UNL A   1      45.993  23.422  24.403  1.00  0.00     0.040 A 
ATOM     72  F   UNL A   1      45.370  25.270  25.609  1.00  0.00    -0.206 F 
ATOM     73  C   UNL A   1      45.988  22.057  24.175  1.00  0.00     0.006 A 
ENDBRANCH  52  66
BRANCH  53  74
ATOM     74  C   UNL A   1      46.611  30.883  28.349  1.00  0.00     0.057 A 
ATOM     75  C   UNL A   1      46.514  31.337  27.026  1.00  0.00     0.134 A 
ATOM     76  C   UNL A   1      47.350  31.696  29.227  1.00  0.00     0.134 A 
ATOM     77  F   UNL A   1      45.795  30.655  26.123  1.00  0.00    -0.206 F 
ATOM     78  C   UNL A   1      47.103  32.535  26.603  1.00  0.00     0.040 A 
ATOM     79  C   UNL A   1      47.953  32.888  28.815  1.00  0.00     0.040 A 
ATOM     80  F   UNL A   1      47.441  31.401  30.533  1.00  0.00    -0.206 F 
ATOM     81  C   UNL A   1      47.821  33.319  27.501  1.00  0.00     0.006 A 
ENDBRANCH  53  74
BRANCH  65  82
ATOM     82  C   UNL A   1      45.431  25.946  32.097  1.00  0.00     0.057 A 
ATOM     83  C   UNL A   1      44.297  26.607  32.588  1.00  0.00     0.134 A 
ATOM     84  C   UNL A   1      46.376  25.517  33.037  1.00  0.00     0.134 A 
ATOM     85  F   UNL A   1      43.294  26.959  31.773  1.00  0.00    -0.206 F 
ATOM     86  C   UNL A   1      44.134  26.871  33.950  1.00  0.00     0.040 A 
ATOM     87  C   UNL A   1      46.207  25.744  34.404  1.00  0.00     0.040 A 
ATOM     88  F   UNL A   1      47.457  24.825  32.644  1.00  0.00    -0.206 F 
ATOM     89  C   UNL A   1      45.087  26.432  34.864  1.00  0.00     0.006 A 
ENDBRANCH  65  82
ENDBRANCH  39  40
ENDBRANCH  31  34
ENDBRANCH  29  30
ENDBRANCH  28  29
ENDBRANCH   1  28
TORSDOF 14
ENDMDL
MODEL 3
REMARK VINA RESULT:     -12.9      3.366      4.897
REMARK SMILES Cc1ccc(C)c(-c2cc(C(=O)NCCCCCCNC(=O)c3ccc(-c4c5nc(c(-c6c(F)cccc6F)c6ccc([nH]6)c(-c6c(F)cccc6F)c6nc(c(-c7c(F)cccc7F)c7ccc4[nH]7)C=C6)C=C5)cc3)c3cc(C)ccc3n2)c1
REMARK SMILES IDX 17 1 16 2 15 3 14 4 13 5 11 6 12 7 10 9 8 10 9 11 84 12
REMARK SMILES IDX 83 13 77 14 82 15 78 16 81 17 79 18 80 19 7 20 1 21 2 22
REMARK SMILES IDX 3 23 85 24 4 25 5 26 6 27 18 28 19 29 20 30 21 31 22 33
REMARK SMILES IDX 23 34 24 35 76 36 25 37 75 38 26 39 27 40 28 41 69 42 29 43
REMARK SMILES IDX 74 44 68 45 70 46 30 47 73 48 67 49 66 50 31 52 57 53 40 54
REMARK SMILES IDX 56 55 41 56 44 57 55 58 71 59 42 60 43 61 54 63 72 64 45 65
REMARK SMILES IDX 32 66 33 67 38 68 34 69 35 70 37 71 39 72 36 73 58 74 59 75
REMARK SMILES IDX 64 76 60 77 61 78 63 79 65 80 62 81 46 82 47 83 52 84 48 85
REMARK SMILES IDX 49 86 51 87 53 88 50 89
REMARK H PARENT 13 8 20 32 70 51 44 62
REMARK Flexibility Score: inf
ROOT
ATOM      1  C   UNL A   1      32.307  28.613  26.102  1.00  0.00     0.002 C 
ENDROOT
BRANCH   1   2
ATOM      2  C   UNL A   1      31.865  29.536  24.957  1.00  0.00     0.002 C 
BRANCH   2   3
ATOM      3  C   UNL A   1      31.879  29.033  23.508  1.00  0.00     0.021 C 
BRANCH   3   4
ATOM      4  C   UNL A   1      33.218  28.878  22.800  1.00  0.00     0.116 C 
BRANCH   4   5
ATOM      5  N   UNL A   1      33.300  27.873  21.758  1.00  0.00    -0.352 N 
ATOM      6  C   UNL A   1      33.176  26.496  21.810  1.00  0.00     0.252 C 
ATOM      7  O   UNL A   1      33.211  25.882  20.743  1.00  0.00    -0.269 OA
ATOM      8  H   UNL A   1      33.476  28.233  20.858  1.00  0.00     0.163 HD
BRANCH   6   9
ATOM      9  C   UNL A   1      33.103  25.704  23.078  1.00  0.00     0.051 A 
ATOM     10  C   UNL A   1      34.343  24.392  24.667  1.00  0.00     0.072 A 
ATOM     11  C   UNL A   1      34.298  25.074  23.461  1.00  0.00     0.043 A 
ATOM     12  N   UNL A   1      33.316  24.428  25.544  1.00  0.00    -0.248 NA
ATOM     13  C   UNL A   1      32.161  24.994  25.171  1.00  0.00     0.072 A 
ATOM     14  C   UNL A   1      31.960  25.540  23.891  1.00  0.00     0.013 A 
ATOM     15  C   UNL A   1      31.119  25.028  26.087  1.00  0.00     0.029 A 
ATOM     16  C   UNL A   1      30.638  25.869  23.519  1.00  0.00     0.014 A 
ATOM     17  C   UNL A   1      29.868  25.558  25.762  1.00  0.00     0.005 A 
ATOM     18  C   UNL A   1      29.608  25.959  24.457  1.00  0.00    -0.050 A 
ATOM     19  C   UNL A   1      28.305  26.595  24.079  1.00  0.00     0.044 C 
BRANCH  10  20
ATOM     20  C   UNL A   1      35.470  23.523  25.049  1.00  0.00     0.003 A 
ATOM     21  C   UNL A   1      38.956  23.890  26.602  1.00  0.00     0.044 C 
ATOM     22  C   UNL A   1      37.724  23.286  25.998  1.00  0.00    -0.050 A 
ATOM     23  C   UNL A   1      37.650  21.903  25.825  1.00  0.00     0.004 A 
ATOM     24  C   UNL A   1      36.634  24.083  25.610  1.00  0.00     0.014 A 
ATOM     25  C   UNL A   1      36.512  21.326  25.268  1.00  0.00     0.004 A 
ATOM     26  C   UNL A   1      35.422  22.118  24.866  1.00  0.00    -0.042 A 
ATOM     27  C   UNL A   1      34.231  21.403  24.281  1.00  0.00     0.045 C 
ENDBRANCH  10  20
ENDBRANCH   6   9
ENDBRANCH   4   5
ENDBRANCH   3   4
ENDBRANCH   2   3
ENDBRANCH   1   2
BRANCH   1  28
ATOM     28  C   UNL A   1      33.752  28.113  26.144  1.00  0.00     0.021 C 
BRANCH  28  29
ATOM     29  C   UNL A   1      34.730  28.958  26.943  1.00  0.00     0.116 C 
BRANCH  29  30
ATOM     30  N   UNL A   1      34.478  30.393  26.924  1.00  0.00    -0.352 N 
ATOM     31  C   UNL A   1      35.065  31.374  27.716  1.00  0.00     0.251 C 
ATOM     32  H   UNL A   1      33.810  30.706  26.273  1.00  0.00     0.163 HD
ATOM     33  O   UNL A   1      34.755  32.543  27.619  1.00  0.00    -0.269 OA
BRANCH  31  34
ATOM     34  C   UNL A   1      36.158  30.957  28.624  1.00  0.00     0.039 A 
ATOM     35  C   UNL A   1      37.245  31.817  28.802  1.00  0.00     0.014 A 
ATOM     36  C   UNL A   1      36.204  29.645  29.078  1.00  0.00     0.014 A 
ATOM     37  C   UNL A   1      38.461  31.287  29.230  1.00  0.00     0.010 A 
ATOM     38  C   UNL A   1      37.431  29.107  29.412  1.00  0.00     0.010 A 
ATOM     39  C   UNL A   1      38.578  29.908  29.435  1.00  0.00    -0.014 A 
BRANCH  39  40
ATOM     40  C   UNL A   1      39.896  29.294  29.612  1.00  0.00     0.031 A 
ATOM     41  C   UNL A   1      40.447  29.192  30.990  1.00  0.00     0.074 A 
ATOM     42  C   UNL A   1      40.488  28.549  28.657  1.00  0.00     0.049 A 
ATOM     43  N   UNL A   1      41.399  29.879  31.536  1.00  0.00    -0.248 NA
ATOM     44  C   UNL A   1      39.796  28.247  31.910  1.00  0.00     0.031 C 
ATOM     45  C   UNL A   1      39.924  28.089  27.387  1.00  0.00     0.029 A 
ATOM     46  N   UNL A   1      41.707  27.938  28.699  1.00  0.00    -0.354 N 
ATOM     47  C   UNL A   1      41.546  29.353  32.820  1.00  0.00     0.074 A 
ATOM     48  C   UNL A   1      40.367  28.572  33.067  1.00  0.00     0.031 C 
ATOM     49  C   UNL A   1      40.724  27.124  26.874  1.00  0.00     0.029 A 
ATOM     50  C   UNL A   1      41.903  26.982  27.714  1.00  0.00     0.049 A 
ATOM     51  H   UNL A   1      42.391  28.157  29.371  1.00  0.00     0.167 HD
ATOM     52  C   UNL A   1      42.727  29.355  33.501  1.00  0.00     0.037 A 
ATOM     53  C   UNL A   1      42.930  26.100  27.644  1.00  0.00     0.037 A 
ATOM     54  C   UNL A   1      43.711  30.186  32.859  1.00  0.00     0.049 A 
ATOM     55  C   UNL A   1      44.009  26.573  28.550  1.00  0.00     0.074 A 
ATOM     56  C   UNL A   1      43.783  31.508  32.466  1.00  0.00     0.029 A 
ATOM     57  N   UNL A   1      44.760  29.562  32.227  1.00  0.00    -0.354 N 
ATOM     58  N   UNL A   1      44.753  27.622  28.339  1.00  0.00    -0.248 NA
ATOM     59  C   UNL A   1      44.029  26.064  29.914  1.00  0.00     0.031 C 
ATOM     60  C   UNL A   1      44.548  31.499  31.262  1.00  0.00     0.029 A 
ATOM     61  C   UNL A   1      44.909  30.175  31.011  1.00  0.00     0.049 A 
ATOM     62  H   UNL A   1      45.299  28.818  32.579  1.00  0.00     0.167 HD
ATOM     63  C   UNL A   1      45.010  28.139  29.601  1.00  0.00     0.074 A 
ATOM     64  C   UNL A   1      44.644  27.077  30.529  1.00  0.00     0.031 C 
ATOM     65  C   UNL A   1      45.224  29.474  29.788  1.00  0.00     0.037 A 
BRANCH  52  66
ATOM     66  C   UNL A   1      43.113  28.351  34.570  1.00  0.00     0.057 A 
ATOM     67  C   UNL A   1      43.494  28.819  35.842  1.00  0.00     0.134 A 
ATOM     68  C   UNL A   1      43.354  26.977  34.355  1.00  0.00     0.134 A 
ATOM     69  F   UNL A   1      43.351  30.112  36.172  1.00  0.00    -0.206 F 
ATOM     70  C   UNL A   1      44.110  28.001  36.798  1.00  0.00     0.040 A 
ATOM     71  C   UNL A   1      43.900  26.134  35.329  1.00  0.00     0.040 A 
ATOM     72  F   UNL A   1      43.179  26.388  33.167  1.00  0.00    -0.206 F 
ATOM     73  C   UNL A   1      44.309  26.651  36.545  1.00  0.00     0.006 A 
ENDBRANCH  52  66
BRANCH  53  74
ATOM     74  C   UNL A   1      42.969  24.756  27.026  1.00  0.00     0.057 A 
ATOM     75  C   UNL A   1      42.424  23.641  27.679  1.00  0.00     0.134 A 
ATOM     76  C   UNL A   1      43.322  24.570  25.678  1.00  0.00     0.134 A 
ATOM     77  F   UNL A   1      42.016  23.730  28.953  1.00  0.00    -0.206 F 
ATOM     78  C   UNL A   1      42.226  22.418  27.027  1.00  0.00     0.040 A 
ATOM     79  C   UNL A   1      43.141  23.350  25.018  1.00  0.00     0.040 A 
ATOM     80  F   UNL A   1      43.777  25.589  24.933  1.00  0.00    -0.206 F 
ATOM     81  C   UNL A   1      42.579  22.271  25.689  1.00  0.00     0.006 A 
ENDBRANCH  53  74
BRANCH  65  82
ATOM     82  C   UNL A   1      45.503  30.321  28.582  1.00  0.00     0.057 A 
ATOM     83  C   UNL A   1      44.501  30.901  27.792  1.00  0.00     0.134 A 
ATOM     84  C   UNL A   1      46.825  30.691  28.306  1.00  0.00     0.134 A 
ATOM     85  F   UNL A   1      43.204  30.687  28.051  1.00  0.00    -0.206 F 
ATOM     86  C   UNL A   1      44.805  31.774  26.744  1.00  0.00     0.040 A 
ATOM     87  C   UNL A   1      47.139  31.589  27.284  1.00  0.00     0.040 A 
ATOM     88  F   UNL A   1      47.831  30.221  29.061  1.00  0.00    -0.206 F 
ATOM     89  C   UNL A   1      46.127  32.127  26.493  1.00  0.00     0.006 A 
ENDBRANCH  65  82
ENDBRANCH  39  40
ENDBRANCH  31  34
ENDBRANCH  29  30
ENDBRANCH  28  29
ENDBRANCH   1  28
TORSDOF 14
ENDMDL
