MODEL 1
REMARK VINA RESULT:     -11.5      0.000      0.000
REMARK SMILES O=C(C[C@H]1COCC[NH2+]1)Nc1cncc(C(=O)NCCCCCCNC(=O)c2ccc(-c3c4nc(c(-c5c(F)cccc5F)c5ccc([nH]5)c(-c5c(F)cccc5F)c5nc(c(-c6c(F)cccc6F)c6ccc3[nH]6)C=C5)C=C4)cc2)c1
REMARK SMILES IDX 21 1 20 2 19 3 18 4 16 5 17 6 15 8 11 9 12 10 82 11 13 12
REMARK SMILES IDX 14 13 10 14 1 15 2 16 3 18 4 19 5 20 9 21 6 22 8 23 7 26
REMARK SMILES IDX 22 27 23 28 24 29 25 30 26 31 27 33 28 34 29 35 81 36 30 37
REMARK SMILES IDX 80 38 31 39 32 40 33 41 74 42 34 43 79 44 73 45 75 46 35 47
REMARK SMILES IDX 78 48 72 49 71 50 36 52 62 53 45 54 61 55 46 56 49 57 60 58
REMARK SMILES IDX 76 59 47 60 48 61 59 63 77 64 50 65 37 66 38 67 43 68 39 69
REMARK SMILES IDX 40 70 42 71 44 72 41 73 63 74 64 75 69 76 65 77 66 78 68 79
REMARK SMILES IDX 70 80 67 81 51 82 52 83 57 84 53 85 54 86 56 87 58 88 55 89
REMARK H PARENT 18 7 10 17 9 24 9 25 25 32 75 51 49 62
REMARK Flexibility Score: inf
ROOT
ATOM      1  C   UNL A   1      37.058  22.001  24.810  1.00  0.00     0.002 C 
ENDROOT
BRANCH   1   2
ATOM      2  C   UNL A   1      36.518  22.865  23.661  1.00  0.00     0.021 C 
BRANCH   2   3
ATOM      3  C   UNL A   1      35.272  23.664  24.054  1.00  0.00     0.116 C 
BRANCH   3   4
ATOM      4  N   UNL A   1      34.077  23.035  23.519  1.00  0.00    -0.352 N 
ATOM      5  C   UNL A   1      32.737  23.303  23.645  1.00  0.00     0.252 C 
ATOM      6  O   UNL A   1      31.959  22.560  23.045  1.00  0.00    -0.269 OA
ATOM      7  H   UNL A   1      34.267  22.255  22.950  1.00  0.00     0.163 HD
BRANCH   5   8
ATOM      8  C   UNL A   1      32.177  24.435  24.424  1.00  0.00     0.060 A 
ATOM      9  C   UNL A   1      31.304  26.665  24.747  1.00  0.00     0.060 A 
ATOM     10  C   UNL A   1      31.112  26.358  26.089  1.00  0.00     0.137 A 
ATOM     11  C   UNL A   1      31.911  25.709  23.937  1.00  0.00     0.043 A 
ATOM     12  N   UNL A   1      31.399  25.152  26.624  1.00  0.00    -0.262 NA
ATOM     13  C   UNL A   1      31.902  24.216  25.775  1.00  0.00     0.125 A 
BRANCH   9  14
ATOM     14  N   UNL A   1      30.877  27.902  24.232  1.00  0.00    -0.325 N 
ATOM     15  O   UNL A   1      28.787  27.232  23.494  1.00  0.00    -0.274 OA
ATOM     16  C   UNL A   1      29.648  28.102  23.628  1.00  0.00     0.230 C 
ATOM     17  H   UNL A   1      31.488  28.671  24.306  1.00  0.00     0.169 HD
BRANCH  16  18
ATOM     18  C   UNL A   1      29.427  29.484  23.044  1.00  0.00     0.167 C 
BRANCH  18  19
ATOM     19  C   UNL A   1      27.991  30.035  22.898  1.00  0.00     0.218 C 
ATOM     20  C   UNL A   1      27.661  31.372  23.586  1.00  0.00     0.225 C 
ATOM     21  N   UNL A   1      27.654  30.128  21.449  1.00  0.00    -0.340 N 
ATOM     22  O   UNL A   1      28.446  32.434  23.020  1.00  0.00    -0.369 OA
ATOM     23  C   UNL A   1      28.332  31.293  20.840  1.00  0.00     0.289 C 
ATOM     24  H   UNL A   1      26.645  30.232  21.345  1.00  0.00     0.346 HD
ATOM     25  H   UNL A   1      27.967  29.277  20.980  1.00  0.00     0.346 HD
ATOM     26  C   UNL A   1      28.126  32.596  21.626  1.00  0.00     0.221 C 
ENDBRANCH  18  19
ENDBRANCH  16  18
ENDBRANCH   9  14
ENDBRANCH   5   8
ENDBRANCH   3   4
ENDBRANCH   2   3
ENDBRANCH   1   2
BRANCH   1  27
ATOM     27  C   UNL A   1      36.654  20.522  24.740  1.00  0.00     0.002 C 
BRANCH  27  28
ATOM     28  C   UNL A   1      37.791  19.527  24.994  1.00  0.00     0.021 C 
BRANCH  28  29
ATOM     29  C   UNL A   1      38.983  20.110  25.747  1.00  0.00     0.116 C 
BRANCH  29  30
ATOM     30  N   UNL A   1      40.064  19.145  25.867  1.00  0.00    -0.352 N 
ATOM     31  C   UNL A   1      41.409  19.355  26.034  1.00  0.00     0.251 C 
ATOM     32  H   UNL A   1      39.791  18.201  25.820  1.00  0.00     0.163 HD
ATOM     33  O   UNL A   1      42.200  18.432  25.875  1.00  0.00    -0.269 OA
BRANCH  31  34
ATOM     34  C   UNL A   1      41.909  20.696  26.404  1.00  0.00     0.039 A 
ATOM     35  C   UNL A   1      42.227  21.601  25.388  1.00  0.00     0.014 A 
ATOM     36  C   UNL A   1      42.109  21.044  27.744  1.00  0.00     0.014 A 
ATOM     37  C   UNL A   1      42.703  22.871  25.716  1.00  0.00     0.010 A 
ATOM     38  C   UNL A   1      42.523  22.333  28.072  1.00  0.00     0.010 A 
ATOM     39  C   UNL A   1      42.834  23.254  27.062  1.00  0.00    -0.014 A 
BRANCH  39  40
ATOM     40  C   UNL A   1      43.307  24.613  27.426  1.00  0.00     0.031 A 
ATOM     41  C   UNL A   1      42.325  25.665  27.860  1.00  0.00     0.074 A 
ATOM     42  C   UNL A   1      44.615  24.912  27.314  1.00  0.00     0.049 A 
ATOM     43  N   UNL A   1      42.540  26.918  28.173  1.00  0.00    -0.248 NA
ATOM     44  C   UNL A   1      40.911  25.263  27.928  1.00  0.00     0.031 C 
ATOM     45  C   UNL A   1      45.657  23.992  26.857  1.00  0.00     0.029 A 
ATOM     46  N   UNL A   1      45.288  26.079  27.570  1.00  0.00    -0.354 N 
ATOM     47  C   UNL A   1      41.292  27.455  28.462  1.00  0.00     0.074 A 
ATOM     48  C   UNL A   1      40.319  26.407  28.237  1.00  0.00     0.031 C 
ATOM     49  C   UNL A   1      46.842  24.621  26.888  1.00  0.00     0.029 A 
ATOM     50  C   UNL A   1      46.640  25.996  27.335  1.00  0.00     0.049 A 
ATOM     51  H   UNL A   1      44.847  26.898  27.891  1.00  0.00     0.167 HD
ATOM     52  C   UNL A   1      40.987  28.700  28.897  1.00  0.00     0.037 A 
ATOM     53  C   UNL A   1      47.605  26.924  27.467  1.00  0.00     0.037 A 
ATOM     54  C   UNL A   1      41.959  29.733  29.143  1.00  0.00     0.049 A 
ATOM     55  C   UNL A   1      47.241  28.298  27.959  1.00  0.00     0.074 A 
ATOM     56  C   UNL A   1      41.757  31.009  29.639  1.00  0.00     0.029 A 
ATOM     57  N   UNL A   1      43.321  29.603  28.914  1.00  0.00    -0.354 N 
ATOM     58  N   UNL A   1      46.065  28.773  28.288  1.00  0.00    -0.248 NA
ATOM     59  C   UNL A   1      48.342  29.260  28.105  1.00  0.00     0.031 C 
ATOM     60  C   UNL A   1      42.992  31.665  29.675  1.00  0.00     0.029 A 
ATOM     61  C   UNL A   1      43.969  30.783  29.241  1.00  0.00     0.049 A 
ATOM     62  H   UNL A   1      43.762  28.794  28.569  1.00  0.00     0.167 HD
ATOM     63  C   UNL A   1      46.286  30.078  28.705  1.00  0.00     0.074 A 
ATOM     64  C   UNL A   1      47.711  30.315  28.599  1.00  0.00     0.031 C 
ATOM     65  C   UNL A   1      45.389  31.000  29.135  1.00  0.00     0.037 A 
BRANCH  52  66
ATOM     66  C   UNL A   1      39.539  29.012  29.138  1.00  0.00     0.057 A 
ATOM     67  C   UNL A   1      38.952  28.856  30.401  1.00  0.00     0.134 A 
ATOM     68  C   UNL A   1      38.728  29.502  28.107  1.00  0.00     0.134 A 
ATOM     69  F   UNL A   1      39.669  28.378  31.429  1.00  0.00    -0.206 F 
ATOM     70  C   UNL A   1      37.605  29.149  30.623  1.00  0.00     0.040 A 
ATOM     71  C   UNL A   1      37.388  29.824  28.322  1.00  0.00     0.040 A 
ATOM     72  F   UNL A   1      39.228  29.682  26.875  1.00  0.00    -0.206 F 
ATOM     73  C   UNL A   1      36.821  29.642  29.581  1.00  0.00     0.006 A 
ENDBRANCH  52  66
BRANCH  53  74
ATOM     74  C   UNL A   1      49.014  26.577  27.159  1.00  0.00     0.057 A 
ATOM     75  C   UNL A   1      49.524  26.725  25.864  1.00  0.00     0.134 A 
ATOM     76  C   UNL A   1      49.881  26.090  28.144  1.00  0.00     0.134 A 
ATOM     77  F   UNL A   1      48.736  27.170  24.875  1.00  0.00    -0.206 F 
ATOM     78  C   UNL A   1      50.842  26.382  25.554  1.00  0.00     0.040 A 
ATOM     79  C   UNL A   1      51.207  25.766  27.854  1.00  0.00     0.040 A 
ATOM     80  F   UNL A   1      49.454  25.933  29.405  1.00  0.00    -0.206 F 
ATOM     81  C   UNL A   1      51.688  25.906  26.553  1.00  0.00     0.006 A 
ENDBRANCH  53  74
BRANCH  65  82
ATOM     82  C   UNL A   1      45.929  32.335  29.552  1.00  0.00     0.057 A 
ATOM     83  C   UNL A   1      46.044  33.400  28.650  1.00  0.00     0.134 A 
ATOM     84  C   UNL A   1      46.315  32.565  30.878  1.00  0.00     0.134 A 
ATOM     85  F   UNL A   1      45.704  33.240  27.361  1.00  0.00    -0.206 F 
ATOM     86  C   UNL A   1      46.544  34.641  29.048  1.00  0.00     0.040 A 
ATOM     87  C   UNL A   1      46.792  33.808  31.293  1.00  0.00     0.040 A 
ATOM     88  F   UNL A   1      46.223  31.588  31.794  1.00  0.00    -0.206 F 
ATOM     89  C   UNL A   1      46.915  34.849  30.375  1.00  0.00     0.006 A 
ENDBRANCH  65  82
ENDBRANCH  39  40
ENDBRANCH  31  34
ENDBRANCH  29  30
ENDBRANCH  28  29
ENDBRANCH  27  28
ENDBRANCH   1  27
TORSDOF 16
ENDMDL
MODEL 2
REMARK VINA RESULT:     -11.5      4.208     10.059
REMARK SMILES O=C(C[C@H]1COCC[NH2+]1)Nc1cncc(C(=O)NCCCCCCNC(=O)c2ccc(-c3c4nc(c(-c5c(F)cccc5F)c5ccc([nH]5)c(-c5c(F)cccc5F)c5nc(c(-c6c(F)cccc6F)c6ccc3[nH]6)C=C5)C=C4)cc2)c1
REMARK SMILES IDX 21 1 20 2 19 3 18 4 16 5 17 6 15 8 11 9 12 10 82 11 13 12
REMARK SMILES IDX 14 13 10 14 1 15 2 16 3 18 4 19 5 20 9 21 6 22 8 23 7 26
REMARK SMILES IDX 22 27 23 28 24 29 25 30 26 31 27 33 28 34 29 35 81 36 30 37
REMARK SMILES IDX 80 38 31 39 32 40 33 41 74 42 34 43 79 44 73 45 75 46 35 47
REMARK SMILES IDX 78 48 72 49 71 50 36 52 62 53 45 54 61 55 46 56 49 57 60 58
REMARK SMILES IDX 76 59 47 60 48 61 59 63 77 64 50 65 37 66 38 67 43 68 39 69
REMARK SMILES IDX 40 70 42 71 44 72 41 73 63 74 64 75 69 76 65 77 66 78 68 79
REMARK SMILES IDX 70 80 67 81 51 82 52 83 57 84 53 85 54 86 56 87 58 88 55 89
REMARK H PARENT 18 7 10 17 9 24 9 25 25 32 75 51 49 62
REMARK Flexibility Score: inf
ROOT
ATOM      1  C   UNL A   1      30.695  29.490  24.006  1.00  0.00     0.002 C 
ENDROOT
BRANCH   1   2
ATOM      2  C   UNL A   1      31.532  28.750  22.952  1.00  0.00     0.021 C 
BRANCH   2   3
ATOM      3  C   UNL A   1      31.007  27.341  22.658  1.00  0.00     0.116 C 
BRANCH   3   4
ATOM      4  N   UNL A   1      31.752  26.740  21.567  1.00  0.00    -0.352 N 
ATOM      5  C   UNL A   1      32.710  25.760  21.510  1.00  0.00     0.252 C 
ATOM      6  O   UNL A   1      33.150  25.471  20.396  1.00  0.00    -0.269 OA
ATOM      7  H   UNL A   1      31.521  27.112  20.685  1.00  0.00     0.163 HD
BRANCH   5   8
ATOM      8  C   UNL A   1      33.221  25.016  22.688  1.00  0.00     0.060 A 
ATOM      9  C   UNL A   1      33.927  23.059  23.917  1.00  0.00     0.060 A 
ATOM     10  C   UNL A   1      34.221  23.884  24.995  1.00  0.00     0.137 A 
ATOM     11  C   UNL A   1      33.353  23.636  22.788  1.00  0.00     0.043 A 
ATOM     12  N   UNL A   1      34.064  25.225  24.969  1.00  0.00    -0.262 NA
ATOM     13  C   UNL A   1      33.590  25.759  23.810  1.00  0.00     0.125 A 
BRANCH   9  14
ATOM     14  N   UNL A   1      34.222  21.684  23.973  1.00  0.00    -0.325 N 
ATOM     15  O   UNL A   1      32.194  20.963  24.827  1.00  0.00    -0.274 OA
ATOM     16  C   UNL A   1      33.338  20.726  24.436  1.00  0.00     0.230 C 
ATOM     17  H   UNL A   1      35.109  21.387  23.666  1.00  0.00     0.169 HD
BRANCH  16  18
ATOM     18  C   UNL A   1      33.890  19.316  24.515  1.00  0.00     0.167 C 
BRANCH  18  19
ATOM     19  C   UNL A   1      33.193  18.174  23.742  1.00  0.00     0.218 C 
ATOM     20  C   UNL A   1      34.061  16.996  23.263  1.00  0.00     0.225 C 
ATOM     21  N   UNL A   1      32.062  17.655  24.563  1.00  0.00    -0.340 N 
ATOM     22  O   UNL A   1      34.619  16.296  24.388  1.00  0.00    -0.369 OA
ATOM     23  C   UNL A   1      32.575  16.810  25.663  1.00  0.00     0.289 C 
ATOM     24  H   UNL A   1      31.444  17.100  23.970  1.00  0.00     0.346 HD
ATOM     25  H   UNL A   1      31.550  18.443  24.959  1.00  0.00     0.346 HD
ATOM     26  C   UNL A   1      33.567  15.734  25.192  1.00  0.00     0.221 C 
ENDBRANCH  18  19
ENDBRANCH  16  18
ENDBRANCH   9  14
ENDBRANCH   5   8
ENDBRANCH   3   4
ENDBRANCH   2   3
ENDBRANCH   1   2
BRANCH   1  27
ATOM     27  C   UNL A   1      31.437  29.789  25.315  1.00  0.00     0.002 C 
BRANCH  27  28
ATOM     28  C   UNL A   1      31.218  31.196  25.878  1.00  0.00     0.021 C 
BRANCH  28  29
ATOM     29  C   UNL A   1      32.251  31.629  26.915  1.00  0.00     0.116 C 
BRANCH  29  30
ATOM     30  N   UNL A   1      32.164  33.054  27.194  1.00  0.00    -0.352 N 
ATOM     31  C   UNL A   1      32.942  33.834  28.011  1.00  0.00     0.251 C 
ATOM     32  H   UNL A   1      31.439  33.529  26.728  1.00  0.00     0.163 HD
ATOM     33  O   UNL A   1      32.577  34.965  28.311  1.00  0.00    -0.269 OA
BRANCH  31  34
ATOM     34  C   UNL A   1      34.222  33.311  28.534  1.00  0.00     0.039 A 
ATOM     35  C   UNL A   1      35.408  33.655  27.880  1.00  0.00     0.014 A 
ATOM     36  C   UNL A   1      34.250  32.451  29.636  1.00  0.00     0.014 A 
ATOM     37  C   UNL A   1      36.627  33.171  28.357  1.00  0.00     0.010 A 
ATOM     38  C   UNL A   1      35.471  32.020  30.149  1.00  0.00     0.010 A 
ATOM     39  C   UNL A   1      36.669  32.367  29.508  1.00  0.00    -0.014 A 
BRANCH  39  40
ATOM     40  C   UNL A   1      37.961  31.872  30.046  1.00  0.00     0.031 A 
ATOM     41  C   UNL A   1      38.563  30.599  29.520  1.00  0.00     0.074 A 
ATOM     42  C   UNL A   1      38.564  32.545  31.045  1.00  0.00     0.049 A 
ATOM     43  N   UNL A   1      39.656  29.986  29.895  1.00  0.00    -0.248 NA
ATOM     44  C   UNL A   1      37.824  29.911  28.449  1.00  0.00     0.031 C 
ATOM     45  C   UNL A   1      38.054  33.765  31.672  1.00  0.00     0.029 A 
ATOM     46  N   UNL A   1      39.735  32.290  31.712  1.00  0.00    -0.354 N 
ATOM     47  C   UNL A   1      39.731  28.837  29.116  1.00  0.00     0.074 A 
ATOM     48  C   UNL A   1      38.546  28.812  28.286  1.00  0.00     0.031 C 
ATOM     49  C   UNL A   1      38.919  34.167  32.617  1.00  0.00     0.029 A 
ATOM     50  C   UNL A   1      40.026  33.218  32.683  1.00  0.00     0.049 A 
ATOM     51  H   UNL A   1      40.311  31.517  31.515  1.00  0.00     0.167 HD
ATOM     52  C   UNL A   1      40.708  27.901  29.081  1.00  0.00     0.037 A 
ATOM     53  C   UNL A   1      41.070  33.293  33.530  1.00  0.00     0.037 A 
ATOM     54  C   UNL A   1      41.897  27.941  29.891  1.00  0.00     0.049 A 
ATOM     55  C   UNL A   1      42.145  32.245  33.466  1.00  0.00     0.074 A 
ATOM     56  C   UNL A   1      42.974  27.071  29.888  1.00  0.00     0.029 A 
ATOM     57  N   UNL A   1      42.167  28.909  30.848  1.00  0.00    -0.354 N 
ATOM     58  N   UNL A   1      42.234  31.199  32.681  1.00  0.00    -0.248 NA
ATOM     59  C   UNL A   1      43.271  32.395  34.399  1.00  0.00     0.031 C 
ATOM     60  C   UNL A   1      43.878  27.491  30.870  1.00  0.00     0.029 A 
ATOM     61  C   UNL A   1      43.384  28.646  31.454  1.00  0.00     0.049 A 
ATOM     62  H   UNL A   1      41.580  29.669  31.064  1.00  0.00     0.167 HD
ATOM     63  C   UNL A   1      43.433  30.581  33.007  1.00  0.00     0.074 A 
ATOM     64  C   UNL A   1      44.045  31.377  34.050  1.00  0.00     0.031 C 
ATOM     65  C   UNL A   1      43.980  29.453  32.489  1.00  0.00     0.037 A 
BRANCH  52  66
ATOM     66  C   UNL A   1      40.532  26.755  28.129  1.00  0.00     0.057 A 
ATOM     67  C   UNL A   1      41.195  26.713  26.895  1.00  0.00     0.134 A 
ATOM     68  C   UNL A   1      39.716  25.666  28.460  1.00  0.00     0.134 A 
ATOM     69  F   UNL A   1      41.980  27.729  26.511  1.00  0.00    -0.206 F 
ATOM     70  C   UNL A   1      41.030  25.643  26.013  1.00  0.00     0.040 A 
ATOM     71  C   UNL A   1      39.565  24.578  27.598  1.00  0.00     0.040 A 
ATOM     72  F   UNL A   1      39.057  25.638  29.629  1.00  0.00    -0.206 F 
ATOM     73  C   UNL A   1      40.218  24.568  26.368  1.00  0.00     0.006 A 
ENDBRANCH  52  66
BRANCH  53  74
ATOM     74  C   UNL A   1      41.164  34.419  34.491  1.00  0.00     0.057 A 
ATOM     75  C   UNL A   1      40.596  34.324  35.767  1.00  0.00     0.134 A 
ATOM     76  C   UNL A   1      41.817  35.612  34.160  1.00  0.00     0.134 A 
ATOM     77  F   UNL A   1      39.943  33.213  36.134  1.00  0.00    -0.206 F 
ATOM     78  C   UNL A   1      40.659  35.384  36.675  1.00  0.00     0.040 A 
ATOM     79  C   UNL A   1      41.907  36.670  35.066  1.00  0.00     0.040 A 
ATOM     80  F   UNL A   1      42.386  35.762  32.956  1.00  0.00    -0.206 F 
ATOM     81  C   UNL A   1      41.321  36.559  36.326  1.00  0.00     0.006 A 
ENDBRANCH  53  74
BRANCH  65  82
ATOM     82  C   UNL A   1      45.317  29.035  33.023  1.00  0.00     0.057 A 
ATOM     83  C   UNL A   1      45.438  28.164  34.112  1.00  0.00     0.134 A 
ATOM     84  C   UNL A   1      46.498  29.490  32.422  1.00  0.00     0.134 A 
ATOM     85  F   UNL A   1      44.345  27.704  34.740  1.00  0.00    -0.206 F 
ATOM     86  C   UNL A   1      46.687  27.777  34.601  1.00  0.00     0.040 A 
ATOM     87  C   UNL A   1      47.752  29.090  32.886  1.00  0.00     0.040 A 
ATOM     88  F   UNL A   1      46.451  30.321  31.370  1.00  0.00    -0.206 F 
ATOM     89  C   UNL A   1      47.849  28.237  33.983  1.00  0.00     0.006 A 
ENDBRANCH  65  82
ENDBRANCH  39  40
ENDBRANCH  31  34
ENDBRANCH  29  30
ENDBRANCH  28  29
ENDBRANCH  27  28
ENDBRANCH   1  27
TORSDOF 16
ENDMDL
MODEL 3
REMARK VINA RESULT:     -11.4      4.747      9.820
REMARK SMILES O=C(C[C@H]1COCC[NH2+]1)Nc1cncc(C(=O)NCCCCCCNC(=O)c2ccc(-c3c4nc(c(-c5c(F)cccc5F)c5ccc([nH]5)c(-c5c(F)cccc5F)c5nc(c(-c6c(F)cccc6F)c6ccc3[nH]6)C=C5)C=C4)cc2)c1
REMARK SMILES IDX 21 1 20 2 19 3 18 4 16 5 17 6 15 8 11 9 12 10 82 11 13 12
REMARK SMILES IDX 14 13 10 14 1 15 2 16 3 18 4 19 5 20 9 21 6 22 8 23 7 26
REMARK SMILES IDX 22 27 23 28 24 29 25 30 26 31 27 33 28 34 29 35 81 36 30 37
REMARK SMILES IDX 80 38 31 39 32 40 33 41 74 42 34 43 79 44 73 45 75 46 35 47
REMARK SMILES IDX 78 48 72 49 71 50 36 52 62 53 45 54 61 55 46 56 49 57 60 58
REMARK SMILES IDX 76 59 47 60 48 61 59 63 77 64 50 65 37 66 38 67 43 68 39 69
REMARK SMILES IDX 40 70 42 71 44 72 41 73 63 74 64 75 69 76 65 77 66 78 68 79
REMARK SMILES IDX 70 80 67 81 51 82 52 83 57 84 53 85 54 86 56 87 58 88 55 89
REMARK H PARENT 18 7 10 17 9 24 9 25 25 32 75 51 49 62
REMARK Flexibility Score: inf
ROOT
ATOM      1  C   UNL A   1      31.957  29.677  26.601  1.00  0.00     0.002 C 
ENDROOT
BRANCH   1   2
ATOM      2  C   UNL A   1      32.641  28.580  25.773  1.00  0.00     0.021 C 
BRANCH   2   3
ATOM      3  C   UNL A   1      32.872  27.292  26.570  1.00  0.00     0.116 C 
BRANCH   3   4
ATOM      4  N   UNL A   1      31.620  26.581  26.759  1.00  0.00    -0.352 N 
ATOM      5  C   UNL A   1      31.025  25.533  26.104  1.00  0.00     0.252 C 
ATOM      6  O   UNL A   1      29.932  25.155  26.529  1.00  0.00    -0.269 OA
ATOM      7  H   UNL A   1      31.087  26.923  27.514  1.00  0.00     0.163 HD
BRANCH   5   8
ATOM      8  C   UNL A   1      31.623  24.817  24.950  1.00  0.00     0.060 A 
ATOM      9  C   UNL A   1      32.781  23.007  23.844  1.00  0.00     0.060 A 
ATOM     10  C   UNL A   1      32.614  23.681  22.641  1.00  0.00     0.137 A 
ATOM     11  C   UNL A   1      32.342  23.629  25.010  1.00  0.00     0.043 A 
ATOM     12  N   UNL A   1      31.967  24.862  22.533  1.00  0.00    -0.262 NA
ATOM     13  C   UNL A   1      31.469  25.388  23.686  1.00  0.00     0.125 A 
BRANCH   9  14
ATOM     14  N   UNL A   1      33.364  21.727  23.867  1.00  0.00    -0.325 N 
ATOM     15  O   UNL A   1      31.691  20.640  25.041  1.00  0.00    -0.274 OA
ATOM     16  C   UNL A   1      32.785  20.628  24.475  1.00  0.00     0.230 C 
ATOM     17  H   UNL A   1      34.236  21.606  23.425  1.00  0.00     0.169 HD
BRANCH  16  18
ATOM     18  C   UNL A   1      33.627  19.367  24.480  1.00  0.00     0.167 C 
BRANCH  18  19
ATOM     19  C   UNL A   1      33.137  18.112  23.725  1.00  0.00     0.218 C 
ATOM     20  C   UNL A   1      34.181  17.047  23.344  1.00  0.00     0.225 C 
ATOM     21  N   UNL A   1      32.041  17.474  24.508  1.00  0.00    -0.340 N 
ATOM     22  O   UNL A   1      34.764  16.474  24.526  1.00  0.00    -0.369 OA
ATOM     23  C   UNL A   1      32.600  16.749  25.670  1.00  0.00     0.289 C 
ATOM     24  H   UNL A   1      31.539  16.818  23.911  1.00  0.00     0.346 HD
ATOM     25  H   UNL A   1      31.405  18.199  24.842  1.00  0.00     0.346 HD
ATOM     26  C   UNL A   1      33.753  15.803  25.300  1.00  0.00     0.221 C 
ENDBRANCH  18  19
ENDBRANCH  16  18
ENDBRANCH   9  14
ENDBRANCH   5   8
ENDBRANCH   3   4
ENDBRANCH   2   3
ENDBRANCH   1   2
BRANCH   1  27
ATOM     27  C   UNL A   1      31.254  30.759  25.769  1.00  0.00     0.002 C 
BRANCH  27  28
ATOM     28  C   UNL A   1      31.259  32.159  26.390  1.00  0.00     0.021 C 
BRANCH  28  29
ATOM     29  C   UNL A   1      32.507  32.483  27.206  1.00  0.00     0.116 C 
BRANCH  29  30
ATOM     30  N   UNL A   1      32.546  33.885  27.590  1.00  0.00    -0.352 N 
ATOM     31  C   UNL A   1      33.330  34.515  28.523  1.00  0.00     0.251 C 
ATOM     32  H   UNL A   1      31.916  34.470  27.110  1.00  0.00     0.163 HD
ATOM     33  O   UNL A   1      33.062  35.656  28.883  1.00  0.00    -0.269 OA
BRANCH  31  34
ATOM     34  C   UNL A   1      34.501  33.819  29.098  1.00  0.00     0.039 A 
ATOM     35  C   UNL A   1      34.287  32.800  30.030  1.00  0.00     0.014 A 
ATOM     36  C   UNL A   1      35.802  34.200  28.758  1.00  0.00     0.014 A 
ATOM     37  C   UNL A   1      35.378  32.131  30.587  1.00  0.00     0.010 A 
ATOM     38  C   UNL A   1      36.888  33.491  29.265  1.00  0.00     0.010 A 
ATOM     39  C   UNL A   1      36.687  32.458  30.192  1.00  0.00    -0.014 A 
BRANCH  39  40
ATOM     40  C   UNL A   1      37.855  31.733  30.751  1.00  0.00     0.031 A 
ATOM     41  C   UNL A   1      38.366  32.065  32.125  1.00  0.00     0.074 A 
ATOM     42  C   UNL A   1      38.487  30.812  29.998  1.00  0.00     0.049 A 
ATOM     43  N   UNL A   1      39.397  31.575  32.765  1.00  0.00    -0.248 NA
ATOM     44  C   UNL A   1      37.636  33.104  32.870  1.00  0.00     0.031 C 
ATOM     45  C   UNL A   1      38.116  30.437  28.633  1.00  0.00     0.029 A 
ATOM     46  N   UNL A   1      39.579  30.030  30.275  1.00  0.00    -0.354 N 
ATOM     47  C   UNL A   1      39.447  32.252  33.977  1.00  0.00     0.074 A 
ATOM     48  C   UNL A   1      38.374  33.223  33.963  1.00  0.00     0.031 C 
ATOM     49  C   UNL A   1      38.951  29.480  28.199  1.00  0.00     0.029 A 
ATOM     50  C   UNL A   1      39.933  29.197  29.241  1.00  0.00     0.049 A 
ATOM     51  H   UNL A   1      40.063  30.062  31.131  1.00  0.00     0.167 HD
ATOM     52  C   UNL A   1      40.295  32.065  35.016  1.00  0.00     0.037 A 
ATOM     53  C   UNL A   1      40.936  28.305  29.147  1.00  0.00     0.037 A 
ATOM     54  C   UNL A   1      41.346  31.081  35.037  1.00  0.00     0.049 A 
ATOM     55  C   UNL A   1      41.860  28.111  30.317  1.00  0.00     0.074 A 
ATOM     56  C   UNL A   1      42.221  30.775  36.064  1.00  0.00     0.029 A 
ATOM     57  N   UNL A   1      41.659  30.241  33.979  1.00  0.00    -0.354 N 
ATOM     58  N   UNL A   1      41.856  28.714  31.481  1.00  0.00    -0.248 NA
ATOM     59  C   UNL A   1      42.921  27.106  30.163  1.00  0.00     0.031 C 
ATOM     60  C   UNL A   1      43.090  29.775  35.614  1.00  0.00     0.029 A 
ATOM     61  C   UNL A   1      42.728  29.429  34.323  1.00  0.00     0.049 A 
ATOM     62  H   UNL A   1      41.193  30.224  33.112  1.00  0.00     0.167 HD
ATOM     63  C   UNL A   1      42.894  28.145  32.207  1.00  0.00     0.074 A 
ATOM     64  C   UNL A   1      43.496  27.140  31.356  1.00  0.00     0.031 C 
ATOM     65  C   UNL A   1      43.312  28.430  33.465  1.00  0.00     0.037 A 
BRANCH  52  66
ATOM     66  C   UNL A   1      40.115  32.942  36.220  1.00  0.00     0.057 A 
ATOM     67  C   UNL A   1      40.872  34.108  36.403  1.00  0.00     0.134 A 
ATOM     68  C   UNL A   1      39.155  32.638  37.193  1.00  0.00     0.134 A 
ATOM     69  F   UNL A   1      41.818  34.450  35.515  1.00  0.00    -0.206 F 
ATOM     70  C   UNL A   1      40.700  34.923  37.523  1.00  0.00     0.040 A 
ATOM     71  C   UNL A   1      38.955  33.460  38.303  1.00  0.00     0.040 A 
ATOM     72  F   UNL A   1      38.391  31.541  37.077  1.00  0.00    -0.206 F 
ATOM     73  C   UNL A   1      39.733  34.602  38.474  1.00  0.00     0.006 A 
ENDBRANCH  52  66
BRANCH  53  74
ATOM     74  C   UNL A   1      41.102  27.504  27.909  1.00  0.00     0.057 A 
ATOM     75  C   UNL A   1      40.443  26.279  27.752  1.00  0.00     0.134 A 
ATOM     76  C   UNL A   1      41.919  27.939  26.859  1.00  0.00     0.134 A 
ATOM     77  F   UNL A   1      39.661  25.803  28.731  1.00  0.00    -0.206 F 
ATOM     78  C   UNL A   1      40.605  25.505  26.602  1.00  0.00     0.040 A 
ATOM     79  C   UNL A   1      42.071  27.186  25.694  1.00  0.00     0.040 A 
ATOM     80  F   UNL A   1      42.571  29.107  26.947  1.00  0.00    -0.206 F 
ATOM     81  C   UNL A   1      41.418  25.961  25.566  1.00  0.00     0.006 A 
ENDBRANCH  53  74
BRANCH  65  82
ATOM     82  C   UNL A   1      44.455  27.622  34.003  1.00  0.00     0.057 A 
ATOM     83  C   UNL A   1      45.787  28.012  33.818  1.00  0.00     0.134 A 
ATOM     84  C   UNL A   1      44.217  26.454  34.739  1.00  0.00     0.134 A 
ATOM     85  F   UNL A   1      46.082  29.114  33.111  1.00  0.00    -0.206 F 
ATOM     86  C   UNL A   1      46.844  27.256  34.327  1.00  0.00     0.040 A 
ATOM     87  C   UNL A   1      45.265  25.704  35.274  1.00  0.00     0.040 A 
ATOM     88  F   UNL A   1      42.963  26.030  34.958  1.00  0.00    -0.206 F 
ATOM     89  C   UNL A   1      46.584  26.100  35.062  1.00  0.00     0.006 A 
ENDBRANCH  65  82
ENDBRANCH  39  40
ENDBRANCH  31  34
ENDBRANCH  29  30
ENDBRANCH  28  29
ENDBRANCH  27  28
ENDBRANCH   1  27
TORSDOF 16
ENDMDL
