MODEL 1
REMARK VINA RESULT:     -11.5      0.000      0.000
REMARK SMILES COc1ccccc1C[C@@H](C(=O)NCCCCCCNC(=O)c1ccc(-c2c3nc(c(-c4c(F)cccc4F)c4ccc([nH]4)c(-c4c(F)cccc4F)c4nc(c(-c5c(F)cccc5F)c5ccc2[nH]5)C=C4)C=C3)cc1)[C@@H]1C[C@H](C)C[C@H](C)C1
REMARK SMILES IDX 16 1 15 2 14 3 13 4 11 5 12 6 10 8 9 9 8 10 3 11 4 12 5 13
REMARK SMILES IDX 7 14 6 15 2 16 1 17 77 18 84 19 78 20 82 21 79 22 83 23
REMARK SMILES IDX 81 24 80 25 17 26 18 27 19 28 20 29 21 30 22 32 23 33 24 34
REMARK SMILES IDX 76 35 25 36 75 37 26 38 27 39 28 40 69 41 29 42 74 43 68 44
REMARK SMILES IDX 70 45 30 46 73 47 67 48 66 49 31 51 57 52 40 53 56 54 41 55
REMARK SMILES IDX 44 56 55 57 71 58 42 59 43 60 54 62 72 63 45 64 32 65 33 66
REMARK SMILES IDX 38 67 34 68 35 69 37 70 39 71 36 72 58 73 59 74 64 75 60 76
REMARK SMILES IDX 61 77 63 78 65 79 62 80 46 81 47 82 52 83 48 84 49 85 51 86
REMARK SMILES IDX 53 87 50 88
REMARK H PARENT 13 7 20 31 70 50 44 61
REMARK Flexibility Score: inf
ROOT
ATOM      1  C   UNL A   1      33.418  22.031  24.405  1.00  0.00     0.002 C 
ENDROOT
BRANCH   1   2
ATOM      2  C   UNL A   1      32.816  22.196  23.011  1.00  0.00     0.021 C 
BRANCH   2   3
ATOM      3  C   UNL A   1      31.943  23.425  22.775  1.00  0.00     0.116 C 
BRANCH   3   4
ATOM      4  N   UNL A   1      32.632  24.318  21.875  1.00  0.00    -0.356 N 
ATOM      5  C   UNL A   1      32.490  25.660  21.719  1.00  0.00     0.223 C 
ATOM      6  O   UNL A   1      32.812  26.088  20.606  1.00  0.00    -0.275 OA
ATOM      7  H   UNL A   1      33.300  23.893  21.290  1.00  0.00     0.163 HD
BRANCH   5   8
ATOM      8  C   UNL A   1      32.038  26.603  22.871  1.00  0.00     0.086 C 
BRANCH   8   9
ATOM      9  C   UNL A   1      31.216  27.815  22.381  1.00  0.00     0.053 C 
BRANCH   9  10
ATOM     10  C   UNL A   1      29.772  28.078  22.766  1.00  0.00    -0.005 A 
ATOM     11  C   UNL A   1      29.022  29.173  22.317  1.00  0.00     0.122 A 
ATOM     12  C   UNL A   1      27.701  29.383  22.740  1.00  0.00     0.047 A 
ATOM     13  C   UNL A   1      27.054  28.424  23.508  1.00  0.00     0.004 A 
ATOM     14  C   UNL A   1      29.074  27.092  23.485  1.00  0.00     0.007 A 
ATOM     15  C   UNL A   1      27.731  27.258  23.850  1.00  0.00     0.001 A 
BRANCH  11  16
ATOM     16  O   UNL A   1      29.520  30.022  21.363  1.00  0.00    -0.496 OA
ATOM     17  C   UNL A   1      28.525  31.028  21.097  1.00  0.00     0.278 C 
ENDBRANCH  11  16
ENDBRANCH   9  10
ENDBRANCH   8   9
BRANCH   8  18
ATOM     18  C   UNL A   1      33.400  27.069  23.565  1.00  0.00     0.002 C 
ATOM     19  C   UNL A   1      33.460  28.535  24.039  1.00  0.00     0.007 C 
ATOM     20  C   UNL A   1      34.038  26.145  24.609  1.00  0.00     0.007 C 
ATOM     21  C   UNL A   1      33.061  28.864  25.483  1.00  0.00    -0.014 C 
ATOM     22  C   UNL A   1      33.650  26.340  26.074  1.00  0.00    -0.014 C 
ATOM     23  C   UNL A   1      31.662  29.482  25.635  1.00  0.00     0.007 C 
ATOM     24  C   UNL A   1      33.317  27.771  26.527  1.00  0.00     0.006 C 
ATOM     25  C   UNL A   1      32.589  25.321  26.476  1.00  0.00     0.007 C 
ENDBRANCH   8  18
ENDBRANCH   5   8
ENDBRANCH   3   4
ENDBRANCH   2   3
ENDBRANCH   1   2
BRANCH   1  26
ATOM     26  C   UNL A   1      34.937  21.858  24.443  1.00  0.00     0.002 C 
BRANCH  26  27
ATOM     27  C   UNL A   1      35.759  23.151  24.502  1.00  0.00     0.021 C 
BRANCH  27  28
ATOM     28  C   UNL A   1      36.510  23.401  25.810  1.00  0.00     0.116 C 
BRANCH  28  29
ATOM     29  N   UNL A   1      37.575  22.440  26.031  1.00  0.00    -0.352 N 
ATOM     30  C   UNL A   1      38.881  22.631  26.401  1.00  0.00     0.251 C 
ATOM     31  H   UNL A   1      37.319  21.500  25.890  1.00  0.00     0.163 HD
ATOM     32  O   UNL A   1      39.675  21.697  26.339  1.00  0.00    -0.269 OA
BRANCH  30  33
ATOM     33  C   UNL A   1      39.356  23.955  26.862  1.00  0.00     0.039 A 
ATOM     34  C   UNL A   1      39.937  24.817  25.926  1.00  0.00     0.014 A 
ATOM     35  C   UNL A   1      39.294  24.329  28.208  1.00  0.00     0.014 A 
ATOM     36  C   UNL A   1      40.407  26.070  26.328  1.00  0.00     0.010 A 
ATOM     37  C   UNL A   1      39.710  25.603  28.597  1.00  0.00     0.010 A 
ATOM     38  C   UNL A   1      40.274  26.485  27.663  1.00  0.00    -0.014 A 
BRANCH  38  39
ATOM     39  C   UNL A   1      40.714  27.840  28.087  1.00  0.00     0.031 A 
ATOM     40  C   UNL A   1      42.173  28.200  28.106  1.00  0.00     0.074 A 
ATOM     41  C   UNL A   1      39.799  28.730  28.516  1.00  0.00     0.049 A 
ATOM     42  N   UNL A   1      42.746  29.311  28.498  1.00  0.00    -0.248 NA
ATOM     43  C   UNL A   1      43.115  27.168  27.647  1.00  0.00     0.031 C 
ATOM     44  C   UNL A   1      38.357  28.489  28.596  1.00  0.00     0.029 A 
ATOM     45  N   UNL A   1      39.949  30.013  28.983  1.00  0.00    -0.354 N 
ATOM     46  C   UNL A   1      44.111  29.106  28.350  1.00  0.00     0.074 A 
ATOM     47  C   UNL A   1      44.284  27.751  27.871  1.00  0.00     0.031 C 
ATOM     48  C   UNL A   1      37.756  29.590  29.074  1.00  0.00     0.029 A 
ATOM     49  C   UNL A   1      38.768  30.601  29.363  1.00  0.00     0.049 A 
ATOM     50  H   UNL A   1      40.821  30.468  29.039  1.00  0.00     0.167 HD
ATOM     51  C   UNL A   1      45.127  29.973  28.578  1.00  0.00     0.037 A 
ATOM     52  C   UNL A   1      38.526  31.814  29.894  1.00  0.00     0.037 A 
ATOM     53  C   UNL A   1      44.955  31.330  29.026  1.00  0.00     0.049 A 
ATOM     54  C   UNL A   1      39.668  32.764  30.123  1.00  0.00     0.074 A 
ATOM     55  C   UNL A   1      45.918  32.309  29.205  1.00  0.00     0.029 A 
ATOM     56  N   UNL A   1      43.739  31.900  29.374  1.00  0.00    -0.354 N 
ATOM     57  N   UNL A   1      40.947  32.584  29.903  1.00  0.00    -0.248 NA
ATOM     58  C   UNL A   1      39.329  34.088  30.664  1.00  0.00     0.031 C 
ATOM     59  C   UNL A   1      45.291  33.457  29.701  1.00  0.00     0.029 A 
ATOM     60  C   UNL A   1      43.931  33.207  29.791  1.00  0.00     0.049 A 
ATOM     61  H   UNL A   1      42.868  31.442  29.329  1.00  0.00     0.167 HD
ATOM     62  C   UNL A   1      41.565  33.775  30.260  1.00  0.00     0.074 A 
ATOM     63  C   UNL A   1      40.518  34.676  30.698  1.00  0.00     0.031 C 
ATOM     64  C   UNL A   1      42.882  34.093  30.228  1.00  0.00     0.037 A 
BRANCH  51  65
ATOM     65  C   UNL A   1      46.524  29.475  28.345  1.00  0.00     0.057 A 
ATOM     66  C   UNL A   1      47.275  28.874  29.363  1.00  0.00     0.134 A 
ATOM     67  C   UNL A   1      47.114  29.571  27.078  1.00  0.00     0.134 A 
ATOM     68  F   UNL A   1      46.773  28.760  30.602  1.00  0.00    -0.206 F 
ATOM     69  C   UNL A   1      48.574  28.414  29.138  1.00  0.00     0.040 A 
ATOM     70  C   UNL A   1      48.402  29.090  26.834  1.00  0.00     0.040 A 
ATOM     71  F   UNL A   1      46.447  30.127  26.055  1.00  0.00    -0.206 F 
ATOM     72  C   UNL A   1      49.139  28.517  27.868  1.00  0.00     0.006 A 
ENDBRANCH  51  65
BRANCH  52  73
ATOM     73  C   UNL A   1      37.134  32.202  30.233  1.00  0.00     0.057 A 
ATOM     74  C   UNL A   1      36.602  31.945  31.501  1.00  0.00     0.134 A 
ATOM     75  C   UNL A   1      36.312  32.851  29.304  1.00  0.00     0.134 A 
ATOM     76  F   UNL A   1      37.336  31.310  32.425  1.00  0.00    -0.206 F 
ATOM     77  C   UNL A   1      35.295  32.309  31.830  1.00  0.00     0.040 A 
ATOM     78  C   UNL A   1      35.012  33.239  29.627  1.00  0.00     0.040 A 
ATOM     79  F   UNL A   1      36.770  33.132  28.075  1.00  0.00    -0.206 F 
ATOM     80  C   UNL A   1      34.499  32.964  30.893  1.00  0.00     0.006 A 
ENDBRANCH  52  73
BRANCH  64  81
ATOM     81  C   UNL A   1      43.264  35.477  30.660  1.00  0.00     0.057 A 
ATOM     82  C   UNL A   1      43.537  35.782  32.000  1.00  0.00     0.134 A 
ATOM     83  C   UNL A   1      43.395  36.509  29.722  1.00  0.00     0.134 A 
ATOM     84  F   UNL A   1      43.416  34.841  32.950  1.00  0.00    -0.206 F 
ATOM     85  C   UNL A   1      43.909  37.069  32.393  1.00  0.00     0.040 A 
ATOM     86  C   UNL A   1      43.789  37.793  30.100  1.00  0.00     0.040 A 
ATOM     87  F   UNL A   1      43.155  36.281  28.422  1.00  0.00    -0.206 F 
ATOM     88  C   UNL A   1      44.043  38.077  31.441  1.00  0.00     0.006 A 
ENDBRANCH  64  81
ENDBRANCH  38  39
ENDBRANCH  30  33
ENDBRANCH  28  29
ENDBRANCH  27  28
ENDBRANCH  26  27
ENDBRANCH   1  26
TORSDOF 17
ENDMDL
MODEL 2
REMARK VINA RESULT:     -11.4      4.056      7.449
REMARK SMILES COc1ccccc1C[C@@H](C(=O)NCCCCCCNC(=O)c1ccc(-c2c3nc(c(-c4c(F)cccc4F)c4ccc([nH]4)c(-c4c(F)cccc4F)c4nc(c(-c5c(F)cccc5F)c5ccc2[nH]5)C=C4)C=C3)cc1)[C@@H]1C[C@H](C)C[C@H](C)C1
REMARK SMILES IDX 16 1 15 2 14 3 13 4 11 5 12 6 10 8 9 9 8 10 3 11 4 12 5 13
REMARK SMILES IDX 7 14 6 15 2 16 1 17 77 18 84 19 78 20 82 21 79 22 83 23
REMARK SMILES IDX 81 24 80 25 17 26 18 27 19 28 20 29 21 30 22 32 23 33 24 34
REMARK SMILES IDX 76 35 25 36 75 37 26 38 27 39 28 40 69 41 29 42 74 43 68 44
REMARK SMILES IDX 70 45 30 46 73 47 67 48 66 49 31 51 57 52 40 53 56 54 41 55
REMARK SMILES IDX 44 56 55 57 71 58 42 59 43 60 54 62 72 63 45 64 32 65 33 66
REMARK SMILES IDX 38 67 34 68 35 69 37 70 39 71 36 72 58 73 59 74 64 75 60 76
REMARK SMILES IDX 61 77 63 78 65 79 62 80 46 81 47 82 52 83 48 84 49 85 51 86
REMARK SMILES IDX 53 87 50 88
REMARK H PARENT 13 7 20 31 70 50 44 61
REMARK Flexibility Score: inf
ROOT
ATOM      1  C   UNL A   1      32.173  30.024  26.018  1.00  0.00     0.002 C 
ENDROOT
BRANCH   1   2
ATOM      2  C   UNL A   1      31.797  28.875  26.953  1.00  0.00     0.021 C 
BRANCH   2   3
ATOM      3  C   UNL A   1      32.357  27.497  26.613  1.00  0.00     0.116 C 
BRANCH   3   4
ATOM      4  N   UNL A   1      31.375  26.499  26.964  1.00  0.00    -0.356 N 
ATOM      5  C   UNL A   1      30.646  25.688  26.153  1.00  0.00     0.223 C 
ATOM      6  O   UNL A   1      29.578  25.299  26.635  1.00  0.00    -0.275 OA
ATOM      7  H   UNL A   1      31.209  26.391  27.928  1.00  0.00     0.163 HD
BRANCH   5   8
ATOM      8  C   UNL A   1      31.147  25.213  24.758  1.00  0.00     0.086 C 
BRANCH   8   9
ATOM      9  C   UNL A   1      30.265  25.706  23.591  1.00  0.00     0.053 C 
BRANCH   9  10
ATOM     10  C   UNL A   1      30.058  27.168  23.238  1.00  0.00    -0.005 A 
ATOM     11  C   UNL A   1      31.056  28.005  22.725  1.00  0.00     0.122 A 
ATOM     12  C   UNL A   1      30.812  29.360  22.454  1.00  0.00     0.047 A 
ATOM     13  C   UNL A   1      29.525  29.871  22.553  1.00  0.00     0.004 A 
ATOM     14  C   UNL A   1      28.752  27.691  23.265  1.00  0.00     0.007 A 
ATOM     15  C   UNL A   1      28.486  29.024  22.925  1.00  0.00     0.001 A 
BRANCH  11  16
ATOM     16  O   UNL A   1      32.281  27.503  22.369  1.00  0.00    -0.496 OA
ATOM     17  C   UNL A   1      33.281  28.480  22.712  1.00  0.00     0.278 C 
ENDBRANCH  11  16
ENDBRANCH   9  10
ENDBRANCH   8   9
BRANCH   8  18
ATOM     18  C   UNL A   1      31.144  23.617  24.853  1.00  0.00     0.002 C 
ATOM     19  C   UNL A   1      31.300  22.853  23.524  1.00  0.00     0.007 C 
ATOM     20  C   UNL A   1      31.979  22.952  25.952  1.00  0.00     0.007 C 
ATOM     21  C   UNL A   1      32.704  22.438  23.068  1.00  0.00    -0.014 C 
ATOM     22  C   UNL A   1      33.421  22.565  25.625  1.00  0.00    -0.014 C 
ATOM     23  C   UNL A   1      33.303  23.319  21.959  1.00  0.00     0.007 C 
ATOM     24  C   UNL A   1      33.723  22.148  24.176  1.00  0.00     0.006 C 
ATOM     25  C   UNL A   1      34.381  23.623  26.157  1.00  0.00     0.007 C 
ENDBRANCH   8  18
ENDBRANCH   5   8
ENDBRANCH   3   4
ENDBRANCH   2   3
ENDBRANCH   1   2
BRANCH   1  26
ATOM     26  C   UNL A   1      31.045  31.008  25.709  1.00  0.00     0.002 C 
BRANCH  26  27
ATOM     27  C   UNL A   1      31.063  32.321  26.500  1.00  0.00     0.021 C 
BRANCH  27  28
ATOM     28  C   UNL A   1      32.423  32.737  27.064  1.00  0.00     0.116 C 
BRANCH  28  29
ATOM     29  N   UNL A   1      32.419  34.095  27.575  1.00  0.00    -0.352 N 
ATOM     30  C   UNL A   1      33.159  34.669  28.577  1.00  0.00     0.251 C 
ATOM     31  H   UNL A   1      31.783  34.702  27.132  1.00  0.00     0.163 HD
ATOM     32  O   UNL A   1      32.862  35.786  28.990  1.00  0.00    -0.269 OA
BRANCH  30  33
ATOM     33  C   UNL A   1      34.306  33.954  29.182  1.00  0.00     0.039 A 
ATOM     34  C   UNL A   1      35.592  34.244  28.714  1.00  0.00     0.014 A 
ATOM     35  C   UNL A   1      34.124  32.962  30.149  1.00  0.00     0.014 A 
ATOM     36  C   UNL A   1      36.696  33.580  29.253  1.00  0.00     0.010 A 
ATOM     37  C   UNL A   1      35.233  32.342  30.728  1.00  0.00     0.010 A 
ATOM     38  C   UNL A   1      36.530  32.641  30.284  1.00  0.00    -0.014 A 
BRANCH  38  39
ATOM     39  C   UNL A   1      37.703  31.976  30.905  1.00  0.00     0.031 A 
ATOM     40  C   UNL A   1      38.447  30.894  30.173  1.00  0.00     0.074 A 
ATOM     41  C   UNL A   1      38.063  32.303  32.161  1.00  0.00     0.049 A 
ATOM     42  N   UNL A   1      39.457  30.165  30.578  1.00  0.00    -0.248 NA
ATOM     43  C   UNL A   1      37.981  30.574  28.816  1.00  0.00     0.031 C 
ATOM     44  C   UNL A   1      37.394  33.298  33.001  1.00  0.00     0.029 A 
ATOM     45  N   UNL A   1      39.072  31.820  32.958  1.00  0.00    -0.354 N 
ATOM     46  C   UNL A   1      39.735  29.290  29.537  1.00  0.00     0.074 A 
ATOM     47  C   UNL A   1      38.762  29.552  28.497  1.00  0.00     0.031 C 
ATOM     48  C   UNL A   1      38.014  33.357  34.189  1.00  0.00     0.029 A 
ATOM     49  C   UNL A   1      39.104  32.385  34.209  1.00  0.00     0.049 A 
ATOM     50  H   UNL A   1      39.713  31.134  32.660  1.00  0.00     0.167 HD
ATOM     51  C   UNL A   1      40.720  28.364  29.448  1.00  0.00     0.037 A 
ATOM     52  C   UNL A   1      39.912  32.144  35.258  1.00  0.00     0.037 A 
ATOM     53  C   UNL A   1      41.706  28.123  30.469  1.00  0.00     0.049 A 
ATOM     54  C   UNL A   1      41.007  31.123  35.130  1.00  0.00     0.074 A 
ATOM     55  C   UNL A   1      42.792  27.264  30.435  1.00  0.00     0.029 A 
ATOM     56  N   UNL A   1      41.722  28.737  31.712  1.00  0.00    -0.354 N 
ATOM     57  N   UNL A   1      41.308  30.359  34.109  1.00  0.00    -0.248 NA
ATOM     58  C   UNL A   1      41.881  30.939  36.298  1.00  0.00     0.031 C 
ATOM     59  C   UNL A   1      43.440  27.327  31.673  1.00  0.00     0.029 A 
ATOM     60  C   UNL A   1      42.784  28.257  32.464  1.00  0.00     0.049 A 
ATOM     61  H   UNL A   1      41.076  29.415  32.016  1.00  0.00     0.167 HD
ATOM     62  C   UNL A   1      42.414  29.618  34.501  1.00  0.00     0.074 A 
ATOM     63  C   UNL A   1      42.740  30.034  35.850  1.00  0.00     0.031 C 
ATOM     64  C   UNL A   1      43.097  28.676  33.805  1.00  0.00     0.037 A 
BRANCH  51  65
ATOM     65  C   UNL A   1      40.779  27.537  28.196  1.00  0.00     0.057 A 
ATOM     66  C   UNL A   1      41.549  27.920  27.090  1.00  0.00     0.134 A 
ATOM     67  C   UNL A   1      40.079  26.326  28.108  1.00  0.00     0.134 A 
ATOM     68  F   UNL A   1      42.235  29.073  27.107  1.00  0.00    -0.206 F 
ATOM     69  C   UNL A   1      41.597  27.145  25.931  1.00  0.00     0.040 A 
ATOM     70  C   UNL A   1      40.141  25.530  26.963  1.00  0.00     0.040 A 
ATOM     71  F   UNL A   1      39.330  25.896  29.133  1.00  0.00    -0.206 F 
ATOM     72  C   UNL A   1      40.895  25.943  25.867  1.00  0.00     0.006 A 
ENDBRANCH  51  65
BRANCH  52  73
ATOM     73  C   UNL A   1      39.719  32.898  36.521  1.00  0.00     0.057 A 
ATOM     74  C   UNL A   1      40.480  34.036  36.807  1.00  0.00     0.134 A 
ATOM     75  C   UNL A   1      38.761  32.506  37.464  1.00  0.00     0.134 A 
ATOM     76  F   UNL A   1      41.425  34.449  35.950  1.00  0.00    -0.206 F 
ATOM     77  C   UNL A   1      40.303  34.754  37.991  1.00  0.00     0.040 A 
ATOM     78  C   UNL A   1      38.559  33.226  38.642  1.00  0.00     0.040 A 
ATOM     79  F   UNL A   1      37.995  31.427  37.242  1.00  0.00    -0.206 F 
ATOM     80  C   UNL A   1      39.335  34.351  38.909  1.00  0.00     0.006 A 
ENDBRANCH  52  73
BRANCH  64  81
ATOM     81  C   UNL A   1      44.277  28.045  34.483  1.00  0.00     0.057 A 
ATOM     82  C   UNL A   1      44.159  26.856  35.213  1.00  0.00     0.134 A 
ATOM     83  C   UNL A   1      45.553  28.614  34.374  1.00  0.00     0.134 A 
ATOM     84  F   UNL A   1      42.962  26.268  35.366  1.00  0.00    -0.206 F 
ATOM     85  C   UNL A   1      45.265  26.264  35.826  1.00  0.00     0.040 A 
ATOM     86  C   UNL A   1      46.668  28.020  34.964  1.00  0.00     0.040 A 
ATOM     87  F   UNL A   1      45.735  29.749  33.683  1.00  0.00    -0.206 F 
ATOM     88  C   UNL A   1      46.525  26.843  35.697  1.00  0.00     0.006 A 
ENDBRANCH  64  81
ENDBRANCH  38  39
ENDBRANCH  30  33
ENDBRANCH  28  29
ENDBRANCH  27  28
ENDBRANCH  26  27
ENDBRANCH   1  26
TORSDOF 17
ENDMDL
MODEL 3
REMARK VINA RESULT:     -11.4      1.846      2.409
REMARK SMILES COc1ccccc1C[C@@H](C(=O)NCCCCCCNC(=O)c1ccc(-c2c3nc(c(-c4c(F)cccc4F)c4ccc([nH]4)c(-c4c(F)cccc4F)c4nc(c(-c5c(F)cccc5F)c5ccc2[nH]5)C=C4)C=C3)cc1)[C@@H]1C[C@H](C)C[C@H](C)C1
REMARK SMILES IDX 16 1 15 2 14 3 13 4 11 5 12 6 10 8 9 9 8 10 3 11 4 12 5 13
REMARK SMILES IDX 7 14 6 15 2 16 1 17 77 18 84 19 78 20 82 21 79 22 83 23
REMARK SMILES IDX 81 24 80 25 17 26 18 27 19 28 20 29 21 30 22 32 23 33 24 34
REMARK SMILES IDX 76 35 25 36 75 37 26 38 27 39 28 40 69 41 29 42 74 43 68 44
REMARK SMILES IDX 70 45 30 46 73 47 67 48 66 49 31 51 57 52 40 53 56 54 41 55
REMARK SMILES IDX 44 56 55 57 71 58 42 59 43 60 54 62 72 63 45 64 32 65 33 66
REMARK SMILES IDX 38 67 34 68 35 69 37 70 39 71 36 72 58 73 59 74 64 75 60 76
REMARK SMILES IDX 61 77 63 78 65 79 62 80 46 81 47 82 52 83 48 84 49 85 51 86
REMARK SMILES IDX 53 87 50 88
REMARK H PARENT 13 7 20 31 70 50 44 61
REMARK Flexibility Score: inf
ROOT
ATOM      1  C   UNL A   1      33.981  22.307  23.285  1.00  0.00     0.002 C 
ENDROOT
BRANCH   1   2
ATOM      2  C   UNL A   1      32.752  22.788  24.055  1.00  0.00     0.021 C 
BRANCH   2   3
ATOM      3  C   UNL A   1      31.661  23.487  23.248  1.00  0.00     0.116 C 
BRANCH   3   4
ATOM      4  N   UNL A   1      32.281  24.233  22.179  1.00  0.00    -0.356 N 
ATOM      5  C   UNL A   1      32.151  25.547  21.860  1.00  0.00     0.223 C 
ATOM      6  O   UNL A   1      32.377  25.817  20.676  1.00  0.00    -0.275 OA
ATOM      7  H   UNL A   1      32.883  23.715  21.598  1.00  0.00     0.163 HD
BRANCH   5   8
ATOM      8  C   UNL A   1      31.827  26.646  22.913  1.00  0.00     0.086 C 
BRANCH   8   9
ATOM      9  C   UNL A   1      31.000  27.817  22.340  1.00  0.00     0.053 C 
BRANCH   9  10
ATOM     10  C   UNL A   1      29.566  28.122  22.735  1.00  0.00    -0.005 A 
ATOM     11  C   UNL A   1      28.840  29.229  22.277  1.00  0.00     0.122 A 
ATOM     12  C   UNL A   1      27.529  29.479  22.710  1.00  0.00     0.047 A 
ATOM     13  C   UNL A   1      26.865  28.547  23.498  1.00  0.00     0.004 A 
ATOM     14  C   UNL A   1      28.850  27.164  23.475  1.00  0.00     0.007 A 
ATOM     15  C   UNL A   1      27.516  27.370  23.850  1.00  0.00     0.001 A 
BRANCH  11  16
ATOM     16  O   UNL A   1      29.350  30.051  21.306  1.00  0.00    -0.496 OA
ATOM     17  C   UNL A   1      28.754  31.352  21.464  1.00  0.00     0.278 C 
ENDBRANCH  11  16
ENDBRANCH   9  10
ENDBRANCH   8   9
BRANCH   8  18
ATOM     18  C   UNL A   1      33.257  27.144  23.426  1.00  0.00     0.002 C 
ATOM     19  C   UNL A   1      33.362  28.630  23.824  1.00  0.00     0.007 C 
ATOM     20  C   UNL A   1      34.015  26.268  24.429  1.00  0.00     0.007 C 
ATOM     21  C   UNL A   1      33.129  29.022  25.288  1.00  0.00    -0.014 C 
ATOM     22  C   UNL A   1      33.796  26.528  25.919  1.00  0.00    -0.014 C 
ATOM     23  C   UNL A   1      31.752  29.645  25.571  1.00  0.00     0.007 C 
ATOM     24  C   UNL A   1      33.508  27.978  26.344  1.00  0.00     0.006 C 
ATOM     25  C   UNL A   1      32.795  25.527  26.484  1.00  0.00     0.007 C 
ENDBRANCH   8  18
ENDBRANCH   5   8
ENDBRANCH   3   4
ENDBRANCH   2   3
ENDBRANCH   1   2
BRANCH   1  26
ATOM     26  C   UNL A   1      35.285  23.031  23.621  1.00  0.00     0.002 C 
BRANCH  26  27
ATOM     27  C   UNL A   1      35.736  22.958  25.085  1.00  0.00     0.021 C 
BRANCH  27  28
ATOM     28  C   UNL A   1      37.025  23.709  25.420  1.00  0.00     0.116 C 
BRANCH  28  29
ATOM     29  N   UNL A   1      38.157  22.818  25.591  1.00  0.00    -0.352 N 
ATOM     30  C   UNL A   1      39.399  23.051  26.125  1.00  0.00     0.251 C 
ATOM     31  H   UNL A   1      38.012  21.898  25.272  1.00  0.00     0.163 HD
ATOM     32  O   UNL A   1      40.285  22.212  25.995  1.00  0.00    -0.269 OA
BRANCH  30  33
ATOM     33  C   UNL A   1      39.693  24.310  26.846  1.00  0.00     0.039 A 
ATOM     34  C   UNL A   1      39.197  24.465  28.145  1.00  0.00     0.014 A 
ATOM     35  C   UNL A   1      40.390  25.358  26.238  1.00  0.00     0.014 A 
ATOM     36  C   UNL A   1      39.444  25.644  28.851  1.00  0.00     0.010 A 
ATOM     37  C   UNL A   1      40.687  26.512  26.965  1.00  0.00     0.010 A 
ATOM     38  C   UNL A   1      40.214  26.669  28.277  1.00  0.00    -0.014 A 
BRANCH  38  39
ATOM     39  C   UNL A   1      40.535  27.901  29.043  1.00  0.00     0.031 A 
ATOM     40  C   UNL A   1      41.844  28.031  29.771  1.00  0.00     0.074 A 
ATOM     41  C   UNL A   1      39.618  28.883  29.135  1.00  0.00     0.049 A 
ATOM     42  N   UNL A   1      42.272  29.006  30.533  1.00  0.00    -0.248 NA
ATOM     43  C   UNL A   1      42.785  26.909  29.644  1.00  0.00     0.031 C 
ATOM     44  C   UNL A   1      38.289  28.860  28.519  1.00  0.00     0.029 A 
ATOM     45  N   UNL A   1      39.656  30.086  29.797  1.00  0.00    -0.354 N 
ATOM     46  C   UNL A   1      43.521  28.608  30.991  1.00  0.00     0.074 A 
ATOM     47  C   UNL A   1      43.765  27.286  30.453  1.00  0.00     0.031 C 
ATOM     48  C   UNL A   1      37.645  29.996  28.826  1.00  0.00     0.029 A 
ATOM     49  C   UNL A   1      38.498  30.814  29.682  1.00  0.00     0.049 A 
ATOM     50  H   UNL A   1      40.441  30.396  30.305  1.00  0.00     0.167 HD
ATOM     51  C   UNL A   1      44.393  29.289  31.774  1.00  0.00     0.037 A 
ATOM     52  C   UNL A   1      38.156  32.003  30.214  1.00  0.00     0.037 A 
ATOM     53  C   UNL A   1      44.164  30.615  32.285  1.00  0.00     0.049 A 
ATOM     54  C   UNL A   1      39.146  32.745  31.067  1.00  0.00     0.074 A 
ATOM     55  C   UNL A   1      45.023  31.417  33.018  1.00  0.00     0.029 A 
ATOM     56  N   UNL A   1      42.989  31.333  32.124  1.00  0.00    -0.354 N 
ATOM     57  N   UNL A   1      40.355  32.391  31.426  1.00  0.00    -0.248 NA
ATOM     58  C   UNL A   1      38.725  34.057  31.580  1.00  0.00     0.031 C 
ATOM     59  C   UNL A   1      44.353  32.603  33.336  1.00  0.00     0.029 A 
ATOM     60  C   UNL A   1      43.091  32.558  32.765  1.00  0.00     0.049 A 
ATOM     61  H   UNL A   1      42.200  31.019  31.626  1.00  0.00     0.167 HD
ATOM     62  C   UNL A   1      40.848  33.440  32.190  1.00  0.00     0.074 A 
ATOM     63  C   UNL A   1      39.811  34.451  32.231  1.00  0.00     0.031 C 
ATOM     64  C   UNL A   1      42.052  33.554  32.802  1.00  0.00     0.037 A 
BRANCH  51  65
ATOM     65  C   UNL A   1      45.681  28.603  32.129  1.00  0.00     0.057 A 
ATOM     66  C   UNL A   1      45.792  27.771  33.251  1.00  0.00     0.134 A 
ATOM     67  C   UNL A   1      46.816  28.755  31.322  1.00  0.00     0.134 A 
ATOM     68  F   UNL A   1      44.745  27.591  34.070  1.00  0.00    -0.206 F 
ATOM     69  C   UNL A   1      46.993  27.138  33.573  1.00  0.00     0.040 A 
ATOM     70  C   UNL A   1      48.015  28.106  31.621  1.00  0.00     0.040 A 
ATOM     71  F   UNL A   1      46.776  29.531  30.228  1.00  0.00    -0.206 F 
ATOM     72  C   UNL A   1      48.109  27.301  32.754  1.00  0.00     0.006 A 
ENDBRANCH  51  65
BRANCH  52  73
ATOM     73  C   UNL A   1      36.813  32.570  29.939  1.00  0.00     0.057 A 
ATOM     74  C   UNL A   1      36.596  33.419  28.850  1.00  0.00     0.134 A 
ATOM     75  C   UNL A   1      35.714  32.264  30.751  1.00  0.00     0.134 A 
ATOM     76  F   UNL A   1      37.614  33.762  28.048  1.00  0.00    -0.206 F 
ATOM     77  C   UNL A   1      35.335  33.955  28.582  1.00  0.00     0.040 A 
ATOM     78  C   UNL A   1      34.444  32.775  30.483  1.00  0.00     0.040 A 
ATOM     79  F   UNL A   1      35.858  31.448  31.806  1.00  0.00    -0.206 F 
ATOM     80  C   UNL A   1      34.253  33.627  29.397  1.00  0.00     0.006 A 
ENDBRANCH  52  73
BRANCH  64  81
ATOM     81  C   UNL A   1      42.320  34.824  33.553  1.00  0.00     0.057 A 
ATOM     82  C   UNL A   1      41.971  34.971  34.902  1.00  0.00     0.134 A 
ATOM     83  C   UNL A   1      42.968  35.900  32.931  1.00  0.00     0.134 A 
ATOM     84  F   UNL A   1      41.337  33.982  35.551  1.00  0.00    -0.206 F 
ATOM     85  C   UNL A   1      42.241  36.149  35.600  1.00  0.00     0.040 A 
ATOM     86  C   UNL A   1      43.262  37.073  33.626  1.00  0.00     0.040 A 
ATOM     87  F   UNL A   1      43.334  35.821  31.643  1.00  0.00    -0.206 F 
ATOM     88  C   UNL A   1      42.894  37.202  34.964  1.00  0.00     0.006 A 
ENDBRANCH  64  81
ENDBRANCH  38  39
ENDBRANCH  30  33
ENDBRANCH  28  29
ENDBRANCH  27  28
ENDBRANCH  26  27
ENDBRANCH   1  26
TORSDOF 17
ENDMDL
