MODEL 1
REMARK VINA RESULT:     -14.2      0.000      0.000
REMARK SMILES Cc1ccc([C@@]23C[C@@H]4C[C@@H](C[C@@](C(=O)N5CCC(C(=O)NCCCCCCNC(=O)c6ccc(-c7c8nc(c(-c9c(F)cccc9F)c9ccc([nH]9)c(-c9c(F)cccc9F)c9nc(c(-c%10c(F)cccc%10F)c%10ccc7[nH]%10)C=C9)C=C8)cc6)CC5)(C4)C2)C3)cc1
REMARK SMILES IDX 24 1 23 2 22 3 21 4 19 5 20 6 18 8 13 9 14 10 15 11 16 12
REMARK SMILES IDX 86 13 17 14 85 15 12 16 6 17 7 18 88 19 89 20 8 21 10 22
REMARK SMILES IDX 9 23 87 24 11 25 5 26 1 27 2 28 3 29 91 30 4 31 90 32 25 33
REMARK SMILES IDX 26 34 27 35 28 36 29 37 30 39 31 40 32 41 84 42 33 43 83 44
REMARK SMILES IDX 34 45 35 46 36 47 77 48 37 49 82 50 76 51 78 52 38 53 81 54
REMARK SMILES IDX 75 55 74 56 39 58 65 59 48 60 64 61 49 62 52 63 63 64 79 65
REMARK SMILES IDX 50 66 51 67 62 69 80 70 53 71 40 72 41 73 46 74 42 75 43 76
REMARK SMILES IDX 45 77 47 78 44 79 66 80 67 81 72 82 68 83 69 84 71 85 73 86
REMARK SMILES IDX 70 87 54 88 55 89 60 90 56 91 57 92 59 93 61 94 58 95
REMARK H PARENT 21 7 28 38 78 57 52 68
REMARK Flexibility Score: inf
ROOT
ATOM      1  C   UNL A   1      34.007  28.493  25.701  1.00  0.00     0.002 C 
ENDROOT
BRANCH   1   2
ATOM      2  C   UNL A   1      33.037  29.262  24.794  1.00  0.00     0.021 C 
BRANCH   2   3
ATOM      3  C   UNL A   1      33.077  28.875  23.318  1.00  0.00     0.116 C 
BRANCH   3   4
ATOM      4  N   UNL A   1      31.876  29.280  22.606  1.00  0.00    -0.356 N 
ATOM      5  C   UNL A   1      30.738  28.589  22.318  1.00  0.00     0.223 C 
ATOM      6  O   UNL A   1      29.817  29.195  21.766  1.00  0.00    -0.275 OA
ATOM      7  H   UNL A   1      31.887  30.208  22.277  1.00  0.00     0.163 HD
BRANCH   5   8
ATOM      8  C   UNL A   1      30.597  27.111  22.648  1.00  0.00     0.082 C 
ATOM      9  C   UNL A   1      32.579  24.933  25.349  1.00  0.00     0.228 C 
ATOM     10  O   UNL A   1      32.342  25.447  26.447  1.00  0.00    -0.274 OA
ATOM     11  N   UNL A   1      31.660  25.044  24.306  1.00  0.00    -0.342 N 
ATOM     12  C   UNL A   1      30.308  25.492  24.605  1.00  0.00     0.120 C 
ATOM     13  C   UNL A   1      31.910  24.952  22.868  1.00  0.00     0.120 C 
ATOM     14  C   UNL A   1      30.086  26.905  24.088  1.00  0.00     0.035 C 
ATOM     15  C   UNL A   1      31.871  26.344  22.259  1.00  0.00     0.035 C 
BRANCH   9  16
ATOM     16  C   UNL A   1      33.874  24.113  25.152  1.00  0.00     0.051 C 
ATOM     17  C   UNL A   1      34.705  21.695  24.828  1.00  0.00    -0.003 C 
ATOM     18  C   UNL A   1      35.429  22.222  23.551  1.00  0.00     0.015 C 
ATOM     19  C   UNL A   1      33.497  22.623  25.078  1.00  0.00     0.028 C 
ATOM     20  C   UNL A   1      35.654  21.861  26.043  1.00  0.00     0.015 C 
ATOM     21  C   UNL A   1      35.907  23.677  23.727  1.00  0.00    -0.009 C 
ATOM     22  C   UNL A   1      36.069  23.337  26.208  1.00  0.00    -0.009 C 
ATOM     23  C   UNL A   1      36.830  23.776  24.948  1.00  0.00     0.007 C 
ATOM     24  C   UNL A   1      34.698  24.596  23.942  1.00  0.00     0.020 C 
ATOM     25  C   UNL A   1      34.820  24.232  26.388  1.00  0.00     0.020 C 
BRANCH  17  26
ATOM     26  C   UNL A   1      34.260  20.232  24.652  1.00  0.00    -0.042 A 
ATOM     27  C   UNL A   1      32.964  16.094  24.391  1.00  0.00     0.044 C 
ATOM     28  C   UNL A   1      33.396  17.526  24.453  1.00  0.00    -0.051 A 
ATOM     29  C   UNL A   1      34.748  17.829  24.602  1.00  0.00     0.004 A 
ATOM     30  C   UNL A   1      32.480  18.577  24.379  1.00  0.00     0.004 A 
ATOM     31  C   UNL A   1      35.170  19.157  24.690  1.00  0.00     0.004 A 
ATOM     32  C   UNL A   1      32.905  19.910  24.471  1.00  0.00     0.004 A 
ENDBRANCH  17  26
ENDBRANCH   9  16
ENDBRANCH   5   8
ENDBRANCH   3   4
ENDBRANCH   2   3
ENDBRANCH   1   2
BRANCH   1  33
ATOM     33  C   UNL A   1      33.934  28.804  27.205  1.00  0.00     0.002 C 
BRANCH  33  34
ATOM     34  C   UNL A   1      33.692  30.266  27.585  1.00  0.00     0.021 C 
BRANCH  34  35
ATOM     35  C   UNL A   1      34.882  31.185  27.351  1.00  0.00     0.116 C 
BRANCH  35  36
ATOM     36  N   UNL A   1      35.444  31.766  28.561  1.00  0.00    -0.352 N 
ATOM     37  C   UNL A   1      36.352  31.230  29.465  1.00  0.00     0.251 C 
ATOM     38  H   UNL A   1      35.133  32.677  28.771  1.00  0.00     0.163 HD
ATOM     39  O   UNL A   1      36.668  31.857  30.454  1.00  0.00    -0.269 OA
BRANCH  37  40
ATOM     40  C   UNL A   1      37.045  29.953  29.137  1.00  0.00     0.039 A 
ATOM     41  C   UNL A   1      37.222  29.031  30.176  1.00  0.00     0.014 A 
ATOM     42  C   UNL A   1      37.691  29.759  27.920  1.00  0.00     0.014 A 
ATOM     43  C   UNL A   1      38.247  28.092  30.089  1.00  0.00     0.010 A 
ATOM     44  C   UNL A   1      38.771  28.901  27.868  1.00  0.00     0.010 A 
ATOM     45  C   UNL A   1      39.094  28.123  28.983  1.00  0.00    -0.014 A 
BRANCH  45  46
ATOM     46  C   UNL A   1      40.418  27.515  28.984  1.00  0.00     0.031 A 
ATOM     47  C   UNL A   1      40.621  26.110  28.584  1.00  0.00     0.074 A 
ATOM     48  C   UNL A   1      41.493  28.283  29.277  1.00  0.00     0.049 A 
ATOM     49  N   UNL A   1      41.599  25.379  29.005  1.00  0.00    -0.248 NA
ATOM     50  C   UNL A   1      39.716  25.404  27.687  1.00  0.00     0.031 C 
ATOM     51  C   UNL A   1      42.900  27.956  29.063  1.00  0.00     0.029 A 
ATOM     52  N   UNL A   1      41.520  29.466  30.025  1.00  0.00    -0.354 N 
ATOM     53  C   UNL A   1      41.622  24.237  28.239  1.00  0.00     0.074 A 
ATOM     54  C   UNL A   1      40.390  24.267  27.483  1.00  0.00     0.031 C 
ATOM     55  C   UNL A   1      43.651  28.726  29.866  1.00  0.00     0.029 A 
ATOM     56  C   UNL A   1      42.744  29.468  30.724  1.00  0.00     0.049 A 
ATOM     57  H   UNL A   1      40.821  30.159  30.057  1.00  0.00     0.167 HD
ATOM     58  C   UNL A   1      42.746  23.465  28.212  1.00  0.00     0.037 A 
ATOM     59  C   UNL A   1      42.791  29.478  32.087  1.00  0.00     0.037 A 
ATOM     60  C   UNL A   1      43.797  24.012  29.063  1.00  0.00     0.049 A 
ATOM     61  C   UNL A   1      43.518  28.297  32.686  1.00  0.00     0.074 A 
ATOM     62  C   UNL A   1      44.897  24.807  28.782  1.00  0.00     0.029 A 
ATOM     63  N   UNL A   1      43.641  24.029  30.443  1.00  0.00    -0.354 N 
ATOM     64  N   UNL A   1      43.750  27.189  32.043  1.00  0.00    -0.248 NA
ATOM     65  C   UNL A   1      44.005  28.254  34.063  1.00  0.00     0.031 C 
ATOM     66  C   UNL A   1      45.393  25.323  30.001  1.00  0.00     0.029 A 
ATOM     67  C   UNL A   1      44.599  24.838  31.024  1.00  0.00     0.049 A 
ATOM     68  H   UNL A   1      42.948  23.535  30.937  1.00  0.00     0.167 HD
ATOM     69  C   UNL A   1      44.358  26.289  32.881  1.00  0.00     0.074 A 
ATOM     70  C   UNL A   1      44.521  27.014  34.126  1.00  0.00     0.031 C 
ATOM     71  C   UNL A   1      44.656  25.021  32.466  1.00  0.00     0.037 A 
BRANCH  58  72
ATOM     72  C   UNL A   1      42.987  22.406  27.160  1.00  0.00     0.057 A 
ATOM     73  C   UNL A   1      42.293  21.179  27.183  1.00  0.00     0.134 A 
ATOM     74  C   UNL A   1      43.929  22.522  26.125  1.00  0.00     0.134 A 
ATOM     75  F   UNL A   1      41.281  20.953  28.028  1.00  0.00    -0.206 F 
ATOM     76  C   UNL A   1      42.608  20.110  26.336  1.00  0.00     0.040 A 
ATOM     77  C   UNL A   1      44.291  21.444  25.304  1.00  0.00     0.040 A 
ATOM     78  F   UNL A   1      44.511  23.695  25.845  1.00  0.00    -0.206 F 
ATOM     79  C   UNL A   1      43.641  20.224  25.420  1.00  0.00     0.006 A 
ENDBRANCH  58  72
BRANCH  59  80
ATOM     80  C   UNL A   1      41.628  30.160  32.710  1.00  0.00     0.057 A 
ATOM     81  C   UNL A   1      41.624  31.565  32.770  1.00  0.00     0.134 A 
ATOM     82  C   UNL A   1      40.404  29.511  32.885  1.00  0.00     0.134 A 
ATOM     83  F   UNL A   1      42.767  32.250  32.606  1.00  0.00    -0.206 F 
ATOM     84  C   UNL A   1      40.438  32.296  32.883  1.00  0.00     0.040 A 
ATOM     85  C   UNL A   1      39.211  30.231  33.012  1.00  0.00     0.040 A 
ATOM     86  F   UNL A   1      40.324  28.173  32.820  1.00  0.00    -0.206 F 
ATOM     87  C   UNL A   1      39.222  31.626  32.970  1.00  0.00     0.006 A 
ENDBRANCH  59  80
BRANCH  71  88
ATOM     88  C   UNL A   1      45.114  23.865  33.326  1.00  0.00     0.057 A 
ATOM     89  C   UNL A   1      46.407  23.723  33.848  1.00  0.00     0.134 A 
ATOM     90  C   UNL A   1      44.181  22.904  33.785  1.00  0.00     0.134 A 
ATOM     91  F   UNL A   1      47.372  24.615  33.592  1.00  0.00    -0.206 F 
ATOM     92  C   UNL A   1      46.759  22.679  34.717  1.00  0.00     0.040 A 
ATOM     93  C   UNL A   1      44.507  21.893  34.693  1.00  0.00     0.040 A 
ATOM     94  F   UNL A   1      42.899  22.918  33.391  1.00  0.00    -0.206 F 
ATOM     95  C   UNL A   1      45.806  21.769  35.154  1.00  0.00     0.006 A 
ENDBRANCH  71  88
ENDBRANCH  45  46
ENDBRANCH  37  40
ENDBRANCH  35  36
ENDBRANCH  34  35
ENDBRANCH  33  34
ENDBRANCH   1  33
TORSDOF 15
ENDMDL
MODEL 2
REMARK VINA RESULT:     -13.7      3.667      9.614
REMARK SMILES Cc1ccc([C@@]23C[C@@H]4C[C@@H](C[C@@](C(=O)N5CCC(C(=O)NCCCCCCNC(=O)c6ccc(-c7c8nc(c(-c9c(F)cccc9F)c9ccc([nH]9)c(-c9c(F)cccc9F)c9nc(c(-c%10c(F)cccc%10F)c%10ccc7[nH]%10)C=C9)C=C8)cc6)CC5)(C4)C2)C3)cc1
REMARK SMILES IDX 24 1 23 2 22 3 21 4 19 5 20 6 18 8 13 9 14 10 15 11 16 12
REMARK SMILES IDX 86 13 17 14 85 15 12 16 6 17 7 18 88 19 89 20 8 21 10 22
REMARK SMILES IDX 9 23 87 24 11 25 5 26 1 27 2 28 3 29 91 30 4 31 90 32 25 33
REMARK SMILES IDX 26 34 27 35 28 36 29 37 30 39 31 40 32 41 84 42 33 43 83 44
REMARK SMILES IDX 34 45 35 46 36 47 77 48 37 49 82 50 76 51 78 52 38 53 81 54
REMARK SMILES IDX 75 55 74 56 39 58 65 59 48 60 64 61 49 62 52 63 63 64 79 65
REMARK SMILES IDX 50 66 51 67 62 69 80 70 53 71 40 72 41 73 46 74 42 75 43 76
REMARK SMILES IDX 45 77 47 78 44 79 66 80 67 81 72 82 68 83 69 84 71 85 73 86
REMARK SMILES IDX 70 87 54 88 55 89 60 90 56 91 57 92 59 93 61 94 58 95
REMARK H PARENT 21 7 28 38 78 57 52 68
REMARK Flexibility Score: inf
ROOT
ATOM      1  C   UNL A   1      36.517  22.808  24.852  1.00  0.00     0.002 C 
ENDROOT
BRANCH   1   2
ATOM      2  C   UNL A   1      35.864  21.469  25.218  1.00  0.00     0.021 C 
BRANCH   2   3
ATOM      3  C   UNL A   1      34.638  21.565  26.123  1.00  0.00     0.116 C 
BRANCH   3   4
ATOM      4  N   UNL A   1      33.797  20.383  26.042  1.00  0.00    -0.356 N 
ATOM      5  C   UNL A   1      32.644  20.158  25.352  1.00  0.00     0.223 C 
ATOM      6  O   UNL A   1      32.161  19.024  25.386  1.00  0.00    -0.275 OA
ATOM      7  H   UNL A   1      34.112  19.617  26.576  1.00  0.00     0.163 HD
BRANCH   5   8
ATOM      8  C   UNL A   1      31.953  21.265  24.571  1.00  0.00     0.082 C 
ATOM      9  C   UNL A   1      33.210  24.984  23.825  1.00  0.00     0.228 C 
ATOM     10  O   UNL A   1      34.267  24.870  23.196  1.00  0.00    -0.274 OA
ATOM     11  N   UNL A   1      32.238  23.986  23.756  1.00  0.00    -0.342 N 
ATOM     12  C   UNL A   1      32.341  22.976  22.713  1.00  0.00     0.120 C 
ATOM     13  C   UNL A   1      31.188  23.678  24.726  1.00  0.00     0.120 C 
ATOM     14  C   UNL A   1      32.748  21.636  23.303  1.00  0.00     0.035 C 
ATOM     15  C   UNL A   1      31.568  22.427  25.501  1.00  0.00     0.035 C 
BRANCH   9  16
ATOM     16  C   UNL A   1      32.942  26.266  24.645  1.00  0.00     0.051 C 
ATOM     17  C   UNL A   1      31.634  28.485  24.555  1.00  0.00    -0.003 C 
ATOM     18  C   UNL A   1      31.032  28.069  25.932  1.00  0.00     0.015 C 
ATOM     19  C   UNL A   1      32.022  27.184  23.820  1.00  0.00     0.028 C 
ATOM     20  C   UNL A   1      32.950  29.268  24.802  1.00  0.00     0.015 C 
ATOM     21  C   UNL A   1      32.041  27.266  26.776  1.00  0.00    -0.009 C 
ATOM     22  C   UNL A   1      33.945  28.410  25.609  1.00  0.00    -0.009 C 
ATOM     23  C   UNL A   1      33.321  28.088  26.975  1.00  0.00     0.007 C 
ATOM     24  C   UNL A   1      32.396  25.960  26.054  1.00  0.00     0.020 C 
ATOM     25  C   UNL A   1      34.250  27.090  24.863  1.00  0.00     0.020 C 
BRANCH  17  26
ATOM     26  C   UNL A   1      30.628  29.312  23.734  1.00  0.00    -0.042 A 
ATOM     27  C   UNL A   1      27.973  31.772  21.331  1.00  0.00     0.044 C 
ATOM     28  C   UNL A   1      28.870  30.899  22.153  1.00  0.00    -0.051 A 
ATOM     29  C   UNL A   1      29.141  31.245  23.475  1.00  0.00     0.004 A 
ATOM     30  C   UNL A   1      29.459  29.746  21.630  1.00  0.00     0.004 A 
ATOM     31  C   UNL A   1      29.996  30.460  24.252  1.00  0.00     0.004 A 
ATOM     32  C   UNL A   1      30.320  28.961  22.410  1.00  0.00     0.004 A 
ENDBRANCH  17  26
ENDBRANCH   9  16
ENDBRANCH   5   8
ENDBRANCH   3   4
ENDBRANCH   2   3
ENDBRANCH   1   2
BRANCH   1  33
ATOM     33  C   UNL A   1      37.659  23.288  25.763  1.00  0.00     0.002 C 
BRANCH  33  34
ATOM     34  C   UNL A   1      38.840  22.329  25.932  1.00  0.00     0.021 C 
BRANCH  34  35
ATOM     35  C   UNL A   1      39.647  22.540  27.205  1.00  0.00     0.116 C 
BRANCH  35  36
ATOM     36  N   UNL A   1      41.015  22.985  26.985  1.00  0.00    -0.352 N 
ATOM     37  C   UNL A   1      41.521  24.273  26.862  1.00  0.00     0.251 C 
ATOM     38  H   UNL A   1      41.683  22.265  26.913  1.00  0.00     0.163 HD
ATOM     39  O   UNL A   1      42.699  24.444  26.630  1.00  0.00    -0.269 OA
BRANCH  37  40
ATOM     40  C   UNL A   1      40.642  25.437  27.163  1.00  0.00     0.039 A 
ATOM     41  C   UNL A   1      40.794  26.582  26.370  1.00  0.00     0.014 A 
ATOM     42  C   UNL A   1      39.860  25.489  28.313  1.00  0.00     0.014 A 
ATOM     43  C   UNL A   1      40.402  27.819  26.874  1.00  0.00     0.010 A 
ATOM     44  C   UNL A   1      39.561  26.720  28.861  1.00  0.00     0.010 A 
ATOM     45  C   UNL A   1      39.903  27.888  28.174  1.00  0.00    -0.014 A 
BRANCH  45  46
ATOM     46  C   UNL A   1      39.877  29.123  28.947  1.00  0.00     0.031 A 
ATOM     47  C   UNL A   1      38.797  30.113  28.779  1.00  0.00     0.074 A 
ATOM     48  C   UNL A   1      40.819  29.322  29.897  1.00  0.00     0.049 A 
ATOM     49  N   UNL A   1      38.937  31.374  29.020  1.00  0.00    -0.248 NA
ATOM     50  C   UNL A   1      37.467  29.761  28.302  1.00  0.00     0.031 C 
ATOM     51  C   UNL A   1      40.812  30.330  30.953  1.00  0.00     0.029 A 
ATOM     52  N   UNL A   1      42.095  28.751  29.969  1.00  0.00    -0.354 N 
ATOM     53  C   UNL A   1      37.684  31.940  29.012  1.00  0.00     0.074 A 
ATOM     54  C   UNL A   1      36.812  30.911  28.490  1.00  0.00     0.031 C 
ATOM     55  C   UNL A   1      42.069  30.512  31.388  1.00  0.00     0.029 A 
ATOM     56  C   UNL A   1      42.941  29.732  30.526  1.00  0.00     0.049 A 
ATOM     57  H   UNL A   1      42.352  27.844  29.684  1.00  0.00     0.167 HD
ATOM     58  C   UNL A   1      37.491  33.162  29.585  1.00  0.00     0.037 A 
ATOM     59  C   UNL A   1      44.010  30.229  29.842  1.00  0.00     0.037 A 
ATOM     60  C   UNL A   1      38.729  33.700  30.137  1.00  0.00     0.049 A 
ATOM     61  C   UNL A   1      43.963  31.723  29.628  1.00  0.00     0.074 A 
ATOM     62  C   UNL A   1      39.250  33.696  31.422  1.00  0.00     0.029 A 
ATOM     63  N   UNL A   1      39.767  34.076  29.294  1.00  0.00    -0.354 N 
ATOM     64  N   UNL A   1      42.876  32.434  29.725  1.00  0.00    -0.248 NA
ATOM     65  C   UNL A   1      45.122  32.528  29.250  1.00  0.00     0.031 C 
ATOM     66  C   UNL A   1      40.616  34.050  31.346  1.00  0.00     0.029 A 
ATOM     67  C   UNL A   1      40.926  34.276  30.018  1.00  0.00     0.049 A 
ATOM     68  H   UNL A   1      39.687  34.185  28.318  1.00  0.00     0.167 HD
ATOM     69  C   UNL A   1      43.149  33.739  29.400  1.00  0.00     0.074 A 
ATOM     70  C   UNL A   1      44.574  33.751  29.137  1.00  0.00     0.031 C 
ATOM     71  C   UNL A   1      42.161  34.683  29.366  1.00  0.00     0.037 A 
BRANCH  58  72
ATOM     72  C   UNL A   1      36.119  33.700  29.924  1.00  0.00     0.057 A 
ATOM     73  C   UNL A   1      35.251  34.178  28.922  1.00  0.00     0.134 A 
ATOM     74  C   UNL A   1      35.619  33.816  31.231  1.00  0.00     0.134 A 
ATOM     75  F   UNL A   1      35.523  34.032  27.620  1.00  0.00    -0.206 F 
ATOM     76  C   UNL A   1      34.050  34.839  29.206  1.00  0.00     0.040 A 
ATOM     77  C   UNL A   1      34.444  34.520  31.534  1.00  0.00     0.040 A 
ATOM     78  F   UNL A   1      36.229  33.220  32.264  1.00  0.00    -0.206 F 
ATOM     79  C   UNL A   1      33.663  35.052  30.519  1.00  0.00     0.006 A 
ENDBRANCH  58  72
BRANCH  59  80
ATOM     80  C   UNL A   1      44.602  29.256  28.889  1.00  0.00     0.057 A 
ATOM     81  C   UNL A   1      45.475  28.271  29.385  1.00  0.00     0.134 A 
ATOM     82  C   UNL A   1      44.048  29.038  27.625  1.00  0.00     0.134 A 
ATOM     83  F   UNL A   1      46.038  28.419  30.595  1.00  0.00    -0.206 F 
ATOM     84  C   UNL A   1      45.697  27.071  28.706  1.00  0.00     0.040 A 
ATOM     85  C   UNL A   1      44.273  27.845  26.929  1.00  0.00     0.040 A 
ATOM     86  F   UNL A   1      43.190  29.921  27.094  1.00  0.00    -0.206 F 
ATOM     87  C   UNL A   1      45.067  26.842  27.487  1.00  0.00     0.006 A 
ENDBRANCH  59  80
BRANCH  71  88
ATOM     88  C   UNL A   1      42.263  36.088  28.818  1.00  0.00     0.057 A 
ATOM     89  C   UNL A   1      42.875  37.160  29.482  1.00  0.00     0.134 A 
ATOM     90  C   UNL A   1      41.857  36.368  27.491  1.00  0.00     0.134 A 
ATOM     91  F   UNL A   1      43.408  37.020  30.703  1.00  0.00    -0.206 F 
ATOM     92  C   UNL A   1      43.026  38.425  28.893  1.00  0.00     0.040 A 
ATOM     93  C   UNL A   1      42.051  37.607  26.876  1.00  0.00     0.040 A 
ATOM     94  F   UNL A   1      41.272  35.439  26.719  1.00  0.00    -0.206 F 
ATOM     95  C   UNL A   1      42.627  38.648  27.582  1.00  0.00     0.006 A 
ENDBRANCH  71  88
ENDBRANCH  45  46
ENDBRANCH  37  40
ENDBRANCH  35  36
ENDBRANCH  34  35
ENDBRANCH  33  34
ENDBRANCH   1  33
TORSDOF 15
ENDMDL
MODEL 3
REMARK VINA RESULT:     -13.5      3.751      9.563
REMARK SMILES Cc1ccc([C@@]23C[C@@H]4C[C@@H](C[C@@](C(=O)N5CCC(C(=O)NCCCCCCNC(=O)c6ccc(-c7c8nc(c(-c9c(F)cccc9F)c9ccc([nH]9)c(-c9c(F)cccc9F)c9nc(c(-c%10c(F)cccc%10F)c%10ccc7[nH]%10)C=C9)C=C8)cc6)CC5)(C4)C2)C3)cc1
REMARK SMILES IDX 24 1 23 2 22 3 21 4 19 5 20 6 18 8 13 9 14 10 15 11 16 12
REMARK SMILES IDX 86 13 17 14 85 15 12 16 6 17 7 18 88 19 89 20 8 21 10 22
REMARK SMILES IDX 9 23 87 24 11 25 5 26 1 27 2 28 3 29 91 30 4 31 90 32 25 33
REMARK SMILES IDX 26 34 27 35 28 36 29 37 30 39 31 40 32 41 84 42 33 43 83 44
REMARK SMILES IDX 34 45 35 46 36 47 77 48 37 49 82 50 76 51 78 52 38 53 81 54
REMARK SMILES IDX 75 55 74 56 39 58 65 59 48 60 64 61 49 62 52 63 63 64 79 65
REMARK SMILES IDX 50 66 51 67 62 69 80 70 53 71 40 72 41 73 46 74 42 75 43 76
REMARK SMILES IDX 45 77 47 78 44 79 66 80 67 81 72 82 68 83 69 84 71 85 73 86
REMARK SMILES IDX 70 87 54 88 55 89 60 90 56 91 57 92 59 93 61 94 58 95
REMARK H PARENT 21 7 28 38 78 57 52 68
REMARK Flexibility Score: inf
ROOT
ATOM      1  C   UNL A   1      42.127  20.759  26.030  1.00  0.00     0.002 C 
ENDROOT
BRANCH   1   2
ATOM      2  C   UNL A   1      40.782  20.618  26.753  1.00  0.00     0.021 C 
BRANCH   2   3
ATOM      3  C   UNL A   1      39.568  21.132  25.983  1.00  0.00     0.116 C 
BRANCH   3   4
ATOM      4  N   UNL A   1      39.430  22.576  26.068  1.00  0.00    -0.356 N 
ATOM      5  C   UNL A   1      38.322  23.368  26.012  1.00  0.00     0.223 C 
ATOM      6  O   UNL A   1      38.466  24.578  26.195  1.00  0.00    -0.275 OA
ATOM      7  H   UNL A   1      40.277  23.064  26.184  1.00  0.00     0.163 HD
BRANCH   5   8
ATOM      8  C   UNL A   1      36.945  22.793  25.720  1.00  0.00     0.082 C 
ATOM      9  C   UNL A   1      33.951  24.383  23.602  1.00  0.00     0.228 C 
ATOM     10  O   UNL A   1      34.389  24.550  22.460  1.00  0.00    -0.274 OA
ATOM     11  N   UNL A   1      34.472  23.377  24.417  1.00  0.00    -0.342 N 
ATOM     12  C   UNL A   1      35.302  22.344  23.814  1.00  0.00     0.120 C 
ATOM     13  C   UNL A   1      34.465  23.302  25.877  1.00  0.00     0.120 C 
ATOM     14  C   UNL A   1      36.757  22.526  24.213  1.00  0.00     0.035 C 
ATOM     15  C   UNL A   1      35.852  23.629  26.407  1.00  0.00     0.035 C 
BRANCH   9  16
ATOM     16  C   UNL A   1      32.781  25.255  24.108  1.00  0.00     0.051 C 
ATOM     17  C   UNL A   1      32.290  27.376  25.489  1.00  0.00    -0.003 C 
ATOM     18  C   UNL A   1      31.478  27.871  24.253  1.00  0.00     0.015 C 
ATOM     19  C   UNL A   1      33.361  26.396  24.964  1.00  0.00     0.028 C 
ATOM     20  C   UNL A   1      31.348  26.556  26.409  1.00  0.00     0.015 C 
ATOM     21  C   UNL A   1      30.804  26.701  23.508  1.00  0.00    -0.009 C 
ATOM     22  C   UNL A   1      30.734  25.372  25.635  1.00  0.00    -0.009 C 
ATOM     23  C   UNL A   1      29.897  25.926  24.472  1.00  0.00     0.007 C 
ATOM     24  C   UNL A   1      31.877  25.750  22.961  1.00  0.00     0.020 C 
ATOM     25  C   UNL A   1      31.848  24.458  25.073  1.00  0.00     0.020 C 
BRANCH  17  26
ATOM     26  C   UNL A   1      32.933  28.554  26.242  1.00  0.00    -0.042 A 
ATOM     27  C   UNL A   1      34.794  31.982  28.155  1.00  0.00     0.044 C 
ATOM     28  C   UNL A   1      34.131  30.800  27.519  1.00  0.00    -0.051 A 
ATOM     29  C   UNL A   1      34.881  29.660  27.240  1.00  0.00     0.004 A 
ATOM     30  C   UNL A   1      32.776  30.807  27.183  1.00  0.00     0.004 A 
ATOM     31  C   UNL A   1      34.290  28.556  26.621  1.00  0.00     0.004 A 
ATOM     32  C   UNL A   1      32.184  29.699  26.559  1.00  0.00     0.004 A 
ENDBRANCH  17  26
ENDBRANCH   9  16
ENDBRANCH   5   8
ENDBRANCH   3   4
ENDBRANCH   2   3
ENDBRANCH   1   2
BRANCH   1  33
ATOM     33  C   UNL A   1      42.897  19.457  25.751  1.00  0.00     0.002 C 
BRANCH  33  34
ATOM     34  C   UNL A   1      43.996  19.533  24.689  1.00  0.00     0.021 C 
BRANCH  34  35
ATOM     35  C   UNL A   1      45.404  19.688  25.246  1.00  0.00     0.116 C 
BRANCH  35  36
ATOM     36  N   UNL A   1      46.214  20.690  24.568  1.00  0.00    -0.352 N 
ATOM     37  C   UNL A   1      46.073  22.071  24.533  1.00  0.00     0.251 C 
ATOM     38  H   UNL A   1      46.978  20.334  24.058  1.00  0.00     0.163 HD
ATOM     39  O   UNL A   1      46.829  22.743  23.864  1.00  0.00    -0.269 OA
BRANCH  37  40
ATOM     40  C   UNL A   1      45.086  22.730  25.434  1.00  0.00     0.039 A 
ATOM     41  C   UNL A   1      44.226  23.677  24.864  1.00  0.00     0.014 A 
ATOM     42  C   UNL A   1      45.149  22.592  26.817  1.00  0.00     0.014 A 
ATOM     43  C   UNL A   1      43.655  24.655  25.674  1.00  0.00     0.010 A 
ATOM     44  C   UNL A   1      44.670  23.615  27.611  1.00  0.00     0.010 A 
ATOM     45  C   UNL A   1      43.989  24.687  27.027  1.00  0.00    -0.014 A 
BRANCH  45  46
ATOM     46  C   UNL A   1      43.821  25.873  27.856  1.00  0.00     0.031 A 
ATOM     47  C   UNL A   1      42.498  26.493  28.055  1.00  0.00     0.074 A 
ATOM     48  C   UNL A   1      44.891  26.365  28.522  1.00  0.00     0.049 A 
ATOM     49  N   UNL A   1      42.325  27.743  28.330  1.00  0.00    -0.248 NA
ATOM     50  C   UNL A   1      41.251  25.749  27.939  1.00  0.00     0.031 C 
ATOM     51  C   UNL A   1      44.887  27.346  29.603  1.00  0.00     0.029 A 
ATOM     52  N   UNL A   1      46.245  26.202  28.205  1.00  0.00    -0.354 N 
ATOM     53  C   UNL A   1      41.012  27.908  28.702  1.00  0.00     0.074 A 
ATOM     54  C   UNL A   1      40.369  26.656  28.374  1.00  0.00     0.031 C 
ATOM     55  C   UNL A   1      46.105  27.904  29.688  1.00  0.00     0.029 A 
ATOM     56  C   UNL A   1      46.888  27.402  28.572  1.00  0.00     0.049 A 
ATOM     57  H   UNL A   1      46.664  25.407  27.803  1.00  0.00     0.167 HD
ATOM     58  C   UNL A   1      40.639  29.029  29.384  1.00  0.00     0.037 A 
ATOM     59  C   UNL A   1      47.529  28.181  27.655  1.00  0.00     0.037 A 
ATOM     60  C   UNL A   1      41.769  29.923  29.610  1.00  0.00     0.049 A 
ATOM     61  C   UNL A   1      46.989  29.588  27.559  1.00  0.00     0.074 A 
ATOM     62  C   UNL A   1      42.608  30.102  30.699  1.00  0.00     0.029 A 
ATOM     63  N   UNL A   1      42.371  30.574  28.540  1.00  0.00    -0.354 N 
ATOM     64  N   UNL A   1      45.815  29.944  27.996  1.00  0.00    -0.248 NA
ATOM     65  C   UNL A   1      47.708  30.695  26.931  1.00  0.00     0.031 C 
ATOM     66  C   UNL A   1      43.732  30.846  30.276  1.00  0.00     0.029 A 
ATOM     67  C   UNL A   1      43.576  31.126  28.931  1.00  0.00     0.049 A 
ATOM     68  H   UNL A   1      41.992  30.634  27.633  1.00  0.00     0.167 HD
ATOM     69  C   UNL A   1      45.591  31.264  27.694  1.00  0.00     0.074 A 
ATOM     70  C   UNL A   1      46.818  31.696  27.052  1.00  0.00     0.031 C 
ATOM     71  C   UNL A   1      44.403  31.869  27.993  1.00  0.00     0.037 A 
BRANCH  58  72
ATOM     72  C   UNL A   1      39.323  29.140  30.120  1.00  0.00     0.057 A 
ATOM     73  C   UNL A   1      38.179  29.678  29.499  1.00  0.00     0.134 A 
ATOM     74  C   UNL A   1      39.138  28.774  31.463  1.00  0.00     0.134 A 
ATOM     75  F   UNL A   1      38.151  29.964  28.192  1.00  0.00    -0.206 F 
ATOM     76  C   UNL A   1      36.995  29.957  30.192  1.00  0.00     0.040 A 
ATOM     77  C   UNL A   1      37.977  29.094  32.184  1.00  0.00     0.040 A 
ATOM     78  F   UNL A   1      40.060  28.061  32.123  1.00  0.00    -0.206 F 
ATOM     79  C   UNL A   1      36.905  29.705  31.551  1.00  0.00     0.006 A 
ENDBRANCH  58  72
BRANCH  59  80
ATOM     80  C   UNL A   1      48.086  27.409  26.515  1.00  0.00     0.057 A 
ATOM     81  C   UNL A   1      47.338  27.327  25.327  1.00  0.00     0.134 A 
ATOM     82  C   UNL A   1      49.445  27.096  26.435  1.00  0.00     0.134 A 
ATOM     83  F   UNL A   1      46.027  27.619  25.334  1.00  0.00    -0.206 F 
ATOM     84  C   UNL A   1      47.937  27.058  24.094  1.00  0.00     0.040 A 
ATOM     85  C   UNL A   1      50.055  26.812  25.208  1.00  0.00     0.040 A 
ATOM     86  F   UNL A   1      50.228  27.172  27.522  1.00  0.00    -0.206 F 
ATOM     87  C   UNL A   1      49.309  26.832  24.029  1.00  0.00     0.006 A 
ENDBRANCH  59  80
BRANCH  71  88
ATOM     88  C   UNL A   1      43.932  33.229  27.530  1.00  0.00     0.057 A 
ATOM     89  C   UNL A   1      43.774  33.604  26.189  1.00  0.00     0.134 A 
ATOM     90  C   UNL A   1      43.468  34.181  28.470  1.00  0.00     0.134 A 
ATOM     91  F   UNL A   1      44.066  32.767  25.185  1.00  0.00    -0.206 F 
ATOM     92  C   UNL A   1      43.245  34.847  25.810  1.00  0.00     0.040 A 
ATOM     93  C   UNL A   1      42.891  35.400  28.103  1.00  0.00     0.040 A 
ATOM     94  F   UNL A   1      43.534  33.961  29.792  1.00  0.00    -0.206 F 
ATOM     95  C   UNL A   1      42.789  35.744  26.767  1.00  0.00     0.006 A 
ENDBRANCH  71  88
ENDBRANCH  45  46
ENDBRANCH  37  40
ENDBRANCH  35  36
ENDBRANCH  34  35
ENDBRANCH  33  34
ENDBRANCH   1  33
TORSDOF 15
ENDMDL
