MODEL 1
REMARK VINA RESULT:     -12.0      0.000      0.000
REMARK SMILES Cc1cc(C(=O)NCCCCCCNC(=O)c2ccc(-c3c4nc(c(-c5c(F)cccc5F)c5ccc([nH]5)c(-c5c(F)cccc5F)c5nc(c(-c6c(F)cccc6F)c6ccc3[nH]6)C=C5)C=C4)cc2)ccc1NS(=O)(=O)c1ccc(C#N)cc1C
REMARK SMILES IDX 9 1 8 2 7 3 5 4 6 5 4 7 1 8 2 9 3 10 73 11 72 12 71 13 74 14
REMARK SMILES IDX 75 16 76 17 77 18 78 19 79 20 85 21 80 22 84 23 86 24 81 25
REMARK SMILES IDX 82 26 83 27 10 28 11 29 12 30 13 31 14 32 15 33 16 35 17 36
REMARK SMILES IDX 18 37 70 38 19 39 69 40 20 41 21 42 22 43 63 44 23 45 68 46
REMARK SMILES IDX 62 47 64 48 24 49 67 50 61 51 60 52 25 54 51 55 34 56 50 57
REMARK SMILES IDX 35 58 38 59 49 60 65 61 36 62 37 63 48 65 66 66 39 67 26 68
REMARK SMILES IDX 27 69 32 70 28 71 29 72 31 73 33 74 30 75 52 76 53 77 58 78
REMARK SMILES IDX 54 79 55 80 57 81 59 82 56 83 40 84 41 85 46 86 42 87 43 88
REMARK SMILES IDX 45 89 47 90 44 91
REMARK H PARENT 7 6 74 15 14 34 64 53 38 64
REMARK Flexibility Score: inf
ROOT
ATOM      1  C   UNL A   1      34.162  32.429  28.570  1.00  0.00     0.021 C 
ENDROOT
BRANCH   1   2
ATOM      2  C   UNL A   1      33.867  31.471  27.415  1.00  0.00     0.116 C 
BRANCH   2   3
ATOM      3  N   UNL A   1      33.220  30.262  27.886  1.00  0.00    -0.352 N 
ATOM      4  C   UNL A   1      32.707  29.184  27.206  1.00  0.00     0.251 C 
ATOM      5  O   UNL A   1      32.340  28.205  27.852  1.00  0.00    -0.269 OA
ATOM      6  H   UNL A   1      33.134  30.202  28.864  1.00  0.00     0.163 HD
BRANCH   4   7
ATOM      7  C   UNL A   1      32.666  29.134  25.719  1.00  0.00     0.040 A 
ATOM      8  C   UNL A   1      29.981  29.405  23.065  1.00  0.00     0.046 C 
ATOM      9  C   UNL A   1      31.281  29.018  23.718  1.00  0.00    -0.026 A 
ATOM     10  C   UNL A   1      31.422  29.266  25.093  1.00  0.00     0.019 A 
ATOM     11  C   UNL A   1      32.386  28.530  22.998  1.00  0.00     0.052 A 
ATOM     12  C   UNL A   1      33.654  28.692  23.552  1.00  0.00     0.028 A 
ATOM     13  C   UNL A   1      33.793  28.990  24.912  1.00  0.00     0.016 A 
BRANCH  11  14
ATOM     14  N   UNL A   1      32.133  27.535  22.002  1.00  0.00    -0.279 N 
ATOM     15  H   UNL A   1      31.751  27.866  21.157  1.00  0.00     0.180 HD
BRANCH  14  16
ATOM     16  S   UNL A   1      32.397  25.886  22.080  1.00  0.00     0.262 S 
ATOM     17  O   UNL A   1      31.156  25.294  21.625  1.00  0.00    -0.201 OA
ATOM     18  O   UNL A   1      33.653  25.615  21.413  1.00  0.00    -0.201 OA
BRANCH  16  19
ATOM     19  C   UNL A   1      32.596  25.352  23.790  1.00  0.00     0.090 A 
ATOM     20  C   UNL A   1      33.846  24.960  24.281  1.00  0.00     0.024 A 
ATOM     21  C   UNL A   1      31.445  25.140  24.582  1.00  0.00    -0.029 A 
ATOM     22  C   UNL A   1      33.933  24.183  25.444  1.00  0.00     0.021 A 
ATOM     23  C   UNL A   1      31.555  24.369  25.760  1.00  0.00     0.024 A 
ATOM     24  C   UNL A   1      30.103  25.762  24.298  1.00  0.00     0.046 C 
ATOM     25  C   UNL A   1      32.784  23.844  26.159  1.00  0.00     0.052 A 
BRANCH  25  26
ATOM     26  C   UNL A   1      32.875  22.946  27.281  1.00  0.00     0.099 C 
ATOM     27  N   UNL A   1      32.900  22.249  28.201  1.00  0.00    -0.192 NA
ENDBRANCH  25  26
ENDBRANCH  16  19
ENDBRANCH  14  16
ENDBRANCH  11  14
ENDBRANCH   4   7
ENDBRANCH   2   3
ENDBRANCH   1   2
BRANCH   1  28
ATOM     28  C   UNL A   1      34.224  33.906  28.159  1.00  0.00     0.002 C 
BRANCH  28  29
ATOM     29  C   UNL A   1      33.006  34.759  28.548  1.00  0.00     0.002 C 
BRANCH  29  30
ATOM     30  C   UNL A   1      33.298  35.914  29.504  1.00  0.00     0.021 C 
BRANCH  30  31
ATOM     31  C   UNL A   1      32.877  35.639  30.933  1.00  0.00     0.116 C 
BRANCH  31  32
ATOM     32  N   UNL A   1      33.904  35.985  31.905  1.00  0.00    -0.352 N 
ATOM     33  C   UNL A   1      34.894  35.212  32.481  1.00  0.00     0.251 C 
ATOM     34  H   UNL A   1      33.892  36.924  32.201  1.00  0.00     0.163 HD
ATOM     35  O   UNL A   1      35.539  35.676  33.418  1.00  0.00    -0.269 OA
BRANCH  33  36
ATOM     36  C   UNL A   1      35.344  33.947  31.837  1.00  0.00     0.039 A 
ATOM     37  C   UNL A   1      35.354  32.826  32.682  1.00  0.00     0.014 A 
ATOM     38  C   UNL A   1      36.192  33.989  30.742  1.00  0.00     0.014 A 
ATOM     39  C   UNL A   1      36.454  31.988  32.669  1.00  0.00     0.010 A 
ATOM     40  C   UNL A   1      37.367  33.303  30.842  1.00  0.00     0.010 A 
ATOM     41  C   UNL A   1      37.514  32.357  31.854  1.00  0.00    -0.014 A 
BRANCH  41  42
ATOM     42  C   UNL A   1      38.784  31.682  31.796  1.00  0.00     0.031 A 
ATOM     43  C   UNL A   1      38.763  30.419  31.054  1.00  0.00     0.074 A 
ATOM     44  C   UNL A   1      39.873  32.382  32.182  1.00  0.00     0.049 A 
ATOM     45  N   UNL A   1      39.698  29.552  31.077  1.00  0.00    -0.248 NA
ATOM     46  C   UNL A   1      37.621  30.003  30.232  1.00  0.00     0.031 C 
ATOM     47  C   UNL A   1      41.284  32.146  31.914  1.00  0.00     0.029 A 
ATOM     48  N   UNL A   1      39.887  33.414  33.129  1.00  0.00    -0.354 N 
ATOM     49  C   UNL A   1      39.458  28.662  30.052  1.00  0.00     0.074 A 
ATOM     50  C   UNL A   1      38.098  28.901  29.651  1.00  0.00     0.031 C 
ATOM     51  C   UNL A   1      42.012  32.727  32.890  1.00  0.00     0.029 A 
ATOM     52  C   UNL A   1      41.072  33.226  33.881  1.00  0.00     0.049 A 
ATOM     53  H   UNL A   1      39.213  34.122  33.247  1.00  0.00     0.167 HD
ATOM     54  C   UNL A   1      40.522  27.951  29.589  1.00  0.00     0.037 A 
ATOM     55  C   UNL A   1      40.958  32.777  35.171  1.00  0.00     0.037 A 
ATOM     56  C   UNL A   1      41.690  28.254  30.420  1.00  0.00     0.049 A 
ATOM     57  C   UNL A   1      41.438  31.342  35.326  1.00  0.00     0.074 A 
ATOM     58  C   UNL A   1      42.717  29.178  30.335  1.00  0.00     0.029 A 
ATOM     59  N   UNL A   1      41.644  27.859  31.742  1.00  0.00    -0.354 N 
ATOM     60  N   UNL A   1      41.710  30.550  34.322  1.00  0.00    -0.248 NA
ATOM     61  C   UNL A   1      41.609  30.678  36.615  1.00  0.00     0.031 C 
ATOM     62  C   UNL A   1      43.238  29.371  31.656  1.00  0.00     0.029 A 
ATOM     63  C   UNL A   1      42.538  28.552  32.527  1.00  0.00     0.049 A 
ATOM     64  H   UNL A   1      41.040  27.161  32.083  1.00  0.00     0.167 HD
ATOM     65  C   UNL A   1      42.102  29.325  34.785  1.00  0.00     0.074 A 
ATOM     66  C   UNL A   1      41.966  29.439  36.229  1.00  0.00     0.031 C 
ATOM     67  C   UNL A   1      42.509  28.310  33.963  1.00  0.00     0.037 A 
BRANCH  54  68
ATOM     68  C   UNL A   1      40.606  27.152  28.313  1.00  0.00     0.057 A 
ATOM     69  C   UNL A   1      41.371  27.654  27.240  1.00  0.00     0.134 A 
ATOM     70  C   UNL A   1      39.971  25.926  28.040  1.00  0.00     0.134 A 
ATOM     71  F   UNL A   1      42.074  28.790  27.349  1.00  0.00    -0.206 F 
ATOM     72  C   UNL A   1      41.458  27.022  25.995  1.00  0.00     0.040 A 
ATOM     73  C   UNL A   1      40.038  25.289  26.792  1.00  0.00     0.040 A 
ATOM     74  F   UNL A   1      39.281  25.253  28.964  1.00  0.00    -0.206 F 
ATOM     75  C   UNL A   1      40.780  25.839  25.761  1.00  0.00     0.006 A 
ENDBRANCH  54  68
BRANCH  55  76
ATOM     76  C   UNL A   1      39.749  33.378  35.833  1.00  0.00     0.057 A 
ATOM     77  C   UNL A   1      38.647  32.519  36.047  1.00  0.00     0.134 A 
ATOM     78  C   UNL A   1      39.873  34.470  36.695  1.00  0.00     0.134 A 
ATOM     79  F   UNL A   1      38.434  31.478  35.225  1.00  0.00    -0.206 F 
ATOM     80  C   UNL A   1      37.888  32.582  37.218  1.00  0.00     0.040 A 
ATOM     81  C   UNL A   1      39.072  34.576  37.838  1.00  0.00     0.040 A 
ATOM     82  F   UNL A   1      40.863  35.360  36.536  1.00  0.00    -0.206 F 
ATOM     83  C   UNL A   1      38.140  33.585  38.146  1.00  0.00     0.006 A 
ENDBRANCH  55  76
BRANCH  67  84
ATOM     84  C   UNL A   1      42.900  26.956  34.487  1.00  0.00     0.057 A 
ATOM     85  C   UNL A   1      44.230  26.522  34.505  1.00  0.00     0.134 A 
ATOM     86  C   UNL A   1      41.950  26.008  34.929  1.00  0.00     0.134 A 
ATOM     87  F   UNL A   1      45.209  27.274  33.982  1.00  0.00    -0.206 F 
ATOM     88  C   UNL A   1      44.602  25.291  35.052  1.00  0.00     0.040 A 
ATOM     89  C   UNL A   1      42.303  24.747  35.403  1.00  0.00     0.040 A 
ATOM     90  F   UNL A   1      40.635  26.263  34.959  1.00  0.00    -0.206 F 
ATOM     91  C   UNL A   1      43.638  24.399  35.506  1.00  0.00     0.006 A 
ENDBRANCH  67  84
ENDBRANCH  41  42
ENDBRANCH  33  36
ENDBRANCH  31  32
ENDBRANCH  30  31
ENDBRANCH  29  30
ENDBRANCH  28  29
ENDBRANCH   1  28
TORSDOF 17
ENDMDL
MODEL 2
REMARK VINA RESULT:     -11.7      4.789     10.039
REMARK SMILES Cc1cc(C(=O)NCCCCCCNC(=O)c2ccc(-c3c4nc(c(-c5c(F)cccc5F)c5ccc([nH]5)c(-c5c(F)cccc5F)c5nc(c(-c6c(F)cccc6F)c6ccc3[nH]6)C=C5)C=C4)cc2)ccc1NS(=O)(=O)c1ccc(C#N)cc1C
REMARK SMILES IDX 9 1 8 2 7 3 5 4 6 5 4 7 1 8 2 9 3 10 73 11 72 12 71 13 74 14
REMARK SMILES IDX 75 16 76 17 77 18 78 19 79 20 85 21 80 22 84 23 86 24 81 25
REMARK SMILES IDX 82 26 83 27 10 28 11 29 12 30 13 31 14 32 15 33 16 35 17 36
REMARK SMILES IDX 18 37 70 38 19 39 69 40 20 41 21 42 22 43 63 44 23 45 68 46
REMARK SMILES IDX 62 47 64 48 24 49 67 50 61 51 60 52 25 54 51 55 34 56 50 57
REMARK SMILES IDX 35 58 38 59 49 60 65 61 36 62 37 63 48 65 66 66 39 67 26 68
REMARK SMILES IDX 27 69 32 70 28 71 29 72 31 73 33 74 30 75 52 76 53 77 58 78
REMARK SMILES IDX 54 79 55 80 57 81 59 82 56 83 40 84 41 85 46 86 42 87 43 88
REMARK SMILES IDX 45 89 47 90 44 91
REMARK H PARENT 7 6 74 15 14 34 64 53 38 64
REMARK Flexibility Score: inf
ROOT
ATOM      1  C   UNL A   1      38.357  24.062  26.545  1.00  0.00     0.021 C 
ENDROOT
BRANCH   1   2
ATOM      2  C   UNL A   1      37.016  23.714  25.899  1.00  0.00     0.116 C 
BRANCH   2   3
ATOM      3  N   UNL A   1      37.162  23.480  24.476  1.00  0.00    -0.352 N 
ATOM      4  C   UNL A   1      36.317  22.898  23.561  1.00  0.00     0.251 C 
ATOM      5  O   UNL A   1      36.616  22.954  22.370  1.00  0.00    -0.269 OA
ATOM      6  H   UNL A   1      38.015  23.793  24.098  1.00  0.00     0.163 HD
BRANCH   4   7
ATOM      7  C   UNL A   1      35.022  22.284  23.960  1.00  0.00     0.040 A 
ATOM      8  C   UNL A   1      31.400  22.674  22.935  1.00  0.00     0.046 C 
ATOM      9  C   UNL A   1      32.592  22.355  23.796  1.00  0.00    -0.026 A 
ATOM     10  C   UNL A   1      33.860  22.733  23.325  1.00  0.00     0.019 A 
ATOM     11  C   UNL A   1      32.504  21.606  24.983  1.00  0.00     0.052 A 
ATOM     12  C   UNL A   1      33.640  20.929  25.418  1.00  0.00     0.028 A 
ATOM     13  C   UNL A   1      34.899  21.271  24.910  1.00  0.00     0.016 A 
BRANCH  11  14
ATOM     14  N   UNL A   1      31.440  21.927  25.883  1.00  0.00    -0.279 N 
ATOM     15  H   UNL A   1      30.670  21.314  25.869  1.00  0.00     0.180 HD
BRANCH  14  16
ATOM     16  S   UNL A   1      31.327  23.205  26.956  1.00  0.00     0.262 S 
ATOM     17  O   UNL A   1      30.093  22.970  27.678  1.00  0.00    -0.201 OA
ATOM     18  O   UNL A   1      32.597  23.308  27.644  1.00  0.00    -0.201 OA
BRANCH  16  19
ATOM     19  C   UNL A   1      31.090  24.759  26.074  1.00  0.00     0.090 A 
ATOM     20  C   UNL A   1      29.806  25.240  25.795  1.00  0.00     0.024 A 
ATOM     21  C   UNL A   1      32.208  25.394  25.489  1.00  0.00    -0.029 A 
ATOM     22  C   UNL A   1      29.617  26.199  24.791  1.00  0.00     0.021 A 
ATOM     23  C   UNL A   1      31.998  26.371  24.492  1.00  0.00     0.024 A 
ATOM     24  C   UNL A   1      33.632  25.160  25.924  1.00  0.00     0.046 C 
ATOM     25  C   UNL A   1      30.708  26.731  24.103  1.00  0.00     0.052 A 
BRANCH  25  26
ATOM     26  C   UNL A   1      30.491  27.624  22.994  1.00  0.00     0.099 C 
ATOM     27  N   UNL A   1      30.305  28.294  22.073  1.00  0.00    -0.192 NA
ENDBRANCH  25  26
ENDBRANCH  16  19
ENDBRANCH  14  16
ENDBRANCH  11  14
ENDBRANCH   4   7
ENDBRANCH   2   3
ENDBRANCH   1   2
BRANCH   1  28
ATOM     28  C   UNL A   1      39.370  22.909  26.548  1.00  0.00     0.002 C 
BRANCH  28  29
ATOM     29  C   UNL A   1      40.466  22.986  27.623  1.00  0.00     0.002 C 
BRANCH  29  30
ATOM     30  C   UNL A   1      41.278  21.707  27.819  1.00  0.00     0.021 C 
BRANCH  30  31
ATOM     31  C   UNL A   1      42.773  21.912  27.678  1.00  0.00     0.116 C 
BRANCH  31  32
ATOM     32  N   UNL A   1      43.302  21.390  26.427  1.00  0.00    -0.352 N 
ATOM     33  C   UNL A   1      44.122  21.979  25.483  1.00  0.00     0.251 C 
ATOM     34  H   UNL A   1      43.031  20.467  26.217  1.00  0.00     0.163 HD
ATOM     35  O   UNL A   1      44.295  21.407  24.408  1.00  0.00    -0.269 OA
BRANCH  33  36
ATOM     36  C   UNL A   1      44.975  23.147  25.837  1.00  0.00     0.039 A 
ATOM     37  C   UNL A   1      45.503  23.119  27.137  1.00  0.00     0.014 A 
ATOM     38  C   UNL A   1      44.788  24.362  25.198  1.00  0.00     0.014 A 
ATOM     39  C   UNL A   1      45.446  24.266  27.907  1.00  0.00     0.010 A 
ATOM     40  C   UNL A   1      44.538  25.446  25.988  1.00  0.00     0.010 A 
ATOM     41  C   UNL A   1      44.803  25.362  27.354  1.00  0.00    -0.014 A 
BRANCH  41  42
ATOM     42  C   UNL A   1      44.539  26.599  28.041  1.00  0.00     0.031 A 
ATOM     43  C   UNL A   1      43.165  27.087  27.900  1.00  0.00     0.074 A 
ATOM     44  C   UNL A   1      45.468  27.024  28.925  1.00  0.00     0.049 A 
ATOM     45  N   UNL A   1      42.779  28.260  28.217  1.00  0.00    -0.248 NA
ATOM     46  C   UNL A   1      42.090  26.269  27.327  1.00  0.00     0.031 C 
ATOM     47  C   UNL A   1      45.358  27.988  30.010  1.00  0.00     0.029 A 
ATOM     48  N   UNL A   1      46.841  26.762  28.856  1.00  0.00    -0.354 N 
ATOM     49  C   UNL A   1      41.400  28.251  28.221  1.00  0.00     0.074 A 
ATOM     50  C   UNL A   1      41.025  27.045  27.533  1.00  0.00     0.031 C 
ATOM     51  C   UNL A   1      46.583  28.492  30.264  1.00  0.00     0.029 A 
ATOM     52  C   UNL A   1      47.480  27.964  29.248  1.00  0.00     0.049 A 
ATOM     53  H   UNL A   1      47.274  25.918  28.590  1.00  0.00     0.167 HD
ATOM     54  C   UNL A   1      40.778  29.211  28.959  1.00  0.00     0.037 A 
ATOM     55  C   UNL A   1      48.122  28.702  28.287  1.00  0.00     0.037 A 
ATOM     56  C   UNL A   1      41.791  30.122  29.499  1.00  0.00     0.049 A 
ATOM     57  C   UNL A   1      47.385  29.992  27.965  1.00  0.00     0.074 A 
ATOM     58  C   UNL A   1      42.506  30.171  30.683  1.00  0.00     0.029 A 
ATOM     59  N   UNL A   1      42.503  30.882  28.594  1.00  0.00    -0.354 N 
ATOM     60  N   UNL A   1      46.174  30.265  28.374  1.00  0.00    -0.248 NA
ATOM     61  C   UNL A   1      47.935  31.053  27.126  1.00  0.00     0.031 C 
ATOM     62  C   UNL A   1      43.697  30.928  30.439  1.00  0.00     0.029 A 
ATOM     63  C   UNL A   1      43.689  31.347  29.118  1.00  0.00     0.049 A 
ATOM     64  H   UNL A   1      42.198  31.071  27.678  1.00  0.00     0.167 HD
ATOM     65  C   UNL A   1      45.787  31.490  27.908  1.00  0.00     0.074 A 
ATOM     66  C   UNL A   1      46.906  31.918  27.082  1.00  0.00     0.031 C 
ATOM     67  C   UNL A   1      44.588  32.068  28.229  1.00  0.00     0.037 A 
BRANCH  54  68
ATOM     68  C   UNL A   1      39.329  29.254  29.373  1.00  0.00     0.057 A 
ATOM     69  C   UNL A   1      38.344  29.485  28.390  1.00  0.00     0.134 A 
ATOM     70  C   UNL A   1      38.817  29.110  30.675  1.00  0.00     0.134 A 
ATOM     71  F   UNL A   1      38.659  29.603  27.092  1.00  0.00    -0.206 F 
ATOM     72  C   UNL A   1      36.981  29.608  28.680  1.00  0.00     0.040 A 
ATOM     73  C   UNL A   1      37.454  29.246  30.983  1.00  0.00     0.040 A 
ATOM     74  F   UNL A   1      39.586  28.795  31.719  1.00  0.00    -0.206 F 
ATOM     75  C   UNL A   1      36.530  29.501  29.984  1.00  0.00     0.006 A 
ENDBRANCH  54  68
BRANCH  55  76
ATOM     76  C   UNL A   1      48.795  27.798  27.292  1.00  0.00     0.057 A 
ATOM     77  C   UNL A   1      49.934  27.092  27.741  1.00  0.00     0.134 A 
ATOM     78  C   UNL A   1      48.073  27.227  26.241  1.00  0.00     0.134 A 
ATOM     79  F   UNL A   1      50.705  27.607  28.713  1.00  0.00    -0.206 F 
ATOM     80  C   UNL A   1      50.169  25.767  27.364  1.00  0.00     0.040 A 
ATOM     81  C   UNL A   1      48.344  25.922  25.812  1.00  0.00     0.040 A 
ATOM     82  F   UNL A   1      47.005  27.850  25.723  1.00  0.00    -0.206 F 
ATOM     83  C   UNL A   1      49.333  25.161  26.434  1.00  0.00     0.006 A 
ENDBRANCH  55  76
BRANCH  67  84
ATOM     84  C   UNL A   1      44.162  33.400  27.675  1.00  0.00     0.057 A 
ATOM     85  C   UNL A   1      44.037  34.533  28.484  1.00  0.00     0.134 A 
ATOM     86  C   UNL A   1      43.793  33.578  26.324  1.00  0.00     0.134 A 
ATOM     87  F   UNL A   1      44.221  34.460  29.811  1.00  0.00    -0.206 F 
ATOM     88  C   UNL A   1      43.705  35.786  27.961  1.00  0.00     0.040 A 
ATOM     89  C   UNL A   1      43.383  34.805  25.806  1.00  0.00     0.040 A 
ATOM     90  F   UNL A   1      43.841  32.587  25.423  1.00  0.00    -0.206 F 
ATOM     91  C   UNL A   1      43.379  35.926  26.618  1.00  0.00     0.006 A 
ENDBRANCH  67  84
ENDBRANCH  41  42
ENDBRANCH  33  36
ENDBRANCH  31  32
ENDBRANCH  30  31
ENDBRANCH  29  30
ENDBRANCH  28  29
ENDBRANCH   1  28
TORSDOF 17
ENDMDL
MODEL 3
REMARK VINA RESULT:     -11.6      4.611      9.929
REMARK SMILES Cc1cc(C(=O)NCCCCCCNC(=O)c2ccc(-c3c4nc(c(-c5c(F)cccc5F)c5ccc([nH]5)c(-c5c(F)cccc5F)c5nc(c(-c6c(F)cccc6F)c6ccc3[nH]6)C=C5)C=C4)cc2)ccc1NS(=O)(=O)c1ccc(C#N)cc1C
REMARK SMILES IDX 9 1 8 2 7 3 5 4 6 5 4 7 1 8 2 9 3 10 73 11 72 12 71 13 74 14
REMARK SMILES IDX 75 16 76 17 77 18 78 19 79 20 85 21 80 22 84 23 86 24 81 25
REMARK SMILES IDX 82 26 83 27 10 28 11 29 12 30 13 31 14 32 15 33 16 35 17 36
REMARK SMILES IDX 18 37 70 38 19 39 69 40 20 41 21 42 22 43 63 44 23 45 68 46
REMARK SMILES IDX 62 47 64 48 24 49 67 50 61 51 60 52 25 54 51 55 34 56 50 57
REMARK SMILES IDX 35 58 38 59 49 60 65 61 36 62 37 63 48 65 66 66 39 67 26 68
REMARK SMILES IDX 27 69 32 70 28 71 29 72 31 73 33 74 30 75 52 76 53 77 58 78
REMARK SMILES IDX 54 79 55 80 57 81 59 82 56 83 40 84 41 85 46 86 42 87 43 88
REMARK SMILES IDX 45 89 47 90 44 91
REMARK H PARENT 7 6 74 15 14 34 64 53 38 64
REMARK Flexibility Score: inf
ROOT
ATOM      1  C   UNL A   1      37.535  23.265  25.658  1.00  0.00     0.021 C 
ENDROOT
BRANCH   1   2
ATOM      2  C   UNL A   1      36.103  23.707  25.962  1.00  0.00     0.116 C 
BRANCH   2   3
ATOM      3  N   UNL A   1      35.459  22.799  26.891  1.00  0.00    -0.352 N 
ATOM      4  C   UNL A   1      34.190  22.274  26.913  1.00  0.00     0.251 C 
ATOM      5  O   UNL A   1      33.932  21.399  27.738  1.00  0.00    -0.269 OA
ATOM      6  H   UNL A   1      36.031  22.508  27.637  1.00  0.00     0.163 HD
BRANCH   4   7
ATOM      7  C   UNL A   1      33.154  22.668  25.919  1.00  0.00     0.040 A 
ATOM      8  C   UNL A   1      32.054  21.444  22.511  1.00  0.00     0.046 C 
ATOM      9  C   UNL A   1      32.276  22.385  23.665  1.00  0.00    -0.026 A 
ATOM     10  C   UNL A   1      33.079  21.940  24.728  1.00  0.00     0.019 A 
ATOM     11  C   UNL A   1      31.632  23.631  23.774  1.00  0.00     0.052 A 
ATOM     12  C   UNL A   1      31.475  24.179  25.045  1.00  0.00     0.028 A 
ATOM     13  C   UNL A   1      32.238  23.700  26.116  1.00  0.00     0.016 A 
BRANCH  11  14
ATOM     14  N   UNL A   1      31.580  24.448  22.601  1.00  0.00    -0.279 N 
ATOM     15  H   UNL A   1      30.762  24.366  22.061  1.00  0.00     0.180 HD
BRANCH  14  16
ATOM     16  S   UNL A   1      32.724  25.522  22.024  1.00  0.00     0.262 S 
ATOM     17  O   UNL A   1      33.995  24.875  22.276  1.00  0.00    -0.201 OA
ATOM     18  O   UNL A   1      32.324  25.907  20.687  1.00  0.00    -0.201 OA
BRANCH  16  19
ATOM     19  C   UNL A   1      32.739  27.030  23.012  1.00  0.00     0.090 A 
ATOM     20  C   UNL A   1      33.911  27.470  23.637  1.00  0.00     0.024 A 
ATOM     21  C   UNL A   1      31.513  27.663  23.318  1.00  0.00    -0.029 A 
ATOM     22  C   UNL A   1      33.842  28.379  24.701  1.00  0.00     0.021 A 
ATOM     23  C   UNL A   1      31.466  28.590  24.382  1.00  0.00     0.024 A 
ATOM     24  C   UNL A   1      30.249  27.480  22.519  1.00  0.00     0.046 C 
ATOM     25  C   UNL A   1      32.615  28.903  25.109  1.00  0.00     0.052 A 
BRANCH  25  26
ATOM     26  C   UNL A   1      32.544  29.741  26.278  1.00  0.00     0.099 C 
ATOM     27  N   UNL A   1      32.470  30.367  27.245  1.00  0.00    -0.192 NA
ENDBRANCH  25  26
ENDBRANCH  16  19
ENDBRANCH  14  16
ENDBRANCH  11  14
ENDBRANCH   4   7
ENDBRANCH   2   3
ENDBRANCH   1   2
BRANCH   1  28
ATOM     28  C   UNL A   1      38.609  24.047  26.427  1.00  0.00     0.002 C 
BRANCH  28  29
ATOM     29  C   UNL A   1      39.649  23.195  27.171  1.00  0.00     0.002 C 
BRANCH  29  30
ATOM     30  C   UNL A   1      40.499  22.285  26.288  1.00  0.00     0.021 C 
BRANCH  30  31
ATOM     31  C   UNL A   1      41.892  22.822  26.026  1.00  0.00     0.116 C 
BRANCH  31  32
ATOM     32  N   UNL A   1      42.740  21.878  25.314  1.00  0.00    -0.352 N 
ATOM     33  C   UNL A   1      44.053  21.988  24.897  1.00  0.00     0.251 C 
ATOM     34  H   UNL A   1      42.308  21.022  25.091  1.00  0.00     0.163 HD
ATOM     35  O   UNL A   1      44.511  21.127  24.148  1.00  0.00    -0.269 OA
BRANCH  33  36
ATOM     36  C   UNL A   1      44.972  22.976  25.525  1.00  0.00     0.039 A 
ATOM     37  C   UNL A   1      45.180  22.795  26.902  1.00  0.00     0.014 A 
ATOM     38  C   UNL A   1      45.126  24.235  24.967  1.00  0.00     0.014 A 
ATOM     39  C   UNL A   1      45.127  23.897  27.736  1.00  0.00     0.010 A 
ATOM     40  C   UNL A   1      44.872  25.305  25.774  1.00  0.00     0.010 A 
ATOM     41  C   UNL A   1      44.803  25.112  27.153  1.00  0.00    -0.014 A 
BRANCH  41  42
ATOM     42  C   UNL A   1      44.584  26.340  27.869  1.00  0.00     0.031 A 
ATOM     43  C   UNL A   1      43.218  26.863  27.768  1.00  0.00     0.074 A 
ATOM     44  C   UNL A   1      45.540  26.725  28.742  1.00  0.00     0.049 A 
ATOM     45  N   UNL A   1      42.867  28.038  28.116  1.00  0.00    -0.248 NA
ATOM     46  C   UNL A   1      42.113  26.082  27.202  1.00  0.00     0.031 C 
ATOM     47  C   UNL A   1      45.477  27.669  29.848  1.00  0.00     0.029 A 
ATOM     48  N   UNL A   1      46.906  26.433  28.638  1.00  0.00    -0.354 N 
ATOM     49  C   UNL A   1      41.489  28.062  28.149  1.00  0.00     0.074 A 
ATOM     50  C   UNL A   1      41.071  26.879  27.446  1.00  0.00     0.031 C 
ATOM     51  C   UNL A   1      46.719  28.140  30.085  1.00  0.00     0.029 A 
ATOM     52  C   UNL A   1      47.580  27.611  29.040  1.00  0.00     0.049 A 
ATOM     53  H   UNL A   1      47.312  25.584  28.347  1.00  0.00     0.167 HD
ATOM     54  C   UNL A   1      40.906  29.021  28.920  1.00  0.00     0.037 A 
ATOM     55  C   UNL A   1      48.220  28.353  28.080  1.00  0.00     0.037 A 
ATOM     56  C   UNL A   1      41.951  29.896  29.455  1.00  0.00     0.049 A 
ATOM     57  C   UNL A   1      47.508  29.667  27.799  1.00  0.00     0.074 A 
ATOM     58  C   UNL A   1      42.692  29.905  30.625  1.00  0.00     0.029 A 
ATOM     59  N   UNL A   1      42.663  30.658  28.551  1.00  0.00    -0.354 N 
ATOM     60  N   UNL A   1      46.312  29.959  28.240  1.00  0.00    -0.248 NA
ATOM     61  C   UNL A   1      48.065  30.731  26.970  1.00  0.00     0.031 C 
ATOM     62  C   UNL A   1      43.896  30.638  30.370  1.00  0.00     0.029 A 
ATOM     63  C   UNL A   1      43.870  31.084  29.058  1.00  0.00     0.049 A 
ATOM     64  H   UNL A   1      42.342  30.872  27.645  1.00  0.00     0.167 HD
ATOM     65  C   UNL A   1      45.945  31.202  27.807  1.00  0.00     0.074 A 
ATOM     66  C   UNL A   1      47.056  31.620  26.965  1.00  0.00     0.031 C 
ATOM     67  C   UNL A   1      44.767  31.802  28.164  1.00  0.00     0.037 A 
BRANCH  54  68
ATOM     68  C   UNL A   1      39.467  29.090  29.365  1.00  0.00     0.057 A 
ATOM     69  C   UNL A   1      38.483  29.491  28.437  1.00  0.00     0.134 A 
ATOM     70  C   UNL A   1      38.966  28.815  30.650  1.00  0.00     0.134 A 
ATOM     71  F   UNL A   1      38.786  29.749  27.158  1.00  0.00    -0.206 F 
ATOM     72  C   UNL A   1      37.133  29.649  28.768  1.00  0.00     0.040 A 
ATOM     73  C   UNL A   1      37.617  28.984  31.000  1.00  0.00     0.040 A 
ATOM     74  F   UNL A   1      39.731  28.334  31.633  1.00  0.00    -0.206 F 
ATOM     75  C   UNL A   1      36.695  29.408  30.059  1.00  0.00     0.006 A 
ENDBRANCH  54  68
BRANCH  55  76
ATOM     76  C   UNL A   1      48.850  27.454  27.053  1.00  0.00     0.057 A 
ATOM     77  C   UNL A   1      48.252  27.434  25.772  1.00  0.00     0.134 A 
ATOM     78  C   UNL A   1      50.207  27.130  27.120  1.00  0.00     0.134 A 
ATOM     79  F   UNL A   1      46.939  27.684  25.637  1.00  0.00    -0.206 F 
ATOM     80  C   UNL A   1      49.022  27.380  24.607  1.00  0.00     0.040 A 
ATOM     81  C   UNL A   1      50.973  27.008  25.956  1.00  0.00     0.040 A 
ATOM     82  F   UNL A   1      50.843  27.080  28.300  1.00  0.00    -0.206 F 
ATOM     83  C   UNL A   1      50.399  27.222  24.702  1.00  0.00     0.006 A 
ENDBRANCH  55  76
BRANCH  67  84
ATOM     84  C   UNL A   1      44.361  33.154  27.646  1.00  0.00     0.057 A 
ATOM     85  C   UNL A   1      43.985  33.356  26.315  1.00  0.00     0.134 A 
ATOM     86  C   UNL A   1      44.401  34.317  28.446  1.00  0.00     0.134 A 
ATOM     87  F   UNL A   1      44.042  32.358  25.421  1.00  0.00    -0.206 F 
ATOM     88  C   UNL A   1      43.545  34.597  25.847  1.00  0.00     0.040 A 
ATOM     89  C   UNL A   1      44.040  35.576  27.970  1.00  0.00     0.040 A 
ATOM     90  F   UNL A   1      44.756  34.295  29.738  1.00  0.00    -0.206 F 
ATOM     91  C   UNL A   1      43.569  35.712  26.676  1.00  0.00     0.006 A 
ENDBRANCH  67  84
ENDBRANCH  41  42
ENDBRANCH  33  36
ENDBRANCH  31  32
ENDBRANCH  30  31
ENDBRANCH  29  30
ENDBRANCH  28  29
ENDBRANCH   1  28
TORSDOF 17
ENDMDL
