MODEL 1
REMARK VINA RESULT:     -10.7      0.000      0.000
REMARK SMILES O=C(C[C@H](C(=O)OC[C@H]1CCCO1)[NH+]1CCOCC1)NCCCCCCNC(=O)c1ccc(-c2c3nc(c(-c4c(F)cccc4F)c4ccc([nH]4)c(-c4c(F)cccc4F)c4nc(c(-c5c(F)cccc5F)c5ccc2[nH]5)C=C4)C=C3)cc1
REMARK SMILES IDX 22 1 21 2 20 3 1 4 2 5 3 7 4 8 14 9 15 10 19 11 16 13 18 14
REMARK SMILES IDX 17 15 5 16 6 17 7 18 8 19 9 20 10 21 13 22 11 23 12 24 23 25
REMARK SMILES IDX 24 26 25 27 26 28 27 29 28 30 29 32 30 33 31 34 83 35 32 36
REMARK SMILES IDX 82 37 33 38 34 39 35 40 76 41 36 42 81 43 75 44 77 45 37 46
REMARK SMILES IDX 80 47 74 48 73 49 38 51 64 52 47 53 63 54 48 55 51 56 62 57
REMARK SMILES IDX 78 58 49 59 50 60 61 62 79 63 52 64 39 65 40 66 45 67 41 68
REMARK SMILES IDX 42 69 44 70 46 71 43 72 65 73 66 74 71 75 67 76 68 77 70 78
REMARK SMILES IDX 72 79 69 80 53 81 54 82 59 83 55 84 56 85 58 86 60 87 57 88
REMARK H PARENT 20 6 14 12 27 31 77 50 51 61
REMARK Flexibility Score: inf
ROOT
ATOM      1  C   UNL A   1      36.861  23.893  26.127  1.00  0.00     0.021 C 
ENDROOT
BRANCH   1   2
ATOM      2  C   UNL A   1      35.419  23.406  26.018  1.00  0.00     0.116 C 
BRANCH   2   3
ATOM      3  N   UNL A   1      34.464  24.500  26.019  1.00  0.00    -0.356 N 
ATOM      4  O   UNL A   1      34.338  24.758  23.749  1.00  0.00    -0.275 OA
ATOM      5  C   UNL A   1      33.929  25.031  24.872  1.00  0.00     0.226 C 
ATOM      6  H   UNL A   1      34.187  24.878  26.883  1.00  0.00     0.163 HD
BRANCH   5   7
ATOM      7  C   UNL A   1      32.796  26.005  25.104  1.00  0.00     0.177 C 
BRANCH   7   8
ATOM      8  C   UNL A   1      31.365  25.436  25.225  1.00  0.00     0.304 C 
BRANCH   8   9
ATOM      9  N   UNL A   1      30.451  25.478  24.052  1.00  0.00    -0.319 N 
ATOM     10  C   UNL A   1      31.134  25.385  22.741  1.00  0.00     0.291 C 
ATOM     11  C   UNL A   1      29.409  26.509  23.966  1.00  0.00     0.291 C 
ATOM     12  H   UNL A   1      29.940  24.623  24.270  1.00  0.00     0.348 HD
ATOM     13  C   UNL A   1      31.515  26.737  22.097  1.00  0.00     0.221 C 
ATOM     14  C   UNL A   1      29.874  27.845  23.376  1.00  0.00     0.221 C 
ATOM     15  O   UNL A   1      30.416  27.654  22.065  1.00  0.00    -0.370 OA
ENDBRANCH   8   9
BRANCH   8  16
ATOM     16  C   UNL A   1      31.277  24.162  26.079  1.00  0.00     0.365 C 
ATOM     17  O   UNL A   1      31.330  24.186  27.305  1.00  0.00    -0.245 OA
BRANCH  16  18
ATOM     18  O   UNL A   1      31.051  23.031  25.344  1.00  0.00    -0.459 OA
BRANCH  18  19
ATOM     19  C   UNL A   1      31.777  21.871  25.805  1.00  0.00     0.265 C 
BRANCH  19  20
ATOM     20  C   UNL A   1      32.162  20.902  24.670  1.00  0.00     0.156 C 
ATOM     21  C   UNL A   1      33.601  21.015  24.182  1.00  0.00     0.038 C 
ATOM     22  O   UNL A   1      31.955  19.539  25.067  1.00  0.00    -0.375 OA
ATOM     23  C   UNL A   1      34.298  19.804  24.745  1.00  0.00     0.031 C 
ATOM     24  C   UNL A   1      33.184  18.816  24.987  1.00  0.00     0.161 C 
ENDBRANCH  19  20
ENDBRANCH  18  19
ENDBRANCH  16  18
ENDBRANCH   8  16
ENDBRANCH   7   8
ENDBRANCH   5   7
ENDBRANCH   2   3
ENDBRANCH   1   2
BRANCH   1  25
ATOM     25  C   UNL A   1      37.905  22.838  25.762  1.00  0.00     0.002 C 
BRANCH  25  26
ATOM     26  C   UNL A   1      37.448  21.726  24.823  1.00  0.00     0.002 C 
BRANCH  26  27
ATOM     27  C   UNL A   1      38.125  20.379  25.044  1.00  0.00     0.021 C 
BRANCH  27  28
ATOM     28  C   UNL A   1      39.284  20.380  26.034  1.00  0.00     0.116 C 
BRANCH  28  29
ATOM     29  N   UNL A   1      40.192  19.247  25.889  1.00  0.00    -0.352 N 
ATOM     30  C   UNL A   1      41.554  19.202  26.075  1.00  0.00     0.251 C 
ATOM     31  H   UNL A   1      39.771  18.398  25.620  1.00  0.00     0.163 HD
ATOM     32  O   UNL A   1      42.183  18.172  25.852  1.00  0.00    -0.269 OA
BRANCH  30  33
ATOM     33  C   UNL A   1      42.258  20.431  26.495  1.00  0.00     0.039 A 
ATOM     34  C   UNL A   1      42.885  21.212  25.523  1.00  0.00     0.014 A 
ATOM     35  C   UNL A   1      42.203  20.859  27.822  1.00  0.00     0.014 A 
ATOM     36  C   UNL A   1      43.362  22.478  25.865  1.00  0.00     0.010 A 
ATOM     37  C   UNL A   1      42.594  22.155  28.140  1.00  0.00     0.010 A 
ATOM     38  C   UNL A   1      43.162  22.984  27.162  1.00  0.00    -0.014 A 
BRANCH  38  39
ATOM     39  C   UNL A   1      43.500  24.392  27.494  1.00  0.00     0.031 A 
ATOM     40  C   UNL A   1      44.923  24.869  27.441  1.00  0.00     0.074 A 
ATOM     41  C   UNL A   1      42.529  25.224  27.922  1.00  0.00     0.049 A 
ATOM     42  N   UNL A   1      45.409  26.053  27.720  1.00  0.00    -0.248 NA
ATOM     43  C   UNL A   1      45.942  23.878  27.059  1.00  0.00     0.031 C 
ATOM     44  C   UNL A   1      41.120  24.863  28.101  1.00  0.00     0.029 A 
ATOM     45  N   UNL A   1      42.579  26.546  28.284  1.00  0.00    -0.354 N 
ATOM     46  C   UNL A   1      46.785  25.940  27.572  1.00  0.00     0.074 A 
ATOM     47  C   UNL A   1      47.063  24.561  27.233  1.00  0.00     0.031 C 
ATOM     48  C   UNL A   1      40.433  25.949  28.492  1.00  0.00     0.029 A 
ATOM     49  C   UNL A   1      41.355  27.072  28.620  1.00  0.00     0.049 A 
ATOM     50  H   UNL A   1      43.413  27.069  28.302  1.00  0.00     0.167 HD
ATOM     51  C   UNL A   1      47.731  26.904  27.682  1.00  0.00     0.037 A 
ATOM     52  C   UNL A   1      41.012  28.323  28.978  1.00  0.00     0.037 A 
ATOM     53  C   UNL A   1      47.450  28.284  27.974  1.00  0.00     0.049 A 
ATOM     54  C   UNL A   1      42.072  29.385  29.048  1.00  0.00     0.074 A 
ATOM     55  C   UNL A   1      48.326  29.356  28.008  1.00  0.00     0.029 A 
ATOM     56  N   UNL A   1      46.195  28.785  28.284  1.00  0.00    -0.354 N 
ATOM     57  N   UNL A   1      43.358  29.286  28.812  1.00  0.00    -0.248 NA
ATOM     58  C   UNL A   1      41.631  30.734  29.429  1.00  0.00     0.031 C 
ATOM     59  C   UNL A   1      47.607  30.498  28.374  1.00  0.00     0.029 A 
ATOM     60  C   UNL A   1      46.275  30.145  28.532  1.00  0.00     0.049 A 
ATOM     61  H   UNL A   1      45.368  28.252  28.322  1.00  0.00     0.167 HD
ATOM     62  C   UNL A   1      43.875  30.561  28.994  1.00  0.00     0.074 A 
ATOM     63  C   UNL A   1      42.761  31.420  29.342  1.00  0.00     0.031 C 
ATOM     64  C   UNL A   1      45.159  30.984  28.882  1.00  0.00     0.037 A 
BRANCH  51  65
ATOM     65  C   UNL A   1      49.158  26.490  27.471  1.00  0.00     0.057 A 
ATOM     66  C   UNL A   1      49.741  26.471  26.197  1.00  0.00     0.134 A 
ATOM     67  C   UNL A   1      49.960  26.115  28.555  1.00  0.00     0.134 A 
ATOM     68  F   UNL A   1      49.021  26.805  25.115  1.00  0.00    -0.206 F 
ATOM     69  C   UNL A   1      51.061  26.061  26.005  1.00  0.00     0.040 A 
ATOM     70  C   UNL A   1      51.290  25.729  28.378  1.00  0.00     0.040 A 
ATOM     71  F   UNL A   1      49.466  26.115  29.802  1.00  0.00    -0.206 F 
ATOM     72  C   UNL A   1      51.841  25.693  27.098  1.00  0.00     0.006 A 
ENDBRANCH  51  65
BRANCH  52  73
ATOM     73  C   UNL A   1      39.590  28.658  29.239  1.00  0.00     0.057 A 
ATOM     74  C   UNL A   1      38.776  29.160  28.216  1.00  0.00     0.134 A 
ATOM     75  C   UNL A   1      39.013  28.489  30.502  1.00  0.00     0.134 A 
ATOM     76  F   UNL A   1      39.280  29.360  26.990  1.00  0.00    -0.206 F 
ATOM     77  C   UNL A   1      37.441  29.498  28.444  1.00  0.00     0.040 A 
ATOM     78  C   UNL A   1      37.673  28.803  30.740  1.00  0.00     0.040 A 
ATOM     79  F   UNL A   1      39.740  28.004  31.519  1.00  0.00    -0.206 F 
ATOM     80  C   UNL A   1      36.886  29.316  29.709  1.00  0.00     0.006 A 
ENDBRANCH  52  73
BRANCH  64  81
ATOM     81  C   UNL A   1      45.416  32.441  29.124  1.00  0.00     0.057 A 
ATOM     82  C   UNL A   1      45.333  33.386  28.093  1.00  0.00     0.134 A 
ATOM     83  C   UNL A   1      45.735  32.906  30.407  1.00  0.00     0.134 A 
ATOM     84  F   UNL A   1      45.047  33.000  26.841  1.00  0.00    -0.206 F 
ATOM     85  C   UNL A   1      45.585  34.739  28.324  1.00  0.00     0.040 A 
ATOM     86  C   UNL A   1      45.966  34.260  30.653  1.00  0.00     0.040 A 
ATOM     87  F   UNL A   1      45.824  32.053  31.439  1.00  0.00    -0.206 F 
ATOM     88  C   UNL A   1      45.898  35.179  29.609  1.00  0.00     0.006 A 
ENDBRANCH  64  81
ENDBRANCH  38  39
ENDBRANCH  30  33
ENDBRANCH  28  29
ENDBRANCH  27  28
ENDBRANCH  26  27
ENDBRANCH  25  26
ENDBRANCH   1  25
TORSDOF 19
ENDMDL
MODEL 2
REMARK VINA RESULT:     -10.7      1.728      3.231
REMARK SMILES O=C(C[C@H](C(=O)OC[C@H]1CCCO1)[NH+]1CCOCC1)NCCCCCCNC(=O)c1ccc(-c2c3nc(c(-c4c(F)cccc4F)c4ccc([nH]4)c(-c4c(F)cccc4F)c4nc(c(-c5c(F)cccc5F)c5ccc2[nH]5)C=C4)C=C3)cc1
REMARK SMILES IDX 22 1 21 2 20 3 1 4 2 5 3 7 4 8 14 9 15 10 19 11 16 13 18 14
REMARK SMILES IDX 17 15 5 16 6 17 7 18 8 19 9 20 10 21 13 22 11 23 12 24 23 25
REMARK SMILES IDX 24 26 25 27 26 28 27 29 28 30 29 32 30 33 31 34 83 35 32 36
REMARK SMILES IDX 82 37 33 38 34 39 35 40 76 41 36 42 81 43 75 44 77 45 37 46
REMARK SMILES IDX 80 47 74 48 73 49 38 51 64 52 47 53 63 54 48 55 51 56 62 57
REMARK SMILES IDX 78 58 49 59 50 60 61 62 79 63 52 64 39 65 40 66 45 67 41 68
REMARK SMILES IDX 42 69 44 70 46 71 43 72 65 73 66 74 71 75 67 76 68 77 70 78
REMARK SMILES IDX 72 79 69 80 53 81 54 82 59 83 55 84 56 85 58 86 60 87 57 88
REMARK H PARENT 20 6 14 12 27 31 77 50 51 61
REMARK Flexibility Score: inf
ROOT
ATOM      1  C   UNL A   1      34.955  21.486  26.114  1.00  0.00     0.021 C 
ENDROOT
BRANCH   1   2
ATOM      2  C   UNL A   1      33.651  21.179  26.846  1.00  0.00     0.116 C 
BRANCH   2   3
ATOM      3  N   UNL A   1      32.486  21.659  26.125  1.00  0.00    -0.356 N 
ATOM      4  O   UNL A   1      31.856  23.249  27.645  1.00  0.00    -0.275 OA
ATOM      5  C   UNL A   1      31.729  22.725  26.544  1.00  0.00     0.226 C 
ATOM      6  H   UNL A   1      32.227  21.198  25.295  1.00  0.00     0.163 HD
BRANCH   5   7
ATOM      7  C   UNL A   1      30.702  23.196  25.538  1.00  0.00     0.177 C 
BRANCH   7   8
ATOM      8  C   UNL A   1      30.956  24.539  24.818  1.00  0.00     0.304 C 
BRANCH   8   9
ATOM      9  N   UNL A   1      31.306  24.547  23.373  1.00  0.00    -0.319 N 
ATOM     10  C   UNL A   1      32.052  23.352  22.916  1.00  0.00     0.291 C 
ATOM     11  C   UNL A   1      31.916  25.739  22.769  1.00  0.00     0.291 C 
ATOM     12  H   UNL A   1      30.349  24.549  23.019  1.00  0.00     0.348 HD
ATOM     13  C   UNL A   1      33.591  23.473  22.969  1.00  0.00     0.221 C 
ATOM     14  C   UNL A   1      33.439  25.825  22.915  1.00  0.00     0.221 C 
ATOM     15  O   UNL A   1      34.064  24.672  22.344  1.00  0.00    -0.370 OA
ENDBRANCH   8   9
BRANCH   8  16
ATOM     16  C   UNL A   1      30.019  25.669  25.272  1.00  0.00     0.365 C 
ATOM     17  O   UNL A   1      29.046  26.023  24.611  1.00  0.00    -0.245 OA
BRANCH  16  18
ATOM     18  O   UNL A   1      30.330  26.170  26.506  1.00  0.00    -0.459 OA
BRANCH  18  19
ATOM     19  C   UNL A   1      31.681  26.670  26.618  1.00  0.00     0.265 C 
BRANCH  19  20
ATOM     20  C   UNL A   1      31.749  28.193  26.848  1.00  0.00     0.156 C 
ATOM     21  C   UNL A   1      33.079  28.708  27.384  1.00  0.00     0.038 C 
ATOM     22  O   UNL A   1      31.476  28.907  25.634  1.00  0.00    -0.375 OA
ATOM     23  C   UNL A   1      33.736  29.383  26.209  1.00  0.00     0.031 C 
ATOM     24  C   UNL A   1      32.586  29.739  25.298  1.00  0.00     0.161 C 
ENDBRANCH  19  20
ENDBRANCH  18  19
ENDBRANCH  16  18
ENDBRANCH   8  16
ENDBRANCH   7   8
ENDBRANCH   5   7
ENDBRANCH   2   3
ENDBRANCH   1   2
BRANCH   1  25
ATOM     25  C   UNL A   1      35.280  20.512  24.982  1.00  0.00     0.002 C 
BRANCH  25  26
ATOM     26  C   UNL A   1      36.698  19.951  24.956  1.00  0.00     0.002 C 
BRANCH  26  27
ATOM     27  C   UNL A   1      37.801  20.996  24.828  1.00  0.00     0.021 C 
BRANCH  27  28
ATOM     28  C   UNL A   1      38.887  20.940  25.896  1.00  0.00     0.116 C 
BRANCH  28  29
ATOM     29  N   UNL A   1      39.805  19.815  25.754  1.00  0.00    -0.352 N 
ATOM     30  C   UNL A   1      41.148  19.753  26.046  1.00  0.00     0.251 C 
ATOM     31  H   UNL A   1      39.409  18.986  25.399  1.00  0.00     0.163 HD
ATOM     32  O   UNL A   1      41.793  18.737  25.810  1.00  0.00    -0.269 OA
BRANCH  30  33
ATOM     33  C   UNL A   1      41.815  20.951  26.596  1.00  0.00     0.039 A 
ATOM     34  C   UNL A   1      42.321  21.905  25.713  1.00  0.00     0.014 A 
ATOM     35  C   UNL A   1      41.840  21.175  27.974  1.00  0.00     0.014 A 
ATOM     36  C   UNL A   1      42.753  23.136  26.208  1.00  0.00     0.010 A 
ATOM     37  C   UNL A   1      42.183  22.433  28.456  1.00  0.00     0.010 A 
ATOM     38  C   UNL A   1      42.628  23.432  27.577  1.00  0.00    -0.014 A 
BRANCH  38  39
ATOM     39  C   UNL A   1      42.914  24.795  28.094  1.00  0.00     0.031 A 
ATOM     40  C   UNL A   1      44.320  25.209  28.420  1.00  0.00     0.074 A 
ATOM     41  C   UNL A   1      41.891  25.637  28.344  1.00  0.00     0.049 A 
ATOM     42  N   UNL A   1      44.756  26.346  28.902  1.00  0.00    -0.248 NA
ATOM     43  C   UNL A   1      45.374  24.203  28.212  1.00  0.00     0.031 C 
ATOM     44  C   UNL A   1      40.471  25.329  28.153  1.00  0.00     0.029 A 
ATOM     45  N   UNL A   1      41.888  26.927  28.814  1.00  0.00    -0.354 N 
ATOM     46  C   UNL A   1      46.124  26.182  29.077  1.00  0.00     0.074 A 
ATOM     47  C   UNL A   1      46.438  24.820  28.703  1.00  0.00     0.031 C 
ATOM     48  C   UNL A   1      39.740  26.414  28.456  1.00  0.00     0.029 A 
ATOM     49  C   UNL A   1      40.633  27.482  28.891  1.00  0.00     0.049 A 
ATOM     50  H   UNL A   1      42.707  27.407  29.073  1.00  0.00     0.167 HD
ATOM     51  C   UNL A   1      47.041  27.091  29.487  1.00  0.00     0.037 A 
ATOM     52  C   UNL A   1      40.248  28.718  29.257  1.00  0.00     0.037 A 
ATOM     53  C   UNL A   1      46.736  28.457  29.816  1.00  0.00     0.049 A 
ATOM     54  C   UNL A   1      41.288  29.723  29.664  1.00  0.00     0.074 A 
ATOM     55  C   UNL A   1      47.606  29.482  30.145  1.00  0.00     0.029 A 
ATOM     56  N   UNL A   1      45.456  28.992  29.857  1.00  0.00    -0.354 N 
ATOM     57  N   UNL A   1      42.590  29.582  29.734  1.00  0.00    -0.248 NA
ATOM     58  C   UNL A   1      40.805  31.059  30.037  1.00  0.00     0.031 C 
ATOM     59  C   UNL A   1      46.851  30.627  30.420  1.00  0.00     0.029 A 
ATOM     60  C   UNL A   1      45.511  30.325  30.227  1.00  0.00     0.049 A 
ATOM     61  H   UNL A   1      44.630  28.495  29.654  1.00  0.00     0.167 HD
ATOM     62  C   UNL A   1      43.083  30.816  30.137  1.00  0.00     0.074 A 
ATOM     63  C   UNL A   1      41.941  31.697  30.279  1.00  0.00     0.031 C 
ATOM     64  C   UNL A   1      44.367  31.187  30.369  1.00  0.00     0.037 A 
BRANCH  51  65
ATOM     65  C   UNL A   1      48.465  26.629  29.590  1.00  0.00     0.057 A 
ATOM     66  C   UNL A   1      49.375  26.802  28.538  1.00  0.00     0.134 A 
ATOM     67  C   UNL A   1      48.933  26.011  30.755  1.00  0.00     0.134 A 
ATOM     68  F   UNL A   1      48.985  27.373  27.388  1.00  0.00    -0.206 F 
ATOM     69  C   UNL A   1      50.691  26.347  28.630  1.00  0.00     0.040 A 
ATOM     70  C   UNL A   1      50.255  25.576  30.868  1.00  0.00     0.040 A 
ATOM     71  F   UNL A   1      48.116  25.818  31.801  1.00  0.00    -0.206 F 
ATOM     72  C   UNL A   1      51.136  25.736  29.800  1.00  0.00     0.006 A 
ENDBRANCH  51  65
BRANCH  52  73
ATOM     73  C   UNL A   1      38.815  29.098  29.199  1.00  0.00     0.057 A 
ATOM     74  C   UNL A   1      38.252  29.576  28.009  1.00  0.00     0.134 A 
ATOM     75  C   UNL A   1      37.979  28.995  30.316  1.00  0.00     0.134 A 
ATOM     76  F   UNL A   1      39.009  29.712  26.912  1.00  0.00    -0.206 F 
ATOM     77  C   UNL A   1      36.910  29.955  27.937  1.00  0.00     0.040 A 
ATOM     78  C   UNL A   1      36.630  29.352  30.252  1.00  0.00     0.040 A 
ATOM     79  F   UNL A   1      38.459  28.537  31.481  1.00  0.00    -0.206 F 
ATOM     80  C   UNL A   1      36.095  29.840  29.060  1.00  0.00     0.006 A 
ENDBRANCH  52  73
BRANCH  64  81
ATOM     81  C   UNL A   1      44.597  32.609  30.783  1.00  0.00     0.057 A 
ATOM     82  C   UNL A   1      44.641  32.985  32.132  1.00  0.00     0.134 A 
ATOM     83  C   UNL A   1      44.792  33.610  29.823  1.00  0.00     0.134 A 
ATOM     84  F   UNL A   1      44.446  32.075  33.098  1.00  0.00    -0.206 F 
ATOM     85  C   UNL A   1      44.845  34.313  32.511  1.00  0.00     0.040 A 
ATOM     86  C   UNL A   1      45.020  34.936  30.191  1.00  0.00     0.040 A 
ATOM     87  F   UNL A   1      44.768  33.313  28.515  1.00  0.00    -0.206 F 
ATOM     88  C   UNL A   1      45.039  35.292  31.537  1.00  0.00     0.006 A 
ENDBRANCH  64  81
ENDBRANCH  38  39
ENDBRANCH  30  33
ENDBRANCH  28  29
ENDBRANCH  27  28
ENDBRANCH  26  27
ENDBRANCH  25  26
ENDBRANCH   1  25
TORSDOF 19
ENDMDL
MODEL 3
REMARK VINA RESULT:     -10.7      2.025      7.155
REMARK SMILES O=C(C[C@H](C(=O)OC[C@H]1CCCO1)[NH+]1CCOCC1)NCCCCCCNC(=O)c1ccc(-c2c3nc(c(-c4c(F)cccc4F)c4ccc([nH]4)c(-c4c(F)cccc4F)c4nc(c(-c5c(F)cccc5F)c5ccc2[nH]5)C=C4)C=C3)cc1
REMARK SMILES IDX 22 1 21 2 20 3 1 4 2 5 3 7 4 8 14 9 15 10 19 11 16 13 18 14
REMARK SMILES IDX 17 15 5 16 6 17 7 18 8 19 9 20 10 21 13 22 11 23 12 24 23 25
REMARK SMILES IDX 24 26 25 27 26 28 27 29 28 30 29 32 30 33 31 34 83 35 32 36
REMARK SMILES IDX 82 37 33 38 34 39 35 40 76 41 36 42 81 43 75 44 77 45 37 46
REMARK SMILES IDX 80 47 74 48 73 49 38 51 64 52 47 53 63 54 48 55 51 56 62 57
REMARK SMILES IDX 78 58 49 59 50 60 61 62 79 63 52 64 39 65 40 66 45 67 41 68
REMARK SMILES IDX 42 69 44 70 46 71 43 72 65 73 66 74 71 75 67 76 68 77 70 78
REMARK SMILES IDX 72 79 69 80 53 81 54 82 59 83 55 84 56 85 58 86 60 87 57 88
REMARK H PARENT 20 6 14 12 27 31 77 50 51 61
REMARK Flexibility Score: inf
ROOT
ATOM      1  C   UNL A   1      35.030  23.540  25.394  1.00  0.00     0.021 C 
ENDROOT
BRANCH   1   2
ATOM      2  C   UNL A   1      33.720  22.972  25.934  1.00  0.00     0.116 C 
BRANCH   2   3
ATOM      3  N   UNL A   1      32.570  23.763  25.538  1.00  0.00    -0.356 N 
ATOM      4  O   UNL A   1      31.480  23.692  27.548  1.00  0.00    -0.275 OA
ATOM      5  C   UNL A   1      31.578  24.138  26.410  1.00  0.00     0.226 C 
ATOM      6  H   UNL A   1      32.497  24.046  24.598  1.00  0.00     0.163 HD
BRANCH   5   7
ATOM      7  C   UNL A   1      30.595  25.139  25.847  1.00  0.00     0.177 C 
BRANCH   7   8
ATOM      8  C   UNL A   1      31.020  26.623  25.797  1.00  0.00     0.304 C 
BRANCH   8   9
ATOM      9  N   UNL A   1      32.147  27.098  26.645  1.00  0.00    -0.319 N 
ATOM     10  C   UNL A   1      31.782  28.157  27.613  1.00  0.00     0.291 C 
ATOM     11  C   UNL A   1      33.434  27.447  26.030  1.00  0.00     0.291 C 
ATOM     12  H   UNL A   1      32.325  26.209  27.112  1.00  0.00     0.348 HD
ATOM     13  C   UNL A   1      31.964  29.606  27.107  1.00  0.00     0.221 C 
ATOM     14  C   UNL A   1      33.521  28.880  25.494  1.00  0.00     0.221 C 
ATOM     15  O   UNL A   1      33.259  29.824  26.536  1.00  0.00    -0.370 OA
ENDBRANCH   8   9
BRANCH   8  16
ATOM     16  C   UNL A   1      30.954  27.238  24.391  1.00  0.00     0.365 C 
ATOM     17  O   UNL A   1      31.365  26.649  23.395  1.00  0.00    -0.245 OA
BRANCH  16  18
ATOM     18  O   UNL A   1      30.324  28.451  24.358  1.00  0.00    -0.459 OA
BRANCH  18  19
ATOM     19  C   UNL A   1      30.488  29.170  23.115  1.00  0.00     0.265 C 
BRANCH  19  20
ATOM     20  C   UNL A   1      29.192  29.253  22.285  1.00  0.00     0.156 C 
ATOM     21  C   UNL A   1      27.971  29.768  23.038  1.00  0.00     0.038 C 
ATOM     22  O   UNL A   1      29.371  30.099  21.140  1.00  0.00    -0.375 OA
ATOM     23  C   UNL A   1      27.767  31.171  22.532  1.00  0.00     0.031 C 
ATOM     24  C   UNL A   1      28.438  31.179  21.181  1.00  0.00     0.161 C 
ENDBRANCH  19  20
ENDBRANCH  18  19
ENDBRANCH  16  18
ENDBRANCH   8  16
ENDBRANCH   7   8
ENDBRANCH   5   7
ENDBRANCH   2   3
ENDBRANCH   1   2
BRANCH   1  25
ATOM     25  C   UNL A   1      35.406  23.027  24.004  1.00  0.00     0.002 C 
BRANCH  25  26
ATOM     26  C   UNL A   1      36.773  22.361  23.872  1.00  0.00     0.002 C 
BRANCH  26  27
ATOM     27  C   UNL A   1      37.056  21.268  24.896  1.00  0.00     0.021 C 
BRANCH  27  28
ATOM     28  C   UNL A   1      38.405  21.361  25.601  1.00  0.00     0.116 C 
BRANCH  28  29
ATOM     29  N   UNL A   1      39.204  20.143  25.521  1.00  0.00    -0.352 N 
ATOM     30  C   UNL A   1      40.500  19.931  25.931  1.00  0.00     0.251 C 
ATOM     31  H   UNL A   1      38.754  19.366  25.118  1.00  0.00     0.163 HD
ATOM     32  O   UNL A   1      41.050  18.853  25.736  1.00  0.00    -0.269 OA
BRANCH  30  33
ATOM     33  C   UNL A   1      41.241  21.044  26.560  1.00  0.00     0.039 A 
ATOM     34  C   UNL A   1      41.928  21.942  25.743  1.00  0.00     0.014 A 
ATOM     35  C   UNL A   1      41.163  21.256  27.938  1.00  0.00     0.014 A 
ATOM     36  C   UNL A   1      42.445  23.115  26.296  1.00  0.00     0.010 A 
ATOM     37  C   UNL A   1      41.596  22.465  28.471  1.00  0.00     0.010 A 
ATOM     38  C   UNL A   1      42.227  23.414  27.653  1.00  0.00    -0.014 A 
BRANCH  38  39
ATOM     39  C   UNL A   1      42.612  24.733  28.216  1.00  0.00     0.031 A 
ATOM     40  C   UNL A   1      41.579  25.801  28.437  1.00  0.00     0.074 A 
ATOM     41  C   UNL A   1      43.913  24.998  28.456  1.00  0.00     0.049 A 
ATOM     42  N   UNL A   1      41.733  27.018  28.895  1.00  0.00    -0.248 NA
ATOM     43  C   UNL A   1      40.194  25.473  28.061  1.00  0.00     0.031 C 
ATOM     44  C   UNL A   1      45.026  24.079  28.204  1.00  0.00     0.029 A 
ATOM     45  N   UNL A   1      44.518  26.119  28.966  1.00  0.00    -0.354 N 
ATOM     46  C   UNL A   1      40.476  27.604  28.839  1.00  0.00     0.074 A 
ATOM     47  C   UNL A   1      39.581  26.631  28.251  1.00  0.00     0.031 C 
ATOM     48  C   UNL A   1      46.171  24.655  28.605  1.00  0.00     0.029 A 
ATOM     49  C   UNL A   1      45.878  25.991  29.113  1.00  0.00     0.049 A 
ATOM     50  H   UNL A   1      44.024  26.937  29.204  1.00  0.00     0.167 HD
ATOM     51  C   UNL A   1      40.093  28.833  29.262  1.00  0.00     0.037 A 
ATOM     52  C   UNL A   1      46.785  26.849  29.614  1.00  0.00     0.037 A 
ATOM     53  C   UNL A   1      40.973  29.783  29.888  1.00  0.00     0.049 A 
ATOM     54  C   UNL A   1      46.330  28.188  30.120  1.00  0.00     0.074 A 
ATOM     55  C   UNL A   1      40.663  31.014  30.442  1.00  0.00     0.029 A 
ATOM     56  N   UNL A   1      42.340  29.609  30.043  1.00  0.00    -0.354 N 
ATOM     57  N   UNL A   1      45.121  28.694  30.147  1.00  0.00    -0.248 NA
ATOM     58  C   UNL A   1      47.366  29.074  30.669  1.00  0.00     0.031 C 
ATOM     59  C   UNL A   1      41.848  31.599  30.900  1.00  0.00     0.029 A 
ATOM     60  C   UNL A   1      42.892  30.717  30.664  1.00  0.00     0.049 A 
ATOM     61  H   UNL A   1      42.845  28.814  29.754  1.00  0.00     0.167 HD
ATOM     62  C   UNL A   1      45.247  29.945  30.736  1.00  0.00     0.074 A 
ATOM     63  C   UNL A   1      46.647  30.114  31.065  1.00  0.00     0.031 C 
ATOM     64  C   UNL A   1      44.288  30.872  30.981  1.00  0.00     0.037 A 
BRANCH  51  65
ATOM     65  C   UNL A   1      38.653  29.207  29.069  1.00  0.00     0.057 A 
ATOM     66  C   UNL A   1      38.155  29.607  27.822  1.00  0.00     0.134 A 
ATOM     67  C   UNL A   1      37.753  29.160  30.139  1.00  0.00     0.134 A 
ATOM     68  F   UNL A   1      38.969  29.688  26.758  1.00  0.00    -0.206 F 
ATOM     69  C   UNL A   1      36.820  29.978  27.654  1.00  0.00     0.040 A 
ATOM     70  C   UNL A   1      36.409  29.504  29.978  1.00  0.00     0.040 A 
ATOM     71  F   UNL A   1      38.163  28.782  31.360  1.00  0.00    -0.206 F 
ATOM     72  C   UNL A   1      35.942  29.923  28.734  1.00  0.00     0.006 A 
ENDBRANCH  51  65
BRANCH  52  73
ATOM     73  C   UNL A   1      48.210  26.448  29.719  1.00  0.00     0.057 A 
ATOM     74  C   UNL A   1      48.683  25.790  30.862  1.00  0.00     0.134 A 
ATOM     75  C   UNL A   1      49.127  26.706  28.695  1.00  0.00     0.134 A 
ATOM     76  F   UNL A   1      47.853  25.532  31.883  1.00  0.00    -0.206 F 
ATOM     77  C   UNL A   1      50.022  25.418  30.989  1.00  0.00     0.040 A 
ATOM     78  C   UNL A   1      50.465  26.322  28.801  1.00  0.00     0.040 A 
ATOM     79  F   UNL A   1      48.732  27.325  27.573  1.00  0.00    -0.206 F 
ATOM     80  C   UNL A   1      50.917  25.682  29.954  1.00  0.00     0.006 A 
ENDBRANCH  52  73
BRANCH  64  81
ATOM     81  C   UNL A   1      44.726  32.139  31.652  1.00  0.00     0.057 A 
ATOM     82  C   UNL A   1      45.119  33.264  30.916  1.00  0.00     0.134 A 
ATOM     83  C   UNL A   1      44.740  32.240  33.049  1.00  0.00     0.134 A 
ATOM     84  F   UNL A   1      45.142  33.225  29.575  1.00  0.00    -0.206 F 
ATOM     85  C   UNL A   1      45.537  34.437  31.546  1.00  0.00     0.040 A 
ATOM     86  C   UNL A   1      45.133  33.416  33.689  1.00  0.00     0.040 A 
ATOM     87  F   UNL A   1      44.368  31.200  33.811  1.00  0.00    -0.206 F 
ATOM     88  C   UNL A   1      45.540  34.516  32.938  1.00  0.00     0.006 A 
ENDBRANCH  64  81
ENDBRANCH  38  39
ENDBRANCH  30  33
ENDBRANCH  28  29
ENDBRANCH  27  28
ENDBRANCH  26  27
ENDBRANCH  25  26
ENDBRANCH   1  25
TORSDOF 19
ENDMDL
