MODEL 1
REMARK VINA RESULT:     -11.9      0.000      0.000
REMARK SMILES CC1(C)[C@H](C(=O)Nc2ccc(C(F)(F)F)nc2)[C@@H]1C(=O)NCCCCCCNC(=O)c1ccc(-c2c3nc(c(-c4c(F)cccc4F)c4ccc([nH]4)c(-c4c(F)cccc4F)c4nc(c(-c5c(F)cccc5F)c5ccc2[nH]5)C=C4)C=C3)cc1
REMARK SMILES IDX 24 1 23 2 22 3 21 4 19 5 20 6 18 8 1 9 2 10 3 11 4 12 5 13
REMARK SMILES IDX 6 14 7 15 8 17 9 18 17 19 10 20 16 21 11 22 12 23 13 24
REMARK SMILES IDX 14 25 15 26 25 27 26 28 27 29 28 30 29 31 30 33 31 34 32 35
REMARK SMILES IDX 84 36 33 37 83 38 34 39 35 40 36 41 77 42 37 43 82 44 76 45
REMARK SMILES IDX 78 46 38 47 81 48 75 49 74 50 39 52 65 53 48 54 64 55 49 56
REMARK SMILES IDX 52 57 63 58 79 59 50 60 51 61 62 63 80 64 53 65 40 66 41 67
REMARK SMILES IDX 46 68 42 69 43 70 45 71 47 72 44 73 66 74 67 75 72 76 68 77
REMARK SMILES IDX 69 78 71 79 73 80 70 81 54 82 55 83 60 84 56 85 57 86 59 87
REMARK SMILES IDX 61 88 58 89
REMARK H PARENT 21 7 7 16 28 32 78 51 52 62
REMARK Flexibility Score: inf
ROOT
ATOM      1  C   UNL A   1      36.639  22.099  24.561  1.00  0.00     0.002 C 
ENDROOT
BRANCH   1   2
ATOM      2  C   UNL A   1      36.490  23.143  25.673  1.00  0.00     0.021 C 
BRANCH   2   3
ATOM      3  C   UNL A   1      35.132  23.176  26.365  1.00  0.00     0.116 C 
BRANCH   3   4
ATOM      4  N   UNL A   1      34.018  23.039  25.450  1.00  0.00    -0.356 N 
ATOM      5  C   UNL A   1      33.474  24.006  24.645  1.00  0.00     0.224 C 
ATOM      6  O   UNL A   1      32.529  23.742  23.909  1.00  0.00    -0.275 OA
ATOM      7  H   UNL A   1      33.602  22.148  25.401  1.00  0.00     0.163 HD
BRANCH   5   8
ATOM      8  C   UNL A   1      33.976  25.386  24.792  1.00  0.00     0.098 C 
ATOM      9  C   UNL A   1      33.876  27.619  26.140  1.00  0.00     0.013 C 
ATOM     10  C   UNL A   1      33.161  26.596  25.271  1.00  0.00    -0.011 C 
ATOM     11  C   UNL A   1      31.726  26.462  25.676  1.00  0.00     0.013 C 
ATOM     12  C   UNL A   1      33.670  26.514  23.841  1.00  0.00     0.098 C 
BRANCH  12  13
ATOM     13  C   UNL A   1      32.996  26.482  22.500  1.00  0.00     0.228 C 
ATOM     14  O   UNL A   1      33.632  25.929  21.599  1.00  0.00    -0.274 OA
ATOM     15  N   UNL A   1      31.663  26.694  22.243  1.00  0.00    -0.324 N 
ATOM     16  H   UNL A   1      31.252  26.016  21.658  1.00  0.00     0.169 HD
BRANCH  15  17
ATOM     17  C   UNL A   1      30.790  27.695  22.659  1.00  0.00     0.059 A 
ATOM     18  C   UNL A   1      29.486  27.433  23.025  1.00  0.00     0.030 A 
ATOM     19  C   UNL A   1      31.234  29.001  22.790  1.00  0.00     0.137 A 
ATOM     20  C   UNL A   1      28.610  28.497  23.233  1.00  0.00     0.035 A 
ATOM     21  N   UNL A   1      30.419  30.061  22.984  1.00  0.00    -0.250 NA
ATOM     22  C   UNL A   1      29.085  29.803  23.104  1.00  0.00     0.144 A 
BRANCH  22  23
ATOM     23  C   UNL A   1      28.092  30.955  23.064  1.00  0.00     0.433 C 
ATOM     24  F   UNL A   1      28.680  32.169  23.262  1.00  0.00    -0.165 F 
ATOM     25  F   UNL A   1      27.410  31.052  21.886  1.00  0.00    -0.165 F 
ATOM     26  F   UNL A   1      27.128  30.858  24.031  1.00  0.00    -0.165 F 
ENDBRANCH  22  23
ENDBRANCH  15  17
ENDBRANCH  12  13
ENDBRANCH   5   8
ENDBRANCH   3   4
ENDBRANCH   2   3
ENDBRANCH   1   2
BRANCH   1  27
ATOM     27  C   UNL A   1      36.579  20.633  24.997  1.00  0.00     0.002 C 
BRANCH  27  28
ATOM     28  C   UNL A   1      37.866  19.827  24.839  1.00  0.00     0.021 C 
BRANCH  28  29
ATOM     29  C   UNL A   1      39.011  20.267  25.739  1.00  0.00     0.116 C 
BRANCH  29  30
ATOM     30  N   UNL A   1      40.096  19.301  25.780  1.00  0.00    -0.352 N 
ATOM     31  C   UNL A   1      41.419  19.492  26.093  1.00  0.00     0.251 C 
ATOM     32  H   UNL A   1      39.847  18.378  25.548  1.00  0.00     0.163 HD
ATOM     33  O   UNL A   1      42.231  18.588  25.927  1.00  0.00    -0.269 OA
BRANCH  31  34
ATOM     34  C   UNL A   1      41.869  20.804  26.602  1.00  0.00     0.039 A 
ATOM     35  C   UNL A   1      42.294  21.772  25.689  1.00  0.00     0.014 A 
ATOM     36  C   UNL A   1      41.859  21.085  27.971  1.00  0.00     0.014 A 
ATOM     37  C   UNL A   1      42.643  23.045  26.145  1.00  0.00     0.010 A 
ATOM     38  C   UNL A   1      42.124  22.377  28.414  1.00  0.00     0.010 A 
ATOM     39  C   UNL A   1      42.521  23.370  27.506  1.00  0.00    -0.014 A 
BRANCH  39  40
ATOM     40  C   UNL A   1      42.800  24.743  27.998  1.00  0.00     0.031 A 
ATOM     41  C   UNL A   1      44.197  25.135  28.390  1.00  0.00     0.074 A 
ATOM     42  C   UNL A   1      41.784  25.614  28.154  1.00  0.00     0.049 A 
ATOM     43  N   UNL A   1      44.627  26.260  28.904  1.00  0.00    -0.248 NA
ATOM     44  C   UNL A   1      45.247  24.121  28.205  1.00  0.00     0.031 C 
ATOM     45  C   UNL A   1      40.379  25.338  27.852  1.00  0.00     0.029 A 
ATOM     46  N   UNL A   1      41.777  26.906  28.615  1.00  0.00    -0.354 N 
ATOM     47  C   UNL A   1      45.988  26.085  29.111  1.00  0.00     0.074 A 
ATOM     48  C   UNL A   1      46.304  24.726  28.725  1.00  0.00     0.031 C 
ATOM     49  C   UNL A   1      39.650  26.435  28.110  1.00  0.00     0.029 A 
ATOM     50  C   UNL A   1      40.527  27.476  28.638  1.00  0.00     0.049 A 
ATOM     51  H   UNL A   1      42.591  27.381  28.902  1.00  0.00     0.167 HD
ATOM     52  C   UNL A   1      46.901  26.981  29.559  1.00  0.00     0.037 A 
ATOM     53  C   UNL A   1      40.130  28.695  29.049  1.00  0.00     0.037 A 
ATOM     54  C   UNL A   1      46.584  28.336  29.929  1.00  0.00     0.049 A 
ATOM     55  C   UNL A   1      41.156  29.663  29.571  1.00  0.00     0.074 A 
ATOM     56  C   UNL A   1      47.443  29.338  30.344  1.00  0.00     0.029 A 
ATOM     57  N   UNL A   1      45.307  28.877  29.936  1.00  0.00    -0.354 N 
ATOM     58  N   UNL A   1      42.452  29.507  29.696  1.00  0.00    -0.248 NA
ATOM     59  C   UNL A   1      40.665  30.978  30.003  1.00  0.00     0.031 C 
ATOM     60  C   UNL A   1      46.679  30.467  30.657  1.00  0.00     0.029 A 
ATOM     61  C   UNL A   1      45.351  30.189  30.376  1.00  0.00     0.049 A 
ATOM     62  H   UNL A   1      44.489  28.398  29.667  1.00  0.00     0.167 HD
ATOM     63  C   UNL A   1      42.934  30.712  30.192  1.00  0.00     0.074 A 
ATOM     64  C   UNL A   1      41.793  31.592  30.330  1.00  0.00     0.031 C 
ATOM     65  C   UNL A   1      44.208  31.058  30.504  1.00  0.00     0.037 A 
BRANCH  52  66
ATOM     66  C   UNL A   1      48.325  26.521  29.676  1.00  0.00     0.057 A 
ATOM     67  C   UNL A   1      49.253  26.710  28.641  1.00  0.00     0.134 A 
ATOM     68  C   UNL A   1      48.785  25.908  30.848  1.00  0.00     0.134 A 
ATOM     69  F   UNL A   1      48.877  27.281  27.487  1.00  0.00    -0.206 F 
ATOM     70  C   UNL A   1      50.575  26.278  28.757  1.00  0.00     0.040 A 
ATOM     71  C   UNL A   1      50.114  25.501  30.988  1.00  0.00     0.040 A 
ATOM     72  F   UNL A   1      47.955  25.702  31.881  1.00  0.00    -0.206 F 
ATOM     73  C   UNL A   1      51.011  25.678  29.936  1.00  0.00     0.006 A 
ENDBRANCH  52  66
BRANCH  53  74
ATOM     74  C   UNL A   1      38.696  29.078  28.970  1.00  0.00     0.057 A 
ATOM     75  C   UNL A   1      38.143  29.563  27.779  1.00  0.00     0.134 A 
ATOM     76  C   UNL A   1      37.849  28.976  30.080  1.00  0.00     0.134 A 
ATOM     77  F   UNL A   1      38.907  29.700  26.687  1.00  0.00    -0.206 F 
ATOM     78  C   UNL A   1      36.805  29.956  27.701  1.00  0.00     0.040 A 
ATOM     79  C   UNL A   1      36.503  29.339  30.008  1.00  0.00     0.040 A 
ATOM     80  F   UNL A   1      38.315  28.511  31.248  1.00  0.00    -0.206 F 
ATOM     81  C   UNL A   1      35.979  29.839  28.818  1.00  0.00     0.006 A 
ENDBRANCH  53  74
BRANCH  65  82
ATOM     82  C   UNL A   1      44.442  32.460  30.987  1.00  0.00     0.057 A 
ATOM     83  C   UNL A   1      44.663  33.523  30.104  1.00  0.00     0.134 A 
ATOM     84  C   UNL A   1      44.403  32.755  32.357  1.00  0.00     0.134 A 
ATOM     85  F   UNL A   1      44.726  33.307  28.781  1.00  0.00    -0.206 F 
ATOM     86  C   UNL A   1      44.861  34.826  30.566  1.00  0.00     0.040 A 
ATOM     87  C   UNL A   1      44.567  34.058  32.829  1.00  0.00     0.040 A 
ATOM     88  F   UNL A   1      44.185  31.785  33.257  1.00  0.00    -0.206 F 
ATOM     89  C   UNL A   1      44.803  35.097  31.932  1.00  0.00     0.006 A 
ENDBRANCH  65  82
ENDBRANCH  39  40
ENDBRANCH  31  34
ENDBRANCH  29  30
ENDBRANCH  28  29
ENDBRANCH  27  28
ENDBRANCH   1  27
TORSDOF 16
ENDMDL
MODEL 2
REMARK VINA RESULT:     -11.9      2.795      6.892
REMARK SMILES CC1(C)[C@H](C(=O)Nc2ccc(C(F)(F)F)nc2)[C@@H]1C(=O)NCCCCCCNC(=O)c1ccc(-c2c3nc(c(-c4c(F)cccc4F)c4ccc([nH]4)c(-c4c(F)cccc4F)c4nc(c(-c5c(F)cccc5F)c5ccc2[nH]5)C=C4)C=C3)cc1
REMARK SMILES IDX 24 1 23 2 22 3 21 4 19 5 20 6 18 8 1 9 2 10 3 11 4 12 5 13
REMARK SMILES IDX 6 14 7 15 8 17 9 18 17 19 10 20 16 21 11 22 12 23 13 24
REMARK SMILES IDX 14 25 15 26 25 27 26 28 27 29 28 30 29 31 30 33 31 34 32 35
REMARK SMILES IDX 84 36 33 37 83 38 34 39 35 40 36 41 77 42 37 43 82 44 76 45
REMARK SMILES IDX 78 46 38 47 81 48 75 49 74 50 39 52 65 53 48 54 64 55 49 56
REMARK SMILES IDX 52 57 63 58 79 59 50 60 51 61 62 63 80 64 53 65 40 66 41 67
REMARK SMILES IDX 46 68 42 69 43 70 45 71 47 72 44 73 66 74 67 75 72 76 68 77
REMARK SMILES IDX 69 78 71 79 73 80 70 81 54 82 55 83 60 84 56 85 57 86 59 87
REMARK SMILES IDX 61 88 58 89
REMARK H PARENT 21 7 7 16 28 32 78 51 52 62
REMARK Flexibility Score: inf
ROOT
ATOM      1  C   UNL A   1      36.597  22.185  25.509  1.00  0.00     0.002 C 
ENDROOT
BRANCH   1   2
ATOM      2  C   UNL A   1      35.445  22.768  26.333  1.00  0.00     0.021 C 
BRANCH   2   3
ATOM      3  C   UNL A   1      34.749  23.979  25.725  1.00  0.00     0.116 C 
BRANCH   3   4
ATOM      4  N   UNL A   1      33.386  24.150  26.185  1.00  0.00    -0.356 N 
ATOM      5  C   UNL A   1      32.682  25.321  26.297  1.00  0.00     0.224 C 
ATOM      6  O   UNL A   1      31.523  25.314  26.696  1.00  0.00    -0.275 OA
ATOM      7  H   UNL A   1      32.909  23.329  26.447  1.00  0.00     0.163 HD
BRANCH   5   8
ATOM      8  C   UNL A   1      33.404  26.584  26.047  1.00  0.00     0.098 C 
ATOM      9  C   UNL A   1      34.164  28.895  26.994  1.00  0.00     0.013 C 
ATOM     10  C   UNL A   1      33.027  27.964  26.602  1.00  0.00    -0.011 C 
ATOM     11  C   UNL A   1      31.853  28.146  27.514  1.00  0.00     0.013 C 
ATOM     12  C   UNL A   1      32.932  27.669  25.115  1.00  0.00     0.098 C 
BRANCH  12  13
ATOM     13  C   UNL A   1      31.801  27.662  24.128  1.00  0.00     0.228 C 
ATOM     14  O   UNL A   1      31.136  28.701  24.074  1.00  0.00    -0.274 OA
ATOM     15  N   UNL A   1      31.627  26.790  23.080  1.00  0.00    -0.324 N 
ATOM     16  H   UNL A   1      31.416  27.227  22.222  1.00  0.00     0.169 HD
BRANCH  15  17
ATOM     17  C   UNL A   1      31.696  25.402  23.013  1.00  0.00     0.059 A 
ATOM     18  C   UNL A   1      30.649  24.590  23.396  1.00  0.00     0.030 A 
ATOM     19  C   UNL A   1      32.816  24.782  22.480  1.00  0.00     0.137 A 
ATOM     20  C   UNL A   1      30.855  23.215  23.497  1.00  0.00     0.035 A 
ATOM     21  N   UNL A   1      33.057  23.456  22.564  1.00  0.00    -0.250 NA
ATOM     22  C   UNL A   1      32.105  22.690  23.170  1.00  0.00     0.144 A 
BRANCH  22  23
ATOM     23  C   UNL A   1      32.422  21.245  23.528  1.00  0.00     0.433 C 
ATOM     24  F   UNL A   1      33.744  21.042  23.792  1.00  0.00    -0.165 F 
ATOM     25  F   UNL A   1      31.743  20.789  24.620  1.00  0.00    -0.165 F 
ATOM     26  F   UNL A   1      32.115  20.371  22.522  1.00  0.00    -0.165 F 
ENDBRANCH  22  23
ENDBRANCH  15  17
ENDBRANCH  12  13
ENDBRANCH   5   8
ENDBRANCH   3   4
ENDBRANCH   2   3
ENDBRANCH   1   2
BRANCH   1  27
ATOM     27  C   UNL A   1      36.494  20.698  25.158  1.00  0.00     0.002 C 
BRANCH  27  28
ATOM     28  C   UNL A   1      37.804  19.991  24.815  1.00  0.00     0.021 C 
BRANCH  28  29
ATOM     29  C   UNL A   1      38.967  20.317  25.740  1.00  0.00     0.116 C 
BRANCH  29  30
ATOM     30  N   UNL A   1      39.929  19.232  25.835  1.00  0.00    -0.352 N 
ATOM     31  C   UNL A   1      41.277  19.285  26.089  1.00  0.00     0.251 C 
ATOM     32  H   UNL A   1      39.561  18.330  25.696  1.00  0.00     0.163 HD
ATOM     33  O   UNL A   1      41.967  18.276  25.981  1.00  0.00    -0.269 OA
BRANCH  31  34
ATOM     34  C   UNL A   1      41.902  20.570  26.464  1.00  0.00     0.039 A 
ATOM     35  C   UNL A   1      42.310  21.442  25.452  1.00  0.00     0.014 A 
ATOM     36  C   UNL A   1      42.072  20.921  27.806  1.00  0.00     0.014 A 
ATOM     37  C   UNL A   1      42.825  22.696  25.786  1.00  0.00     0.010 A 
ATOM     38  C   UNL A   1      42.504  22.202  28.135  1.00  0.00     0.010 A 
ATOM     39  C   UNL A   1      42.888  23.101  27.130  1.00  0.00    -0.014 A 
BRANCH  39  40
ATOM     40  C   UNL A   1      43.348  24.463  27.501  1.00  0.00     0.031 A 
ATOM     41  C   UNL A   1      42.354  25.505  27.936  1.00  0.00     0.074 A 
ATOM     42  C   UNL A   1      44.652  24.781  27.383  1.00  0.00     0.049 A 
ATOM     43  N   UNL A   1      42.552  26.764  28.233  1.00  0.00    -0.248 NA
ATOM     44  C   UNL A   1      40.947  25.082  28.023  1.00  0.00     0.031 C 
ATOM     45  C   UNL A   1      45.707  23.874  26.930  1.00  0.00     0.029 A 
ATOM     46  N   UNL A   1      45.311  25.960  27.626  1.00  0.00    -0.354 N 
ATOM     47  C   UNL A   1      41.300  27.283  28.532  1.00  0.00     0.074 A 
ATOM     48  C   UNL A   1      40.340  26.220  28.321  1.00  0.00     0.031 C 
ATOM     49  C   UNL A   1      46.883  24.519  26.952  1.00  0.00     0.029 A 
ATOM     50  C   UNL A   1      46.661  25.898  27.378  1.00  0.00     0.049 A 
ATOM     51  H   UNL A   1      44.859  26.774  27.949  1.00  0.00     0.167 HD
ATOM     52  C   UNL A   1      40.978  28.525  28.966  1.00  0.00     0.037 A 
ATOM     53  C   UNL A   1      47.610  26.847  27.470  1.00  0.00     0.037 A 
ATOM     54  C   UNL A   1      41.939  29.575  29.188  1.00  0.00     0.049 A 
ATOM     55  C   UNL A   1      47.224  28.228  27.926  1.00  0.00     0.074 A 
ATOM     56  C   UNL A   1      41.722  30.851  29.676  1.00  0.00     0.029 A 
ATOM     57  N   UNL A   1      43.297  29.473  28.926  1.00  0.00    -0.354 N 
ATOM     58  N   UNL A   1      46.045  28.686  28.271  1.00  0.00    -0.248 NA
ATOM     59  C   UNL A   1      48.303  29.223  28.009  1.00  0.00     0.031 C 
ATOM     60  C   UNL A   1      42.939  31.540  29.657  1.00  0.00     0.029 A 
ATOM     61  C   UNL A   1      43.926  30.673  29.216  1.00  0.00     0.049 A 
ATOM     62  H   UNL A   1      43.747  28.667  28.586  1.00  0.00     0.167 HD
ATOM     63  C   UNL A   1      46.245  30.010  28.641  1.00  0.00     0.074 A 
ATOM     64  C   UNL A   1      47.661  30.276  28.492  1.00  0.00     0.031 C 
ATOM     65  C   UNL A   1      45.337  30.923  29.068  1.00  0.00     0.037 A 
BRANCH  52  66
ATOM     66  C   UNL A   1      39.528  28.815  29.227  1.00  0.00     0.057 A 
ATOM     67  C   UNL A   1      38.950  28.632  30.492  1.00  0.00     0.134 A 
ATOM     68  C   UNL A   1      38.703  29.311  28.209  1.00  0.00     0.134 A 
ATOM     69  F   UNL A   1      39.680  28.151  31.509  1.00  0.00    -0.206 F 
ATOM     70  C   UNL A   1      37.601  28.902  30.726  1.00  0.00     0.040 A 
ATOM     71  C   UNL A   1      37.360  29.616  28.439  1.00  0.00     0.040 A 
ATOM     72  F   UNL A   1      39.190  29.517  26.977  1.00  0.00    -0.206 F 
ATOM     73  C   UNL A   1      36.803  29.402  29.699  1.00  0.00     0.006 A 
ENDBRANCH  52  66
BRANCH  53  74
ATOM     74  C   UNL A   1      49.022  26.524  27.139  1.00  0.00     0.057 A 
ATOM     75  C   UNL A   1      49.536  26.760  25.858  1.00  0.00     0.134 A 
ATOM     76  C   UNL A   1      49.888  25.968  28.088  1.00  0.00     0.134 A 
ATOM     77  F   UNL A   1      48.752  27.275  24.901  1.00  0.00    -0.206 F 
ATOM     78  C   UNL A   1      50.852  26.432  25.527  1.00  0.00     0.040 A 
ATOM     79  C   UNL A   1      51.214  25.661  27.778  1.00  0.00     0.040 A 
ATOM     80  F   UNL A   1      49.461  25.725  29.336  1.00  0.00    -0.206 F 
ATOM     81  C   UNL A   1      51.697  25.885  26.490  1.00  0.00     0.006 A 
ENDBRANCH  53  74
BRANCH  65  82
ATOM     82  C   UNL A   1      45.851  32.283  29.442  1.00  0.00     0.057 A 
ATOM     83  C   UNL A   1      46.314  32.574  30.731  1.00  0.00     0.134 A 
ATOM     84  C   UNL A   1      45.924  33.303  28.484  1.00  0.00     0.134 A 
ATOM     85  F   UNL A   1      46.261  31.646  31.699  1.00  0.00    -0.206 F 
ATOM     86  C   UNL A   1      46.808  33.838  31.061  1.00  0.00     0.040 A 
ATOM     87  C   UNL A   1      46.444  34.561  28.793  1.00  0.00     0.040 A 
ATOM     88  F   UNL A   1      45.507  33.090  27.227  1.00  0.00    -0.206 F 
ATOM     89  C   UNL A   1      46.883  34.833  30.087  1.00  0.00     0.006 A 
ENDBRANCH  65  82
ENDBRANCH  39  40
ENDBRANCH  31  34
ENDBRANCH  29  30
ENDBRANCH  28  29
ENDBRANCH  27  28
ENDBRANCH   1  27
TORSDOF 16
ENDMDL
MODEL 3
REMARK VINA RESULT:     -11.9      4.094      8.918
REMARK SMILES CC1(C)[C@H](C(=O)Nc2ccc(C(F)(F)F)nc2)[C@@H]1C(=O)NCCCCCCNC(=O)c1ccc(-c2c3nc(c(-c4c(F)cccc4F)c4ccc([nH]4)c(-c4c(F)cccc4F)c4nc(c(-c5c(F)cccc5F)c5ccc2[nH]5)C=C4)C=C3)cc1
REMARK SMILES IDX 24 1 23 2 22 3 21 4 19 5 20 6 18 8 1 9 2 10 3 11 4 12 5 13
REMARK SMILES IDX 6 14 7 15 8 17 9 18 17 19 10 20 16 21 11 22 12 23 13 24
REMARK SMILES IDX 14 25 15 26 25 27 26 28 27 29 28 30 29 31 30 33 31 34 32 35
REMARK SMILES IDX 84 36 33 37 83 38 34 39 35 40 36 41 77 42 37 43 82 44 76 45
REMARK SMILES IDX 78 46 38 47 81 48 75 49 74 50 39 52 65 53 48 54 64 55 49 56
REMARK SMILES IDX 52 57 63 58 79 59 50 60 51 61 62 63 80 64 53 65 40 66 41 67
REMARK SMILES IDX 46 68 42 69 43 70 45 71 47 72 44 73 66 74 67 75 72 76 68 77
REMARK SMILES IDX 69 78 71 79 73 80 70 81 54 82 55 83 60 84 56 85 57 86 59 87
REMARK SMILES IDX 61 88 58 89
REMARK H PARENT 21 7 7 16 28 32 78 51 52 62
REMARK Flexibility Score: inf
ROOT
ATOM      1  C   UNL A   1      32.611  29.520  26.373  1.00  0.00     0.002 C 
ENDROOT
BRANCH   1   2
ATOM      2  C   UNL A   1      33.488  28.776  25.361  1.00  0.00     0.021 C 
BRANCH   2   3
ATOM      3  C   UNL A   1      33.568  27.265  25.546  1.00  0.00     0.116 C 
BRANCH   3   4
ATOM      4  N   UNL A   1      33.630  26.535  24.296  1.00  0.00    -0.356 N 
ATOM      5  C   UNL A   1      34.196  25.307  24.073  1.00  0.00     0.224 C 
ATOM      6  O   UNL A   1      34.167  24.803  22.956  1.00  0.00    -0.275 OA
ATOM      7  H   UNL A   1      33.218  26.972  23.516  1.00  0.00     0.163 HD
BRANCH   5   8
ATOM      8  C   UNL A   1      34.945  24.684  25.181  1.00  0.00     0.098 C 
ATOM      9  C   UNL A   1      37.239  23.775  26.035  1.00  0.00     0.013 C 
ATOM     10  C   UNL A   1      36.094  23.675  25.039  1.00  0.00    -0.011 C 
ATOM     11  C   UNL A   1      36.593  23.242  23.695  1.00  0.00     0.013 C 
ATOM     12  C   UNL A   1      34.763  23.261  25.644  1.00  0.00     0.098 C 
BRANCH  12  13
ATOM     13  C   UNL A   1      33.717  22.255  25.262  1.00  0.00     0.228 C 
ATOM     14  O   UNL A   1      34.113  21.091  25.152  1.00  0.00    -0.274 OA
ATOM     15  N   UNL A   1      32.354  22.412  25.342  1.00  0.00    -0.324 N 
ATOM     16  H   UNL A   1      31.885  21.661  25.773  1.00  0.00     0.169 HD
BRANCH  15  17
ATOM     17  C   UNL A   1      31.518  23.442  24.922  1.00  0.00     0.059 A 
ATOM     18  C   UNL A   1      31.022  23.515  23.637  1.00  0.00     0.030 A 
ATOM     19  C   UNL A   1      31.090  24.407  25.821  1.00  0.00     0.137 A 
ATOM     20  C   UNL A   1      30.361  24.673  23.226  1.00  0.00     0.035 A 
ATOM     21  N   UNL A   1      30.455  25.545  25.464  1.00  0.00    -0.250 NA
ATOM     22  C   UNL A   1      30.184  25.713  24.138  1.00  0.00     0.144 A 
BRANCH  22  23
ATOM     23  C   UNL A   1      29.711  27.070  23.636  1.00  0.00     0.433 C 
ATOM     24  F   UNL A   1      30.110  27.331  22.359  1.00  0.00    -0.165 F 
ATOM     25  F   UNL A   1      28.354  27.215  23.647  1.00  0.00    -0.165 F 
ATOM     26  F   UNL A   1      30.191  28.109  24.386  1.00  0.00    -0.165 F 
ENDBRANCH  22  23
ENDBRANCH  15  17
ENDBRANCH  12  13
ENDBRANCH   5   8
ENDBRANCH   3   4
ENDBRANCH   2   3
ENDBRANCH   1   2
BRANCH   1  27
ATOM     27  C   UNL A   1      31.577  30.487  25.791  1.00  0.00     0.002 C 
BRANCH  27  28
ATOM     28  C   UNL A   1      31.390  31.807  26.537  1.00  0.00     0.021 C 
BRANCH  28  29
ATOM     29  C   UNL A   1      32.676  32.441  27.046  1.00  0.00     0.116 C 
BRANCH  29  30
ATOM     30  N   UNL A   1      32.489  33.815  27.481  1.00  0.00    -0.352 N 
ATOM     31  C   UNL A   1      33.141  34.510  28.469  1.00  0.00     0.251 C 
ATOM     32  H   UNL A   1      31.795  34.319  26.998  1.00  0.00     0.163 HD
ATOM     33  O   UNL A   1      32.748  35.623  28.805  1.00  0.00    -0.269 OA
BRANCH  31  34
ATOM     34  C   UNL A   1      34.302  33.900  29.150  1.00  0.00     0.039 A 
ATOM     35  C   UNL A   1      34.075  32.980  30.176  1.00  0.00     0.014 A 
ATOM     36  C   UNL A   1      35.608  34.222  28.770  1.00  0.00     0.014 A 
ATOM     37  C   UNL A   1      35.157  32.331  30.774  1.00  0.00     0.010 A 
ATOM     38  C   UNL A   1      36.678  33.513  29.306  1.00  0.00     0.010 A 
ATOM     39  C   UNL A   1      36.464  32.562  30.315  1.00  0.00    -0.014 A 
BRANCH  39  40
ATOM     40  C   UNL A   1      37.619  31.816  30.875  1.00  0.00     0.031 A 
ATOM     41  C   UNL A   1      38.138  32.146  32.247  1.00  0.00     0.074 A 
ATOM     42  C   UNL A   1      38.242  30.889  30.122  1.00  0.00     0.049 A 
ATOM     43  N   UNL A   1      39.174  31.656  32.879  1.00  0.00    -0.248 NA
ATOM     44  C   UNL A   1      37.413  33.182  32.999  1.00  0.00     0.031 C 
ATOM     45  C   UNL A   1      37.863  30.511  28.760  1.00  0.00     0.029 A 
ATOM     46  N   UNL A   1      39.332  30.101  30.393  1.00  0.00    -0.354 N 
ATOM     47  C   UNL A   1      39.229  32.328  34.093  1.00  0.00     0.074 A 
ATOM     48  C   UNL A   1      38.161  33.304  34.085  1.00  0.00     0.031 C 
ATOM     49  C   UNL A   1      38.689  29.547  28.324  1.00  0.00     0.029 A 
ATOM     50  C   UNL A   1      39.683  29.270  29.356  1.00  0.00     0.049 A 
ATOM     51  H   UNL A   1      39.818  30.129  31.250  1.00  0.00     0.167 HD
ATOM     52  C   UNL A   1      40.077  32.136  35.132  1.00  0.00     0.037 A 
ATOM     53  C   UNL A   1      40.698  28.394  29.245  1.00  0.00     0.037 A 
ATOM     54  C   UNL A   1      41.131  31.153  35.140  1.00  0.00     0.049 A 
ATOM     55  C   UNL A   1      41.646  28.218  30.400  1.00  0.00     0.074 A 
ATOM     56  C   UNL A   1      42.010  30.843  36.162  1.00  0.00     0.029 A 
ATOM     57  N   UNL A   1      41.453  30.329  34.072  1.00  0.00    -0.354 N 
ATOM     58  N   UNL A   1      41.644  28.812  31.569  1.00  0.00    -0.248 NA
ATOM     59  C   UNL A   1      42.733  27.246  30.223  1.00  0.00     0.031 C 
ATOM     60  C   UNL A   1      42.900  29.872  35.694  1.00  0.00     0.029 A 
ATOM     61  C   UNL A   1      42.536  29.531  34.401  1.00  0.00     0.049 A 
ATOM     62  H   UNL A   1      40.981  30.313  33.208  1.00  0.00     0.167 HD
ATOM     63  C   UNL A   1      42.708  28.265  32.276  1.00  0.00     0.074 A 
ATOM     64  C   UNL A   1      43.322  27.281  31.409  1.00  0.00     0.031 C 
ATOM     65  C   UNL A   1      43.135  28.551  33.530  1.00  0.00     0.037 A 
BRANCH  52  66
ATOM     66  C   UNL A   1      39.901  33.007  36.342  1.00  0.00     0.057 A 
ATOM     67  C   UNL A   1      40.620  34.199  36.509  1.00  0.00     0.134 A 
ATOM     68  C   UNL A   1      38.979  32.667  37.340  1.00  0.00     0.134 A 
ATOM     69  F   UNL A   1      41.527  34.579  35.597  1.00  0.00    -0.206 F 
ATOM     70  C   UNL A   1      40.452  35.002  37.638  1.00  0.00     0.040 A 
ATOM     71  C   UNL A   1      38.778  33.479  38.458  1.00  0.00     0.040 A 
ATOM     72  F   UNL A   1      38.251  31.544  37.242  1.00  0.00    -0.206 F 
ATOM     73  C   UNL A   1      39.523  34.647  38.613  1.00  0.00     0.006 A 
ENDBRANCH  52  66
BRANCH  53  74
ATOM     74  C   UNL A   1      40.866  27.601  27.999  1.00  0.00     0.057 A 
ATOM     75  C   UNL A   1      40.269  26.342  27.859  1.00  0.00     0.134 A 
ATOM     76  C   UNL A   1      41.629  28.075  26.926  1.00  0.00     0.134 A 
ATOM     77  F   UNL A   1      39.540  25.825  28.858  1.00  0.00    -0.206 F 
ATOM     78  C   UNL A   1      40.444  25.574  26.706  1.00  0.00     0.040 A 
ATOM     79  C   UNL A   1      41.789  27.330  25.757  1.00  0.00     0.040 A 
ATOM     80  F   UNL A   1      42.221  29.276  26.993  1.00  0.00    -0.206 F 
ATOM     81  C   UNL A   1      41.203  26.071  25.648  1.00  0.00     0.006 A 
ENDBRANCH  53  74
BRANCH  65  82
ATOM     82  C   UNL A   1      44.300  27.764  34.057  1.00  0.00     0.057 A 
ATOM     83  C   UNL A   1      45.616  28.236  33.974  1.00  0.00     0.134 A 
ATOM     84  C   UNL A   1      44.094  26.533  34.697  1.00  0.00     0.134 A 
ATOM     85  F   UNL A   1      45.883  29.400  33.363  1.00  0.00    -0.206 F 
ATOM     86  C   UNL A   1      46.688  27.502  34.486  1.00  0.00     0.040 A 
ATOM     87  C   UNL A   1      45.154  25.806  35.240  1.00  0.00     0.040 A 
ATOM     88  F   UNL A   1      42.859  26.027  34.821  1.00  0.00    -0.206 F 
ATOM     89  C   UNL A   1      46.457  26.287  35.130  1.00  0.00     0.006 A 
ENDBRANCH  65  82
ENDBRANCH  39  40
ENDBRANCH  31  34
ENDBRANCH  29  30
ENDBRANCH  28  29
ENDBRANCH  27  28
ENDBRANCH   1  27
TORSDOF 16
ENDMDL
