MODEL 1
REMARK VINA RESULT:     -12.2      0.000      0.000
REMARK SMILES Cc1cc(C(=O)NCCCCCCNC(=O)c2ccc(-c3c4nc(c(-c5c(F)cccc5F)c5ccc([nH]5)c(-c5c(F)cccc5F)c5nc(c(-c6c(F)cccc6F)c6ccc3[nH]6)C=C5)C=C4)cc2)ccc1NC(=O)c1ccc(=O)n(CCOc2ccccc2)n1
REMARK SMILES IDX 8 1 7 2 5 3 6 4 4 6 1 7 2 8 3 9 73 10 72 11 71 12 74 13
REMARK SMILES IDX 75 14 76 16 77 17 78 18 92 19 79 20 82 21 80 22 81 23 83 24
REMARK SMILES IDX 84 25 85 26 86 27 87 28 91 29 88 30 90 31 89 32 9 33 10 34
REMARK SMILES IDX 11 35 12 36 13 37 14 38 15 39 16 41 17 42 18 43 70 44 19 45
REMARK SMILES IDX 69 46 20 47 21 48 22 49 63 50 23 51 68 52 62 53 64 54 24 55
REMARK SMILES IDX 67 56 61 57 60 58 25 60 51 61 34 62 50 63 35 64 38 65 49 66
REMARK SMILES IDX 65 67 36 68 37 69 48 71 66 72 39 73 26 74 27 75 32 76 28 77
REMARK SMILES IDX 29 78 31 79 33 80 30 81 52 82 53 83 58 84 54 85 55 86 57 87
REMARK SMILES IDX 59 88 56 89 40 90 41 91 46 92 42 93 43 94 45 95 47 96 44 97
REMARK H PARENT 7 5 74 15 14 40 64 59 38 70
REMARK Flexibility Score: inf
ROOT
ATOM      1  C   UNL A   1      31.998  30.765  26.415  1.00  0.00     0.116 C 
ENDROOT
BRANCH   1   2
ATOM      2  N   UNL A   1      32.766  30.451  25.216  1.00  0.00    -0.352 N 
ATOM      3  C   UNL A   1      32.886  29.289  24.487  1.00  0.00     0.251 C 
ATOM      4  O   UNL A   1      33.439  29.329  23.389  1.00  0.00    -0.269 OA
ATOM      5  H   UNL A   1      33.294  31.205  24.867  1.00  0.00     0.163 HD
BRANCH   3   6
ATOM      6  C   UNL A   1      32.335  27.996  24.967  1.00  0.00     0.040 A 
ATOM      7  C   UNL A   1      29.621  25.562  23.886  1.00  0.00     0.046 C 
ATOM      8  C   UNL A   1      30.640  26.224  24.775  1.00  0.00    -0.027 A 
ATOM      9  C   UNL A   1      31.262  27.400  24.289  1.00  0.00     0.019 A 
ATOM     10  C   UNL A   1      31.065  25.700  26.005  1.00  0.00     0.044 A 
ATOM     11  C   UNL A   1      32.285  26.156  26.503  1.00  0.00     0.027 A 
ATOM     12  C   UNL A   1      32.916  27.295  26.007  1.00  0.00     0.016 A 
BRANCH  10  13
ATOM     13  N   UNL A   1      30.272  24.762  26.709  1.00  0.00    -0.320 N 
ATOM     14  C   UNL A   1      30.455  23.395  26.878  1.00  0.00     0.276 C 
ATOM     15  H   UNL A   1      29.471  25.133  27.143  1.00  0.00     0.170 HD
ATOM     16  O   UNL A   1      29.675  22.708  27.527  1.00  0.00    -0.267 OA
BRANCH  14  17
ATOM     17  C   UNL A   1      31.663  22.722  26.256  1.00  0.00     0.149 A 
ATOM     18  C   UNL A   1      32.727  22.348  27.211  1.00  0.00     0.042 A 
ATOM     19  N   UNL A   1      31.687  22.464  24.981  1.00  0.00    -0.164 NA
ATOM     20  C   UNL A   1      33.477  21.311  26.833  1.00  0.00     0.076 A 
ATOM     21  N   UNL A   1      32.672  21.569  24.572  1.00  0.00    -0.226 N 
ATOM     22  C   UNL A   1      33.293  20.724  25.482  1.00  0.00     0.266 A 
ATOM     23  O   UNL A   1      33.747  19.610  25.237  1.00  0.00    -0.268 OA
BRANCH  21  24
ATOM     24  C   UNL A   1      32.871  21.387  23.133  1.00  0.00     0.190 C 
BRANCH  24  25
ATOM     25  C   UNL A   1      32.888  22.730  22.375  1.00  0.00     0.253 C 
BRANCH  25  26
ATOM     26  O   UNL A   1      34.235  23.182  22.118  1.00  0.00    -0.492 OA
BRANCH  26  27
ATOM     27  C   UNL A   1      34.936  23.392  23.273  1.00  0.00     0.119 A 
ATOM     28  C   UNL A   1      34.575  24.382  24.179  1.00  0.00     0.046 A 
ATOM     29  C   UNL A   1      36.082  22.637  23.498  1.00  0.00     0.046 A 
ATOM     30  C   UNL A   1      35.305  24.531  25.364  1.00  0.00     0.004 A 
ATOM     31  C   UNL A   1      36.770  22.733  24.703  1.00  0.00     0.004 A 
ATOM     32  C   UNL A   1      36.376  23.679  25.643  1.00  0.00     0.000 A 
ENDBRANCH  26  27
ENDBRANCH  25  26
ENDBRANCH  24  25
ENDBRANCH  21  24
ENDBRANCH  14  17
ENDBRANCH  10  13
ENDBRANCH   3   6
ENDBRANCH   1   2
BRANCH   1  33
ATOM     33  C   UNL A   1      32.891  30.944  27.647  1.00  0.00     0.021 C 
BRANCH  33  34
ATOM     34  C   UNL A   1      34.400  31.029  27.365  1.00  0.00     0.002 C 
BRANCH  34  35
ATOM     35  C   UNL A   1      35.163  32.205  28.001  1.00  0.00     0.002 C 
BRANCH  35  36
ATOM     36  C   UNL A   1      34.370  33.500  28.200  1.00  0.00     0.021 C 
BRANCH  36  37
ATOM     37  C   UNL A   1      34.897  34.400  29.313  1.00  0.00     0.116 C 
BRANCH  37  38
ATOM     38  N   UNL A   1      33.952  34.617  30.404  1.00  0.00    -0.352 N 
ATOM     39  C   UNL A   1      34.057  34.291  31.750  1.00  0.00     0.251 C 
ATOM     40  H   UNL A   1      33.113  35.063  30.147  1.00  0.00     0.163 HD
ATOM     41  O   UNL A   1      33.143  34.531  32.510  1.00  0.00    -0.269 OA
BRANCH  39  42
ATOM     42  C   UNL A   1      35.349  33.775  32.278  1.00  0.00     0.039 A 
ATOM     43  C   UNL A   1      36.480  34.589  32.137  1.00  0.00     0.014 A 
ATOM     44  C   UNL A   1      35.487  32.462  32.714  1.00  0.00     0.014 A 
ATOM     45  C   UNL A   1      37.748  34.009  32.172  1.00  0.00     0.010 A 
ATOM     46  C   UNL A   1      36.730  31.866  32.658  1.00  0.00     0.010 A 
ATOM     47  C   UNL A   1      37.850  32.626  32.310  1.00  0.00    -0.014 A 
BRANCH  47  48
ATOM     48  C   UNL A   1      39.056  31.875  31.972  1.00  0.00     0.031 A 
ATOM     49  C   UNL A   1      38.987  30.663  31.136  1.00  0.00     0.074 A 
ATOM     50  C   UNL A   1      40.255  32.356  32.367  1.00  0.00     0.049 A 
ATOM     51  N   UNL A   1      39.910  29.763  31.085  1.00  0.00    -0.248 NA
ATOM     52  C   UNL A   1      37.833  30.355  30.301  1.00  0.00     0.031 C 
ATOM     53  C   UNL A   1      41.580  31.925  31.931  1.00  0.00     0.029 A 
ATOM     54  N   UNL A   1      40.508  33.209  33.451  1.00  0.00    -0.354 N 
ATOM     55  C   UNL A   1      39.598  28.894  30.066  1.00  0.00     0.074 A 
ATOM     56  C   UNL A   1      38.277  29.288  29.630  1.00  0.00     0.031 C 
ATOM     57  C   UNL A   1      42.470  32.242  32.884  1.00  0.00     0.029 A 
ATOM     58  C   UNL A   1      41.721  32.757  34.019  1.00  0.00     0.049 A 
ATOM     59  H   UNL A   1      39.955  33.966  33.754  1.00  0.00     0.167 HD
ATOM     60  C   UNL A   1      40.535  27.999  29.636  1.00  0.00     0.037 A 
ATOM     61  C   UNL A   1      41.742  32.236  35.281  1.00  0.00     0.037 A 
ATOM     62  C   UNL A   1      41.748  28.053  30.446  1.00  0.00     0.049 A 
ATOM     63  C   UNL A   1      42.181  30.789  35.361  1.00  0.00     0.074 A 
ATOM     64  C   UNL A   1      42.965  28.702  30.321  1.00  0.00     0.029 A 
ATOM     65  N   UNL A   1      41.690  27.597  31.750  1.00  0.00    -0.354 N 
ATOM     66  N   UNL A   1      42.428  30.033  34.326  1.00  0.00    -0.248 NA
ATOM     67  C   UNL A   1      42.280  30.052  36.623  1.00  0.00     0.031 C 
ATOM     68  C   UNL A   1      43.617  28.670  31.588  1.00  0.00     0.029 A 
ATOM     69  C   UNL A   1      42.796  27.994  32.473  1.00  0.00     0.049 A 
ATOM     70  H   UNL A   1      40.953  27.057  32.116  1.00  0.00     0.167 HD
ATOM     71  C   UNL A   1      42.648  28.751  34.749  1.00  0.00     0.074 A 
ATOM     72  C   UNL A   1      42.557  28.810  36.195  1.00  0.00     0.031 C 
ATOM     73  C   UNL A   1      42.845  27.710  33.894  1.00  0.00     0.037 A 
BRANCH  60  74
ATOM     74  C   UNL A   1      40.426  27.231  28.344  1.00  0.00     0.057 A 
ATOM     75  C   UNL A   1      39.662  26.050  28.270  1.00  0.00     0.134 A 
ATOM     76  C   UNL A   1      41.079  27.578  27.148  1.00  0.00     0.134 A 
ATOM     77  F   UNL A   1      38.905  25.636  29.294  1.00  0.00    -0.206 F 
ATOM     78  C   UNL A   1      39.644  25.224  27.139  1.00  0.00     0.040 A 
ATOM     79  C   UNL A   1      41.118  26.732  26.031  1.00  0.00     0.040 A 
ATOM     80  F   UNL A   1      41.663  28.773  26.992  1.00  0.00    -0.206 F 
ATOM     81  C   UNL A   1      40.409  25.541  26.028  1.00  0.00     0.006 A 
ENDBRANCH  60  74
BRANCH  61  82
ATOM     82  C   UNL A   1      40.744  32.870  36.184  1.00  0.00     0.057 A 
ATOM     83  C   UNL A   1      41.084  34.074  36.830  1.00  0.00     0.134 A 
ATOM     84  C   UNL A   1      39.390  32.531  36.141  1.00  0.00     0.134 A 
ATOM     85  F   UNL A   1      42.369  34.458  36.909  1.00  0.00    -0.206 F 
ATOM     86  C   UNL A   1      40.112  34.958  37.298  1.00  0.00     0.040 A 
ATOM     87  C   UNL A   1      38.408  33.399  36.627  1.00  0.00     0.040 A 
ATOM     88  F   UNL A   1      38.984  31.410  35.527  1.00  0.00    -0.206 F 
ATOM     89  C   UNL A   1      38.766  34.635  37.167  1.00  0.00     0.006 A 
ENDBRANCH  61  82
BRANCH  73  90
ATOM     90  C   UNL A   1      43.107  26.320  34.372  1.00  0.00     0.057 A 
ATOM     91  C   UNL A   1      42.109  25.550  34.981  1.00  0.00     0.134 A 
ATOM     92  C   UNL A   1      44.398  25.765  34.346  1.00  0.00     0.134 A 
ATOM     93  F   UNL A   1      40.852  26.009  35.079  1.00  0.00    -0.206 F 
ATOM     94  C   UNL A   1      42.376  24.290  35.523  1.00  0.00     0.040 A 
ATOM     95  C   UNL A   1      44.686  24.525  34.918  1.00  0.00     0.040 A 
ATOM     96  F   UNL A   1      45.418  26.402  33.751  1.00  0.00    -0.206 F 
ATOM     97  C   UNL A   1      43.671  23.780  35.506  1.00  0.00     0.006 A 
ENDBRANCH  73  90
ENDBRANCH  47  48
ENDBRANCH  39  42
ENDBRANCH  37  38
ENDBRANCH  36  37
ENDBRANCH  35  36
ENDBRANCH  34  35
ENDBRANCH  33  34
ENDBRANCH   1  33
TORSDOF 19
ENDMDL
MODEL 2
REMARK VINA RESULT:     -12.0      2.751      4.274
REMARK SMILES Cc1cc(C(=O)NCCCCCCNC(=O)c2ccc(-c3c4nc(c(-c5c(F)cccc5F)c5ccc([nH]5)c(-c5c(F)cccc5F)c5nc(c(-c6c(F)cccc6F)c6ccc3[nH]6)C=C5)C=C4)cc2)ccc1NC(=O)c1ccc(=O)n(CCOc2ccccc2)n1
REMARK SMILES IDX 8 1 7 2 5 3 6 4 4 6 1 7 2 8 3 9 73 10 72 11 71 12 74 13
REMARK SMILES IDX 75 14 76 16 77 17 78 18 92 19 79 20 82 21 80 22 81 23 83 24
REMARK SMILES IDX 84 25 85 26 86 27 87 28 91 29 88 30 90 31 89 32 9 33 10 34
REMARK SMILES IDX 11 35 12 36 13 37 14 38 15 39 16 41 17 42 18 43 70 44 19 45
REMARK SMILES IDX 69 46 20 47 21 48 22 49 63 50 23 51 68 52 62 53 64 54 24 55
REMARK SMILES IDX 67 56 61 57 60 58 25 60 51 61 34 62 50 63 35 64 38 65 49 66
REMARK SMILES IDX 65 67 36 68 37 69 48 71 66 72 39 73 26 74 27 75 32 76 28 77
REMARK SMILES IDX 29 78 31 79 33 80 30 81 52 82 53 83 58 84 54 85 55 86 57 87
REMARK SMILES IDX 59 88 56 89 40 90 41 91 46 92 42 93 43 94 45 95 47 96 44 97
REMARK H PARENT 7 5 74 15 14 40 64 59 38 70
REMARK Flexibility Score: inf
ROOT
ATOM      1  C   UNL A   1      30.419  30.552  24.957  1.00  0.00     0.116 C 
ENDROOT
BRANCH   1   2
ATOM      2  N   UNL A   1      30.415  30.082  23.576  1.00  0.00    -0.352 N 
ATOM      3  C   UNL A   1      30.452  28.814  23.043  1.00  0.00     0.251 C 
ATOM      4  O   UNL A   1      30.232  28.665  21.842  1.00  0.00    -0.269 OA
ATOM      5  H   UNL A   1      30.381  30.802  22.905  1.00  0.00     0.163 HD
BRANCH   3   6
ATOM      6  C   UNL A   1      30.711  27.614  23.880  1.00  0.00     0.040 A 
ATOM      7  C   UNL A   1      28.674  25.256  26.060  1.00  0.00     0.046 C 
ATOM      8  C   UNL A   1      29.884  25.941  25.483  1.00  0.00    -0.027 A 
ATOM      9  C   UNL A   1      29.660  27.020  24.592  1.00  0.00     0.019 A 
ATOM     10  C   UNL A   1      31.204  25.520  25.707  1.00  0.00     0.044 A 
ATOM     11  C   UNL A   1      32.171  25.948  24.797  1.00  0.00     0.027 A 
ATOM     12  C   UNL A   1      31.943  26.988  23.899  1.00  0.00     0.016 A 
BRANCH  10  13
ATOM     13  N   UNL A   1      31.530  24.712  26.822  1.00  0.00    -0.320 N 
ATOM     14  C   UNL A   1      32.333  23.580  26.893  1.00  0.00     0.276 C 
ATOM     15  H   UNL A   1      31.127  24.992  27.674  1.00  0.00     0.170 HD
ATOM     16  O   UNL A   1      32.527  22.983  27.945  1.00  0.00    -0.267 OA
BRANCH  14  17
ATOM     17  C   UNL A   1      33.010  23.067  25.637  1.00  0.00     0.149 A 
ATOM     18  C   UNL A   1      32.191  22.146  24.822  1.00  0.00     0.042 A 
ATOM     19  N   UNL A   1      34.200  23.482  25.316  1.00  0.00    -0.164 NA
ATOM     20  C   UNL A   1      32.488  22.138  23.520  1.00  0.00     0.076 A 
ATOM     21  N   UNL A   1      34.592  23.216  24.007  1.00  0.00    -0.226 N 
ATOM     22  C   UNL A   1      33.655  22.910  23.027  1.00  0.00     0.266 A 
ATOM     23  O   UNL A   1      33.760  23.156  21.829  1.00  0.00    -0.268 OA
BRANCH  21  24
ATOM     24  C   UNL A   1      35.985  23.487  23.644  1.00  0.00     0.190 C 
BRANCH  24  25
ATOM     25  C   UNL A   1      36.850  22.211  23.674  1.00  0.00     0.253 C 
BRANCH  25  26
ATOM     26  O   UNL A   1      36.770  21.539  24.949  1.00  0.00    -0.492 OA
BRANCH  26  27
ATOM     27  C   UNL A   1      37.990  21.091  25.373  1.00  0.00     0.119 A 
ATOM     28  C   UNL A   1      38.874  21.916  26.060  1.00  0.00     0.046 A 
ATOM     29  C   UNL A   1      38.374  19.798  25.036  1.00  0.00     0.046 A 
ATOM     30  C   UNL A   1      40.096  21.397  26.503  1.00  0.00     0.004 A 
ATOM     31  C   UNL A   1      39.555  19.256  25.532  1.00  0.00     0.004 A 
ATOM     32  C   UNL A   1      40.416  20.057  26.275  1.00  0.00     0.000 A 
ENDBRANCH  26  27
ENDBRANCH  25  26
ENDBRANCH  24  25
ENDBRANCH  21  24
ENDBRANCH  14  17
ENDBRANCH  10  13
ENDBRANCH   3   6
ENDBRANCH   1   2
BRANCH   1  33
ATOM     33  C   UNL A   1      31.799  30.426  25.609  1.00  0.00     0.021 C 
BRANCH  33  34
ATOM     34  C   UNL A   1      31.856  29.558  26.877  1.00  0.00     0.002 C 
BRANCH  34  35
ATOM     35  C   UNL A   1      33.020  28.556  26.983  1.00  0.00     0.002 C 
BRANCH  35  36
ATOM     36  C   UNL A   1      34.316  29.083  27.606  1.00  0.00     0.021 C 
BRANCH  36  37
ATOM     37  C   UNL A   1      34.532  30.584  27.442  1.00  0.00     0.116 C 
BRANCH  37  38
ATOM     38  N   UNL A   1      34.976  31.260  28.657  1.00  0.00    -0.352 N 
ATOM     39  C   UNL A   1      36.039  30.966  29.501  1.00  0.00     0.251 C 
ATOM     40  H   UNL A   1      34.440  32.044  28.918  1.00  0.00     0.163 HD
ATOM     41  O   UNL A   1      36.236  31.638  30.492  1.00  0.00    -0.269 OA
BRANCH  39  42
ATOM     42  C   UNL A   1      37.014  29.913  29.108  1.00  0.00     0.039 A 
ATOM     43  C   UNL A   1      37.186  28.829  29.978  1.00  0.00     0.014 A 
ATOM     44  C   UNL A   1      37.872  30.080  28.026  1.00  0.00     0.014 A 
ATOM     45  C   UNL A   1      38.363  28.085  29.918  1.00  0.00     0.010 A 
ATOM     46  C   UNL A   1      39.078  29.409  28.021  1.00  0.00     0.010 A 
ATOM     47  C   UNL A   1      39.354  28.466  29.015  1.00  0.00    -0.014 A 
BRANCH  47  48
ATOM     48  C   UNL A   1      40.744  28.036  29.123  1.00  0.00     0.031 A 
ATOM     49  C   UNL A   1      41.198  26.772  28.513  1.00  0.00     0.074 A 
ATOM     50  C   UNL A   1      41.636  28.857  29.719  1.00  0.00     0.049 A 
ATOM     51  N   UNL A   1      42.278  26.151  28.848  1.00  0.00    -0.248 NA
ATOM     52  C   UNL A   1      40.434  26.085  27.480  1.00  0.00     0.031 C 
ATOM     53  C   UNL A   1      43.093  28.754  29.708  1.00  0.00     0.029 A 
ATOM     54  N   UNL A   1      41.366  29.850  30.670  1.00  0.00    -0.354 N 
ATOM     55  C   UNL A   1      42.479  25.133  27.946  1.00  0.00     0.074 A 
ATOM     56  C   UNL A   1      41.284  25.114  27.132  1.00  0.00     0.031 C 
ATOM     57  C   UNL A   1      43.575  29.392  30.786  1.00  0.00     0.029 A 
ATOM     58  C   UNL A   1      42.436  29.798  31.592  1.00  0.00     0.049 A 
ATOM     59  H   UNL A   1      40.591  30.458  30.693  1.00  0.00     0.167 HD
ATOM     60  C   UNL A   1      43.679  24.483  27.922  1.00  0.00     0.037 A 
ATOM     61  C   UNL A   1      42.216  29.430  32.889  1.00  0.00     0.037 A 
ATOM     62  C   UNL A   1      44.563  24.940  28.990  1.00  0.00     0.049 A 
ATOM     63  C   UNL A   1      42.934  28.168  33.320  1.00  0.00     0.074 A 
ATOM     64  C   UNL A   1      45.582  25.875  29.066  1.00  0.00     0.029 A 
ATOM     65  N   UNL A   1      44.242  24.618  30.296  1.00  0.00    -0.354 N 
ATOM     66  N   UNL A   1      43.632  27.407  32.524  1.00  0.00    -0.248 NA
ATOM     67  C   UNL A   1      42.835  27.614  34.673  1.00  0.00     0.031 C 
ATOM     68  C   UNL A   1      45.834  26.146  30.442  1.00  0.00     0.029 A 
ATOM     69  C   UNL A   1      44.973  25.367  31.195  1.00  0.00     0.049 A 
ATOM     70  H   UNL A   1      43.576  23.940  30.551  1.00  0.00     0.167 HD
ATOM     71  C   UNL A   1      44.012  26.279  33.199  1.00  0.00     0.074 A 
ATOM     72  C   UNL A   1      43.500  26.456  34.544  1.00  0.00     0.031 C 
ATOM     73  C   UNL A   1      44.679  25.249  32.609  1.00  0.00     0.037 A 
BRANCH  60  74
ATOM     74  C   UNL A   1      44.123  23.589  26.794  1.00  0.00     0.057 A 
ATOM     75  C   UNL A   1      45.005  24.063  25.803  1.00  0.00     0.134 A 
ATOM     76  C   UNL A   1      43.692  22.265  26.604  1.00  0.00     0.134 A 
ATOM     77  F   UNL A   1      45.579  25.270  25.890  1.00  0.00    -0.206 F 
ATOM     78  C   UNL A   1      45.334  23.324  24.660  1.00  0.00     0.040 A 
ATOM     79  C   UNL A   1      43.964  21.537  25.437  1.00  0.00     0.040 A 
ATOM     80  F   UNL A   1      43.031  21.601  27.561  1.00  0.00    -0.206 F 
ATOM     81  C   UNL A   1      44.779  22.072  24.451  1.00  0.00     0.006 A 
ENDBRANCH  60  74
BRANCH  61  82
ATOM     82  C   UNL A   1      40.883  29.861  33.392  1.00  0.00     0.057 A 
ATOM     83  C   UNL A   1      40.706  31.204  33.774  1.00  0.00     0.134 A 
ATOM     84  C   UNL A   1      39.730  29.104  33.168  1.00  0.00     0.134 A 
ATOM     85  F   UNL A   1      41.772  31.986  34.007  1.00  0.00    -0.206 F 
ATOM     86  C   UNL A   1      39.444  31.799  33.807  1.00  0.00     0.040 A 
ATOM     87  C   UNL A   1      38.460  29.685  33.221  1.00  0.00     0.040 A 
ATOM     88  F   UNL A   1      39.816  27.823  32.783  1.00  0.00    -0.206 F 
ATOM     89  C   UNL A   1      38.318  31.045  33.498  1.00  0.00     0.006 A 
ENDBRANCH  61  82
BRANCH  73  90
ATOM     90  C   UNL A   1      45.105  24.035  33.366  1.00  0.00     0.057 A 
ATOM     91  C   UNL A   1      44.248  22.944  33.552  1.00  0.00     0.134 A 
ATOM     92  C   UNL A   1      46.341  23.981  34.032  1.00  0.00     0.134 A 
ATOM     93  F   UNL A   1      43.035  22.919  32.979  1.00  0.00    -0.206 F 
ATOM     94  C   UNL A   1      44.606  21.850  34.346  1.00  0.00     0.040 A 
ATOM     95  C   UNL A   1      46.695  22.913  34.859  1.00  0.00     0.040 A 
ATOM     96  F   UNL A   1      47.252  24.955  33.889  1.00  0.00    -0.206 F 
ATOM     97  C   UNL A   1      45.826  21.839  35.014  1.00  0.00     0.006 A 
ENDBRANCH  73  90
ENDBRANCH  47  48
ENDBRANCH  39  42
ENDBRANCH  37  38
ENDBRANCH  36  37
ENDBRANCH  35  36
ENDBRANCH  34  35
ENDBRANCH  33  34
ENDBRANCH   1  33
TORSDOF 19
ENDMDL
MODEL 3
REMARK VINA RESULT:     -11.7      1.747      2.534
REMARK SMILES Cc1cc(C(=O)NCCCCCCNC(=O)c2ccc(-c3c4nc(c(-c5c(F)cccc5F)c5ccc([nH]5)c(-c5c(F)cccc5F)c5nc(c(-c6c(F)cccc6F)c6ccc3[nH]6)C=C5)C=C4)cc2)ccc1NC(=O)c1ccc(=O)n(CCOc2ccccc2)n1
REMARK SMILES IDX 8 1 7 2 5 3 6 4 4 6 1 7 2 8 3 9 73 10 72 11 71 12 74 13
REMARK SMILES IDX 75 14 76 16 77 17 78 18 92 19 79 20 82 21 80 22 81 23 83 24
REMARK SMILES IDX 84 25 85 26 86 27 87 28 91 29 88 30 90 31 89 32 9 33 10 34
REMARK SMILES IDX 11 35 12 36 13 37 14 38 15 39 16 41 17 42 18 43 70 44 19 45
REMARK SMILES IDX 69 46 20 47 21 48 22 49 63 50 23 51 68 52 62 53 64 54 24 55
REMARK SMILES IDX 67 56 61 57 60 58 25 60 51 61 34 62 50 63 35 64 38 65 49 66
REMARK SMILES IDX 65 67 36 68 37 69 48 71 66 72 39 73 26 74 27 75 32 76 28 77
REMARK SMILES IDX 29 78 31 79 33 80 30 81 52 82 53 83 58 84 54 85 55 86 57 87
REMARK SMILES IDX 59 88 56 89 40 90 41 91 46 92 42 93 43 94 45 95 47 96 44 97
REMARK H PARENT 7 5 74 15 14 40 64 59 38 70
REMARK Flexibility Score: inf
ROOT
ATOM      1  C   UNL A   1      31.508  30.158  26.014  1.00  0.00     0.116 C 
ENDROOT
BRANCH   1   2
ATOM      2  N   UNL A   1      32.044  30.018  24.665  1.00  0.00    -0.352 N 
ATOM      3  C   UNL A   1      32.448  28.911  23.953  1.00  0.00     0.251 C 
ATOM      4  O   UNL A   1      32.675  29.026  22.750  1.00  0.00    -0.269 OA
ATOM      5  H   UNL A   1      32.134  30.868  24.177  1.00  0.00     0.163 HD
BRANCH   3   6
ATOM      6  C   UNL A   1      32.580  27.573  24.584  1.00  0.00     0.040 A 
ATOM      7  C   UNL A   1      30.825  24.208  24.354  1.00  0.00     0.046 C 
ATOM      8  C   UNL A   1      31.707  25.296  24.906  1.00  0.00    -0.027 A 
ATOM      9  C   UNL A   1      31.681  26.551  24.250  1.00  0.00     0.019 A 
ATOM     10  C   UNL A   1      32.608  25.112  25.966  1.00  0.00     0.044 A 
ATOM     11  C   UNL A   1      33.645  26.037  26.087  1.00  0.00     0.027 A 
ATOM     12  C   UNL A   1      33.637  27.260  25.419  1.00  0.00     0.016 A 
BRANCH  10  13
ATOM     13  N   UNL A   1      32.450  24.041  26.877  1.00  0.00    -0.320 N 
ATOM     14  C   UNL A   1      33.135  22.835  26.957  1.00  0.00     0.276 C 
ATOM     15  H   UNL A   1      31.749  24.169  27.556  1.00  0.00     0.170 HD
ATOM     16  O   UNL A   1      32.884  21.998  27.816  1.00  0.00    -0.267 OA
BRANCH  14  17
ATOM     17  C   UNL A   1      34.241  22.540  25.963  1.00  0.00     0.149 A 
ATOM     18  C   UNL A   1      33.796  21.889  24.713  1.00  0.00     0.042 A 
ATOM     19  N   UNL A   1      35.464  22.904  26.215  1.00  0.00    -0.164 NA
ATOM     20  C   UNL A   1      34.570  22.130  23.653  1.00  0.00     0.076 A 
ATOM     21  N   UNL A   1      36.329  22.886  25.124  1.00  0.00    -0.226 N 
ATOM     22  C   UNL A   1      35.840  22.880  23.823  1.00  0.00     0.266 A 
ATOM     23  O   UNL A   1      36.397  23.362  22.841  1.00  0.00    -0.268 OA
BRANCH  21  24
ATOM     24  C   UNL A   1      37.754  23.099  25.380  1.00  0.00     0.190 C 
BRANCH  24  25
ATOM     25  C   UNL A   1      38.480  21.790  25.751  1.00  0.00     0.253 C 
BRANCH  25  26
ATOM     26  O   UNL A   1      39.488  22.005  26.762  1.00  0.00    -0.492 OA
BRANCH  26  27
ATOM     27  C   UNL A   1      40.660  21.369  26.463  1.00  0.00     0.119 A 
ATOM     28  C   UNL A   1      40.777  19.985  26.520  1.00  0.00     0.046 A 
ATOM     29  C   UNL A   1      41.777  22.143  26.167  1.00  0.00     0.046 A 
ATOM     30  C   UNL A   1      41.990  19.381  26.169  1.00  0.00     0.004 A 
ATOM     31  C   UNL A   1      42.963  21.548  25.751  1.00  0.00     0.004 A 
ATOM     32  C   UNL A   1      43.068  20.161  25.745  1.00  0.00     0.000 A 
ENDBRANCH  26  27
ENDBRANCH  25  26
ENDBRANCH  24  25
ENDBRANCH  21  24
ENDBRANCH  14  17
ENDBRANCH  10  13
ENDBRANCH   3   6
ENDBRANCH   1   2
BRANCH   1  33
ATOM     33  C   UNL A   1      32.275  31.196  26.839  1.00  0.00     0.021 C 
BRANCH  33  34
ATOM     34  C   UNL A   1      33.670  30.764  27.319  1.00  0.00     0.002 C 
BRANCH  34  35
ATOM     35  C   UNL A   1      34.370  31.677  28.341  1.00  0.00     0.002 C 
BRANCH  35  36
ATOM     36  C   UNL A   1      34.176  33.184  28.150  1.00  0.00     0.021 C 
BRANCH  36  37
ATOM     37  C   UNL A   1      34.773  34.046  29.257  1.00  0.00     0.116 C 
BRANCH  37  38
ATOM     38  N   UNL A   1      33.877  34.275  30.386  1.00  0.00    -0.352 N 
ATOM     39  C   UNL A   1      34.090  34.084  31.745  1.00  0.00     0.251 C 
ATOM     40  H   UNL A   1      32.985  34.616  30.148  1.00  0.00     0.163 HD
ATOM     41  O   UNL A   1      33.202  34.309  32.541  1.00  0.00    -0.269 OA
BRANCH  39  42
ATOM     42  C   UNL A   1      35.454  33.738  32.228  1.00  0.00     0.039 A 
ATOM     43  C   UNL A   1      36.513  34.565  31.833  1.00  0.00     0.014 A 
ATOM     44  C   UNL A   1      35.715  32.537  32.879  1.00  0.00     0.014 A 
ATOM     45  C   UNL A   1      37.814  34.064  31.848  1.00  0.00     0.010 A 
ATOM     46  C   UNL A   1      36.985  32.002  32.810  1.00  0.00     0.010 A 
ATOM     47  C   UNL A   1      38.019  32.737  32.223  1.00  0.00    -0.014 A 
BRANCH  47  48
ATOM     48  C   UNL A   1      39.236  31.996  31.911  1.00  0.00     0.031 A 
ATOM     49  C   UNL A   1      39.201  30.809  31.037  1.00  0.00     0.074 A 
ATOM     50  C   UNL A   1      40.419  32.464  32.366  1.00  0.00     0.049 A 
ATOM     51  N   UNL A   1      40.126  29.910  30.995  1.00  0.00    -0.248 NA
ATOM     52  C   UNL A   1      38.080  30.526  30.149  1.00  0.00     0.031 C 
ATOM     53  C   UNL A   1      41.760  32.045  31.969  1.00  0.00     0.029 A 
ATOM     54  N   UNL A   1      40.629  33.285  33.483  1.00  0.00    -0.354 N 
ATOM     55  C   UNL A   1      39.854  29.071  29.940  1.00  0.00     0.074 A 
ATOM     56  C   UNL A   1      38.551  29.479  29.464  1.00  0.00     0.031 C 
ATOM     57  C   UNL A   1      42.612  32.334  32.965  1.00  0.00     0.029 A 
ATOM     58  C   UNL A   1      41.820  32.816  34.084  1.00  0.00     0.049 A 
ATOM     59  H   UNL A   1      40.065  34.033  33.787  1.00  0.00     0.167 HD
ATOM     60  C   UNL A   1      40.807  28.189  29.520  1.00  0.00     0.037 A 
ATOM     61  C   UNL A   1      41.792  32.258  35.330  1.00  0.00     0.037 A 
ATOM     62  C   UNL A   1      41.988  28.219  30.378  1.00  0.00     0.049 A 
ATOM     63  C   UNL A   1      42.229  30.808  35.384  1.00  0.00     0.074 A 
ATOM     64  C   UNL A   1      43.209  28.870  30.320  1.00  0.00     0.029 A 
ATOM     65  N   UNL A   1      41.879  27.724  31.665  1.00  0.00    -0.354 N 
ATOM     66  N   UNL A   1      42.515  30.084  34.339  1.00  0.00    -0.248 NA
ATOM     67  C   UNL A   1      42.279  30.034  36.628  1.00  0.00     0.031 C 
ATOM     68  C   UNL A   1      43.811  28.801  31.609  1.00  0.00     0.029 A 
ATOM     69  C   UNL A   1      42.957  28.100  32.442  1.00  0.00     0.049 A 
ATOM     70  H   UNL A   1      41.129  27.175  31.986  1.00  0.00     0.167 HD
ATOM     71  C   UNL A   1      42.720  28.789  34.732  1.00  0.00     0.074 A 
ATOM     72  C   UNL A   1      42.573  28.806  36.174  1.00  0.00     0.031 C 
ATOM     73  C   UNL A   1      42.951  27.774  33.855  1.00  0.00     0.037 A 
BRANCH  60  74
ATOM     74  C   UNL A   1      40.749  27.459  28.203  1.00  0.00     0.057 A 
ATOM     75  C   UNL A   1      40.024  26.259  28.076  1.00  0.00     0.134 A 
ATOM     76  C   UNL A   1      41.414  27.865  27.033  1.00  0.00     0.134 A 
ATOM     77  F   UNL A   1      39.261  25.789  29.071  1.00  0.00    -0.206 F 
ATOM     78  C   UNL A   1      40.056  25.469  26.920  1.00  0.00     0.040 A 
ATOM     79  C   UNL A   1      41.504  27.056  25.891  1.00  0.00     0.040 A 
ATOM     80  F   UNL A   1      41.963  29.082  26.927  1.00  0.00    -0.206 F 
ATOM     81  C   UNL A   1      40.832  25.844  25.836  1.00  0.00     0.006 A 
ENDBRANCH  60  74
BRANCH  61  82
ATOM     82  C   UNL A   1      40.759  32.865  36.212  1.00  0.00     0.057 A 
ATOM     83  C   UNL A   1      41.053  34.079  36.861  1.00  0.00     0.134 A 
ATOM     84  C   UNL A   1      39.416  32.489  36.143  1.00  0.00     0.134 A 
ATOM     85  F   UNL A   1      42.325  34.499  36.964  1.00  0.00    -0.206 F 
ATOM     86  C   UNL A   1      40.048  34.938  37.308  1.00  0.00     0.040 A 
ATOM     87  C   UNL A   1      38.402  33.331  36.609  1.00  0.00     0.040 A 
ATOM     88  F   UNL A   1      39.054  31.355  35.525  1.00  0.00    -0.206 F 
ATOM     89  C   UNL A   1      38.714  34.576  37.152  1.00  0.00     0.006 A 
ENDBRANCH  61  82
BRANCH  73  90
ATOM     90  C   UNL A   1      43.194  26.370  34.301  1.00  0.00     0.057 A 
ATOM     91  C   UNL A   1      42.174  25.584  34.849  1.00  0.00     0.134 A 
ATOM     92  C   UNL A   1      44.485  25.815  34.308  1.00  0.00     0.134 A 
ATOM     93  F   UNL A   1      40.914  26.041  34.912  1.00  0.00    -0.206 F 
ATOM     94  C   UNL A   1      42.421  24.307  35.364  1.00  0.00     0.040 A 
ATOM     95  C   UNL A   1      44.752  24.558  34.854  1.00  0.00     0.040 A 
ATOM     96  F   UNL A   1      45.527  26.468  33.772  1.00  0.00    -0.206 F 
ATOM     97  C   UNL A   1      43.715  23.797  35.381  1.00  0.00     0.006 A 
ENDBRANCH  73  90
ENDBRANCH  47  48
ENDBRANCH  39  42
ENDBRANCH  37  38
ENDBRANCH  36  37
ENDBRANCH  35  36
ENDBRANCH  34  35
ENDBRANCH  33  34
ENDBRANCH   1  33
TORSDOF 19
ENDMDL
