MODEL 1
REMARK VINA RESULT:     -11.4      0.000      0.000
REMARK SMILES CC(C)(C)OC(=O)Nc1ccc(-c2cccc(Cl)c2C(=O)NCCCCCCNC(=O)c2ccc(-c3c4nc(c(-c5c(F)cccc5F)c5ccc([nH]5)c(-c5c(F)cccc5F)c5nc(c(-c6c(F)cccc6F)c6ccc3[nH]6)C=C5)C=C4)cc2)cc1
REMARK SMILES IDX 24 1 23 2 22 3 20 4 21 5 19 7 13 8 14 9 15 10 17 11 16 12
REMARK SMILES IDX 18 13 12 14 9 15 10 16 87 17 11 18 86 19 8 20 6 21 7 22 5 24
REMARK SMILES IDX 2 25 1 26 3 27 4 28 25 29 26 30 27 31 28 32 29 33 30 34
REMARK SMILES IDX 31 36 32 37 33 38 85 39 34 40 84 41 35 42 36 43 37 44 78 45
REMARK SMILES IDX 38 46 83 47 77 48 79 49 39 50 82 51 76 52 75 53 40 55 66 56
REMARK SMILES IDX 49 57 65 58 50 59 53 60 64 61 80 62 51 63 52 64 63 66 81 67
REMARK SMILES IDX 54 68 41 69 42 70 47 71 43 72 44 73 46 74 48 75 45 76 67 77
REMARK SMILES IDX 68 78 73 79 69 80 70 81 72 82 74 83 71 84 55 85 56 86 61 87
REMARK SMILES IDX 57 88 58 89 60 90 62 91 59 92
REMARK H PARENT 22 6 8 23 29 35 79 54 53 65
REMARK Flexibility Score: inf
ROOT
ATOM      1  C   UNL A   1      36.203  22.256  25.843  1.00  0.00     0.021 C 
ENDROOT
BRANCH   1   2
ATOM      2  C   UNL A   1      35.377  23.531  25.773  1.00  0.00     0.116 C 
BRANCH   2   3
ATOM      3  N   UNL A   1      34.106  23.576  26.439  1.00  0.00    -0.352 N 
ATOM      4  C   UNL A   1      32.980  22.799  26.224  1.00  0.00     0.253 C 
ATOM      5  O   UNL A   1      32.296  22.602  27.235  1.00  0.00    -0.269 OA
ATOM      6  H   UNL A   1      34.023  24.255  27.148  1.00  0.00     0.163 HD
BRANCH   4   7
ATOM      7  C   UNL A   1      32.474  22.226  24.913  1.00  0.00     0.066 A 
ATOM      8  C   UNL A   1      31.961  22.931  23.785  1.00  0.00    -0.004 A 
ATOM      9  C   UNL A   1      31.747  22.234  22.562  1.00  0.00     0.009 A 
ATOM     10  C   UNL A   1      32.008  20.881  22.416  1.00  0.00     0.002 A 
ATOM     11  C   UNL A   1      32.675  20.823  24.744  1.00  0.00     0.054 A 
ATOM     12  C   UNL A   1      32.459  20.174  23.514  1.00  0.00     0.021 A 
ATOM     13  Cl  UNL A   1      33.117  19.741  26.037  1.00  0.00    -0.083 Cl
BRANCH   8  14
ATOM     14  C   UNL A   1      31.556  24.338  23.719  1.00  0.00    -0.017 A 
ATOM     15  C   UNL A   1      30.815  27.066  23.776  1.00  0.00     0.044 A 
ATOM     16  C   UNL A   1      30.187  26.150  24.622  1.00  0.00     0.027 A 
ATOM     17  C   UNL A   1      31.746  26.591  22.847  1.00  0.00     0.027 A 
ATOM     18  C   UNL A   1      30.538  24.800  24.580  1.00  0.00     0.011 A 
ATOM     19  C   UNL A   1      32.115  25.238  22.815  1.00  0.00     0.011 A 
BRANCH  15  20
ATOM     20  N   UNL A   1      30.486  28.418  23.975  1.00  0.00    -0.291 N 
ATOM     21  C   UNL A   1      31.152  29.437  24.600  1.00  0.00     0.412 C 
ATOM     22  O   UNL A   1      30.610  30.530  24.720  1.00  0.00    -0.224 OA
ATOM     23  H   UNL A   1      29.618  28.681  23.593  1.00  0.00     0.173 HD
BRANCH  21  24
ATOM     24  O   UNL A   1      32.382  29.127  25.052  1.00  0.00    -0.444 OA
BRANCH  24  25
ATOM     25  C   UNL A   1      32.693  29.079  26.467  1.00  0.00     0.106 C 
ATOM     26  C   UNL A   1      33.968  28.232  26.544  1.00  0.00     0.056 C 
ATOM     27  C   UNL A   1      31.571  28.389  27.245  1.00  0.00     0.056 C 
ATOM     28  C   UNL A   1      33.000  30.463  27.037  1.00  0.00     0.056 C 
ENDBRANCH  24  25
ENDBRANCH  21  24
ENDBRANCH  15  20
ENDBRANCH   8  14
ENDBRANCH   4   7
ENDBRANCH   2   3
ENDBRANCH   1   2
BRANCH   1  29
ATOM     29  C   UNL A   1      36.268  21.350  24.613  1.00  0.00     0.002 C 
BRANCH  29  30
ATOM     30  C   UNL A   1      36.401  19.838  24.829  1.00  0.00     0.002 C 
BRANCH  30  31
ATOM     31  C   UNL A   1      37.808  19.237  24.821  1.00  0.00     0.021 C 
BRANCH  31  32
ATOM     32  C   UNL A   1      38.862  19.903  25.706  1.00  0.00     0.116 C 
BRANCH  32  33
ATOM     33  N   UNL A   1      40.094  19.141  25.778  1.00  0.00    -0.352 N 
ATOM     34  C   UNL A   1      41.385  19.532  26.042  1.00  0.00     0.251 C 
ATOM     35  H   UNL A   1      39.988  18.178  25.608  1.00  0.00     0.163 HD
ATOM     36  O   UNL A   1      42.292  18.722  25.855  1.00  0.00    -0.269 OA
BRANCH  34  37
ATOM     37  C   UNL A   1      41.732  20.891  26.540  1.00  0.00     0.039 A 
ATOM     38  C   UNL A   1      41.565  21.156  27.907  1.00  0.00     0.014 A 
ATOM     39  C   UNL A   1      42.120  21.933  25.695  1.00  0.00     0.014 A 
ATOM     40  C   UNL A   1      41.821  22.433  28.425  1.00  0.00     0.010 A 
ATOM     41  C   UNL A   1      42.448  23.189  26.226  1.00  0.00     0.010 A 
ATOM     42  C   UNL A   1      42.296  23.461  27.597  1.00  0.00    -0.014 A 
BRANCH  42  43
ATOM     43  C   UNL A   1      42.624  24.812  28.149  1.00  0.00     0.031 A 
ATOM     44  C   UNL A   1      44.033  25.163  28.544  1.00  0.00     0.074 A 
ATOM     45  C   UNL A   1      41.655  25.732  28.336  1.00  0.00     0.049 A 
ATOM     46  N   UNL A   1      44.498  26.277  29.053  1.00  0.00    -0.248 NA
ATOM     47  C   UNL A   1      45.052  24.123  28.350  1.00  0.00     0.031 C 
ATOM     48  C   UNL A   1      40.250  25.541  27.997  1.00  0.00     0.029 A 
ATOM     49  N   UNL A   1      41.694  27.002  28.859  1.00  0.00    -0.354 N 
ATOM     50  C   UNL A   1      45.858  26.071  29.242  1.00  0.00     0.074 A 
ATOM     51  C   UNL A   1      46.130  24.702  28.856  1.00  0.00     0.031 C 
ATOM     52  C   UNL A   1      39.556  26.642  28.316  1.00  0.00     0.029 A 
ATOM     53  C   UNL A   1      40.466  27.621  28.899  1.00  0.00     0.049 A 
ATOM     54  H   UNL A   1      42.523  27.431  29.174  1.00  0.00     0.167 HD
ATOM     55  C   UNL A   1      46.801  26.945  29.673  1.00  0.00     0.037 A 
ATOM     56  C   UNL A   1      40.106  28.839  29.346  1.00  0.00     0.037 A 
ATOM     57  C   UNL A   1      46.536  28.310  30.053  1.00  0.00     0.049 A 
ATOM     58  C   UNL A   1      41.157  29.770  29.883  1.00  0.00     0.074 A 
ATOM     59  C   UNL A   1      47.438  29.287  30.439  1.00  0.00     0.029 A 
ATOM     60  N   UNL A   1      45.276  28.887  30.111  1.00  0.00    -0.354 N 
ATOM     61  N   UNL A   1      42.450  29.586  29.980  1.00  0.00    -0.248 NA
ATOM     62  C   UNL A   1      40.698  31.084  30.356  1.00  0.00     0.031 C 
ATOM     63  C   UNL A   1      46.718  30.432  30.798  1.00  0.00     0.029 A 
ATOM     64  C   UNL A   1      45.372  30.193  30.570  1.00  0.00     0.049 A 
ATOM     65  H   UNL A   1      44.437  28.437  29.862  1.00  0.00     0.167 HD
ATOM     66  C   UNL A   1      42.966  30.772  30.485  1.00  0.00     0.074 A 
ATOM     67  C   UNL A   1      41.845  31.671  30.669  1.00  0.00     0.031 C 
ATOM     68  C   UNL A   1      44.256  31.087  30.759  1.00  0.00     0.037 A 
BRANCH  55  69
ATOM     69  C   UNL A   1      48.212  26.433  29.773  1.00  0.00     0.057 A 
ATOM     70  C   UNL A   1      49.122  26.544  28.712  1.00  0.00     0.134 A 
ATOM     71  C   UNL A   1      48.666  25.819  30.947  1.00  0.00     0.134 A 
ATOM     72  F   UNL A   1      48.753  27.114  27.555  1.00  0.00    -0.206 F 
ATOM     73  C   UNL A   1      50.412  26.017  28.797  1.00  0.00     0.040 A 
ATOM     74  C   UNL A   1      49.965  25.321  31.057  1.00  0.00     0.040 A 
ATOM     75  F   UNL A   1      47.855  25.690  32.008  1.00  0.00    -0.206 F 
ATOM     76  C   UNL A   1      50.839  25.406  29.974  1.00  0.00     0.006 A 
ENDBRANCH  55  69
BRANCH  56  77
ATOM     77  C   UNL A   1      38.687  29.274  29.254  1.00  0.00     0.057 A 
ATOM     78  C   UNL A   1      38.155  29.732  28.043  1.00  0.00     0.134 A 
ATOM     79  C   UNL A   1      37.832  29.238  30.361  1.00  0.00     0.134 A 
ATOM     80  F   UNL A   1      38.930  29.808  26.950  1.00  0.00    -0.206 F 
ATOM     81  C   UNL A   1      36.829  30.152  27.938  1.00  0.00     0.040 A 
ATOM     82  C   UNL A   1      36.496  29.633  30.265  1.00  0.00     0.040 A 
ATOM     83  F   UNL A   1      38.278  28.806  31.549  1.00  0.00    -0.206 F 
ATOM     84  C   UNL A   1      35.992  30.096  29.051  1.00  0.00     0.006 A 
ENDBRANCH  56  77
BRANCH  68  85
ATOM     85  C   UNL A   1      44.537  32.477  31.256  1.00  0.00     0.057 A 
ATOM     86  C   UNL A   1      44.779  33.546  30.384  1.00  0.00     0.134 A 
ATOM     87  C   UNL A   1      44.531  32.755  32.631  1.00  0.00     0.134 A 
ATOM     88  F   UNL A   1      44.815  33.348  29.058  1.00  0.00    -0.206 F 
ATOM     89  C   UNL A   1      45.033  34.835  30.861  1.00  0.00     0.040 A 
ATOM     90  C   UNL A   1      44.751  34.045  33.117  1.00  0.00     0.040 A 
ATOM     91  F   UNL A   1      44.299  31.781  33.523  1.00  0.00    -0.206 F 
ATOM     92  C   UNL A   1      45.010  35.088  32.231  1.00  0.00     0.006 A 
ENDBRANCH  68  85
ENDBRANCH  42  43
ENDBRANCH  34  37
ENDBRANCH  32  33
ENDBRANCH  31  32
ENDBRANCH  30  31
ENDBRANCH  29  30
ENDBRANCH   1  29
TORSDOF 17
ENDMDL
MODEL 2
REMARK VINA RESULT:     -11.3      0.448      5.902
REMARK SMILES CC(C)(C)OC(=O)Nc1ccc(-c2cccc(Cl)c2C(=O)NCCCCCCNC(=O)c2ccc(-c3c4nc(c(-c5c(F)cccc5F)c5ccc([nH]5)c(-c5c(F)cccc5F)c5nc(c(-c6c(F)cccc6F)c6ccc3[nH]6)C=C5)C=C4)cc2)cc1
REMARK SMILES IDX 24 1 23 2 22 3 20 4 21 5 19 7 13 8 14 9 15 10 17 11 16 12
REMARK SMILES IDX 18 13 12 14 9 15 10 16 87 17 11 18 86 19 8 20 6 21 7 22 5 24
REMARK SMILES IDX 2 25 1 26 3 27 4 28 25 29 26 30 27 31 28 32 29 33 30 34
REMARK SMILES IDX 31 36 32 37 33 38 85 39 34 40 84 41 35 42 36 43 37 44 78 45
REMARK SMILES IDX 38 46 83 47 77 48 79 49 39 50 82 51 76 52 75 53 40 55 66 56
REMARK SMILES IDX 49 57 65 58 50 59 53 60 64 61 80 62 51 63 52 64 63 66 81 67
REMARK SMILES IDX 54 68 41 69 42 70 47 71 43 72 44 73 46 74 48 75 45 76 67 77
REMARK SMILES IDX 68 78 73 79 69 80 70 81 72 82 74 83 71 84 55 85 56 86 61 87
REMARK SMILES IDX 57 88 58 89 60 90 62 91 59 92
REMARK H PARENT 22 6 8 23 29 35 79 54 53 65
REMARK Flexibility Score: inf
ROOT
ATOM      1  C   UNL A   1      36.278  22.494  25.768  1.00  0.00     0.021 C 
ENDROOT
BRANCH   1   2
ATOM      2  C   UNL A   1      35.318  23.675  25.749  1.00  0.00     0.116 C 
BRANCH   2   3
ATOM      3  N   UNL A   1      34.075  23.574  26.461  1.00  0.00    -0.352 N 
ATOM      4  C   UNL A   1      33.010  22.717  26.242  1.00  0.00     0.253 C 
ATOM      5  O   UNL A   1      32.387  22.407  27.264  1.00  0.00    -0.269 OA
ATOM      6  H   UNL A   1      33.965  24.204  27.210  1.00  0.00     0.163 HD
BRANCH   4   7
ATOM      7  C   UNL A   1      32.502  22.174  24.919  1.00  0.00     0.066 A 
ATOM      8  C   UNL A   1      32.017  22.907  23.796  1.00  0.00    -0.004 A 
ATOM      9  C   UNL A   1      31.797  22.232  22.562  1.00  0.00     0.009 A 
ATOM     10  C   UNL A   1      32.025  20.875  22.400  1.00  0.00     0.002 A 
ATOM     11  C   UNL A   1      32.670  20.769  24.733  1.00  0.00     0.054 A 
ATOM     12  C   UNL A   1      32.448  20.142  23.492  1.00  0.00     0.021 A 
ATOM     13  Cl  UNL A   1      33.072  19.659  26.014  1.00  0.00    -0.083 Cl
BRANCH   8  14
ATOM     14  C   UNL A   1      31.649  24.324  23.745  1.00  0.00    -0.017 A 
ATOM     15  C   UNL A   1      30.944  27.062  23.837  1.00  0.00     0.044 A 
ATOM     16  C   UNL A   1      30.161  26.112  24.496  1.00  0.00     0.027 A 
ATOM     17  C   UNL A   1      32.024  26.620  23.064  1.00  0.00     0.027 A 
ATOM     18  C   UNL A   1      30.497  24.759  24.435  1.00  0.00     0.011 A 
ATOM     19  C   UNL A   1      32.375  25.263  23.016  1.00  0.00     0.011 A 
BRANCH  15  20
ATOM     20  N   UNL A   1      30.602  28.407  24.057  1.00  0.00    -0.291 N 
ATOM     21  C   UNL A   1      31.253  29.420  24.707  1.00  0.00     0.412 C 
ATOM     22  O   UNL A   1      30.700  30.506  24.841  1.00  0.00    -0.224 OA
ATOM     23  H   UNL A   1      29.735  28.669  23.671  1.00  0.00     0.173 HD
BRANCH  21  24
ATOM     24  O   UNL A   1      32.481  29.112  25.166  1.00  0.00    -0.444 OA
BRANCH  24  25
ATOM     25  C   UNL A   1      32.766  28.994  26.582  1.00  0.00     0.106 C 
ATOM     26  C   UNL A   1      34.011  28.102  26.642  1.00  0.00     0.056 C 
ATOM     27  C   UNL A   1      31.609  28.310  27.313  1.00  0.00     0.056 C 
ATOM     28  C   UNL A   1      33.109  30.342  27.215  1.00  0.00     0.056 C 
ENDBRANCH  24  25
ENDBRANCH  21  24
ENDBRANCH  15  20
ENDBRANCH   8  14
ENDBRANCH   4   7
ENDBRANCH   2   3
ENDBRANCH   1   2
BRANCH   1  29
ATOM     29  C   UNL A   1      36.271  21.519  24.591  1.00  0.00     0.002 C 
BRANCH  29  30
ATOM     30  C   UNL A   1      36.327  20.017  24.891  1.00  0.00     0.002 C 
BRANCH  30  31
ATOM     31  C   UNL A   1      37.699  19.340  24.892  1.00  0.00     0.021 C 
BRANCH  31  32
ATOM     32  C   UNL A   1      38.823  20.029  25.665  1.00  0.00     0.116 C 
BRANCH  32  33
ATOM     33  N   UNL A   1      40.019  19.215  25.758  1.00  0.00    -0.352 N 
ATOM     34  C   UNL A   1      41.314  19.544  26.083  1.00  0.00     0.251 C 
ATOM     35  H   UNL A   1      39.880  18.262  25.554  1.00  0.00     0.163 HD
ATOM     36  O   UNL A   1      42.194  18.702  25.903  1.00  0.00    -0.269 OA
BRANCH  34  37
ATOM     37  C   UNL A   1      41.696  20.872  26.636  1.00  0.00     0.039 A 
ATOM     38  C   UNL A   1      42.084  21.874  25.735  1.00  0.00     0.014 A 
ATOM     39  C   UNL A   1      41.778  21.128  28.006  1.00  0.00     0.014 A 
ATOM     40  C   UNL A   1      42.508  23.127  26.199  1.00  0.00     0.010 A 
ATOM     41  C   UNL A   1      42.132  22.406  28.466  1.00  0.00     0.010 A 
ATOM     42  C   UNL A   1      42.510  23.421  27.571  1.00  0.00    -0.014 A 
BRANCH  42  43
ATOM     43  C   UNL A   1      42.910  24.772  28.073  1.00  0.00     0.031 A 
ATOM     44  C   UNL A   1      41.878  25.839  28.323  1.00  0.00     0.074 A 
ATOM     45  C   UNL A   1      44.209  25.072  28.279  1.00  0.00     0.049 A 
ATOM     46  N   UNL A   1      42.043  27.070  28.743  1.00  0.00    -0.248 NA
ATOM     47  C   UNL A   1      40.479  25.479  28.060  1.00  0.00     0.031 C 
ATOM     48  C   UNL A   1      45.317  24.144  28.088  1.00  0.00     0.029 A 
ATOM     49  N   UNL A   1      44.822  26.233  28.687  1.00  0.00    -0.354 N 
ATOM     50  C   UNL A   1      40.773  27.629  28.790  1.00  0.00     0.074 A 
ATOM     51  C   UNL A   1      39.857  26.625  28.292  1.00  0.00     0.031 C 
ATOM     52  C   UNL A   1      46.474  24.760  28.371  1.00  0.00     0.029 A 
ATOM     53  C   UNL A   1      46.193  26.139  28.755  1.00  0.00     0.049 A 
ATOM     54  H   UNL A   1      44.327  27.054  28.910  1.00  0.00     0.167 HD
ATOM     55  C   UNL A   1      40.398  28.855  29.230  1.00  0.00     0.037 A 
ATOM     56  C   UNL A   1      47.125  27.050  29.094  1.00  0.00     0.037 A 
ATOM     57  C   UNL A   1      41.306  29.856  29.732  1.00  0.00     0.049 A 
ATOM     58  C   UNL A   1      46.692  28.427  29.515  1.00  0.00     0.074 A 
ATOM     59  C   UNL A   1      41.011  31.101  30.260  1.00  0.00     0.029 A 
ATOM     60  N   UNL A   1      42.688  29.734  29.754  1.00  0.00    -0.354 N 
ATOM     61  N   UNL A   1      45.482  28.913  29.629  1.00  0.00    -0.248 NA
ATOM     62  C   UNL A   1      47.758  29.375  29.870  1.00  0.00     0.031 C 
ATOM     63  C   UNL A   1      42.214  31.760  30.536  1.00  0.00     0.029 A 
ATOM     64  C   UNL A   1      43.260  30.899  30.244  1.00  0.00     0.049 A 
ATOM     65  H   UNL A   1      43.189  28.937  29.465  1.00  0.00     0.167 HD
ATOM     66  C   UNL A   1      45.634  30.207  30.108  1.00  0.00     0.074 A 
ATOM     67  C   UNL A   1      47.057  30.428  30.267  1.00  0.00     0.031 C 
ATOM     68  C   UNL A   1      44.677  31.122  30.399  1.00  0.00     0.037 A 
BRANCH  55  69
ATOM     69  C   UNL A   1      38.932  29.185  29.166  1.00  0.00     0.057 A 
ATOM     70  C   UNL A   1      38.313  29.605  27.980  1.00  0.00     0.134 A 
ATOM     71  C   UNL A   1      38.127  29.082  30.308  1.00  0.00     0.134 A 
ATOM     72  F   UNL A   1      39.024  29.733  26.850  1.00  0.00    -0.206 F 
ATOM     73  C   UNL A   1      36.963  29.960  27.945  1.00  0.00     0.040 A 
ATOM     74  C   UNL A   1      36.768  29.399  30.277  1.00  0.00     0.040 A 
ATOM     75  F   UNL A   1      38.648  28.673  31.475  1.00  0.00    -0.206 F 
ATOM     76  C   UNL A   1      36.185  29.853  29.096  1.00  0.00     0.006 A 
ENDBRANCH  55  69
BRANCH  56  77
ATOM     77  C   UNL A   1      48.563  26.674  29.103  1.00  0.00     0.057 A 
ATOM     78  C   UNL A   1      49.374  26.915  27.988  1.00  0.00     0.134 A 
ATOM     79  C   UNL A   1      49.160  26.074  30.217  1.00  0.00     0.134 A 
ATOM     80  F   UNL A   1      48.855  27.469  26.882  1.00  0.00    -0.206 F 
ATOM     81  C   UNL A   1      50.724  26.562  27.975  1.00  0.00     0.040 A 
ATOM     82  C   UNL A   1      50.515  25.736  30.227  1.00  0.00     0.040 A 
ATOM     83  F   UNL A   1      48.439  25.820  31.319  1.00  0.00    -0.206 F 
ATOM     84  C   UNL A   1      51.300  25.977  29.100  1.00  0.00     0.006 A 
ENDBRANCH  56  77
BRANCH  68  85
ATOM     85  C   UNL A   1      45.131  32.443  30.956  1.00  0.00     0.057 A 
ATOM     86  C   UNL A   1      45.374  33.552  30.136  1.00  0.00     0.134 A 
ATOM     87  C   UNL A   1      45.295  32.613  32.337  1.00  0.00     0.134 A 
ATOM     88  F   UNL A   1      45.251  33.455  28.804  1.00  0.00    -0.206 F 
ATOM     89  C   UNL A   1      45.789  34.776  30.668  1.00  0.00     0.040 A 
ATOM     90  C   UNL A   1      45.678  33.840  32.882  1.00  0.00     0.040 A 
ATOM     91  F   UNL A   1      45.073  31.595  33.182  1.00  0.00    -0.206 F 
ATOM     92  C   UNL A   1      45.934  34.924  32.046  1.00  0.00     0.006 A 
ENDBRANCH  68  85
ENDBRANCH  42  43
ENDBRANCH  34  37
ENDBRANCH  32  33
ENDBRANCH  31  32
ENDBRANCH  30  31
ENDBRANCH  29  30
ENDBRANCH   1  29
TORSDOF 17
ENDMDL
MODEL 3
REMARK VINA RESULT:     -11.0      3.947      8.859
REMARK SMILES CC(C)(C)OC(=O)Nc1ccc(-c2cccc(Cl)c2C(=O)NCCCCCCNC(=O)c2ccc(-c3c4nc(c(-c5c(F)cccc5F)c5ccc([nH]5)c(-c5c(F)cccc5F)c5nc(c(-c6c(F)cccc6F)c6ccc3[nH]6)C=C5)C=C4)cc2)cc1
REMARK SMILES IDX 24 1 23 2 22 3 20 4 21 5 19 7 13 8 14 9 15 10 17 11 16 12
REMARK SMILES IDX 18 13 12 14 9 15 10 16 87 17 11 18 86 19 8 20 6 21 7 22 5 24
REMARK SMILES IDX 2 25 1 26 3 27 4 28 25 29 26 30 27 31 28 32 29 33 30 34
REMARK SMILES IDX 31 36 32 37 33 38 85 39 34 40 84 41 35 42 36 43 37 44 78 45
REMARK SMILES IDX 38 46 83 47 77 48 79 49 39 50 82 51 76 52 75 53 40 55 66 56
REMARK SMILES IDX 49 57 65 58 50 59 53 60 64 61 80 62 51 63 52 64 63 66 81 67
REMARK SMILES IDX 54 68 41 69 42 70 47 71 43 72 44 73 46 74 48 75 45 76 67 77
REMARK SMILES IDX 68 78 73 79 69 80 70 81 72 82 74 83 71 84 55 85 56 86 61 87
REMARK SMILES IDX 57 88 58 89 60 90 62 91 59 92
REMARK H PARENT 22 6 8 23 29 35 79 54 53 65
REMARK Flexibility Score: inf
ROOT
ATOM      1  C   UNL A   1      33.868  28.385  26.373  1.00  0.00     0.021 C 
ENDROOT
BRANCH   1   2
ATOM      2  C   UNL A   1      33.132  28.672  25.073  1.00  0.00     0.116 C 
BRANCH   2   3
ATOM      3  N   UNL A   1      33.290  27.768  23.968  1.00  0.00    -0.352 N 
ATOM      4  C   UNL A   1      32.367  27.397  23.005  1.00  0.00     0.253 C 
ATOM      5  O   UNL A   1      32.860  27.135  21.902  1.00  0.00    -0.269 OA
ATOM      6  H   UNL A   1      34.179  27.354  23.885  1.00  0.00     0.163 HD
BRANCH   4   7
ATOM      7  C   UNL A   1      30.867  27.227  23.161  1.00  0.00     0.066 A 
ATOM      8  C   UNL A   1      30.163  26.143  23.765  1.00  0.00    -0.004 A 
ATOM      9  C   UNL A   1      28.768  26.269  24.018  1.00  0.00     0.009 A 
ATOM     10  C   UNL A   1      28.048  27.408  23.692  1.00  0.00     0.002 A 
ATOM     11  C   UNL A   1      30.084  28.359  22.786  1.00  0.00     0.054 A 
ATOM     12  C   UNL A   1      28.706  28.447  23.063  1.00  0.00     0.021 A 
ATOM     13  Cl  UNL A   1      30.700  29.710  21.875  1.00  0.00    -0.083 Cl
BRANCH   8  14
ATOM     14  C   UNL A   1      30.695  24.829  24.136  1.00  0.00    -0.017 A 
ATOM     15  C   UNL A   1      31.566  22.267  24.956  1.00  0.00     0.044 A 
ATOM     16  C   UNL A   1      31.272  23.246  25.907  1.00  0.00     0.027 A 
ATOM     17  C   UNL A   1      31.506  22.609  23.601  1.00  0.00     0.027 A 
ATOM     18  C   UNL A   1      30.862  24.517  25.502  1.00  0.00     0.011 A 
ATOM     19  C   UNL A   1      31.076  23.879  23.191  1.00  0.00     0.011 A 
BRANCH  15  20
ATOM     20  N   UNL A   1      31.851  20.984  25.457  1.00  0.00    -0.291 N 
ATOM     21  C   UNL A   1      32.937  20.166  25.302  1.00  0.00     0.412 C 
ATOM     22  O   UNL A   1      32.914  19.036  25.777  1.00  0.00    -0.224 OA
ATOM     23  H   UNL A   1      31.140  20.606  26.022  1.00  0.00     0.173 HD
BRANCH  21  24
ATOM     24  O   UNL A   1      33.962  20.696  24.608  1.00  0.00    -0.444 OA
BRANCH  24  25
ATOM     25  C   UNL A   1      35.011  21.463  25.248  1.00  0.00     0.106 C 
ATOM     26  C   UNL A   1      36.271  20.611  25.058  1.00  0.00     0.056 C 
ATOM     27  C   UNL A   1      34.725  21.629  26.743  1.00  0.00     0.056 C 
ATOM     28  C   UNL A   1      35.236  22.813  24.568  1.00  0.00     0.056 C 
ENDBRANCH  24  25
ENDBRANCH  21  24
ENDBRANCH  15  20
ENDBRANCH   8  14
ENDBRANCH   4   7
ENDBRANCH   2   3
ENDBRANCH   1   2
BRANCH   1  29
ATOM     29  C   UNL A   1      34.627  29.521  27.058  1.00  0.00     0.002 C 
BRANCH  29  30
ATOM     30  C   UNL A   1      33.818  30.618  27.758  1.00  0.00     0.002 C 
BRANCH  30  31
ATOM     31  C   UNL A   1      33.392  31.831  26.928  1.00  0.00     0.021 C 
BRANCH  31  32
ATOM     32  C   UNL A   1      32.060  32.491  27.281  1.00  0.00     0.116 C 
BRANCH  32  33
ATOM     33  N   UNL A   1      32.198  33.903  27.585  1.00  0.00    -0.352 N 
ATOM     34  C   UNL A   1      33.079  34.570  28.402  1.00  0.00     0.251 C 
ATOM     35  H   UNL A   1      31.549  34.483  27.127  1.00  0.00     0.163 HD
ATOM     36  O   UNL A   1      32.869  35.759  28.643  1.00  0.00    -0.269 OA
BRANCH  34  37
ATOM     37  C   UNL A   1      34.271  33.917  29.010  1.00  0.00     0.039 A 
ATOM     38  C   UNL A   1      34.081  33.136  30.158  1.00  0.00     0.014 A 
ATOM     39  C   UNL A   1      35.571  34.128  28.546  1.00  0.00     0.014 A 
ATOM     40  C   UNL A   1      35.172  32.542  30.807  1.00  0.00     0.010 A 
ATOM     41  C   UNL A   1      36.653  33.473  29.152  1.00  0.00     0.010 A 
ATOM     42  C   UNL A   1      36.472  32.678  30.297  1.00  0.00    -0.014 A 
BRANCH  42  43
ATOM     43  C   UNL A   1      37.636  32.004  30.951  1.00  0.00     0.031 A 
ATOM     44  C   UNL A   1      38.365  30.882  30.263  1.00  0.00     0.074 A 
ATOM     45  C   UNL A   1      38.034  32.368  32.188  1.00  0.00     0.049 A 
ATOM     46  N   UNL A   1      39.384  30.173  30.685  1.00  0.00    -0.248 NA
ATOM     47  C   UNL A   1      37.882  30.499  28.930  1.00  0.00     0.031 C 
ATOM     48  C   UNL A   1      37.432  33.437  32.974  1.00  0.00     0.029 A 
ATOM     49  N   UNL A   1      39.027  31.881  33.004  1.00  0.00    -0.354 N 
ATOM     50  C   UNL A   1      39.659  29.262  29.673  1.00  0.00     0.074 A 
ATOM     51  C   UNL A   1      38.658  29.464  28.647  1.00  0.00     0.031 C 
ATOM     52  C   UNL A   1      38.056  33.533  34.157  1.00  0.00     0.029 A 
ATOM     53  C   UNL A   1      39.102  32.518  34.222  1.00  0.00     0.049 A 
ATOM     54  H   UNL A   1      39.629  31.147  32.743  1.00  0.00     0.167 HD
ATOM     55  C   UNL A   1      40.666  28.359  29.592  1.00  0.00     0.037 A 
ATOM     56  C   UNL A   1      39.920  32.319  35.273  1.00  0.00     0.037 A 
ATOM     57  C   UNL A   1      41.668  28.158  30.608  1.00  0.00     0.049 A 
ATOM     58  C   UNL A   1      40.988  31.265  35.189  1.00  0.00     0.074 A 
ATOM     59  C   UNL A   1      42.763  27.311  30.584  1.00  0.00     0.029 A 
ATOM     60  N   UNL A   1      41.690  28.799  31.839  1.00  0.00    -0.354 N 
ATOM     61  N   UNL A   1      41.284  30.468  34.193  1.00  0.00    -0.248 NA
ATOM     62  C   UNL A   1      41.846  31.097  36.370  1.00  0.00     0.031 C 
ATOM     63  C   UNL A   1      43.406  27.387  31.825  1.00  0.00     0.029 A 
ATOM     64  C   UNL A   1      42.752  28.333  32.599  1.00  0.00     0.049 A 
ATOM     65  H   UNL A   1      41.046  29.484  32.129  1.00  0.00     0.167 HD
ATOM     66  C   UNL A   1      42.386  29.733  34.609  1.00  0.00     0.074 A 
ATOM     67  C   UNL A   1      42.708  30.183  35.947  1.00  0.00     0.031 C 
ATOM     68  C   UNL A   1      43.072  28.778  33.933  1.00  0.00     0.037 A 
BRANCH  55  69
ATOM     69  C   UNL A   1      40.715  27.501  28.357  1.00  0.00     0.057 A 
ATOM     70  C   UNL A   1      41.481  27.850  27.236  1.00  0.00     0.134 A 
ATOM     71  C   UNL A   1      39.984  26.308  28.288  1.00  0.00     0.134 A 
ATOM     72  F   UNL A   1      42.201  28.982  27.230  1.00  0.00    -0.206 F 
ATOM     73  C   UNL A   1      41.477  27.074  26.076  1.00  0.00     0.040 A 
ATOM     74  C   UNL A   1      40.000  25.505  27.147  1.00  0.00     0.040 A 
ATOM     75  F   UNL A   1      39.238  25.903  29.327  1.00  0.00    -0.206 F 
ATOM     76  C   UNL A   1      40.737  25.894  26.030  1.00  0.00     0.006 A 
ENDBRANCH  55  69
BRANCH  56  77
ATOM     77  C   UNL A   1      39.797  33.177  36.481  1.00  0.00     0.057 A 
ATOM     78  C   UNL A   1      38.946  32.817  37.532  1.00  0.00     0.134 A 
ATOM     79  C   UNL A   1      40.525  34.364  36.618  1.00  0.00     0.134 A 
ATOM     80  F   UNL A   1      38.208  31.701  37.451  1.00  0.00    -0.206 F 
ATOM     81  C   UNL A   1      38.812  33.613  38.671  1.00  0.00     0.040 A 
ATOM     82  C   UNL A   1      40.419  35.159  37.762  1.00  0.00     0.040 A 
ATOM     83  F   UNL A   1      41.362  34.763  35.649  1.00  0.00    -0.206 F 
ATOM     84  C   UNL A   1      39.556  34.785  38.791  1.00  0.00     0.006 A 
ENDBRANCH  56  77
BRANCH  68  85
ATOM     85  C   UNL A   1      44.269  28.175  34.615  1.00  0.00     0.057 A 
ATOM     86  C   UNL A   1      45.552  28.719  34.485  1.00  0.00     0.134 A 
ATOM     87  C   UNL A   1      44.125  27.051  35.440  1.00  0.00     0.134 A 
ATOM     88  F   UNL A   1      45.764  29.785  33.699  1.00  0.00    -0.206 F 
ATOM     89  C   UNL A   1      46.655  28.152  35.130  1.00  0.00     0.040 A 
ATOM     90  C   UNL A   1      45.214  26.496  36.115  1.00  0.00     0.040 A 
ATOM     91  F   UNL A   1      42.924  26.482  35.616  1.00  0.00    -0.206 F 
ATOM     92  C   UNL A   1      46.485  27.042  35.954  1.00  0.00     0.006 A 
ENDBRANCH  68  85
ENDBRANCH  42  43
ENDBRANCH  34  37
ENDBRANCH  32  33
ENDBRANCH  31  32
ENDBRANCH  30  31
ENDBRANCH  29  30
ENDBRANCH   1  29
TORSDOF 17
ENDMDL
