MODEL 1
REMARK VINA RESULT:     -11.1      0.000      0.000
REMARK SMILES Cc1cc(C)c(C(=O)NCCCCCCNC(=O)c2ccc(-c3c4nc(c(-c5c(F)cccc5F)c5ccc([nH]5)c(-c5c(F)cccc5F)c5nc(c(-c6c(F)cccc6F)c6ccc3[nH]6)C=C5)C=C4)cc2)c(N[C@@H](CO)C(C)C)n1
REMARK SMILES IDX 11 1 10 2 9 3 7 4 8 5 6 7 1 8 2 9 3 10 81 11 4 12 73 13 5 14
REMARK SMILES IDX 74 15 75 17 76 18 77 19 78 21 79 22 80 23 12 24 13 25 14 26
REMARK SMILES IDX 15 27 16 28 17 29 18 31 19 32 20 33 72 34 21 35 71 36 22 37
REMARK SMILES IDX 23 38 24 39 65 40 25 41 70 42 64 43 66 44 26 45 69 46 63 47
REMARK SMILES IDX 62 48 27 50 53 51 36 52 52 53 37 54 40 55 51 56 67 57 38 58
REMARK SMILES IDX 39 59 50 61 68 62 41 63 28 64 29 65 34 66 30 67 31 68 33 69
REMARK SMILES IDX 35 70 32 71 54 72 55 73 60 74 56 75 57 76 59 77 61 78 58 79
REMARK SMILES IDX 42 80 43 81 48 82 44 83 45 84 47 85 49 86 46 87
REMARK H PARENT 9 6 74 16 77 20 16 30 66 49 40 60
REMARK Flexibility Score: inf
ROOT
ATOM      1  C   UNL A   1      31.777  28.397  27.552  1.00  0.00     0.021 C 
ENDROOT
BRANCH   1   2
ATOM      2  C   UNL A   1      32.200  27.154  26.774  1.00  0.00     0.116 C 
BRANCH   2   3
ATOM      3  N   UNL A   1      31.298  26.025  26.868  1.00  0.00    -0.352 N 
ATOM      4  C   UNL A   1      31.448  24.710  26.473  1.00  0.00     0.255 C 
ATOM      5  O   UNL A   1      30.514  23.943  26.718  1.00  0.00    -0.269 OA
ATOM      6  H   UNL A   1      30.430  26.230  27.282  1.00  0.00     0.163 HD
BRANCH   4   7
ATOM      7  C   UNL A   1      32.631  24.199  25.707  1.00  0.00     0.085 A 
ATOM      8  C   UNL A   1      35.906  23.069  23.217  1.00  0.00     0.067 C 
ATOM      9  C   UNL A   1      34.757  23.425  24.109  1.00  0.00     0.040 A 
ATOM     10  C   UNL A   1      34.789  23.127  25.458  1.00  0.00     0.028 A 
ATOM     11  N   UNL A   1      33.692  24.014  23.539  1.00  0.00    -0.236 NA
ATOM     12  C   UNL A   1      33.690  23.453  26.267  1.00  0.00    -0.033 A 
ATOM     13  C   UNL A   1      32.634  24.384  24.302  1.00  0.00     0.139 A 
ATOM     14  C   UNL A   1      33.718  22.899  27.660  1.00  0.00     0.045 C 
BRANCH  13  15
ATOM     15  N   UNL A   1      31.565  24.947  23.623  1.00  0.00    -0.364 N 
ATOM     16  H   UNL A   1      30.709  24.461  23.584  1.00  0.00     0.162 HD
BRANCH  15  17
ATOM     17  C   UNL A   1      31.679  26.251  22.956  1.00  0.00     0.108 C 
BRANCH  17  18
ATOM     18  C   UNL A   1      32.129  26.024  21.492  1.00  0.00     0.181 C 
BRANCH  18  19
ATOM     19  O   UNL A   1      33.547  26.086  21.346  1.00  0.00    -0.394 OA
ATOM     20  H   UNL A   1      33.861  25.293  20.884  1.00  0.00     0.210 HD
ENDBRANCH  18  19
ENDBRANCH  17  18
BRANCH  17  21
ATOM     21  C   UNL A   1      30.331  27.009  23.079  1.00  0.00     0.007 C 
ATOM     22  C   UNL A   1      29.334  26.216  23.938  1.00  0.00     0.009 C 
ATOM     23  C   UNL A   1      30.517  28.398  23.702  1.00  0.00     0.009 C 
ENDBRANCH  17  21
ENDBRANCH  15  17
ENDBRANCH  13  15
ENDBRANCH   4   7
ENDBRANCH   2   3
ENDBRANCH   1   2
BRANCH   1  24
ATOM     24  C   UNL A   1      32.415  29.731  27.140  1.00  0.00     0.002 C 
BRANCH  24  25
ATOM     25  C   UNL A   1      31.635  30.634  26.180  1.00  0.00     0.002 C 
BRANCH  25  26
ATOM     26  C   UNL A   1      31.406  32.085  26.603  1.00  0.00     0.021 C 
BRANCH  26  27
ATOM     27  C   UNL A   1      32.579  32.798  27.265  1.00  0.00     0.116 C 
BRANCH  27  28
ATOM     28  N   UNL A   1      32.304  34.182  27.608  1.00  0.00    -0.352 N 
ATOM     29  C   UNL A   1      32.947  35.009  28.498  1.00  0.00     0.251 C 
ATOM     30  H   UNL A   1      31.543  34.588  27.133  1.00  0.00     0.163 HD
ATOM     31  O   UNL A   1      32.509  36.136  28.717  1.00  0.00    -0.269 OA
BRANCH  29  32
ATOM     32  C   UNL A   1      34.147  34.537  29.228  1.00  0.00     0.039 A 
ATOM     33  C   UNL A   1      33.981  33.974  30.496  1.00  0.00     0.014 A 
ATOM     34  C   UNL A   1      35.426  34.645  28.675  1.00  0.00     0.014 A 
ATOM     35  C   UNL A   1      35.084  33.450  31.176  1.00  0.00     0.010 A 
ATOM     36  C   UNL A   1      36.513  34.058  29.322  1.00  0.00     0.010 A 
ATOM     37  C   UNL A   1      36.353  33.451  30.577  1.00  0.00    -0.014 A 
BRANCH  37  38
ATOM     38  C   UNL A   1      37.520  32.812  31.240  1.00  0.00     0.031 A 
ATOM     39  C   UNL A   1      38.182  31.612  30.621  1.00  0.00     0.074 A 
ATOM     40  C   UNL A   1      37.943  33.270  32.435  1.00  0.00     0.049 A 
ATOM     41  N   UNL A   1      39.158  30.874  31.086  1.00  0.00    -0.248 NA
ATOM     42  C   UNL A   1      37.659  31.166  29.321  1.00  0.00     0.031 C 
ATOM     43  C   UNL A   1      37.360  34.398  33.164  1.00  0.00     0.029 A 
ATOM     44  N   UNL A   1      38.953  32.834  33.255  1.00  0.00    -0.354 N 
ATOM     45  C   UNL A   1      39.356  29.872  30.145  1.00  0.00     0.074 A 
ATOM     46  C   UNL A   1      38.364  30.064  29.108  1.00  0.00     0.031 C 
ATOM     47  C   UNL A   1      38.034  34.578  34.310  1.00  0.00     0.029 A 
ATOM     48  C   UNL A   1      39.071  33.557  34.419  1.00  0.00     0.049 A 
ATOM     49  H   UNL A   1      39.539  32.076  33.031  1.00  0.00     0.167 HD
ATOM     50  C   UNL A   1      40.291  28.892  30.134  1.00  0.00     0.037 A 
ATOM     51  C   UNL A   1      39.912  33.408  35.459  1.00  0.00     0.037 A 
ATOM     52  C   UNL A   1      41.292  28.715  31.153  1.00  0.00     0.049 A 
ATOM     53  C   UNL A   1      40.939  32.309  35.426  1.00  0.00     0.074 A 
ATOM     54  C   UNL A   1      42.319  27.788  31.202  1.00  0.00     0.029 A 
ATOM     55  N   UNL A   1      41.390  29.481  32.305  1.00  0.00    -0.354 N 
ATOM     56  N   UNL A   1      41.154  31.408  34.499  1.00  0.00    -0.248 NA
ATOM     57  C   UNL A   1      41.841  32.209  36.583  1.00  0.00     0.031 C 
ATOM     58  C   UNL A   1      43.011  27.965  32.405  1.00  0.00     0.029 A 
ATOM     59  C   UNL A   1      42.447  29.034  33.081  1.00  0.00     0.049 A 
ATOM     60  H   UNL A   1      40.797  30.231  32.537  1.00  0.00     0.167 HD
ATOM     61  C   UNL A   1      42.236  30.658  34.943  1.00  0.00     0.074 A 
ATOM     62  C   UNL A   1      42.636  31.213  36.217  1.00  0.00     0.031 C 
ATOM     63  C   UNL A   1      42.844  29.605  34.343  1.00  0.00     0.037 A 
BRANCH  50  64
ATOM     64  C   UNL A   1      40.278  27.933  28.977  1.00  0.00     0.057 A 
ATOM     65  C   UNL A   1      40.999  28.184  27.802  1.00  0.00     0.134 A 
ATOM     66  C   UNL A   1      39.564  26.731  29.052  1.00  0.00     0.134 A 
ATOM     67  F   UNL A   1      41.696  29.321  27.661  1.00  0.00    -0.206 F 
ATOM     68  C   UNL A   1      40.987  27.286  26.732  1.00  0.00     0.040 A 
ATOM     69  C   UNL A   1      39.567  25.813  28.001  1.00  0.00     0.040 A 
ATOM     70  F   UNL A   1      38.858  26.424  30.150  1.00  0.00    -0.206 F 
ATOM     71  C   UNL A   1      40.275  26.093  26.833  1.00  0.00     0.006 A 
ENDBRANCH  50  64
BRANCH  51  72
ATOM     72  C   UNL A   1      39.839  34.341  36.612  1.00  0.00     0.057 A 
ATOM     73  C   UNL A   1      39.086  34.024  37.750  1.00  0.00     0.134 A 
ATOM     74  C   UNL A   1      40.512  35.569  36.606  1.00  0.00     0.134 A 
ATOM     75  F   UNL A   1      38.405  32.870  37.807  1.00  0.00    -0.206 F 
ATOM     76  C   UNL A   1      38.989  34.901  38.830  1.00  0.00     0.040 A 
ATOM     77  C   UNL A   1      40.444  36.445  37.690  1.00  0.00     0.040 A 
ATOM     78  F   UNL A   1      41.257  35.928  35.550  1.00  0.00    -0.206 F 
ATOM     79  C   UNL A   1      39.674  36.114  38.804  1.00  0.00     0.006 A 
ENDBRANCH  51  72
BRANCH  63  80
ATOM     80  C   UNL A   1      44.035  29.011  35.035  1.00  0.00     0.057 A 
ATOM     81  C   UNL A   1      43.912  27.965  35.958  1.00  0.00     0.134 A 
ATOM     82  C   UNL A   1      45.328  29.459  34.733  1.00  0.00     0.134 A 
ATOM     83  F   UNL A   1      42.702  27.499  36.300  1.00  0.00    -0.206 F 
ATOM     84  C   UNL A   1      45.032  27.399  36.571  1.00  0.00     0.040 A 
ATOM     85  C   UNL A   1      46.456  28.883  35.320  1.00  0.00     0.040 A 
ATOM     86  F   UNL A   1      45.516  30.451  33.851  1.00  0.00    -0.206 F 
ATOM     87  C   UNL A   1      46.308  27.853  36.245  1.00  0.00     0.006 A 
ENDBRANCH  63  80
ENDBRANCH  37  38
ENDBRANCH  29  32
ENDBRANCH  27  28
ENDBRANCH  26  27
ENDBRANCH  25  26
ENDBRANCH  24  25
ENDBRANCH   1  24
TORSDOF 18
ENDMDL
MODEL 2
REMARK VINA RESULT:     -10.9      0.972      6.300
REMARK SMILES Cc1cc(C)c(C(=O)NCCCCCCNC(=O)c2ccc(-c3c4nc(c(-c5c(F)cccc5F)c5ccc([nH]5)c(-c5c(F)cccc5F)c5nc(c(-c6c(F)cccc6F)c6ccc3[nH]6)C=C5)C=C4)cc2)c(N[C@@H](CO)C(C)C)n1
REMARK SMILES IDX 11 1 10 2 9 3 7 4 8 5 6 7 1 8 2 9 3 10 81 11 4 12 73 13 5 14
REMARK SMILES IDX 74 15 75 17 76 18 77 19 78 21 79 22 80 23 12 24 13 25 14 26
REMARK SMILES IDX 15 27 16 28 17 29 18 31 19 32 20 33 72 34 21 35 71 36 22 37
REMARK SMILES IDX 23 38 24 39 65 40 25 41 70 42 64 43 66 44 26 45 69 46 63 47
REMARK SMILES IDX 62 48 27 50 53 51 36 52 52 53 37 54 40 55 51 56 67 57 38 58
REMARK SMILES IDX 39 59 50 61 68 62 41 63 28 64 29 65 34 66 30 67 31 68 33 69
REMARK SMILES IDX 35 70 32 71 54 72 55 73 60 74 56 75 57 76 59 77 61 78 58 79
REMARK SMILES IDX 42 80 43 81 48 82 44 83 45 84 47 85 49 86 46 87
REMARK H PARENT 9 6 74 16 77 20 16 30 66 49 40 60
REMARK Flexibility Score: inf
ROOT
ATOM      1  C   UNL A   1      31.785  28.184  27.519  1.00  0.00     0.021 C 
ENDROOT
BRANCH   1   2
ATOM      2  C   UNL A   1      32.259  27.039  26.627  1.00  0.00     0.116 C 
BRANCH   2   3
ATOM      3  N   UNL A   1      31.332  25.936  26.485  1.00  0.00    -0.352 N 
ATOM      4  C   UNL A   1      31.520  24.647  26.028  1.00  0.00     0.255 C 
ATOM      5  O   UNL A   1      30.543  23.895  26.056  1.00  0.00    -0.269 OA
ATOM      6  H   UNL A   1      30.409  26.141  26.761  1.00  0.00     0.163 HD
BRANCH   4   7
ATOM      7  C   UNL A   1      32.806  24.151  25.439  1.00  0.00     0.085 A 
ATOM      8  C   UNL A   1      36.430  23.081  23.458  1.00  0.00     0.067 C 
ATOM      9  C   UNL A   1      35.156  23.415  24.169  1.00  0.00     0.040 A 
ATOM     10  C   UNL A   1      34.962  23.047  25.487  1.00  0.00     0.028 A 
ATOM     11  N   UNL A   1      34.207  24.056  23.466  1.00  0.00    -0.236 NA
ATOM     12  C   UNL A   1      33.749  23.354  26.122  1.00  0.00    -0.033 A 
ATOM     13  C   UNL A   1      33.043  24.409  24.066  1.00  0.00     0.139 A 
ATOM     14  C   UNL A   1      33.541  22.727  27.468  1.00  0.00     0.045 C 
BRANCH  13  15
ATOM     15  N   UNL A   1      32.107  25.029  23.252  1.00  0.00    -0.364 N 
ATOM     16  H   UNL A   1      31.180  24.699  23.246  1.00  0.00     0.162 HD
BRANCH  15  17
ATOM     17  C   UNL A   1      32.467  26.169  22.398  1.00  0.00     0.108 C 
BRANCH  17  18
ATOM     18  C   UNL A   1      32.686  25.658  20.952  1.00  0.00     0.181 C 
BRANCH  18  19
ATOM     19  O   UNL A   1      31.546  25.878  20.123  1.00  0.00    -0.394 OA
ATOM     20  H   UNL A   1      30.868  25.213  20.320  1.00  0.00     0.210 HD
ENDBRANCH  18  19
ENDBRANCH  17  18
BRANCH  17  21
ATOM     21  C   UNL A   1      31.370  27.260  22.509  1.00  0.00     0.007 C 
ATOM     22  C   UNL A   1      30.176  26.753  23.332  1.00  0.00     0.009 C 
ATOM     23  C   UNL A   1      31.907  28.539  23.164  1.00  0.00     0.009 C 
ENDBRANCH  17  21
ENDBRANCH  15  17
ENDBRANCH  13  15
ENDBRANCH   4   7
ENDBRANCH   2   3
ENDBRANCH   1   2
BRANCH   1  24
ATOM     24  C   UNL A   1      32.340  29.583  27.217  1.00  0.00     0.002 C 
BRANCH  24  25
ATOM     25  C   UNL A   1      31.543  30.482  26.267  1.00  0.00     0.002 C 
BRANCH  25  26
ATOM     26  C   UNL A   1      31.438  31.966  26.620  1.00  0.00     0.021 C 
BRANCH  26  27
ATOM     27  C   UNL A   1      32.711  32.644  27.111  1.00  0.00     0.116 C 
BRANCH  27  28
ATOM     28  N   UNL A   1      32.499  33.988  27.619  1.00  0.00    -0.352 N 
ATOM     29  C   UNL A   1      33.174  34.669  28.603  1.00  0.00     0.251 C 
ATOM     30  H   UNL A   1      31.761  34.484  27.196  1.00  0.00     0.163 HD
ATOM     31  O   UNL A   1      32.788  35.781  28.957  1.00  0.00    -0.269 OA
BRANCH  29  32
ATOM     32  C   UNL A   1      34.345  34.056  29.272  1.00  0.00     0.039 A 
ATOM     33  C   UNL A   1      34.124  33.167  30.328  1.00  0.00     0.014 A 
ATOM     34  C   UNL A   1      35.650  34.349  28.869  1.00  0.00     0.014 A 
ATOM     35  C   UNL A   1      35.205  32.515  30.927  1.00  0.00     0.010 A 
ATOM     36  C   UNL A   1      36.721  33.644  29.419  1.00  0.00     0.010 A 
ATOM     37  C   UNL A   1      36.509  32.717  30.451  1.00  0.00    -0.014 A 
BRANCH  37  38
ATOM     38  C   UNL A   1      37.660  31.960  31.008  1.00  0.00     0.031 A 
ATOM     39  C   UNL A   1      38.214  32.305  32.363  1.00  0.00     0.074 A 
ATOM     40  C   UNL A   1      38.255  31.005  30.264  1.00  0.00     0.049 A 
ATOM     41  N   UNL A   1      39.257  31.812  32.982  1.00  0.00    -0.248 NA
ATOM     42  C   UNL A   1      37.518  33.364  33.110  1.00  0.00     0.031 C 
ATOM     43  C   UNL A   1      37.844  30.604  28.917  1.00  0.00     0.029 A 
ATOM     44  N   UNL A   1      39.339  30.207  30.531  1.00  0.00    -0.354 N 
ATOM     45  C   UNL A   1      39.350  32.508  34.180  1.00  0.00     0.074 A 
ATOM     46  C   UNL A   1      38.290  33.494  34.179  1.00  0.00     0.031 C 
ATOM     47  C   UNL A   1      38.652  29.624  28.484  1.00  0.00     0.029 A 
ATOM     48  C   UNL A   1      39.661  29.352  29.503  1.00  0.00     0.049 A 
ATOM     49  H   UNL A   1      39.839  30.243  31.378  1.00  0.00     0.167 HD
ATOM     50  C   UNL A   1      40.226  32.329  35.198  1.00  0.00     0.037 A 
ATOM     51  C   UNL A   1      40.661  28.457  29.391  1.00  0.00     0.037 A 
ATOM     52  C   UNL A   1      41.265  31.333  35.208  1.00  0.00     0.049 A 
ATOM     53  C   UNL A   1      41.624  28.281  30.533  1.00  0.00     0.074 A 
ATOM     54  C   UNL A   1      42.165  31.036  36.217  1.00  0.00     0.029 A 
ATOM     55  N   UNL A   1      41.545  30.473  34.157  1.00  0.00    -0.354 N 
ATOM     56  N   UNL A   1      41.660  28.903  31.686  1.00  0.00    -0.248 NA
ATOM     57  C   UNL A   1      42.683  27.276  30.359  1.00  0.00     0.031 C 
ATOM     58  C   UNL A   1      43.018  30.027  35.759  1.00  0.00     0.029 A 
ATOM     59  C   UNL A   1      42.616  29.660  34.485  1.00  0.00     0.049 A 
ATOM     60  H   UNL A   1      41.054  30.445  33.304  1.00  0.00     0.167 HD
ATOM     61  C   UNL A   1      42.721  28.342  32.387  1.00  0.00     0.074 A 
ATOM     62  C   UNL A   1      43.296  27.326  31.533  1.00  0.00     0.031 C 
ATOM     63  C   UNL A   1      43.172  28.642  33.630  1.00  0.00     0.037 A 
BRANCH  50  64
ATOM     64  C   UNL A   1      40.094  33.232  36.392  1.00  0.00     0.057 A 
ATOM     65  C   UNL A   1      39.208  32.948  37.439  1.00  0.00     0.134 A 
ATOM     66  C   UNL A   1      40.888  34.380  36.512  1.00  0.00     0.134 A 
ATOM     67  F   UNL A   1      38.412  31.870  37.382  1.00  0.00    -0.206 F 
ATOM     68  C   UNL A   1      39.094  33.788  38.549  1.00  0.00     0.040 A 
ATOM     69  C   UNL A   1      40.804  35.212  37.629  1.00  0.00     0.040 A 
ATOM     70  F   UNL A   1      41.763  34.707  35.550  1.00  0.00    -0.206 F 
ATOM     71  C   UNL A   1      39.900  34.920  38.649  1.00  0.00     0.006 A 
ENDBRANCH  50  64
BRANCH  51  72
ATOM     72  C   UNL A   1      40.788  27.637  28.160  1.00  0.00     0.057 A 
ATOM     73  C   UNL A   1      41.524  28.096  27.060  1.00  0.00     0.134 A 
ATOM     74  C   UNL A   1      40.177  26.382  28.049  1.00  0.00     0.134 A 
ATOM     75  F   UNL A   1      42.116  29.298  27.100  1.00  0.00    -0.206 F 
ATOM     76  C   UNL A   1      41.632  27.347  25.888  1.00  0.00     0.040 A 
ATOM     77  C   UNL A   1      40.298  25.610  26.892  1.00  0.00     0.040 A 
ATOM     78  F   UNL A   1      39.466  25.882  29.070  1.00  0.00    -0.206 F 
ATOM     79  C   UNL A   1      41.022  26.096  25.804  1.00  0.00     0.006 A 
ENDBRANCH  51  72
BRANCH  63  80
ATOM     80  C   UNL A   1      44.318  27.832  34.161  1.00  0.00     0.057 A 
ATOM     81  C   UNL A   1      44.124  26.599  34.797  1.00  0.00     0.134 A 
ATOM     82  C   UNL A   1      45.638  28.270  33.987  1.00  0.00     0.134 A 
ATOM     83  F   UNL A   1      42.885  26.130  35.006  1.00  0.00    -0.206 F 
ATOM     84  C   UNL A   1      45.201  25.840  35.258  1.00  0.00     0.040 A 
ATOM     85  C   UNL A   1      46.723  27.507  34.420  1.00  0.00     0.040 A 
ATOM     86  F   UNL A   1      45.893  29.437  33.378  1.00  0.00    -0.206 F 
ATOM     87  C   UNL A   1      46.505  26.290  35.062  1.00  0.00     0.006 A 
ENDBRANCH  63  80
ENDBRANCH  37  38
ENDBRANCH  29  32
ENDBRANCH  27  28
ENDBRANCH  26  27
ENDBRANCH  25  26
ENDBRANCH  24  25
ENDBRANCH   1  24
TORSDOF 18
ENDMDL
MODEL 3
REMARK VINA RESULT:     -10.8      4.021      8.295
REMARK SMILES Cc1cc(C)c(C(=O)NCCCCCCNC(=O)c2ccc(-c3c4nc(c(-c5c(F)cccc5F)c5ccc([nH]5)c(-c5c(F)cccc5F)c5nc(c(-c6c(F)cccc6F)c6ccc3[nH]6)C=C5)C=C4)cc2)c(N[C@@H](CO)C(C)C)n1
REMARK SMILES IDX 11 1 10 2 9 3 7 4 8 5 6 7 1 8 2 9 3 10 81 11 4 12 73 13 5 14
REMARK SMILES IDX 74 15 75 17 76 18 77 19 78 21 79 22 80 23 12 24 13 25 14 26
REMARK SMILES IDX 15 27 16 28 17 29 18 31 19 32 20 33 72 34 21 35 71 36 22 37
REMARK SMILES IDX 23 38 24 39 65 40 25 41 70 42 64 43 66 44 26 45 69 46 63 47
REMARK SMILES IDX 62 48 27 50 53 51 36 52 52 53 37 54 40 55 51 56 67 57 38 58
REMARK SMILES IDX 39 59 50 61 68 62 41 63 28 64 29 65 34 66 30 67 31 68 33 69
REMARK SMILES IDX 35 70 32 71 54 72 55 73 60 74 56 75 57 76 59 77 61 78 58 79
REMARK SMILES IDX 42 80 43 81 48 82 44 83 45 84 47 85 49 86 46 87
REMARK H PARENT 9 6 74 16 77 20 16 30 66 49 40 60
REMARK Flexibility Score: inf
ROOT
ATOM      1  C   UNL A   1      31.560  25.110  26.336  1.00  0.00     0.021 C 
ENDROOT
BRANCH   1   2
ATOM      2  C   UNL A   1      32.020  23.832  25.638  1.00  0.00     0.116 C 
BRANCH   2   3
ATOM      3  N   UNL A   1      32.847  24.028  24.465  1.00  0.00    -0.352 N 
ATOM      4  C   UNL A   1      33.426  23.118  23.604  1.00  0.00     0.255 C 
ATOM      5  O   UNL A   1      34.056  23.576  22.647  1.00  0.00    -0.269 OA
ATOM      6  H   UNL A   1      33.027  24.970  24.245  1.00  0.00     0.163 HD
BRANCH   4   7
ATOM      7  C   UNL A   1      33.394  21.634  23.813  1.00  0.00     0.085 A 
ATOM      8  C   UNL A   1      33.511  17.487  24.812  1.00  0.00     0.067 C 
ATOM      9  C   UNL A   1      33.466  18.931  24.418  1.00  0.00     0.040 A 
ATOM     10  C   UNL A   1      32.516  19.394  23.528  1.00  0.00     0.028 A 
ATOM     11  N   UNL A   1      34.401  19.743  24.942  1.00  0.00    -0.236 NA
ATOM     12  C   UNL A   1      32.510  20.749  23.160  1.00  0.00    -0.033 A 
ATOM     13  C   UNL A   1      34.392  21.066  24.643  1.00  0.00     0.139 A 
ATOM     14  C   UNL A   1      31.595  21.114  22.031  1.00  0.00     0.045 C 
BRANCH  13  15
ATOM     15  N   UNL A   1      35.418  21.817  25.196  1.00  0.00    -0.364 N 
ATOM     16  H   UNL A   1      35.241  22.355  26.002  1.00  0.00     0.162 HD
BRANCH  15  17
ATOM     17  C   UNL A   1      36.763  21.832  24.606  1.00  0.00     0.108 C 
BRANCH  17  18
ATOM     18  C   UNL A   1      37.045  23.247  24.043  1.00  0.00     0.181 C 
BRANCH  18  19
ATOM     19  O   UNL A   1      37.028  23.274  22.616  1.00  0.00    -0.394 OA
ATOM     20  H   UNL A   1      36.279  23.810  22.311  1.00  0.00     0.210 HD
ENDBRANCH  18  19
ENDBRANCH  17  18
BRANCH  17  21
ATOM     21  C   UNL A   1      37.795  21.373  25.670  1.00  0.00     0.007 C 
ATOM     22  C   UNL A   1      38.574  20.143  25.182  1.00  0.00     0.009 C 
ATOM     23  C   UNL A   1      38.797  22.486  26.005  1.00  0.00     0.009 C 
ENDBRANCH  17  21
ENDBRANCH  15  17
ENDBRANCH  13  15
ENDBRANCH   4   7
ENDBRANCH   2   3
ENDBRANCH   1   2
BRANCH   1  24
ATOM     24  C   UNL A   1      31.152  26.289  25.442  1.00  0.00     0.002 C 
BRANCH  24  25
ATOM     25  C   UNL A   1      31.851  27.633  25.662  1.00  0.00     0.002 C 
BRANCH  25  26
ATOM     26  C   UNL A   1      32.289  27.977  27.086  1.00  0.00     0.021 C 
BRANCH  26  27
ATOM     27  C   UNL A   1      33.677  28.586  27.247  1.00  0.00     0.116 C 
BRANCH  27  28
ATOM     28  N   UNL A   1      33.662  29.960  27.714  1.00  0.00    -0.352 N 
ATOM     29  C   UNL A   1      34.662  30.697  28.302  1.00  0.00     0.251 C 
ATOM     30  H   UNL A   1      32.808  30.435  27.593  1.00  0.00     0.163 HD
ATOM     31  O   UNL A   1      34.430  31.831  28.713  1.00  0.00    -0.269 OA
BRANCH  29  32
ATOM     32  C   UNL A   1      36.014  30.118  28.483  1.00  0.00     0.039 A 
ATOM     33  C   UNL A   1      36.917  30.179  27.417  1.00  0.00     0.014 A 
ATOM     34  C   UNL A   1      36.395  29.519  29.686  1.00  0.00     0.014 A 
ATOM     35  C   UNL A   1      38.223  29.710  27.583  1.00  0.00     0.010 A 
ATOM     36  C   UNL A   1      37.718  29.118  29.873  1.00  0.00     0.010 A 
ATOM     37  C   UNL A   1      38.646  29.213  28.825  1.00  0.00    -0.014 A 
BRANCH  37  38
ATOM     38  C   UNL A   1      40.056  28.802  29.051  1.00  0.00     0.031 A 
ATOM     39  C   UNL A   1      41.040  29.761  29.662  1.00  0.00     0.074 A 
ATOM     40  C   UNL A   1      40.471  27.586  28.643  1.00  0.00     0.049 A 
ATOM     41  N   UNL A   1      42.325  29.612  29.867  1.00  0.00    -0.248 NA
ATOM     42  C   UNL A   1      40.515  31.073  30.074  1.00  0.00     0.031 C 
ATOM     43  C   UNL A   1      39.629  26.577  27.997  1.00  0.00     0.029 A 
ATOM     44  N   UNL A   1      41.709  26.995  28.700  1.00  0.00    -0.354 N 
ATOM     45  C   UNL A   1      42.762  30.811  30.415  1.00  0.00     0.074 A 
ATOM     46  C   UNL A   1      41.617  31.696  30.463  1.00  0.00     0.031 C 
ATOM     47  C   UNL A   1      40.368  25.488  27.735  1.00  0.00     0.029 A 
ATOM     48  C   UNL A   1      41.744  25.732  28.159  1.00  0.00     0.049 A 
ATOM     49  H   UNL A   1      42.498  27.435  29.091  1.00  0.00     0.167 HD
ATOM     50  C   UNL A   1      44.000  31.139  30.857  1.00  0.00     0.037 A 
ATOM     51  C   UNL A   1      42.768  24.871  28.012  1.00  0.00     0.037 A 
ATOM     52  C   UNL A   1      45.132  30.250  30.831  1.00  0.00     0.049 A 
ATOM     53  C   UNL A   1      44.135  25.260  28.506  1.00  0.00     0.074 A 
ATOM     54  C   UNL A   1      46.413  30.470  31.308  1.00  0.00     0.029 A 
ATOM     55  N   UNL A   1      45.120  28.972  30.293  1.00  0.00    -0.354 N 
ATOM     56  N   UNL A   1      44.519  26.374  29.080  1.00  0.00    -0.248 NA
ATOM     57  C   UNL A   1      45.209  24.271  28.334  1.00  0.00     0.031 C 
ATOM     58  C   UNL A   1      47.187  29.342  31.021  1.00  0.00     0.029 A 
ATOM     59  C   UNL A   1      46.376  28.399  30.410  1.00  0.00     0.049 A 
ATOM     60  H   UNL A   1      44.335  28.536  29.890  1.00  0.00     0.167 HD
ATOM     61  C   UNL A   1      45.867  26.207  29.370  1.00  0.00     0.074 A 
ATOM     62  C   UNL A   1      46.232  24.883  28.915  1.00  0.00     0.031 C 
ATOM     63  C   UNL A   1      46.723  27.074  29.964  1.00  0.00     0.037 A 
BRANCH  50  64
ATOM     64  C   UNL A   1      44.194  32.521  31.414  1.00  0.00     0.057 A 
ATOM     65  C   UNL A   1      44.564  33.599  30.599  1.00  0.00     0.134 A 
ATOM     66  C   UNL A   1      43.975  32.783  32.772  1.00  0.00     0.134 A 
ATOM     67  F   UNL A   1      44.799  33.415  29.292  1.00  0.00    -0.206 F 
ATOM     68  C   UNL A   1      44.738  34.883  31.122  1.00  0.00     0.040 A 
ATOM     69  C   UNL A   1      44.117  34.067  33.300  1.00  0.00     0.040 A 
ATOM     70  F   UNL A   1      43.611  31.798  33.606  1.00  0.00    -0.206 F 
ATOM     71  C   UNL A   1      44.507  35.121  32.475  1.00  0.00     0.006 A 
ENDBRANCH  50  64
BRANCH  51  72
ATOM     72  C   UNL A   1      42.538  23.541  27.392  1.00  0.00     0.057 A 
ATOM     73  C   UNL A   1      42.195  22.430  28.173  1.00  0.00     0.134 A 
ATOM     74  C   UNL A   1      42.660  23.346  26.011  1.00  0.00     0.134 A 
ATOM     75  F   UNL A   1      42.082  22.552  29.504  1.00  0.00    -0.206 F 
ATOM     76  C   UNL A   1      42.000  21.170  27.607  1.00  0.00     0.040 A 
ATOM     77  C   UNL A   1      42.443  22.096  25.428  1.00  0.00     0.040 A 
ATOM     78  F   UNL A   1      42.978  24.371  25.207  1.00  0.00    -0.206 F 
ATOM     79  C   UNL A   1      42.119  21.002  26.229  1.00  0.00     0.006 A 
ENDBRANCH  51  72
BRANCH  63  80
ATOM     80  C   UNL A   1      48.129  26.604  30.198  1.00  0.00     0.057 A 
ATOM     81  C   UNL A   1      48.488  25.875  31.338  1.00  0.00     0.134 A 
ATOM     82  C   UNL A   1      49.125  26.841  29.241  1.00  0.00     0.134 A 
ATOM     83  F   UNL A   1      47.584  25.626  32.298  1.00  0.00    -0.206 F 
ATOM     84  C   UNL A   1      49.793  25.415  31.529  1.00  0.00     0.040 A 
ATOM     85  C   UNL A   1      50.426  26.363  29.408  1.00  0.00     0.040 A 
ATOM     86  F   UNL A   1      48.845  27.525  28.122  1.00  0.00    -0.206 F 
ATOM     87  C   UNL A   1      50.763  25.652  30.557  1.00  0.00     0.006 A 
ENDBRANCH  63  80
ENDBRANCH  37  38
ENDBRANCH  29  32
ENDBRANCH  27  28
ENDBRANCH  26  27
ENDBRANCH  25  26
ENDBRANCH  24  25
ENDBRANCH   1  24
TORSDOF 18
ENDMDL
