MODEL 1
REMARK VINA RESULT:      -8.7      0.000      0.000
REMARK SMILES COCc1cccc(O[C@@H](F)C(=O)NCCCCCCNC(=O)c2ccc(-c3c4nc(c(-c5c(F)cccc5F)c5ccc([nH]5)c(-c5c(F)cccc5F)c5nc(c(-c6c(F)cccc6F)c6ccc3[nH]6)C=C5)C=C4)cc2)c1
REMARK SMILES IDX 16 1 15 2 14 3 12 4 13 5 10 7 11 8 9 9 8 10 4 11 5 12 78 13
REMARK SMILES IDX 6 14 7 15 3 16 2 17 1 18 17 19 18 20 19 21 20 22 21 23 22 24
REMARK SMILES IDX 23 26 24 27 25 28 77 29 26 30 76 31 27 32 28 33 29 34 70 35
REMARK SMILES IDX 30 36 75 37 69 38 71 39 31 40 74 41 68 42 67 43 32 45 58 46
REMARK SMILES IDX 41 47 57 48 42 49 45 50 56 51 72 52 43 53 44 54 55 56 73 57
REMARK SMILES IDX 46 58 33 59 34 60 39 61 35 62 36 63 38 64 40 65 37 66 59 67
REMARK SMILES IDX 60 68 65 69 61 70 62 71 64 72 66 73 63 74 47 75 48 76 53 77
REMARK SMILES IDX 49 78 50 79 52 80 54 81 51 82
REMARK H PARENT 14 6 21 25 71 44 45 55
REMARK Flexibility Score: inf
ROOT
ATOM      1  C   UNL A   1      34.904  34.542  34.245  1.00  0.00     0.021 C 
ENDROOT
BRANCH   1   2
ATOM      2  C   UNL A   1      36.146  33.658  34.086  1.00  0.00     0.116 C 
BRANCH   2   3
ATOM      3  N   UNL A   1      36.981  33.713  35.271  1.00  0.00    -0.350 N 
ATOM      4  C   UNL A   1      37.966  32.864  35.696  1.00  0.00     0.294 C 
ATOM      5  O   UNL A   1      38.447  33.088  36.814  1.00  0.00    -0.267 OA
ATOM      6  H   UNL A   1      36.811  34.482  35.863  1.00  0.00     0.163 HD
BRANCH   4   7
ATOM      7  C   UNL A   1      38.484  31.679  34.833  1.00  0.00     0.440 C 
ATOM      8  F   UNL A   1      37.883  30.491  35.142  1.00  0.00    -0.191 F 
BRANCH   7   9
ATOM      9  O   UNL A   1      39.898  31.521  34.688  1.00  0.00    -0.452 OA
BRANCH   9  10
ATOM     10  C   UNL A   1      40.377  30.252  34.561  1.00  0.00     0.124 A 
ATOM     11  C   UNL A   1      41.610  28.319  35.372  1.00  0.00    -0.019 A 
ATOM     12  C   UNL A   1      41.377  27.683  34.142  1.00  0.00     0.006 A 
ATOM     13  C   UNL A   1      41.029  29.573  35.589  1.00  0.00     0.052 A 
ATOM     14  C   UNL A   1      40.612  28.305  33.153  1.00  0.00     0.004 A 
ATOM     15  C   UNL A   1      40.125  29.597  33.358  1.00  0.00     0.046 A 
BRANCH  11  16
ATOM     16  C   UNL A   1      42.532  27.668  36.381  1.00  0.00     0.195 C 
BRANCH  16  17
ATOM     17  O   UNL A   1      41.896  26.808  37.327  1.00  0.00    -0.380 OA
ATOM     18  C   UNL A   1      41.983  25.423  37.017  1.00  0.00     0.195 C 
ENDBRANCH  16  17
ENDBRANCH  11  16
ENDBRANCH   9  10
ENDBRANCH   7   9
ENDBRANCH   4   7
ENDBRANCH   2   3
ENDBRANCH   1   2
BRANCH   1  19
ATOM     19  C   UNL A   1      34.582  35.392  33.011  1.00  0.00     0.002 C 
BRANCH  19  20
ATOM     20  C   UNL A   1      33.100  35.423  32.607  1.00  0.00     0.002 C 
BRANCH  20  21
ATOM     21  C   UNL A   1      32.662  36.580  31.700  1.00  0.00     0.021 C 
BRANCH  21  22
ATOM     22  C   UNL A   1      33.286  36.621  30.304  1.00  0.00     0.116 C 
BRANCH  22  23
ATOM     23  N   UNL A   1      32.647  35.692  29.390  1.00  0.00    -0.352 N 
ATOM     24  C   UNL A   1      33.134  34.558  28.790  1.00  0.00     0.251 C 
ATOM     25  H   UNL A   1      31.714  35.912  29.163  1.00  0.00     0.163 HD
ATOM     26  O   UNL A   1      32.486  34.022  27.895  1.00  0.00    -0.269 OA
BRANCH  24  27
ATOM     27  C   UNL A   1      34.431  33.963  29.195  1.00  0.00     0.039 A 
ATOM     28  C   UNL A   1      35.562  34.234  28.413  1.00  0.00     0.014 A 
ATOM     29  C   UNL A   1      34.534  33.078  30.272  1.00  0.00     0.014 A 
ATOM     30  C   UNL A   1      36.793  33.649  28.728  1.00  0.00     0.010 A 
ATOM     31  C   UNL A   1      35.774  32.530  30.614  1.00  0.00     0.010 A 
ATOM     32  C   UNL A   1      36.913  32.801  29.840  1.00  0.00    -0.014 A 
BRANCH  32  33
ATOM     33  C   UNL A   1      38.217  32.172  30.184  1.00  0.00     0.031 A 
ATOM     34  C   UNL A   1      39.185  32.876  31.095  1.00  0.00     0.074 A 
ATOM     35  C   UNL A   1      38.554  30.984  29.646  1.00  0.00     0.049 A 
ATOM     36  N   UNL A   1      40.391  32.516  31.460  1.00  0.00    -0.248 NA
ATOM     37  C   UNL A   1      38.749  34.164  31.654  1.00  0.00     0.031 C 
ATOM     38  C   UNL A   1      37.724  30.206  28.725  1.00  0.00     0.029 A 
ATOM     39  N   UNL A   1      39.692  30.228  29.789  1.00  0.00    -0.354 N 
ATOM     40  C   UNL A   1      40.863  33.539  32.274  1.00  0.00     0.074 A 
ATOM     41  C   UNL A   1      39.828  34.549  32.321  1.00  0.00     0.031 C 
ATOM     42  C   UNL A   1      38.376  29.078  28.396  1.00  0.00     0.029 A 
ATOM     43  C   UNL A   1      39.676  29.065  29.059  1.00  0.00     0.049 A 
ATOM     44  H   UNL A   1      40.447  30.495  30.362  1.00  0.00     0.167 HD
ATOM     45  C   UNL A   1      42.042  33.622  32.936  1.00  0.00     0.037 A 
ATOM     46  C   UNL A   1      40.606  28.100  28.933  1.00  0.00     0.037 A 
ATOM     47  C   UNL A   1      43.062  32.605  32.923  1.00  0.00     0.049 A 
ATOM     48  C   UNL A   1      41.904  28.210  29.683  1.00  0.00     0.074 A 
ATOM     49  C   UNL A   1      44.262  32.578  33.611  1.00  0.00     0.029 A 
ATOM     50  N   UNL A   1      42.998  31.433  32.185  1.00  0.00    -0.354 N 
ATOM     51  N   UNL A   1      42.313  29.161  30.488  1.00  0.00    -0.248 NA
ATOM     52  C   UNL A   1      42.865  27.111  29.512  1.00  0.00     0.031 C 
ATOM     53  C   UNL A   1      44.940  31.402  33.267  1.00  0.00     0.029 A 
ATOM     54  C   UNL A   1      44.145  30.683  32.390  1.00  0.00     0.049 A 
ATOM     55  H   UNL A   1      42.249  31.173  31.601  1.00  0.00     0.167 HD
ATOM     56  C   UNL A   1      43.567  28.764  30.935  1.00  0.00     0.074 A 
ATOM     57  C   UNL A   1      43.848  27.483  30.322  1.00  0.00     0.031 C 
ATOM     58  C   UNL A   1      44.409  29.407  31.779  1.00  0.00     0.037 A 
BRANCH  45  59
ATOM     59  C   UNL A   1      42.296  34.863  33.739  1.00  0.00     0.057 A 
ATOM     60  C   UNL A   1      41.946  34.947  35.093  1.00  0.00     0.134 A 
ATOM     61  C   UNL A   1      42.928  35.971  33.162  1.00  0.00     0.134 A 
ATOM     62  F   UNL A   1      41.327  33.924  35.700  1.00  0.00    -0.206 F 
ATOM     63  C   UNL A   1      42.196  36.100  35.839  1.00  0.00     0.040 A 
ATOM     64  C   UNL A   1      43.203  37.121  33.904  1.00  0.00     0.040 A 
ATOM     65  F   UNL A   1      43.295  35.951  31.872  1.00  0.00    -0.206 F 
ATOM     66  C   UNL A   1      42.831  37.189  35.245  1.00  0.00     0.006 A 
ENDBRANCH  45  59
BRANCH  46  67
ATOM     67  C   UNL A   1      40.336  26.923  28.071  1.00  0.00     0.057 A 
ATOM     68  C   UNL A   1      39.520  25.878  28.517  1.00  0.00     0.134 A 
ATOM     69  C   UNL A   1      40.889  26.812  26.791  1.00  0.00     0.134 A 
ATOM     70  F   UNL A   1      38.981  25.919  29.745  1.00  0.00    -0.206 F 
ATOM     71  C   UNL A   1      39.273  24.755  27.725  1.00  0.00     0.040 A 
ATOM     72  C   UNL A   1      40.634  25.705  25.980  1.00  0.00     0.040 A 
ATOM     73  F   UNL A   1      41.676  27.784  26.308  1.00  0.00    -0.206 F 
ATOM     74  C   UNL A   1      39.828  24.670  26.449  1.00  0.00     0.006 A 
ENDBRANCH  46  67
BRANCH  58  75
ATOM     75  C   UNL A   1      45.701  28.722  32.111  1.00  0.00     0.057 A 
ATOM     76  C   UNL A   1      46.854  28.912  31.339  1.00  0.00     0.134 A 
ATOM     77  C   UNL A   1      45.801  27.892  33.234  1.00  0.00     0.134 A 
ATOM     78  F   UNL A   1      46.819  29.684  30.243  1.00  0.00    -0.206 F 
ATOM     79  C   UNL A   1      48.058  28.285  31.664  1.00  0.00     0.040 A 
ATOM     80  C   UNL A   1      47.005  27.275  33.580  1.00  0.00     0.040 A 
ATOM     81  F   UNL A   1      44.734  27.675  34.018  1.00  0.00    -0.206 F 
ATOM     82  C   UNL A   1      48.137  27.468  32.790  1.00  0.00     0.006 A 
ENDBRANCH  58  75
ENDBRANCH  32  33
ENDBRANCH  24  27
ENDBRANCH  22  23
ENDBRANCH  21  22
ENDBRANCH  20  21
ENDBRANCH  19  20
ENDBRANCH   1  19
TORSDOF 17
ENDMDL
MODEL 2
REMARK VINA RESULT:      -8.7      4.962     11.029
REMARK SMILES COCc1cccc(O[C@@H](F)C(=O)NCCCCCCNC(=O)c2ccc(-c3c4nc(c(-c5c(F)cccc5F)c5ccc([nH]5)c(-c5c(F)cccc5F)c5nc(c(-c6c(F)cccc6F)c6ccc3[nH]6)C=C5)C=C4)cc2)c1
REMARK SMILES IDX 16 1 15 2 14 3 12 4 13 5 10 7 11 8 9 9 8 10 4 11 5 12 78 13
REMARK SMILES IDX 6 14 7 15 3 16 2 17 1 18 17 19 18 20 19 21 20 22 21 23 22 24
REMARK SMILES IDX 23 26 24 27 25 28 77 29 26 30 76 31 27 32 28 33 29 34 70 35
REMARK SMILES IDX 30 36 75 37 69 38 71 39 31 40 74 41 68 42 67 43 32 45 58 46
REMARK SMILES IDX 41 47 57 48 42 49 45 50 56 51 72 52 43 53 44 54 55 56 73 57
REMARK SMILES IDX 46 58 33 59 34 60 39 61 35 62 36 63 38 64 40 65 37 66 59 67
REMARK SMILES IDX 60 68 65 69 61 70 62 71 64 72 66 73 63 74 47 75 48 76 53 77
REMARK SMILES IDX 49 78 50 79 52 80 54 81 51 82
REMARK H PARENT 14 6 21 25 71 44 45 55
REMARK Flexibility Score: inf
ROOT
ATOM      1  C   UNL A   1      46.237  22.494  25.708  1.00  0.00     0.021 C 
ENDROOT
BRANCH   1   2
ATOM      2  C   UNL A   1      46.245  23.714  24.781  1.00  0.00     0.116 C 
BRANCH   2   3
ATOM      3  N   UNL A   1      44.955  24.379  24.783  1.00  0.00    -0.350 N 
ATOM      4  C   UNL A   1      44.641  25.694  25.000  1.00  0.00     0.294 C 
ATOM      5  O   UNL A   1      43.437  25.974  25.056  1.00  0.00    -0.267 OA
ATOM      6  H   UNL A   1      44.186  23.793  24.601  1.00  0.00     0.163 HD
BRANCH   4   7
ATOM      7  C   UNL A   1      45.722  26.801  25.155  1.00  0.00     0.440 C 
ATOM      8  F   UNL A   1      46.927  26.449  24.614  1.00  0.00    -0.191 F 
BRANCH   7   9
ATOM      9  O   UNL A   1      45.888  27.401  26.443  1.00  0.00    -0.452 OA
BRANCH   9  10
ATOM     10  C   UNL A   1      45.536  28.711  26.573  1.00  0.00     0.124 A 
ATOM     11  C   UNL A   1      46.054  31.084  26.682  1.00  0.00    -0.019 A 
ATOM     12  C   UNL A   1      44.699  31.344  26.946  1.00  0.00     0.006 A 
ATOM     13  C   UNL A   1      46.435  29.764  26.417  1.00  0.00     0.052 A 
ATOM     14  C   UNL A   1      43.767  30.304  26.975  1.00  0.00     0.004 A 
ATOM     15  C   UNL A   1      44.190  28.985  26.803  1.00  0.00     0.046 A 
BRANCH  11  16
ATOM     16  C   UNL A   1      47.056  32.215  26.765  1.00  0.00     0.195 C 
BRANCH  16  17
ATOM     17  O   UNL A   1      46.740  33.372  25.991  1.00  0.00    -0.380 OA
ATOM     18  C   UNL A   1      46.772  34.595  26.717  1.00  0.00     0.195 C 
ENDBRANCH  16  17
ENDBRANCH  11  16
ENDBRANCH   9  10
ENDBRANCH   7   9
ENDBRANCH   4   7
ENDBRANCH   2   3
ENDBRANCH   1   2
BRANCH   1  19
ATOM     19  C   UNL A   1      45.098  21.506  25.429  1.00  0.00     0.002 C 
BRANCH  19  20
ATOM     20  C   UNL A   1      45.478  20.301  24.557  1.00  0.00     0.002 C 
BRANCH  20  21
ATOM     21  C   UNL A   1      44.429  19.187  24.435  1.00  0.00     0.021 C 
BRANCH  21  22
ATOM     22  C   UNL A   1      43.737  18.764  25.731  1.00  0.00     0.116 C 
BRANCH  22  23
ATOM     23  N   UNL A   1      42.291  18.758  25.605  1.00  0.00    -0.352 N 
ATOM     24  C   UNL A   1      41.356  19.660  26.048  1.00  0.00     0.251 C 
ATOM     25  H   UNL A   1      41.921  17.982  25.124  1.00  0.00     0.163 HD
ATOM     26  O   UNL A   1      40.164  19.365  26.004  1.00  0.00    -0.269 OA
BRANCH  24  27
ATOM     27  C   UNL A   1      41.751  20.984  26.586  1.00  0.00     0.039 A 
ATOM     28  C   UNL A   1      42.050  21.089  27.950  1.00  0.00     0.014 A 
ATOM     29  C   UNL A   1      41.743  22.135  25.792  1.00  0.00     0.014 A 
ATOM     30  C   UNL A   1      42.374  22.330  28.508  1.00  0.00     0.010 A 
ATOM     31  C   UNL A   1      42.112  23.367  26.340  1.00  0.00     0.010 A 
ATOM     32  C   UNL A   1      42.420  23.480  27.705  1.00  0.00    -0.014 A 
BRANCH  32  33
ATOM     33  C   UNL A   1      42.761  24.806  28.287  1.00  0.00     0.031 A 
ATOM     34  C   UNL A   1      41.694  25.848  28.483  1.00  0.00     0.074 A 
ATOM     35  C   UNL A   1      44.038  25.094  28.603  1.00  0.00     0.049 A 
ATOM     36  N   UNL A   1      41.809  27.080  28.918  1.00  0.00    -0.248 NA
ATOM     37  C   UNL A   1      40.321  25.463  28.127  1.00  0.00     0.031 C 
ATOM     38  C   UNL A   1      45.176  24.189  28.437  1.00  0.00     0.029 A 
ATOM     39  N   UNL A   1      44.595  26.238  29.120  1.00  0.00    -0.354 N 
ATOM     40  C   UNL A   1      40.529  27.620  28.868  1.00  0.00     0.074 A 
ATOM     41  C   UNL A   1      39.661  26.594  28.330  1.00  0.00     0.031 C 
ATOM     42  C   UNL A   1      46.293  24.808  28.856  1.00  0.00     0.029 A 
ATOM     43  C   UNL A   1      45.955  26.159  29.294  1.00  0.00     0.049 A 
ATOM     44  H   UNL A   1      44.068  27.038  29.346  1.00  0.00     0.167 HD
ATOM     45  C   UNL A   1      40.112  28.850  29.252  1.00  0.00     0.037 A 
ATOM     46  C   UNL A   1      46.833  27.073  29.750  1.00  0.00     0.037 A 
ATOM     47  C   UNL A   1      40.963  29.862  29.822  1.00  0.00     0.049 A 
ATOM     48  C   UNL A   1      46.345  28.428  30.177  1.00  0.00     0.074 A 
ATOM     49  C   UNL A   1      40.615  31.116  30.295  1.00  0.00     0.029 A 
ATOM     50  N   UNL A   1      42.331  29.735  29.998  1.00  0.00    -0.354 N 
ATOM     51  N   UNL A   1      45.124  28.906  30.170  1.00  0.00    -0.248 NA
ATOM     52  C   UNL A   1      47.356  29.370  30.680  1.00  0.00     0.031 C 
ATOM     53  C   UNL A   1      41.778  31.760  30.731  1.00  0.00     0.029 A 
ATOM     54  C   UNL A   1      42.846  30.893  30.559  1.00  0.00     0.049 A 
ATOM     55  H   UNL A   1      42.860  28.939  29.760  1.00  0.00     0.167 HD
ATOM     56  C   UNL A   1      45.217  30.191  30.688  1.00  0.00     0.074 A 
ATOM     57  C   UNL A   1      46.611  30.417  31.008  1.00  0.00     0.031 C 
ATOM     58  C   UNL A   1      44.233  31.103  30.879  1.00  0.00     0.037 A 
BRANCH  45  59
ATOM     59  C   UNL A   1      38.658  29.173  29.071  1.00  0.00     0.057 A 
ATOM     60  C   UNL A   1      37.755  29.125  30.140  1.00  0.00     0.134 A 
ATOM     61  C   UNL A   1      38.165  29.568  27.822  1.00  0.00     0.134 A 
ATOM     62  F   UNL A   1      38.164  28.743  31.358  1.00  0.00    -0.206 F 
ATOM     63  C   UNL A   1      36.406  29.439  29.968  1.00  0.00     0.040 A 
ATOM     64  C   UNL A   1      36.822  29.905  27.642  1.00  0.00     0.040 A 
ATOM     65  F   UNL A   1      38.979  29.640  26.758  1.00  0.00    -0.206 F 
ATOM     66  C   UNL A   1      35.937  29.835  28.717  1.00  0.00     0.006 A 
ENDBRANCH  45  59
BRANCH  46  67
ATOM     67  C   UNL A   1      48.272  26.729  29.847  1.00  0.00     0.057 A 
ATOM     68  C   UNL A   1      49.155  27.028  28.804  1.00  0.00     0.134 A 
ATOM     69  C   UNL A   1      48.796  26.089  30.976  1.00  0.00     0.134 A 
ATOM     70  F   UNL A   1      48.705  27.620  27.688  1.00  0.00    -0.206 F 
ATOM     71  C   UNL A   1      50.509  26.692  28.874  1.00  0.00     0.040 A 
ATOM     72  C   UNL A   1      50.150  25.766  31.068  1.00  0.00     0.040 A 
ATOM     73  F   UNL A   1      47.998  25.780  32.009  1.00  0.00    -0.206 F 
ATOM     74  C   UNL A   1      51.010  26.063  30.013  1.00  0.00     0.006 A 
ENDBRANCH  46  67
BRANCH  58  75
ATOM     75  C   UNL A   1      44.624  32.416  31.487  1.00  0.00     0.057 A 
ATOM     76  C   UNL A   1      44.646  32.608  32.874  1.00  0.00     0.134 A 
ATOM     77  C   UNL A   1      45.016  33.489  30.677  1.00  0.00     0.134 A 
ATOM     78  F   UNL A   1      44.268  31.623  33.702  1.00  0.00    -0.206 F 
ATOM     79  C   UNL A   1      45.028  33.829  33.433  1.00  0.00     0.040 A 
ATOM     80  C   UNL A   1      45.419  34.708  31.225  1.00  0.00     0.040 A 
ATOM     81  F   UNL A   1      45.022  33.367  29.341  1.00  0.00    -0.206 F 
ATOM     82  C   UNL A   1      45.421  34.881  32.608  1.00  0.00     0.006 A 
ENDBRANCH  58  75
ENDBRANCH  32  33
ENDBRANCH  24  27
ENDBRANCH  22  23
ENDBRANCH  21  22
ENDBRANCH  20  21
ENDBRANCH  19  20
ENDBRANCH   1  19
TORSDOF 17
ENDMDL
MODEL 3
REMARK VINA RESULT:      -8.6      4.911     11.003
REMARK SMILES COCc1cccc(O[C@@H](F)C(=O)NCCCCCCNC(=O)c2ccc(-c3c4nc(c(-c5c(F)cccc5F)c5ccc([nH]5)c(-c5c(F)cccc5F)c5nc(c(-c6c(F)cccc6F)c6ccc3[nH]6)C=C5)C=C4)cc2)c1
REMARK SMILES IDX 16 1 15 2 14 3 12 4 13 5 10 7 11 8 9 9 8 10 4 11 5 12 78 13
REMARK SMILES IDX 6 14 7 15 3 16 2 17 1 18 17 19 18 20 19 21 20 22 21 23 22 24
REMARK SMILES IDX 23 26 24 27 25 28 77 29 26 30 76 31 27 32 28 33 29 34 70 35
REMARK SMILES IDX 30 36 75 37 69 38 71 39 31 40 74 41 68 42 67 43 32 45 58 46
REMARK SMILES IDX 41 47 57 48 42 49 45 50 56 51 72 52 43 53 44 54 55 56 73 57
REMARK SMILES IDX 46 58 33 59 34 60 39 61 35 62 36 63 38 64 40 65 37 66 59 67
REMARK SMILES IDX 60 68 65 69 61 70 62 71 64 72 66 73 63 74 47 75 48 76 53 77
REMARK SMILES IDX 49 78 50 79 52 80 54 81 51 82
REMARK H PARENT 14 6 21 25 71 44 45 55
REMARK Flexibility Score: inf
ROOT
ATOM      1  C   UNL A   1      46.171  22.477  25.699  1.00  0.00     0.021 C 
ENDROOT
BRANCH   1   2
ATOM      2  C   UNL A   1      46.207  23.701  24.779  1.00  0.00     0.116 C 
BRANCH   2   3
ATOM      3  N   UNL A   1      44.930  24.392  24.780  1.00  0.00    -0.350 N 
ATOM      4  C   UNL A   1      44.644  25.716  24.978  1.00  0.00     0.294 C 
ATOM      5  O   UNL A   1      43.446  26.020  25.039  1.00  0.00    -0.267 OA
ATOM      6  H   UNL A   1      44.148  23.818  24.614  1.00  0.00     0.163 HD
BRANCH   4   7
ATOM      7  C   UNL A   1      45.747  26.804  25.106  1.00  0.00     0.440 C 
ATOM      8  F   UNL A   1      46.917  26.452  24.492  1.00  0.00    -0.191 F 
BRANCH   7   9
ATOM      9  O   UNL A   1      45.990  27.364  26.400  1.00  0.00    -0.452 OA
BRANCH   9  10
ATOM     10  C   UNL A   1      45.633  28.664  26.595  1.00  0.00     0.124 A 
ATOM     11  C   UNL A   1      46.147  31.026  26.870  1.00  0.00    -0.019 A 
ATOM     12  C   UNL A   1      44.782  31.273  27.093  1.00  0.00     0.006 A 
ATOM     13  C   UNL A   1      46.538  29.723  26.541  1.00  0.00     0.052 A 
ATOM     14  C   UNL A   1      43.850  30.235  27.021  1.00  0.00     0.004 A 
ATOM     15  C   UNL A   1      44.279  28.928  26.786  1.00  0.00     0.046 A 
BRANCH  11  16
ATOM     16  C   UNL A   1      47.145  32.147  27.063  1.00  0.00     0.195 C 
BRANCH  16  17
ATOM     17  O   UNL A   1      47.135  33.157  26.053  1.00  0.00    -0.380 OA
ATOM     18  C   UNL A   1      48.025  34.240  26.294  1.00  0.00     0.195 C 
ENDBRANCH  16  17
ENDBRANCH  11  16
ENDBRANCH   9  10
ENDBRANCH   7   9
ENDBRANCH   4   7
ENDBRANCH   2   3
ENDBRANCH   1   2
BRANCH   1  19
ATOM     19  C   UNL A   1      45.058  21.477  25.365  1.00  0.00     0.002 C 
BRANCH  19  20
ATOM     20  C   UNL A   1      45.518  20.208  24.634  1.00  0.00     0.002 C 
BRANCH  20  21
ATOM     21  C   UNL A   1      44.504  19.059  24.554  1.00  0.00     0.021 C 
BRANCH  21  22
ATOM     22  C   UNL A   1      43.780  18.702  25.853  1.00  0.00     0.116 C 
BRANCH  22  23
ATOM     23  N   UNL A   1      42.339  18.651  25.683  1.00  0.00    -0.352 N 
ATOM     24  C   UNL A   1      41.366  19.540  26.065  1.00  0.00     0.251 C 
ATOM     25  H   UNL A   1      42.007  17.848  25.219  1.00  0.00     0.163 HD
ATOM     26  O   UNL A   1      40.185  19.209  25.995  1.00  0.00    -0.269 OA
BRANCH  24  27
ATOM     27  C   UNL A   1      41.707  20.893  26.567  1.00  0.00     0.039 A 
ATOM     28  C   UNL A   1      41.918  21.061  27.941  1.00  0.00     0.014 A 
ATOM     29  C   UNL A   1      41.732  22.009  25.724  1.00  0.00     0.014 A 
ATOM     30  C   UNL A   1      42.188  22.331  28.463  1.00  0.00     0.010 A 
ATOM     31  C   UNL A   1      42.047  23.269  26.239  1.00  0.00     0.010 A 
ATOM     32  C   UNL A   1      42.268  23.446  27.614  1.00  0.00    -0.014 A 
BRANCH  32  33
ATOM     33  C   UNL A   1      42.552  24.801  28.157  1.00  0.00     0.031 A 
ATOM     34  C   UNL A   1      43.944  25.171  28.591  1.00  0.00     0.074 A 
ATOM     35  C   UNL A   1      41.552  25.692  28.302  1.00  0.00     0.049 A 
ATOM     36  N   UNL A   1      44.373  26.280  29.144  1.00  0.00    -0.248 NA
ATOM     37  C   UNL A   1      44.989  24.156  28.395  1.00  0.00     0.031 C 
ATOM     38  C   UNL A   1      40.151  25.456  27.951  1.00  0.00     0.029 A 
ATOM     39  N   UNL A   1      41.561  26.974  28.795  1.00  0.00    -0.354 N 
ATOM     40  C   UNL A   1      45.729  26.087  29.378  1.00  0.00     0.074 A 
ATOM     41  C   UNL A   1      46.044  24.744  28.940  1.00  0.00     0.031 C 
ATOM     42  C   UNL A   1      39.438  26.561  28.228  1.00  0.00     0.029 A 
ATOM     43  C   UNL A   1      40.323  27.571  28.800  1.00  0.00     0.049 A 
ATOM     44  H   UNL A   1      42.377  27.423  29.114  1.00  0.00     0.167 HD
ATOM     45  C   UNL A   1      46.633  26.954  29.895  1.00  0.00     0.037 A 
ATOM     46  C   UNL A   1      39.944  28.792  29.222  1.00  0.00     0.037 A 
ATOM     47  C   UNL A   1      46.335  28.303  30.300  1.00  0.00     0.049 A 
ATOM     48  C   UNL A   1      40.966  29.739  29.784  1.00  0.00     0.074 A 
ATOM     49  C   UNL A   1      47.201  29.272  30.778  1.00  0.00     0.029 A 
ATOM     50  N   UNL A   1      45.072  28.875  30.270  1.00  0.00    -0.354 N 
ATOM     51  N   UNL A   1      42.254  29.558  29.953  1.00  0.00    -0.248 NA
ATOM     52  C   UNL A   1      40.484  31.061  30.208  1.00  0.00     0.031 C 
ATOM     53  C   UNL A   1      46.457  30.422  31.066  1.00  0.00     0.029 A 
ATOM     54  C   UNL A   1      45.133  30.179  30.736  1.00  0.00     0.049 A 
ATOM     55  H   UNL A   1      44.254  28.422  29.964  1.00  0.00     0.167 HD
ATOM     56  C   UNL A   1      42.737  30.749  30.480  1.00  0.00     0.074 A 
ATOM     57  C   UNL A   1      41.609  31.648  30.595  1.00  0.00     0.031 C 
ATOM     58  C   UNL A   1      44.005  31.065  30.838  1.00  0.00     0.037 A 
BRANCH  45  59
ATOM     59  C   UNL A   1      48.044  26.468  30.051  1.00  0.00     0.057 A 
ATOM     60  C   UNL A   1      48.471  25.805  31.208  1.00  0.00     0.134 A 
ATOM     61  C   UNL A   1      48.974  26.633  29.018  1.00  0.00     0.134 A 
ATOM     62  F   UNL A   1      47.630  25.626  32.238  1.00  0.00    -0.206 F 
ATOM     63  C   UNL A   1      49.781  25.344  31.342  1.00  0.00     0.040 A 
ATOM     64  C   UNL A   1      50.281  26.157  29.131  1.00  0.00     0.040 A 
ATOM     65  F   UNL A   1      48.627  27.253  27.880  1.00  0.00    -0.206 F 
ATOM     66  C   UNL A   1      50.689  25.515  30.299  1.00  0.00     0.006 A 
ENDBRANCH  45  59
BRANCH  46  67
ATOM     67  C   UNL A   1      38.523  29.202  29.109  1.00  0.00     0.057 A 
ATOM     68  C   UNL A   1      38.001  29.661  27.895  1.00  0.00     0.134 A 
ATOM     69  C   UNL A   1      37.659  29.153  30.209  1.00  0.00     0.134 A 
ATOM     70  F   UNL A   1      38.788  29.751  26.814  1.00  0.00    -0.206 F 
ATOM     71  C   UNL A   1      36.671  30.069  27.780  1.00  0.00     0.040 A 
ATOM     72  C   UNL A   1      36.322  29.538  30.103  1.00  0.00     0.040 A 
ATOM     73  F   UNL A   1      38.101  28.719  31.398  1.00  0.00    -0.206 F 
ATOM     74  C   UNL A   1      35.826  30.003  28.887  1.00  0.00     0.006 A 
ENDBRANCH  46  67
BRANCH  58  75
ATOM     75  C   UNL A   1      44.243  32.450  31.361  1.00  0.00     0.057 A 
ATOM     76  C   UNL A   1      44.202  32.737  32.731  1.00  0.00     0.134 A 
ATOM     77  C   UNL A   1      44.552  33.500  30.486  1.00  0.00     0.134 A 
ATOM     78  F   UNL A   1      43.898  31.778  33.617  1.00  0.00    -0.206 F 
ATOM     79  C   UNL A   1      44.442  34.026  33.211  1.00  0.00     0.040 A 
ATOM     80  C   UNL A   1      44.813  34.788  30.957  1.00  0.00     0.040 A 
ATOM     81  F   UNL A   1      44.613  33.288  29.163  1.00  0.00    -0.206 F 
ATOM     82  C   UNL A   1      44.754  35.054  32.324  1.00  0.00     0.006 A 
ENDBRANCH  58  75
ENDBRANCH  32  33
ENDBRANCH  24  27
ENDBRANCH  22  23
ENDBRANCH  21  22
ENDBRANCH  20  21
ENDBRANCH  19  20
ENDBRANCH   1  19
TORSDOF 17
ENDMDL
