MODEL 1
REMARK VINA RESULT:     -10.3      0.000      0.000
REMARK SMILES CO[C@H]1C[C@@H](C(=O)NCCCCCCNC(=O)c2ccc(-c3c4nc(c(-c5c(F)cccc5F)c5ccc([nH]5)c(-c5c(F)cccc5F)c5nc(c(-c6c(F)cccc6F)c6ccc3[nH]6)C=C5)C=C4)cc2)N(C(=O)CSc2cccs2)C1
REMARK SMILES IDX 10 1 9 2 8 3 6 4 7 5 5 7 3 8 4 9 82 10 72 11 2 12 1 13 73 14
REMARK SMILES IDX 74 15 75 16 76 17 77 18 78 19 81 20 79 21 80 22 11 23 12 24
REMARK SMILES IDX 13 25 14 26 15 27 16 28 17 30 18 31 19 32 71 33 20 34 70 35
REMARK SMILES IDX 21 36 22 37 23 38 64 39 24 40 69 41 63 42 65 43 25 44 68 45
REMARK SMILES IDX 62 46 61 47 26 49 52 50 35 51 51 52 36 53 39 54 50 55 66 56
REMARK SMILES IDX 37 57 38 58 49 60 67 61 40 62 27 63 28 64 33 65 29 66 30 67
REMARK SMILES IDX 32 68 34 69 31 70 53 71 54 72 59 73 55 74 56 75 58 76 60 77
REMARK SMILES IDX 57 78 41 79 42 80 47 81 43 82 44 83 46 84 48 85 45 86
REMARK H PARENT 8 6 15 29 65 48 39 59
REMARK Flexibility Score: inf
ROOT
ATOM      1  C   UNL A   1      36.166  21.632  25.338  1.00  0.00     0.021 C 
ENDROOT
BRANCH   1   2
ATOM      2  C   UNL A   1      34.923  21.697  26.236  1.00  0.00     0.116 C 
BRANCH   2   3
ATOM      3  N   UNL A   1      33.962  20.675  25.861  1.00  0.00    -0.354 N 
ATOM      4  C   UNL A   1      32.725  20.715  25.307  1.00  0.00     0.242 C 
ATOM      5  O   UNL A   1      32.142  19.627  25.220  1.00  0.00    -0.273 OA
ATOM      6  H   UNL A   1      34.275  19.761  26.048  1.00  0.00     0.163 HD
BRANCH   4   7
ATOM      7  C   UNL A   1      32.110  21.950  24.616  1.00  0.00     0.177 C 
ATOM      8  C   UNL A   1      32.503  23.463  22.786  1.00  0.00     0.139 C 
ATOM      9  C   UNL A   1      32.769  22.030  23.226  1.00  0.00     0.069 C 
ATOM     10  C   UNL A   1      32.640  24.249  24.091  1.00  0.00     0.152 C 
ATOM     11  N   UNL A   1      32.212  23.321  25.136  1.00  0.00    -0.327 N 
BRANCH   8  12
ATOM     12  O   UNL A   1      33.286  23.947  21.704  1.00  0.00    -0.380 OA
ATOM     13  C   UNL A   1      32.924  25.202  21.153  1.00  0.00     0.195 C 
ENDBRANCH   8  12
BRANCH  11  14
ATOM     14  C   UNL A   1      31.625  23.825  26.284  1.00  0.00     0.233 C 
ATOM     15  O   UNL A   1      31.768  23.262  27.373  1.00  0.00    -0.274 OA
BRANCH  14  16
ATOM     16  C   UNL A   1      30.725  25.041  26.168  1.00  0.00     0.175 C 
BRANCH  16  17
ATOM     17  S   UNL A   1      31.626  26.587  26.398  1.00  0.00    -0.105 SA
BRANCH  17  18
ATOM     18  C   UNL A   1      30.984  27.522  25.067  1.00  0.00     0.060 A 
ATOM     19  C   UNL A   1      30.126  27.064  24.091  1.00  0.00     0.027 A 
ATOM     20  S   UNL A   1      31.413  29.156  24.831  1.00  0.00    -0.137 S 
ATOM     21  C   UNL A   1      29.808  28.079  23.142  1.00  0.00     0.013 A 
ATOM     22  C   UNL A   1      30.441  29.268  23.430  1.00  0.00     0.066 A 
ENDBRANCH  17  18
ENDBRANCH  16  17
ENDBRANCH  14  16
ENDBRANCH  11  14
ENDBRANCH   4   7
ENDBRANCH   2   3
ENDBRANCH   1   2
BRANCH   1  23
ATOM     23  C   UNL A   1      37.244  22.679  25.653  1.00  0.00     0.002 C 
BRANCH  23  24
ATOM     24  C   UNL A   1      38.637  22.112  25.927  1.00  0.00     0.002 C 
BRANCH  24  25
ATOM     25  C   UNL A   1      38.900  20.714  25.362  1.00  0.00     0.021 C 
BRANCH  25  26
ATOM     26  C   UNL A   1      39.539  19.723  26.333  1.00  0.00     0.116 C 
BRANCH  26  27
ATOM     27  N   UNL A   1      40.786  19.177  25.831  1.00  0.00    -0.352 N 
ATOM     28  C   UNL A   1      42.031  19.748  25.754  1.00  0.00     0.251 C 
ATOM     29  H   UNL A   1      40.731  18.254  25.491  1.00  0.00     0.163 HD
ATOM     30  O   UNL A   1      42.925  19.181  25.134  1.00  0.00    -0.269 OA
BRANCH  28  31
ATOM     31  C   UNL A   1      42.301  21.053  26.399  1.00  0.00     0.039 A 
ATOM     32  C   UNL A   1      42.619  22.142  25.583  1.00  0.00     0.014 A 
ATOM     33  C   UNL A   1      42.287  21.200  27.790  1.00  0.00     0.014 A 
ATOM     34  C   UNL A   1      42.880  23.387  26.159  1.00  0.00     0.010 A 
ATOM     35  C   UNL A   1      42.487  22.458  28.359  1.00  0.00     0.010 A 
ATOM     36  C   UNL A   1      42.794  23.561  27.550  1.00  0.00    -0.014 A 
BRANCH  36  37
ATOM     37  C   UNL A   1      43.026  24.900  28.150  1.00  0.00     0.031 A 
ATOM     38  C   UNL A   1      44.410  25.340  28.535  1.00  0.00     0.074 A 
ATOM     39  C   UNL A   1      41.977  25.718  28.359  1.00  0.00     0.049 A 
ATOM     40  N   UNL A   1      44.805  26.493  29.015  1.00  0.00    -0.248 NA
ATOM     41  C   UNL A   1      45.490  24.353  28.382  1.00  0.00     0.031 C 
ATOM     42  C   UNL A   1      40.577  25.383  28.089  1.00  0.00     0.029 A 
ATOM     43  N   UNL A   1      41.926  27.002  28.841  1.00  0.00    -0.354 N 
ATOM     44  C   UNL A   1      46.173  26.368  29.225  1.00  0.00     0.074 A 
ATOM     45  C   UNL A   1      46.531  25.012  28.871  1.00  0.00     0.031 C 
ATOM     46  C   UNL A   1      39.810  26.447  28.374  1.00  0.00     0.029 A 
ATOM     47  C   UNL A   1      40.658  27.530  28.862  1.00  0.00     0.049 A 
ATOM     48  H   UNL A   1      42.722  27.496  29.142  1.00  0.00     0.167 HD
ATOM     49  C   UNL A   1      47.054  27.306  29.650  1.00  0.00     0.037 A 
ATOM     50  C   UNL A   1      40.230  28.755  29.218  1.00  0.00     0.037 A 
ATOM     51  C   UNL A   1      46.701  28.662  29.981  1.00  0.00     0.049 A 
ATOM     52  C   UNL A   1      41.232  29.787  29.653  1.00  0.00     0.074 A 
ATOM     53  C   UNL A   1      47.531  29.702  30.362  1.00  0.00     0.029 A 
ATOM     54  N   UNL A   1      45.409  29.165  29.973  1.00  0.00    -0.354 N 
ATOM     55  N   UNL A   1      42.533  29.679  29.766  1.00  0.00    -0.248 NA
ATOM     56  C   UNL A   1      40.705  31.115  29.994  1.00  0.00     0.031 C 
ATOM     57  C   UNL A   1      46.738  30.826  30.616  1.00  0.00     0.029 A 
ATOM     58  C   UNL A   1      45.417  30.496  30.356  1.00  0.00     0.049 A 
ATOM     59  H   UNL A   1      44.605  28.652  29.730  1.00  0.00     0.167 HD
ATOM     60  C   UNL A   1      42.983  30.929  30.173  1.00  0.00     0.074 A 
ATOM     61  C   UNL A   1      41.818  31.783  30.264  1.00  0.00     0.031 C 
ATOM     62  C   UNL A   1      44.248  31.331  30.448  1.00  0.00     0.037 A 
BRANCH  49  63
ATOM     63  C   UNL A   1      48.492  26.894  29.771  1.00  0.00     0.057 A 
ATOM     64  C   UNL A   1      48.994  26.306  30.939  1.00  0.00     0.134 A 
ATOM     65  C   UNL A   1      49.377  27.055  28.697  1.00  0.00     0.134 A 
ATOM     66  F   UNL A   1      48.201  26.134  32.008  1.00  0.00    -0.206 F 
ATOM     67  C   UNL A   1      50.330  25.916  31.045  1.00  0.00     0.040 A 
ATOM     68  C   UNL A   1      50.709  26.647  28.783  1.00  0.00     0.040 A 
ATOM     69  F   UNL A   1      48.961  27.606  27.547  1.00  0.00    -0.206 F 
ATOM     70  C   UNL A   1      51.190  26.081  29.962  1.00  0.00     0.006 A 
ENDBRANCH  49  63
BRANCH  50  71
ATOM     71  C   UNL A   1      38.788  29.089  29.130  1.00  0.00     0.057 A 
ATOM     72  C   UNL A   1      38.217  29.504  27.921  1.00  0.00     0.134 A 
ATOM     73  C   UNL A   1      37.949  29.002  30.247  1.00  0.00     0.134 A 
ATOM     74  F   UNL A   1      38.976  29.622  26.822  1.00  0.00    -0.206 F 
ATOM     75  C   UNL A   1      36.866  29.838  27.829  1.00  0.00     0.040 A 
ATOM     76  C   UNL A   1      36.591  29.313  30.163  1.00  0.00     0.040 A 
ATOM     77  F   UNL A   1      38.436  28.603  31.430  1.00  0.00    -0.206 F 
ATOM     78  C   UNL A   1      36.047  29.738  28.952  1.00  0.00     0.006 A 
ENDBRANCH  50  71
BRANCH  62  79
ATOM     79  C   UNL A   1      44.429  32.763  30.859  1.00  0.00     0.057 A 
ATOM     80  C   UNL A   1      44.369  33.157  32.202  1.00  0.00     0.134 A 
ATOM     81  C   UNL A   1      44.676  33.755  29.902  1.00  0.00     0.134 A 
ATOM     82  F   UNL A   1      44.122  32.255  33.165  1.00  0.00    -0.206 F 
ATOM     83  C   UNL A   1      44.518  34.493  32.576  1.00  0.00     0.040 A 
ATOM     84  C   UNL A   1      44.851  35.091  30.266  1.00  0.00     0.040 A 
ATOM     85  F   UNL A   1      44.753  33.443  28.600  1.00  0.00    -0.206 F 
ATOM     86  C   UNL A   1      44.764  35.464  31.607  1.00  0.00     0.006 A 
ENDBRANCH  62  79
ENDBRANCH  36  37
ENDBRANCH  28  31
ENDBRANCH  26  27
ENDBRANCH  25  26
ENDBRANCH  24  25
ENDBRANCH  23  24
ENDBRANCH   1  23
TORSDOF 18
ENDMDL
MODEL 2
REMARK VINA RESULT:     -10.1      0.885      2.063
REMARK SMILES CO[C@H]1C[C@@H](C(=O)NCCCCCCNC(=O)c2ccc(-c3c4nc(c(-c5c(F)cccc5F)c5ccc([nH]5)c(-c5c(F)cccc5F)c5nc(c(-c6c(F)cccc6F)c6ccc3[nH]6)C=C5)C=C4)cc2)N(C(=O)CSc2cccs2)C1
REMARK SMILES IDX 10 1 9 2 8 3 6 4 7 5 5 7 3 8 4 9 82 10 72 11 2 12 1 13 73 14
REMARK SMILES IDX 74 15 75 16 76 17 77 18 78 19 81 20 79 21 80 22 11 23 12 24
REMARK SMILES IDX 13 25 14 26 15 27 16 28 17 30 18 31 19 32 71 33 20 34 70 35
REMARK SMILES IDX 21 36 22 37 23 38 64 39 24 40 69 41 63 42 65 43 25 44 68 45
REMARK SMILES IDX 62 46 61 47 26 49 52 50 35 51 51 52 36 53 39 54 50 55 66 56
REMARK SMILES IDX 37 57 38 58 49 60 67 61 40 62 27 63 28 64 33 65 29 66 30 67
REMARK SMILES IDX 32 68 34 69 31 70 53 71 54 72 59 73 55 74 56 75 58 76 60 77
REMARK SMILES IDX 57 78 41 79 42 80 47 81 43 82 44 83 46 84 48 85 45 86
REMARK H PARENT 8 6 15 29 65 48 39 59
REMARK Flexibility Score: inf
ROOT
ATOM      1  C   UNL A   1      37.062  23.076  24.460  1.00  0.00     0.021 C 
ENDROOT
BRANCH   1   2
ATOM      2  C   UNL A   1      35.555  22.800  24.551  1.00  0.00     0.116 C 
BRANCH   2   3
ATOM      3  N   UNL A   1      35.170  22.484  25.915  1.00  0.00    -0.354 N 
ATOM      4  C   UNL A   1      34.032  22.006  26.477  1.00  0.00     0.242 C 
ATOM      5  O   UNL A   1      34.026  21.954  27.714  1.00  0.00    -0.273 OA
ATOM      6  H   UNL A   1      35.886  22.651  26.569  1.00  0.00     0.163 HD
BRANCH   4   7
ATOM      7  C   UNL A   1      32.872  21.354  25.696  1.00  0.00     0.177 C 
ATOM      8  C   UNL A   1      32.351  19.391  24.404  1.00  0.00     0.139 C 
ATOM      9  C   UNL A   1      33.247  19.870  25.538  1.00  0.00     0.069 C 
ATOM     10  C   UNL A   1      32.316  20.601  23.468  1.00  0.00     0.152 C 
ATOM     11  N   UNL A   1      32.457  21.761  24.346  1.00  0.00    -0.327 N 
BRANCH   8  12
ATOM     12  O   UNL A   1      32.710  18.162  23.791  1.00  0.00    -0.380 OA
ATOM     13  C   UNL A   1      32.499  18.050  22.393  1.00  0.00     0.195 C 
ENDBRANCH   8  12
BRANCH  11  14
ATOM     14  C   UNL A   1      31.869  22.959  23.977  1.00  0.00     0.233 C 
ATOM     15  O   UNL A   1      32.142  23.497  22.900  1.00  0.00    -0.274 OA
BRANCH  14  16
ATOM     16  C   UNL A   1      30.945  23.651  24.961  1.00  0.00     0.175 C 
BRANCH  16  17
ATOM     17  S   UNL A   1      31.727  25.072  25.754  1.00  0.00    -0.105 SA
BRANCH  17  18
ATOM     18  C   UNL A   1      30.983  26.376  24.859  1.00  0.00     0.060 A 
ATOM     19  C   UNL A   1      29.844  26.287  24.088  1.00  0.00     0.027 A 
ATOM     20  S   UNL A   1      31.656  27.944  24.835  1.00  0.00    -0.137 S 
ATOM     21  C   UNL A   1      29.516  27.533  23.477  1.00  0.00     0.013 A 
ATOM     22  C   UNL A   1      30.420  28.519  23.805  1.00  0.00     0.066 A 
ENDBRANCH  17  18
ENDBRANCH  16  17
ENDBRANCH  14  16
ENDBRANCH  11  14
ENDBRANCH   4   7
ENDBRANCH   2   3
ENDBRANCH   1   2
BRANCH   1  23
ATOM     23  C   UNL A   1      37.750  23.349  25.805  1.00  0.00     0.002 C 
BRANCH  23  24
ATOM     24  C   UNL A   1      38.909  22.410  26.143  1.00  0.00     0.002 C 
BRANCH  24  25
ATOM     25  C   UNL A   1      38.928  21.088  25.371  1.00  0.00     0.021 C 
BRANCH  25  26
ATOM     26  C   UNL A   1      39.245  19.847  26.203  1.00  0.00     0.116 C 
BRANCH  26  27
ATOM     27  N   UNL A   1      40.493  19.218  25.811  1.00  0.00    -0.352 N 
ATOM     28  C   UNL A   1      41.772  19.714  25.824  1.00  0.00     0.251 C 
ATOM     29  H   UNL A   1      40.409  18.293  25.485  1.00  0.00     0.163 HD
ATOM     30  O   UNL A   1      42.676  19.082  25.286  1.00  0.00    -0.269 OA
BRANCH  28  31
ATOM     31  C   UNL A   1      42.068  21.015  26.464  1.00  0.00     0.039 A 
ATOM     32  C   UNL A   1      42.475  22.076  25.651  1.00  0.00     0.014 A 
ATOM     33  C   UNL A   1      41.992  21.184  27.850  1.00  0.00     0.014 A 
ATOM     34  C   UNL A   1      42.764  23.317  26.222  1.00  0.00     0.010 A 
ATOM     35  C   UNL A   1      42.220  22.441  28.412  1.00  0.00     0.010 A 
ATOM     36  C   UNL A   1      42.616  23.516  27.605  1.00  0.00    -0.014 A 
BRANCH  36  37
ATOM     37  C   UNL A   1      42.878  24.852  28.198  1.00  0.00     0.031 A 
ATOM     38  C   UNL A   1      44.272  25.263  28.582  1.00  0.00     0.074 A 
ATOM     39  C   UNL A   1      41.848  25.695  28.403  1.00  0.00     0.049 A 
ATOM     40  N   UNL A   1      44.693  26.409  29.056  1.00  0.00    -0.248 NA
ATOM     41  C   UNL A   1      45.329  24.251  28.435  1.00  0.00     0.031 C 
ATOM     42  C   UNL A   1      40.441  25.391  28.133  1.00  0.00     0.029 A 
ATOM     43  N   UNL A   1      41.826  26.982  28.878  1.00  0.00    -0.354 N 
ATOM     44  C   UNL A   1      46.057  26.254  29.268  1.00  0.00     0.074 A 
ATOM     45  C   UNL A   1      46.384  24.888  28.921  1.00  0.00     0.031 C 
ATOM     46  C   UNL A   1      39.698  26.473  28.412  1.00  0.00     0.029 A 
ATOM     47  C   UNL A   1      40.571  27.540  28.896  1.00  0.00     0.049 A 
ATOM     48  H   UNL A   1      42.634  27.460  29.177  1.00  0.00     0.167 HD
ATOM     49  C   UNL A   1      46.959  27.173  29.689  1.00  0.00     0.037 A 
ATOM     50  C   UNL A   1      40.171  28.776  29.245  1.00  0.00     0.037 A 
ATOM     51  C   UNL A   1      46.638  28.539  30.013  1.00  0.00     0.049 A 
ATOM     52  C   UNL A   1      41.196  29.787  29.675  1.00  0.00     0.074 A 
ATOM     53  C   UNL A   1      47.491  29.561  30.389  1.00  0.00     0.029 A 
ATOM     54  N   UNL A   1      45.358  29.071  30.001  1.00  0.00    -0.354 N 
ATOM     55  N   UNL A   1      42.494  29.650  29.790  1.00  0.00    -0.248 NA
ATOM     56  C   UNL A   1      40.699  31.129  30.009  1.00  0.00     0.031 C 
ATOM     57  C   UNL A   1      46.723  30.704  30.636  1.00  0.00     0.029 A 
ATOM     58  C   UNL A   1      45.395  30.403  30.378  1.00  0.00     0.049 A 
ATOM     59  H   UNL A   1      44.542  28.575  29.760  1.00  0.00     0.167 HD
ATOM     60  C   UNL A   1      42.973  30.891  30.191  1.00  0.00     0.074 A 
ATOM     61  C   UNL A   1      41.827  31.772  30.277  1.00  0.00     0.031 C 
ATOM     62  C   UNL A   1      44.246  31.266  30.464  1.00  0.00     0.037 A 
BRANCH  49  63
ATOM     63  C   UNL A   1      48.387  26.729  29.812  1.00  0.00     0.057 A 
ATOM     64  C   UNL A   1      48.858  26.072  30.957  1.00  0.00     0.134 A 
ATOM     65  C   UNL A   1      49.295  26.930  28.764  1.00  0.00     0.134 A 
ATOM     66  F   UNL A   1      48.043  25.859  32.002  1.00  0.00    -0.206 F 
ATOM     67  C   UNL A   1      50.185  25.652  31.066  1.00  0.00     0.040 A 
ATOM     68  C   UNL A   1      50.618  26.493  28.851  1.00  0.00     0.040 A 
ATOM     69  F   UNL A   1      48.909  27.547  27.637  1.00  0.00    -0.206 F 
ATOM     70  C   UNL A   1      51.068  25.858  30.008  1.00  0.00     0.006 A 
ENDBRANCH  49  63
BRANCH  50  71
ATOM     71  C   UNL A   1      38.737  29.142  29.154  1.00  0.00     0.057 A 
ATOM     72  C   UNL A   1      37.897  29.046  30.269  1.00  0.00     0.134 A 
ATOM     73  C   UNL A   1      38.173  29.595  27.956  1.00  0.00     0.134 A 
ATOM     74  F   UNL A   1      38.378  28.601  31.439  1.00  0.00    -0.206 F 
ATOM     75  C   UNL A   1      36.542  29.371  30.193  1.00  0.00     0.040 A 
ATOM     76  C   UNL A   1      36.825  29.944  27.871  1.00  0.00     0.040 A 
ATOM     77  F   UNL A   1      38.929  29.716  26.855  1.00  0.00    -0.206 F 
ATOM     78  C   UNL A   1      36.003  29.826  28.991  1.00  0.00     0.006 A 
ENDBRANCH  50  71
BRANCH  62  79
ATOM     79  C   UNL A   1      44.459  32.695  30.868  1.00  0.00     0.057 A 
ATOM     80  C   UNL A   1      44.694  33.700  29.922  1.00  0.00     0.134 A 
ATOM     81  C   UNL A   1      44.420  33.070  32.217  1.00  0.00     0.134 A 
ATOM     82  F   UNL A   1      44.758  33.403  28.615  1.00  0.00    -0.206 F 
ATOM     83  C   UNL A   1      44.913  35.024  30.305  1.00  0.00     0.040 A 
ATOM     84  C   UNL A   1      44.613  34.394  32.611  1.00  0.00     0.040 A 
ATOM     85  F   UNL A   1      44.192  32.156  33.172  1.00  0.00    -0.206 F 
ATOM     86  C   UNL A   1      44.869  35.375  31.654  1.00  0.00     0.006 A 
ENDBRANCH  62  79
ENDBRANCH  36  37
ENDBRANCH  28  31
ENDBRANCH  26  27
ENDBRANCH  25  26
ENDBRANCH  24  25
ENDBRANCH  23  24
ENDBRANCH   1  23
TORSDOF 18
ENDMDL
MODEL 3
REMARK VINA RESULT:     -10.1      1.467      3.264
REMARK SMILES CO[C@H]1C[C@@H](C(=O)NCCCCCCNC(=O)c2ccc(-c3c4nc(c(-c5c(F)cccc5F)c5ccc([nH]5)c(-c5c(F)cccc5F)c5nc(c(-c6c(F)cccc6F)c6ccc3[nH]6)C=C5)C=C4)cc2)N(C(=O)CSc2cccs2)C1
REMARK SMILES IDX 10 1 9 2 8 3 6 4 7 5 5 7 3 8 4 9 82 10 72 11 2 12 1 13 73 14
REMARK SMILES IDX 74 15 75 16 76 17 77 18 78 19 81 20 79 21 80 22 11 23 12 24
REMARK SMILES IDX 13 25 14 26 15 27 16 28 17 30 18 31 19 32 71 33 20 34 70 35
REMARK SMILES IDX 21 36 22 37 23 38 64 39 24 40 69 41 63 42 65 43 25 44 68 45
REMARK SMILES IDX 62 46 61 47 26 49 52 50 35 51 51 52 36 53 39 54 50 55 66 56
REMARK SMILES IDX 37 57 38 58 49 60 67 61 40 62 27 63 28 64 33 65 29 66 30 67
REMARK SMILES IDX 32 68 34 69 31 70 53 71 54 72 59 73 55 74 56 75 58 76 60 77
REMARK SMILES IDX 57 78 41 79 42 80 47 81 43 82 44 83 46 84 48 85 45 86
REMARK H PARENT 8 6 15 29 65 48 39 59
REMARK Flexibility Score: inf
ROOT
ATOM      1  C   UNL A   1      36.577  23.766  26.057  1.00  0.00     0.021 C 
ENDROOT
BRANCH   1   2
ATOM      2  C   UNL A   1      35.532  24.557  25.260  1.00  0.00     0.116 C 
BRANCH   2   3
ATOM      3  N   UNL A   1      34.208  24.384  25.831  1.00  0.00    -0.354 N 
ATOM      4  C   UNL A   1      33.028  25.033  25.668  1.00  0.00     0.242 C 
ATOM      5  O   UNL A   1      32.109  24.668  26.412  1.00  0.00    -0.273 OA
ATOM      6  H   UNL A   1      34.156  23.638  26.470  1.00  0.00     0.163 HD
BRANCH   4   7
ATOM      7  C   UNL A   1      32.715  26.013  24.518  1.00  0.00     0.177 C 
ATOM      8  C   UNL A   1      30.983  27.488  23.731  1.00  0.00     0.139 C 
ATOM      9  C   UNL A   1      31.548  26.888  25.012  1.00  0.00     0.069 C 
ATOM     10  C   UNL A   1      31.123  26.341  22.730  1.00  0.00     0.152 C 
ATOM     11  N   UNL A   1      32.301  25.596  23.171  1.00  0.00    -0.327 N 
BRANCH   8  12
ATOM     12  O   UNL A   1      29.686  28.059  23.820  1.00  0.00    -0.380 OA
ATOM     13  C   UNL A   1      29.214  28.773  22.689  1.00  0.00     0.195 C 
ENDBRANCH   8  12
BRANCH  11  14
ATOM     14  C   UNL A   1      33.067  24.930  22.229  1.00  0.00     0.233 C 
ATOM     15  O   UNL A   1      33.417  25.485  21.184  1.00  0.00    -0.274 OA
BRANCH  14  16
ATOM     16  C   UNL A   1      33.396  23.467  22.462  1.00  0.00     0.175 C 
BRANCH  16  17
ATOM     17  S   UNL A   1      31.982  22.536  23.088  1.00  0.00    -0.105 SA
BRANCH  17  18
ATOM     18  C   UNL A   1      32.798  21.140  23.753  1.00  0.00     0.060 A 
ATOM     19  C   UNL A   1      33.899  21.160  24.583  1.00  0.00     0.027 A 
ATOM     20  S   UNL A   1      32.298  19.551  23.386  1.00  0.00    -0.137 S 
ATOM     21  C   UNL A   1      34.328  19.846  24.930  1.00  0.00     0.013 A 
ATOM     22  C   UNL A   1      33.540  18.878  24.347  1.00  0.00     0.066 A 
ENDBRANCH  17  18
ENDBRANCH  16  17
ENDBRANCH  14  16
ENDBRANCH  11  14
ENDBRANCH   4   7
ENDBRANCH   2   3
ENDBRANCH   1   2
BRANCH   1  23
ATOM     23  C   UNL A   1      37.088  22.494  25.367  1.00  0.00     0.002 C 
BRANCH  23  24
ATOM     24  C   UNL A   1      38.460  22.009  25.834  1.00  0.00     0.002 C 
BRANCH  24  25
ATOM     25  C   UNL A   1      38.901  20.652  25.278  1.00  0.00     0.021 C 
BRANCH  25  26
ATOM     26  C   UNL A   1      39.535  19.702  26.292  1.00  0.00     0.116 C 
BRANCH  26  27
ATOM     27  N   UNL A   1      40.785  19.136  25.819  1.00  0.00    -0.352 N 
ATOM     28  C   UNL A   1      42.038  19.691  25.764  1.00  0.00     0.251 C 
ATOM     29  H   UNL A   1      40.724  18.212  25.485  1.00  0.00     0.163 HD
ATOM     30  O   UNL A   1      42.937  19.108  25.166  1.00  0.00    -0.269 OA
BRANCH  28  31
ATOM     31  C   UNL A   1      42.312  20.997  26.404  1.00  0.00     0.039 A 
ATOM     32  C   UNL A   1      42.623  22.085  25.584  1.00  0.00     0.014 A 
ATOM     33  C   UNL A   1      42.308  21.147  27.795  1.00  0.00     0.014 A 
ATOM     34  C   UNL A   1      42.887  23.331  26.156  1.00  0.00     0.010 A 
ATOM     35  C   UNL A   1      42.511  22.406  28.361  1.00  0.00     0.010 A 
ATOM     36  C   UNL A   1      42.811  23.508  27.547  1.00  0.00    -0.014 A 
BRANCH  36  37
ATOM     37  C   UNL A   1      43.046  24.848  28.143  1.00  0.00     0.031 A 
ATOM     38  C   UNL A   1      44.432  25.286  28.526  1.00  0.00     0.074 A 
ATOM     39  C   UNL A   1      41.999  25.669  28.351  1.00  0.00     0.049 A 
ATOM     40  N   UNL A   1      44.829  26.439  29.003  1.00  0.00    -0.248 NA
ATOM     41  C   UNL A   1      45.509  24.296  28.376  1.00  0.00     0.031 C 
ATOM     42  C   UNL A   1      40.598  25.336  28.082  1.00  0.00     0.029 A 
ATOM     43  N   UNL A   1      41.951  26.954  28.829  1.00  0.00    -0.354 N 
ATOM     44  C   UNL A   1      46.197  26.312  29.213  1.00  0.00     0.074 A 
ATOM     45  C   UNL A   1      46.551  24.954  28.862  1.00  0.00     0.031 C 
ATOM     46  C   UNL A   1      39.833  26.402  28.364  1.00  0.00     0.029 A 
ATOM     47  C   UNL A   1      40.684  27.485  28.849  1.00  0.00     0.049 A 
ATOM     48  H   UNL A   1      42.749  27.448  29.128  1.00  0.00     0.167 HD
ATOM     49  C   UNL A   1      47.080  27.249  29.635  1.00  0.00     0.037 A 
ATOM     50  C   UNL A   1      40.259  28.712  29.201  1.00  0.00     0.037 A 
ATOM     51  C   UNL A   1      46.731  28.606  29.962  1.00  0.00     0.049 A 
ATOM     52  C   UNL A   1      41.263  29.743  29.633  1.00  0.00     0.074 A 
ATOM     53  C   UNL A   1      47.563  29.645  30.340  1.00  0.00     0.029 A 
ATOM     54  N   UNL A   1      45.440  29.112  29.953  1.00  0.00    -0.354 N 
ATOM     55  N   UNL A   1      42.565  29.633  29.746  1.00  0.00    -0.248 NA
ATOM     56  C   UNL A   1      40.740  31.074  29.971  1.00  0.00     0.031 C 
ATOM     57  C   UNL A   1      46.772  30.772  30.591  1.00  0.00     0.029 A 
ATOM     58  C   UNL A   1      45.450  30.444  30.333  1.00  0.00     0.049 A 
ATOM     59  H   UNL A   1      44.635  28.600  29.712  1.00  0.00     0.167 HD
ATOM     60  C   UNL A   1      43.018  30.882  30.150  1.00  0.00     0.074 A 
ATOM     61  C   UNL A   1      41.854  31.740  30.238  1.00  0.00     0.031 C 
ATOM     62  C   UNL A   1      44.283  31.283  30.423  1.00  0.00     0.037 A 
BRANCH  49  63
ATOM     63  C   UNL A   1      48.517  26.834  29.756  1.00  0.00     0.057 A 
ATOM     64  C   UNL A   1      49.423  26.999  28.700  1.00  0.00     0.134 A 
ATOM     65  C   UNL A   1      49.011  26.294  30.951  1.00  0.00     0.134 A 
ATOM     66  F   UNL A   1      49.011  27.499  27.524  1.00  0.00    -0.206 F 
ATOM     67  C   UNL A   1      50.761  26.620  28.818  1.00  0.00     0.040 A 
ATOM     68  C   UNL A   1      50.352  25.933  31.089  1.00  0.00     0.040 A 
ATOM     69  F   UNL A   1      48.199  26.114  32.004  1.00  0.00    -0.206 F 
ATOM     70  C   UNL A   1      51.230  26.090  30.018  1.00  0.00     0.006 A 
ENDBRANCH  49  63
BRANCH  50  71
ATOM     71  C   UNL A   1      38.818  29.049  29.113  1.00  0.00     0.057 A 
ATOM     72  C   UNL A   1      38.245  29.449  27.900  1.00  0.00     0.134 A 
ATOM     73  C   UNL A   1      37.982  28.980  30.233  1.00  0.00     0.134 A 
ATOM     74  F   UNL A   1      39.001  29.549  26.798  1.00  0.00    -0.206 F 
ATOM     75  C   UNL A   1      36.894  29.785  27.808  1.00  0.00     0.040 A 
ATOM     76  C   UNL A   1      36.624  29.293  30.150  1.00  0.00     0.040 A 
ATOM     77  F   UNL A   1      38.471  28.596  31.421  1.00  0.00    -0.206 F 
ATOM     78  C   UNL A   1      36.078  29.704  28.934  1.00  0.00     0.006 A 
ENDBRANCH  50  71
BRANCH  62  79
ATOM     79  C   UNL A   1      44.468  32.715  30.830  1.00  0.00     0.057 A 
ATOM     80  C   UNL A   1      44.677  33.728  29.886  1.00  0.00     0.134 A 
ATOM     81  C   UNL A   1      44.426  33.085  32.180  1.00  0.00     0.134 A 
ATOM     82  F   UNL A   1      44.742  33.435  28.577  1.00  0.00    -0.206 F 
ATOM     83  C   UNL A   1      44.869  35.055  30.272  1.00  0.00     0.040 A 
ATOM     84  C   UNL A   1      44.592  34.413  32.577  1.00  0.00     0.040 A 
ATOM     85  F   UNL A   1      44.221  32.165  33.133  1.00  0.00    -0.206 F 
ATOM     86  C   UNL A   1      44.823  35.401  31.621  1.00  0.00     0.006 A 
ENDBRANCH  62  79
ENDBRANCH  36  37
ENDBRANCH  28  31
ENDBRANCH  26  27
ENDBRANCH  25  26
ENDBRANCH  24  25
ENDBRANCH  23  24
ENDBRANCH   1  23
TORSDOF 18
ENDMDL
