MODEL 1
REMARK VINA RESULT:     -11.0      0.000      0.000
REMARK SMILES C[C@@H]1CC[C@@]1(SC1CCCCC1)C(=O)NCCCCCCNC(=O)c1ccc(-c2c3nc(c(-c4c(F)cccc4F)c4ccc([nH]4)c(-c4c(F)cccc4F)c4nc(c(-c5c(F)cccc5F)c5ccc2[nH]5)C=C4)C=C3)cc1
REMARK SMILES IDX 18 1 17 2 16 3 15 4 13 5 14 6 5 8 1 9 2 10 3 11 4 12 6 13
REMARK SMILES IDX 7 14 8 15 12 16 9 17 11 18 10 19 19 20 20 21 21 22 22 23
REMARK SMILES IDX 23 24 24 26 25 27 26 28 78 29 27 30 77 31 28 32 29 33 30 34
REMARK SMILES IDX 71 35 31 36 76 37 70 38 72 39 32 40 75 41 69 42 68 43 33 45
REMARK SMILES IDX 59 46 42 47 58 48 43 49 46 50 57 51 73 52 44 53 45 54 56 56
REMARK SMILES IDX 74 57 47 58 34 59 35 60 40 61 36 62 37 63 39 64 41 65 38 66
REMARK SMILES IDX 60 67 61 68 66 69 62 70 63 71 65 72 67 73 64 74 48 75 49 76
REMARK SMILES IDX 54 77 50 78 51 79 53 80 55 81 52 82
REMARK H PARENT 15 7 22 25 72 44 46 55
REMARK Flexibility Score: inf
ROOT
ATOM      1  C   UNL A   1      32.528  29.761  27.161  1.00  0.00     0.002 C 
ENDROOT
BRANCH   1   2
ATOM      2  C   UNL A   1      33.740  29.121  26.471  1.00  0.00     0.021 C 
BRANCH   2   3
ATOM      3  C   UNL A   1      33.545  28.951  24.970  1.00  0.00     0.116 C 
BRANCH   3   4
ATOM      4  N   UNL A   1      33.935  27.622  24.558  1.00  0.00    -0.355 N 
ATOM      5  C   UNL A   1      33.188  26.525  24.200  1.00  0.00     0.236 C 
ATOM      6  O   UNL A   1      33.855  25.555  23.808  1.00  0.00    -0.273 OA
ATOM      7  H   UNL A   1      34.909  27.475  24.530  1.00  0.00     0.163 HD
BRANCH   5   8
ATOM      8  C   UNL A   1      31.617  26.509  24.305  1.00  0.00     0.097 C 
ATOM      9  C   UNL A   1      30.659  24.047  23.494  1.00  0.00     0.009 C 
ATOM     10  C   UNL A   1      31.101  25.010  24.579  1.00  0.00     0.012 C 
ATOM     11  C   UNL A   1      29.974  25.596  25.446  1.00  0.00     0.007 C 
ATOM     12  C   UNL A   1      30.824  26.861  25.604  1.00  0.00     0.028 C 
BRANCH   8  13
ATOM     13  S   UNL A   1      30.801  27.181  22.754  1.00  0.00    -0.141 SA
BRANCH  13  14
ATOM     14  C   UNL A   1      29.600  28.457  23.285  1.00  0.00     0.047 C 
ATOM     15  C   UNL A   1      30.038  29.874  22.909  1.00  0.00     0.014 C 
ATOM     16  C   UNL A   1      28.125  28.184  22.970  1.00  0.00     0.014 C 
ATOM     17  C   UNL A   1      29.100  30.924  23.504  1.00  0.00     0.001 C 
ATOM     18  C   UNL A   1      27.195  29.284  23.489  1.00  0.00     0.001 C 
ATOM     19  C   UNL A   1      27.661  30.675  23.069  1.00  0.00     0.000 C 
ENDBRANCH  13  14
ENDBRANCH   8  13
ENDBRANCH   5   8
ENDBRANCH   3   4
ENDBRANCH   2   3
ENDBRANCH   1   2
BRANCH   1  20
ATOM     20  C   UNL A   1      31.571  30.500  26.217  1.00  0.00     0.002 C 
BRANCH  20  21
ATOM     21  C   UNL A   1      31.419  31.996  26.505  1.00  0.00     0.021 C 
BRANCH  21  22
ATOM     22  C   UNL A   1      32.601  32.606  27.248  1.00  0.00     0.116 C 
BRANCH  22  23
ATOM     23  N   UNL A   1      32.387  34.014  27.542  1.00  0.00    -0.352 N 
ATOM     24  C   UNL A   1      32.977  34.794  28.502  1.00  0.00     0.251 C 
ATOM     25  H   UNL A   1      31.726  34.470  26.972  1.00  0.00     0.163 HD
ATOM     26  O   UNL A   1      32.529  35.909  28.759  1.00  0.00    -0.269 OA
BRANCH  24  27
ATOM     27  C   UNL A   1      34.145  34.280  29.240  1.00  0.00     0.039 A 
ATOM     28  C   UNL A   1      33.938  33.527  30.398  1.00  0.00     0.014 A 
ATOM     29  C   UNL A   1      35.442  34.534  28.784  1.00  0.00     0.014 A 
ATOM     30  C   UNL A   1      35.033  32.986  31.072  1.00  0.00     0.010 A 
ATOM     31  C   UNL A   1      36.525  33.929  29.410  1.00  0.00     0.010 A 
ATOM     32  C   UNL A   1      36.332  33.154  30.564  1.00  0.00    -0.014 A 
BRANCH  32  33
ATOM     33  C   UNL A   1      37.500  32.525  31.226  1.00  0.00     0.031 A 
ATOM     34  C   UNL A   1      38.210  31.372  30.577  1.00  0.00     0.074 A 
ATOM     35  C   UNL A   1      37.876  32.948  32.449  1.00  0.00     0.049 A 
ATOM     36  N   UNL A   1      39.211  30.657  31.026  1.00  0.00    -0.248 NA
ATOM     37  C   UNL A   1      37.708  30.944  29.261  1.00  0.00     0.031 C 
ATOM     38  C   UNL A   1      37.228  34.019  33.208  1.00  0.00     0.029 A 
ATOM     39  N   UNL A   1      38.884  32.517  33.272  1.00  0.00    -0.354 N 
ATOM     40  C   UNL A   1      39.444  29.688  30.060  1.00  0.00     0.074 A 
ATOM     41  C   UNL A   1      38.446  29.870  29.028  1.00  0.00     0.031 C 
ATOM     42  C   UNL A   1      37.865  34.174  34.378  1.00  0.00     0.029 A 
ATOM     43  C   UNL A   1      38.940  33.189  34.469  1.00  0.00     0.049 A 
ATOM     44  H   UNL A   1      39.506  31.795  33.030  1.00  0.00     0.167 HD
ATOM     45  C   UNL A   1      40.415  28.744  30.026  1.00  0.00     0.037 A 
ATOM     46  C   UNL A   1      39.759  33.026  35.524  1.00  0.00     0.037 A 
ATOM     47  C   UNL A   1      41.416  28.581  31.048  1.00  0.00     0.049 A 
ATOM     48  C   UNL A   1      40.833  31.977  35.465  1.00  0.00     0.074 A 
ATOM     49  C   UNL A   1      42.491  27.710  31.071  1.00  0.00     0.029 A 
ATOM     50  N   UNL A   1      41.456  29.297  32.236  1.00  0.00    -0.354 N 
ATOM     51  N   UNL A   1      41.101  31.123  34.506  1.00  0.00    -0.248 NA
ATOM     52  C   UNL A   1      41.724  31.875  36.629  1.00  0.00     0.031 C 
ATOM     53  C   UNL A   1      43.146  27.857  32.299  1.00  0.00     0.029 A 
ATOM     54  C   UNL A   1      42.516  28.862  33.015  1.00  0.00     0.049 A 
ATOM     55  H   UNL A   1      40.824  30.008  32.489  1.00  0.00     0.167 HD
ATOM     56  C   UNL A   1      42.202  30.396  34.940  1.00  0.00     0.074 A 
ATOM     57  C   UNL A   1      42.561  30.922  36.243  1.00  0.00     0.031 C 
ATOM     58  C   UNL A   1      42.857  29.387  34.314  1.00  0.00     0.037 A 
BRANCH  45  59
ATOM     59  C   UNL A   1      40.427  27.809  28.850  1.00  0.00     0.057 A 
ATOM     60  C   UNL A   1      41.195  28.059  27.705  1.00  0.00     0.134 A 
ATOM     61  C   UNL A   1      39.660  26.636  28.864  1.00  0.00     0.134 A 
ATOM     62  F   UNL A   1      41.945  29.170  27.619  1.00  0.00    -0.206 F 
ATOM     63  C   UNL A   1      41.170  27.202  26.603  1.00  0.00     0.040 A 
ATOM     64  C   UNL A   1      39.651  25.755  27.782  1.00  0.00     0.040 A 
ATOM     65  F   UNL A   1      38.906  26.328  29.930  1.00  0.00    -0.206 F 
ATOM     66  C   UNL A   1      40.399  26.043  26.642  1.00  0.00     0.006 A 
ENDBRANCH  45  59
BRANCH  46  67
ATOM     67  C   UNL A   1      39.596  33.896  36.716  1.00  0.00     0.057 A 
ATOM     68  C   UNL A   1      38.852  33.474  37.824  1.00  0.00     0.134 A 
ATOM     69  C   UNL A   1      40.210  35.152  36.791  1.00  0.00     0.134 A 
ATOM     70  F   UNL A   1      38.228  32.287  37.806  1.00  0.00    -0.206 F 
ATOM     71  C   UNL A   1      38.715  34.274  38.959  1.00  0.00     0.040 A 
ATOM     72  C   UNL A   1      40.102  35.951  37.930  1.00  0.00     0.040 A 
ATOM     73  F   UNL A   1      40.947  35.607  35.767  1.00  0.00    -0.206 F 
ATOM     74  C   UNL A   1      39.349  35.514  39.017  1.00  0.00     0.006 A 
ENDBRANCH  46  67
BRANCH  58  75
ATOM     75  C   UNL A   1      44.044  28.797  35.020  1.00  0.00     0.057 A 
ATOM     76  C   UNL A   1      43.930  27.674  35.851  1.00  0.00     0.134 A 
ATOM     77  C   UNL A   1      45.325  29.332  34.831  1.00  0.00     0.134 A 
ATOM     78  F   UNL A   1      42.731  27.120  36.084  1.00  0.00    -0.206 F 
ATOM     79  C   UNL A   1      45.044  27.121  36.485  1.00  0.00     0.040 A 
ATOM     80  C   UNL A   1      46.449  28.770  35.436  1.00  0.00     0.040 A 
ATOM     81  F   UNL A   1      45.506  30.402  34.040  1.00  0.00    -0.206 F 
ATOM     82  C   UNL A   1      46.310  27.664  36.271  1.00  0.00     0.006 A 
ENDBRANCH  58  75
ENDBRANCH  32  33
ENDBRANCH  24  27
ENDBRANCH  22  23
ENDBRANCH  21  22
ENDBRANCH  20  21
ENDBRANCH   1  20
TORSDOF 15
ENDMDL
MODEL 2
REMARK VINA RESULT:     -11.0      0.782      6.387
REMARK SMILES C[C@@H]1CC[C@@]1(SC1CCCCC1)C(=O)NCCCCCCNC(=O)c1ccc(-c2c3nc(c(-c4c(F)cccc4F)c4ccc([nH]4)c(-c4c(F)cccc4F)c4nc(c(-c5c(F)cccc5F)c5ccc2[nH]5)C=C4)C=C3)cc1
REMARK SMILES IDX 18 1 17 2 16 3 15 4 13 5 14 6 5 8 1 9 2 10 3 11 4 12 6 13
REMARK SMILES IDX 7 14 8 15 12 16 9 17 11 18 10 19 19 20 20 21 21 22 22 23
REMARK SMILES IDX 23 24 24 26 25 27 26 28 78 29 27 30 77 31 28 32 29 33 30 34
REMARK SMILES IDX 71 35 31 36 76 37 70 38 72 39 32 40 75 41 69 42 68 43 33 45
REMARK SMILES IDX 59 46 42 47 58 48 43 49 46 50 57 51 73 52 44 53 45 54 56 56
REMARK SMILES IDX 74 57 47 58 34 59 35 60 40 61 36 62 37 63 39 64 41 65 38 66
REMARK SMILES IDX 60 67 61 68 66 69 62 70 63 71 65 72 67 73 64 74 48 75 49 76
REMARK SMILES IDX 54 77 50 78 51 79 53 80 55 81 52 82
REMARK H PARENT 15 7 22 25 72 44 46 55
REMARK Flexibility Score: inf
ROOT
ATOM      1  C   UNL A   1      32.747  29.868  27.264  1.00  0.00     0.002 C 
ENDROOT
BRANCH   1   2
ATOM      2  C   UNL A   1      33.907  29.353  26.401  1.00  0.00     0.021 C 
BRANCH   2   3
ATOM      3  C   UNL A   1      33.492  29.057  24.967  1.00  0.00     0.116 C 
BRANCH   3   4
ATOM      4  N   UNL A   1      33.896  27.722  24.590  1.00  0.00    -0.355 N 
ATOM      5  C   UNL A   1      33.161  26.617  24.233  1.00  0.00     0.236 C 
ATOM      6  O   UNL A   1      33.840  25.641  23.877  1.00  0.00    -0.273 OA
ATOM      7  H   UNL A   1      34.870  27.578  24.589  1.00  0.00     0.163 HD
BRANCH   5   8
ATOM      8  C   UNL A   1      31.587  26.598  24.298  1.00  0.00     0.097 C 
ATOM      9  C   UNL A   1      30.651  24.160  23.394  1.00  0.00     0.009 C 
ATOM     10  C   UNL A   1      31.065  25.092  24.517  1.00  0.00     0.012 C 
ATOM     11  C   UNL A   1      29.916  25.655  25.371  1.00  0.00     0.007 C 
ATOM     12  C   UNL A   1      30.762  26.914  25.585  1.00  0.00     0.028 C 
BRANCH   8  13
ATOM     13  S   UNL A   1      30.811  27.314  22.747  1.00  0.00    -0.141 SA
BRANCH  13  14
ATOM     14  C   UNL A   1      29.597  28.575  23.282  1.00  0.00     0.047 C 
ATOM     15  C   UNL A   1      30.131  30.003  23.150  1.00  0.00     0.014 C 
ATOM     16  C   UNL A   1      28.168  28.421  22.752  1.00  0.00     0.014 C 
ATOM     17  C   UNL A   1      29.161  31.019  23.753  1.00  0.00     0.001 C 
ATOM     18  C   UNL A   1      27.217  29.496  23.288  1.00  0.00     0.001 C 
ATOM     19  C   UNL A   1      27.784  30.902  23.113  1.00  0.00     0.000 C 
ENDBRANCH  13  14
ENDBRANCH   8  13
ENDBRANCH   5   8
ENDBRANCH   3   4
ENDBRANCH   2   3
ENDBRANCH   1   2
BRANCH   1  20
ATOM     20  C   UNL A   1      31.646  30.599  26.485  1.00  0.00     0.002 C 
BRANCH  20  21
ATOM     21  C   UNL A   1      31.471  32.073  26.859  1.00  0.00     0.021 C 
BRANCH  21  22
ATOM     22  C   UNL A   1      32.784  32.819  27.067  1.00  0.00     0.116 C 
BRANCH  22  23
ATOM     23  N   UNL A   1      32.570  34.144  27.627  1.00  0.00    -0.352 N 
ATOM     24  C   UNL A   1      33.135  34.712  28.738  1.00  0.00     0.251 C 
ATOM     25  H   UNL A   1      31.930  34.712  27.139  1.00  0.00     0.163 HD
ATOM     26  O   UNL A   1      32.687  35.761  29.196  1.00  0.00    -0.269 OA
BRANCH  24  27
ATOM     27  C   UNL A   1      34.276  34.047  29.395  1.00  0.00     0.039 A 
ATOM     28  C   UNL A   1      34.027  33.054  30.344  1.00  0.00     0.014 A 
ATOM     29  C   UNL A   1      35.588  34.401  29.066  1.00  0.00     0.014 A 
ATOM     30  C   UNL A   1      35.098  32.377  30.927  1.00  0.00     0.010 A 
ATOM     31  C   UNL A   1      36.650  33.672  29.589  1.00  0.00     0.010 A 
ATOM     32  C   UNL A   1      36.416  32.657  30.530  1.00  0.00    -0.014 A 
BRANCH  32  33
ATOM     33  C   UNL A   1      37.562  31.899  31.086  1.00  0.00     0.031 A 
ATOM     34  C   UNL A   1      38.082  32.209  32.461  1.00  0.00     0.074 A 
ATOM     35  C   UNL A   1      38.182  30.979  30.321  1.00  0.00     0.049 A 
ATOM     36  N   UNL A   1      39.106  31.696  33.093  1.00  0.00    -0.248 NA
ATOM     37  C   UNL A   1      37.375  33.259  33.212  1.00  0.00     0.031 C 
ATOM     38  C   UNL A   1      37.809  30.632  28.949  1.00  0.00     0.029 A 
ATOM     39  N   UNL A   1      39.265  30.181  30.585  1.00  0.00    -0.354 N 
ATOM     40  C   UNL A   1      39.177  32.372  34.304  1.00  0.00     0.074 A 
ATOM     41  C   UNL A   1      38.129  33.369  34.294  1.00  0.00     0.031 C 
ATOM     42  C   UNL A   1      38.637  29.678  28.497  1.00  0.00     0.029 A 
ATOM     43  C   UNL A   1      39.622  29.375  29.532  1.00  0.00     0.049 A 
ATOM     44  H   UNL A   1      39.742  30.186  31.446  1.00  0.00     0.167 HD
ATOM     45  C   UNL A   1      40.027  32.166  35.339  1.00  0.00     0.037 A 
ATOM     46  C   UNL A   1      40.635  28.497  29.409  1.00  0.00     0.037 A 
ATOM     47  C   UNL A   1      41.056  31.159  35.348  1.00  0.00     0.049 A 
ATOM     48  C   UNL A   1      41.563  28.279  30.570  1.00  0.00     0.074 A 
ATOM     49  C   UNL A   1      41.916  30.815  36.377  1.00  0.00     0.029 A 
ATOM     50  N   UNL A   1      41.374  30.345  34.271  1.00  0.00    -0.354 N 
ATOM     51  N   UNL A   1      41.566  28.861  31.745  1.00  0.00    -0.248 NA
ATOM     52  C   UNL A   1      42.623  27.277  30.392  1.00  0.00     0.031 C 
ATOM     53  C   UNL A   1      42.793  29.834  35.901  1.00  0.00     0.029 A 
ATOM     54  C   UNL A   1      42.440  29.522  34.598  1.00  0.00     0.049 A 
ATOM     55  H   UNL A   1      40.911  30.349  33.403  1.00  0.00     0.167 HD
ATOM     56  C   UNL A   1      42.611  28.283  32.455  1.00  0.00     0.074 A 
ATOM     57  C   UNL A   1      43.209  27.293  31.582  1.00  0.00     0.031 C 
ATOM     58  C   UNL A   1      43.034  28.548  33.716  1.00  0.00     0.037 A 
BRANCH  45  59
ATOM     59  C   UNL A   1      39.882  33.060  36.538  1.00  0.00     0.057 A 
ATOM     60  C   UNL A   1      40.662  34.212  36.709  1.00  0.00     0.134 A 
ATOM     61  C   UNL A   1      38.944  32.767  37.537  1.00  0.00     0.134 A 
ATOM     62  F   UNL A   1      41.588  34.547  35.796  1.00  0.00    -0.206 F 
ATOM     63  C   UNL A   1      40.544  35.015  37.845  1.00  0.00     0.040 A 
ATOM     64  C   UNL A   1      38.794  33.579  38.661  1.00  0.00     0.040 A 
ATOM     65  F   UNL A   1      38.158  31.685  37.437  1.00  0.00    -0.206 F 
ATOM     66  C   UNL A   1      39.605  34.702  38.824  1.00  0.00     0.006 A 
ENDBRANCH  45  59
BRANCH  46  67
ATOM     67  C   UNL A   1      40.804  27.750  28.138  1.00  0.00     0.057 A 
ATOM     68  C   UNL A   1      41.597  28.254  27.101  1.00  0.00     0.134 A 
ATOM     69  C   UNL A   1      40.205  26.499  27.942  1.00  0.00     0.134 A 
ATOM     70  F   UNL A   1      42.184  29.454  27.223  1.00  0.00    -0.206 F 
ATOM     71  C   UNL A   1      41.782  27.547  25.913  1.00  0.00     0.040 A 
ATOM     72  C   UNL A   1      40.402  25.770  26.769  1.00  0.00     0.040 A 
ATOM     73  F   UNL A   1      39.443  25.956  28.904  1.00  0.00    -0.206 F 
ATOM     74  C   UNL A   1      41.190  26.296  25.748  1.00  0.00     0.006 A 
ENDBRANCH  46  67
BRANCH  58  75
ATOM     75  C   UNL A   1      44.187  27.739  34.238  1.00  0.00     0.057 A 
ATOM     76  C   UNL A   1      45.509  28.196  34.157  1.00  0.00     0.134 A 
ATOM     77  C   UNL A   1      43.967  26.508  34.868  1.00  0.00     0.134 A 
ATOM     78  F   UNL A   1      45.791  29.362  33.555  1.00  0.00    -0.206 F 
ATOM     79  C   UNL A   1      46.571  27.447  34.664  1.00  0.00     0.040 A 
ATOM     80  C   UNL A   1      45.018  25.764  35.405  1.00  0.00     0.040 A 
ATOM     81  F   UNL A   1      42.724  26.016  34.988  1.00  0.00    -0.206 F 
ATOM     82  C   UNL A   1      46.326  26.230  35.299  1.00  0.00     0.006 A 
ENDBRANCH  58  75
ENDBRANCH  32  33
ENDBRANCH  24  27
ENDBRANCH  22  23
ENDBRANCH  21  22
ENDBRANCH  20  21
ENDBRANCH   1  20
TORSDOF 15
ENDMDL
MODEL 3
REMARK VINA RESULT:     -10.9      5.970     10.913
REMARK SMILES C[C@@H]1CC[C@@]1(SC1CCCCC1)C(=O)NCCCCCCNC(=O)c1ccc(-c2c3nc(c(-c4c(F)cccc4F)c4ccc([nH]4)c(-c4c(F)cccc4F)c4nc(c(-c5c(F)cccc5F)c5ccc2[nH]5)C=C4)C=C3)cc1
REMARK SMILES IDX 18 1 17 2 16 3 15 4 13 5 14 6 5 8 1 9 2 10 3 11 4 12 6 13
REMARK SMILES IDX 7 14 8 15 12 16 9 17 11 18 10 19 19 20 20 21 21 22 22 23
REMARK SMILES IDX 23 24 24 26 25 27 26 28 78 29 27 30 77 31 28 32 29 33 30 34
REMARK SMILES IDX 71 35 31 36 76 37 70 38 72 39 32 40 75 41 69 42 68 43 33 45
REMARK SMILES IDX 59 46 42 47 58 48 43 49 46 50 57 51 73 52 44 53 45 54 56 56
REMARK SMILES IDX 74 57 47 58 34 59 35 60 40 61 36 62 37 63 39 64 41 65 38 66
REMARK SMILES IDX 60 67 61 68 66 69 62 70 63 71 65 72 67 73 64 74 48 75 49 76
REMARK SMILES IDX 54 77 50 78 51 79 53 80 55 81 52 82
REMARK H PARENT 15 7 22 25 72 44 46 55
REMARK Flexibility Score: inf
ROOT
ATOM      1  C   UNL A   1      37.255  22.014  24.409  1.00  0.00     0.002 C 
ENDROOT
BRANCH   1   2
ATOM      2  C   UNL A   1      37.368  23.081  25.507  1.00  0.00     0.021 C 
BRANCH   2   3
ATOM      3  C   UNL A   1      36.038  23.753  25.817  1.00  0.00     0.116 C 
BRANCH   3   4
ATOM      4  N   UNL A   1      35.271  22.952  26.743  1.00  0.00    -0.355 N 
ATOM      5  C   UNL A   1      34.113  22.230  26.577  1.00  0.00     0.236 C 
ATOM      6  O   UNL A   1      33.770  21.574  27.573  1.00  0.00    -0.273 OA
ATOM      7  H   UNL A   1      35.643  22.917  27.654  1.00  0.00     0.163 HD
BRANCH   5   8
ATOM      8  C   UNL A   1      33.289  22.261  25.235  1.00  0.00     0.097 C 
ATOM      9  C   UNL A   1      31.013  23.790  25.580  1.00  0.00     0.009 C 
ATOM     10  C   UNL A   1      32.455  23.632  25.135  1.00  0.00     0.012 C 
ATOM     11  C   UNL A   1      32.682  23.616  23.614  1.00  0.00     0.007 C 
ATOM     12  C   UNL A   1      33.880  22.692  23.856  1.00  0.00     0.028 C 
BRANCH   8  13
ATOM     13  S   UNL A   1      32.118  20.801  25.096  1.00  0.00    -0.141 SA
BRANCH  13  14
ATOM     14  C   UNL A   1      32.994  19.492  24.162  1.00  0.00     0.047 C 
ATOM     15  C   UNL A   1      33.919  18.653  25.046  1.00  0.00     0.014 C 
ATOM     16  C   UNL A   1      32.145  18.643  23.210  1.00  0.00     0.014 C 
ATOM     17  C   UNL A   1      34.753  17.679  24.215  1.00  0.00     0.001 C 
ATOM     18  C   UNL A   1      32.971  17.606  22.443  1.00  0.00     0.001 C 
ATOM     19  C   UNL A   1      33.859  16.780  23.370  1.00  0.00     0.000 C 
ENDBRANCH  13  14
ENDBRANCH   8  13
ENDBRANCH   5   8
ENDBRANCH   3   4
ENDBRANCH   2   3
ENDBRANCH   1   2
BRANCH   1  20
ATOM     20  C   UNL A   1      37.001  20.591  24.922  1.00  0.00     0.002 C 
BRANCH  20  21
ATOM     21  C   UNL A   1      38.218  19.665  24.864  1.00  0.00     0.021 C 
BRANCH  21  22
ATOM     22  C   UNL A   1      39.312  20.017  25.865  1.00  0.00     0.116 C 
BRANCH  22  23
ATOM     23  N   UNL A   1      40.330  18.980  25.940  1.00  0.00    -0.352 N 
ATOM     24  C   UNL A   1      41.685  19.113  26.094  1.00  0.00     0.251 C 
ATOM     25  H   UNL A   1      39.999  18.056  25.870  1.00  0.00     0.163 HD
ATOM     26  O   UNL A   1      42.427  18.148  25.923  1.00  0.00    -0.269 OA
BRANCH  24  27
ATOM     27  C   UNL A   1      42.252  20.427  26.450  1.00  0.00     0.039 A 
ATOM     28  C   UNL A   1      42.788  21.230  25.442  1.00  0.00     0.014 A 
ATOM     29  C   UNL A   1      42.246  20.866  27.778  1.00  0.00     0.014 A 
ATOM     30  C   UNL A   1      43.272  22.499  25.758  1.00  0.00     0.010 A 
ATOM     31  C   UNL A   1      42.656  22.160  28.078  1.00  0.00     0.010 A 
ATOM     32  C   UNL A   1      43.179  22.987  27.072  1.00  0.00    -0.014 A 
BRANCH  32  33
ATOM     33  C   UNL A   1      43.623  24.360  27.412  1.00  0.00     0.031 A 
ATOM     34  C   UNL A   1      42.620  25.404  27.812  1.00  0.00     0.074 A 
ATOM     35  C   UNL A   1      44.925  24.686  27.290  1.00  0.00     0.049 A 
ATOM     36  N   UNL A   1      42.808  26.670  28.089  1.00  0.00    -0.248 NA
ATOM     37  C   UNL A   1      41.213  24.977  27.878  1.00  0.00     0.031 C 
ATOM     38  C   UNL A   1      45.985  23.776  26.853  1.00  0.00     0.029 A 
ATOM     39  N   UNL A   1      45.573  25.874  27.508  1.00  0.00    -0.354 N 
ATOM     40  C   UNL A   1      41.547  27.191  28.342  1.00  0.00     0.074 A 
ATOM     41  C   UNL A   1      40.597  26.120  28.131  1.00  0.00     0.031 C 
ATOM     42  C   UNL A   1      47.155  24.433  26.852  1.00  0.00     0.029 A 
ATOM     43  C   UNL A   1      46.921  25.819  27.250  1.00  0.00     0.049 A 
ATOM     44  H   UNL A   1      45.116  26.688  27.818  1.00  0.00     0.167 HD
ATOM     45  C   UNL A   1      41.213  28.444  28.735  1.00  0.00     0.037 A 
ATOM     46  C   UNL A   1      47.862  26.779  27.316  1.00  0.00     0.037 A 
ATOM     47  C   UNL A   1      42.166  29.498  28.961  1.00  0.00     0.049 A 
ATOM     48  C   UNL A   1      47.472  28.161  27.760  1.00  0.00     0.074 A 
ATOM     49  C   UNL A   1      41.940  30.778  29.437  1.00  0.00     0.029 A 
ATOM     50  N   UNL A   1      43.528  29.399  28.711  1.00  0.00    -0.354 N 
ATOM     51  N   UNL A   1      46.287  28.620  28.083  1.00  0.00    -0.248 NA
ATOM     52  C   UNL A   1      48.550  29.154  27.855  1.00  0.00     0.031 C 
ATOM     53  C   UNL A   1      43.155  31.472  29.418  1.00  0.00     0.029 A 
ATOM     54  C   UNL A   1      44.149  30.606  28.990  1.00  0.00     0.049 A 
ATOM     55  H   UNL A   1      43.985  28.592  28.384  1.00  0.00     0.167 HD
ATOM     56  C   UNL A   1      46.478  29.948  28.441  1.00  0.00     0.074 A 
ATOM     57  C   UNL A   1      47.897  30.215  28.309  1.00  0.00     0.031 C 
ATOM     58  C   UNL A   1      45.561  30.862  28.845  1.00  0.00     0.037 A 
BRANCH  45  59
ATOM     59  C   UNL A   1      39.752  28.738  28.930  1.00  0.00     0.057 A 
ATOM     60  C   UNL A   1      38.946  29.234  27.896  1.00  0.00     0.134 A 
ATOM     61  C   UNL A   1      39.140  28.518  30.171  1.00  0.00     0.134 A 
ATOM     62  F   UNL A   1      39.469  29.478  26.684  1.00  0.00    -0.206 F 
ATOM     63  C   UNL A   1      37.599  29.539  28.099  1.00  0.00     0.040 A 
ATOM     64  C   UNL A   1      37.787  28.789  30.378  1.00  0.00     0.040 A 
ATOM     65  F   UNL A   1      39.848  28.039  31.205  1.00  0.00    -0.206 F 
ATOM     66  C   UNL A   1      37.014  29.312  29.342  1.00  0.00     0.006 A 
ENDBRANCH  45  59
BRANCH  46  67
ATOM     67  C   UNL A   1      49.267  26.449  26.970  1.00  0.00     0.057 A 
ATOM     68  C   UNL A   1      50.152  25.948  27.932  1.00  0.00     0.134 A 
ATOM     69  C   UNL A   1      49.749  26.593  25.663  1.00  0.00     0.134 A 
ATOM     70  F   UNL A   1      49.753  25.802  29.204  1.00  0.00    -0.206 F 
ATOM     71  C   UNL A   1      51.467  25.611  27.610  1.00  0.00     0.040 A 
ATOM     72  C   UNL A   1      51.054  26.236  25.322  1.00  0.00     0.040 A 
ATOM     73  F   UNL A   1      48.946  27.057  24.693  1.00  0.00    -0.206 F 
ATOM     74  C   UNL A   1      51.919  25.747  26.298  1.00  0.00     0.006 A 
ENDBRANCH  46  67
BRANCH  58  75
ATOM     75  C   UNL A   1      46.065  32.233  29.195  1.00  0.00     0.057 A 
ATOM     76  C   UNL A   1      46.520  32.548  30.483  1.00  0.00     0.134 A 
ATOM     77  C   UNL A   1      46.138  33.236  28.221  1.00  0.00     0.134 A 
ATOM     78  F   UNL A   1      46.467  31.636  31.465  1.00  0.00    -0.206 F 
ATOM     79  C   UNL A   1      47.008  33.819  30.792  1.00  0.00     0.040 A 
ATOM     80  C   UNL A   1      46.651  34.501  28.511  1.00  0.00     0.040 A 
ATOM     81  F   UNL A   1      45.728  32.999  26.965  1.00  0.00    -0.206 F 
ATOM     82  C   UNL A   1      47.082  34.797  29.802  1.00  0.00     0.006 A 
ENDBRANCH  58  75
ENDBRANCH  32  33
ENDBRANCH  24  27
ENDBRANCH  22  23
ENDBRANCH  21  22
ENDBRANCH  20  21
ENDBRANCH   1  20
TORSDOF 15
ENDMDL
