MODEL 1
REMARK VINA RESULT:     -12.3      0.000      0.000
REMARK SMILES CCC[N@@H+]1CC2(CCN(C(=O)Cn3nnnc3C)CC2)C[C@H]1C(=O)NCCCCCCNC(=O)c1ccc(-c2c3nc(c(-c4c(F)cccc4F)c4ccc([nH]4)c(-c4c(F)cccc4F)c4nc(c(-c5c(F)cccc5F)c5ccc2[nH]5)C=C4)C=C3)cc1
REMARK SMILES IDX 28 1 27 2 26 3 25 4 23 5 24 6 22 8 4 9 5 10 6 12 21 13 7 14
REMARK SMILES IDX 20 15 8 16 19 17 9 18 10 19 11 20 3 21 2 22 1 23 12 24 13 25
REMARK SMILES IDX 14 26 17 27 15 28 16 29 18 30 29 31 30 32 31 33 32 34 33 35
REMARK SMILES IDX 34 37 35 38 36 39 88 40 37 41 87 42 38 43 39 44 40 45 81 46
REMARK SMILES IDX 41 47 86 48 80 49 82 50 42 51 85 52 79 53 78 54 43 56 69 57
REMARK SMILES IDX 52 58 68 59 53 60 56 61 67 62 83 63 54 64 55 65 66 67 84 68
REMARK SMILES IDX 57 69 44 70 45 71 50 72 46 73 47 74 49 75 51 76 48 77 70 78
REMARK SMILES IDX 71 79 76 80 72 81 73 82 75 83 77 84 74 85 58 86 59 87 64 88
REMARK SMILES IDX 60 89 61 90 63 91 65 92 62 93
REMARK H PARENT 25 7 4 11 32 36 82 55 56 66
REMARK Flexibility Score: inf
ROOT
ATOM      1  C   UNL A   1      32.010  30.444  26.344  1.00  0.00     0.002 C 
ENDROOT
BRANCH   1   2
ATOM      2  C   UNL A   1      32.140  29.694  25.019  1.00  0.00     0.021 C 
BRANCH   2   3
ATOM      3  C   UNL A   1      31.145  28.547  24.870  1.00  0.00     0.116 C 
BRANCH   3   4
ATOM      4  N   UNL A   1      31.208  27.541  25.891  1.00  0.00    -0.351 N 
ATOM      5  C   UNL A   1      31.519  26.218  25.821  1.00  0.00     0.278 C 
ATOM      6  O   UNL A   1      31.686  25.660  26.916  1.00  0.00    -0.268 OA
ATOM      7  H   UNL A   1      30.990  27.862  26.797  1.00  0.00     0.163 HD
BRANCH   5   8
ATOM      8  C   UNL A   1      31.706  25.386  24.515  1.00  0.00     0.274 C 
ATOM      9  N   UNL A   1      33.127  25.043  24.219  1.00  0.00    -0.324 N 
ATOM     10  C   UNL A   1      33.273  23.617  24.526  1.00  0.00     0.270 C 
ATOM     11  H   UNL A   1      33.810  25.552  24.781  1.00  0.00     0.348 HD
ATOM     12  C   UNL A   1      31.902  22.926  24.325  1.00  0.00     0.029 C 
ATOM     13  C   UNL A   1      30.899  24.100  24.332  1.00  0.00     0.088 C 
ATOM     14  C   UNL A   1      31.471  21.891  25.393  1.00  0.00     0.034 C 
ATOM     15  C   UNL A   1      31.924  22.116  23.003  1.00  0.00     0.034 C 
ATOM     16  C   UNL A   1      32.496  20.792  25.550  1.00  0.00     0.120 C 
ATOM     17  C   UNL A   1      32.853  20.883  23.096  1.00  0.00     0.120 C 
ATOM     18  N   UNL A   1      32.619  20.065  24.293  1.00  0.00    -0.341 N 
ATOM     19  C   UNL A   1      32.664  18.682  24.189  1.00  0.00     0.244 C 
ATOM     20  O   UNL A   1      32.773  18.121  23.095  1.00  0.00    -0.273 OA
BRANCH   9  21
ATOM     21  C   UNL A   1      33.420  25.419  22.816  1.00  0.00     0.262 C 
BRANCH  21  22
ATOM     22  C   UNL A   1      32.781  26.707  22.270  1.00  0.00     0.058 C 
ATOM     23  C   UNL A   1      33.728  27.899  22.190  1.00  0.00     0.010 C 
ENDBRANCH  21  22
ENDBRANCH   9  21
BRANCH  19  24
ATOM     24  C   UNL A   1      32.567  17.838  25.441  1.00  0.00     0.248 C 
BRANCH  24  25
ATOM     25  N   UNL A   1      33.368  16.637  25.387  1.00  0.00    -0.220 N 
ATOM     26  N   UNL A   1      34.681  16.740  25.104  1.00  0.00    -0.044 NA
ATOM     27  C   UNL A   1      33.042  15.318  25.562  1.00  0.00     0.148 A 
ATOM     28  N   UNL A   1      35.137  15.498  25.098  1.00  0.00    -0.024 NA
ATOM     29  N   UNL A   1      34.132  14.606  25.354  1.00  0.00    -0.114 NA
ATOM     30  C   UNL A   1      31.712  14.776  25.907  1.00  0.00     0.091 C 
ENDBRANCH  24  25
ENDBRANCH  19  24
ENDBRANCH   5   8
ENDBRANCH   3   4
ENDBRANCH   2   3
ENDBRANCH   1   2
BRANCH   1  31
ATOM     31  C   UNL A   1      33.232  30.379  27.281  1.00  0.00     0.002 C 
BRANCH  31  32
ATOM     32  C   UNL A   1      34.154  29.155  27.154  1.00  0.00     0.021 C 
BRANCH  32  33
ATOM     33  C   UNL A   1      35.566  29.406  27.655  1.00  0.00     0.116 C 
BRANCH  33  34
ATOM     34  N   UNL A   1      35.605  29.751  29.083  1.00  0.00    -0.352 N 
ATOM     35  C   UNL A   1      36.568  29.441  30.021  1.00  0.00     0.251 C 
ATOM     36  H   UNL A   1      34.840  30.273  29.416  1.00  0.00     0.163 HD
ATOM     37  O   UNL A   1      36.324  29.492  31.227  1.00  0.00    -0.269 OA
BRANCH  35  38
ATOM     38  C   UNL A   1      37.908  29.068  29.554  1.00  0.00     0.039 A 
ATOM     39  C   UNL A   1      38.565  29.736  28.517  1.00  0.00     0.014 A 
ATOM     40  C   UNL A   1      38.526  28.024  30.232  1.00  0.00     0.014 A 
ATOM     41  C   UNL A   1      39.873  29.368  28.216  1.00  0.00     0.010 A 
ATOM     42  C   UNL A   1      39.870  27.855  30.118  1.00  0.00     0.010 A 
ATOM     43  C   UNL A   1      40.515  28.428  29.036  1.00  0.00    -0.014 A 
BRANCH  43  44
ATOM     44  C   UNL A   1      41.902  28.042  28.853  1.00  0.00     0.031 A 
ATOM     45  C   UNL A   1      42.087  26.810  28.054  1.00  0.00     0.074 A 
ATOM     46  C   UNL A   1      42.916  28.878  29.169  1.00  0.00     0.049 A 
ATOM     47  N   UNL A   1      42.522  25.673  28.477  1.00  0.00    -0.248 NA
ATOM     48  C   UNL A   1      41.586  26.781  26.670  1.00  0.00     0.031 C 
ATOM     49  C   UNL A   1      42.857  30.255  29.678  1.00  0.00     0.029 A 
ATOM     50  N   UNL A   1      44.249  28.690  28.995  1.00  0.00    -0.354 N 
ATOM     51  C   UNL A   1      42.554  24.838  27.367  1.00  0.00     0.074 A 
ATOM     52  C   UNL A   1      41.790  25.503  26.344  1.00  0.00     0.031 C 
ATOM     53  C   UNL A   1      44.066  30.843  29.550  1.00  0.00     0.029 A 
ATOM     54  C   UNL A   1      45.020  29.843  29.112  1.00  0.00     0.049 A 
ATOM     55  H   UNL A   1      44.640  27.807  28.801  1.00  0.00     0.167 HD
ATOM     56  C   UNL A   1      43.418  23.787  27.318  1.00  0.00     0.037 A 
ATOM     57  C   UNL A   1      46.344  29.948  28.833  1.00  0.00     0.037 A 
ATOM     58  C   UNL A   1      43.965  23.514  28.627  1.00  0.00     0.049 A 
ATOM     59  C   UNL A   1      46.900  28.569  28.869  1.00  0.00     0.074 A 
ATOM     60  C   UNL A   1      43.419  23.171  29.850  1.00  0.00     0.029 A 
ATOM     61  N   UNL A   1      45.224  23.996  28.902  1.00  0.00    -0.354 N 
ATOM     62  N   UNL A   1      46.990  27.863  29.964  1.00  0.00    -0.248 NA
ATOM     63  C   UNL A   1      46.870  27.800  27.632  1.00  0.00     0.031 C 
ATOM     64  C   UNL A   1      44.162  23.924  30.807  1.00  0.00     0.029 A 
ATOM     65  C   UNL A   1      45.171  24.609  30.129  1.00  0.00     0.049 A 
ATOM     66  H   UNL A   1      46.017  23.917  28.325  1.00  0.00     0.167 HD
ATOM     67  C   UNL A   1      46.584  26.587  29.596  1.00  0.00     0.074 A 
ATOM     68  C   UNL A   1      46.590  26.592  28.133  1.00  0.00     0.031 C 
ATOM     69  C   UNL A   1      45.984  25.747  30.493  1.00  0.00     0.037 A 
BRANCH  56  70
ATOM     70  C   UNL A   1      44.068  23.258  26.064  1.00  0.00     0.057 A 
ATOM     71  C   UNL A   1      44.006  21.877  25.801  1.00  0.00     0.134 A 
ATOM     72  C   UNL A   1      44.988  23.976  25.276  1.00  0.00     0.134 A 
ATOM     73  F   UNL A   1      43.164  21.083  26.481  1.00  0.00    -0.206 F 
ATOM     74  C   UNL A   1      44.866  21.246  24.897  1.00  0.00     0.040 A 
ATOM     75  C   UNL A   1      45.817  23.361  24.333  1.00  0.00     0.040 A 
ATOM     76  F   UNL A   1      45.215  25.284  25.438  1.00  0.00    -0.206 F 
ATOM     77  C   UNL A   1      45.785  21.987  24.167  1.00  0.00     0.006 A 
ENDBRANCH  56  70
BRANCH  57  78
ATOM     78  C   UNL A   1      47.078  31.096  28.248  1.00  0.00     0.057 A 
ATOM     79  C   UNL A   1      46.743  31.612  26.989  1.00  0.00     0.134 A 
ATOM     80  C   UNL A   1      47.942  31.889  29.025  1.00  0.00     0.134 A 
ATOM     81  F   UNL A   1      45.893  30.952  26.188  1.00  0.00    -0.206 F 
ATOM     82  C   UNL A   1      47.215  32.853  26.538  1.00  0.00     0.040 A 
ATOM     83  C   UNL A   1      48.426  33.126  28.586  1.00  0.00     0.040 A 
ATOM     84  F   UNL A   1      48.276  31.533  30.273  1.00  0.00    -0.206 F 
ATOM     85  C   UNL A   1      48.051  33.621  27.343  1.00  0.00     0.006 A 
ENDBRANCH  57  78
BRANCH  69  86
ATOM     86  C   UNL A   1      45.960  26.155  31.943  1.00  0.00     0.057 A 
ATOM     87  C   UNL A   1      44.875  26.791  32.568  1.00  0.00     0.134 A 
ATOM     88  C   UNL A   1      47.002  25.734  32.774  1.00  0.00     0.134 A 
ATOM     89  F   UNL A   1      43.785  27.142  31.879  1.00  0.00    -0.206 F 
ATOM     90  C   UNL A   1      44.848  27.031  33.947  1.00  0.00     0.040 A 
ATOM     91  C   UNL A   1      46.973  25.937  34.156  1.00  0.00     0.040 A 
ATOM     92  F   UNL A   1      48.046  25.064  32.261  1.00  0.00    -0.206 F 
ATOM     93  C   UNL A   1      45.898  26.596  34.746  1.00  0.00     0.006 A 
ENDBRANCH  69  86
ENDBRANCH  43  44
ENDBRANCH  35  38
ENDBRANCH  33  34
ENDBRANCH  32  33
ENDBRANCH  31  32
ENDBRANCH   1  31
TORSDOF 17
ENDMDL
MODEL 2
REMARK VINA RESULT:     -12.2      3.757      5.211
REMARK SMILES CCC[N@@H+]1CC2(CCN(C(=O)Cn3nnnc3C)CC2)C[C@H]1C(=O)NCCCCCCNC(=O)c1ccc(-c2c3nc(c(-c4c(F)cccc4F)c4ccc([nH]4)c(-c4c(F)cccc4F)c4nc(c(-c5c(F)cccc5F)c5ccc2[nH]5)C=C4)C=C3)cc1
REMARK SMILES IDX 28 1 27 2 26 3 25 4 23 5 24 6 22 8 4 9 5 10 6 12 21 13 7 14
REMARK SMILES IDX 20 15 8 16 19 17 9 18 10 19 11 20 3 21 2 22 1 23 12 24 13 25
REMARK SMILES IDX 14 26 17 27 15 28 16 29 18 30 29 31 30 32 31 33 32 34 33 35
REMARK SMILES IDX 34 37 35 38 36 39 88 40 37 41 87 42 38 43 39 44 40 45 81 46
REMARK SMILES IDX 41 47 86 48 80 49 82 50 42 51 85 52 79 53 78 54 43 56 69 57
REMARK SMILES IDX 52 58 68 59 53 60 56 61 67 62 83 63 54 64 55 65 66 67 84 68
REMARK SMILES IDX 57 69 44 70 45 71 50 72 46 73 47 74 49 75 51 76 48 77 70 78
REMARK SMILES IDX 71 79 76 80 72 81 73 82 75 83 77 84 74 85 58 86 59 87 64 88
REMARK SMILES IDX 60 89 61 90 63 91 65 92 62 93
REMARK H PARENT 25 7 4 11 32 36 82 55 56 66
REMARK Flexibility Score: inf
ROOT
ATOM      1  C   UNL A   1      29.894  31.370  24.524  1.00  0.00     0.002 C 
ENDROOT
BRANCH   1   2
ATOM      2  C   UNL A   1      30.610  30.029  24.359  1.00  0.00     0.021 C 
BRANCH   2   3
ATOM      3  C   UNL A   1      30.246  29.300  23.069  1.00  0.00     0.116 C 
BRANCH   3   4
ATOM      4  N   UNL A   1      29.571  28.047  23.241  1.00  0.00    -0.351 N 
ATOM      5  C   UNL A   1      30.054  26.804  23.515  1.00  0.00     0.278 C 
ATOM      6  O   UNL A   1      29.193  25.960  23.807  1.00  0.00    -0.268 OA
ATOM      7  H   UNL A   1      28.592  28.092  23.144  1.00  0.00     0.163 HD
BRANCH   5   8
ATOM      8  C   UNL A   1      31.556  26.383  23.521  1.00  0.00     0.274 C 
ATOM      9  N   UNL A   1      32.158  26.326  24.885  1.00  0.00    -0.324 N 
ATOM     10  C   UNL A   1      32.299  24.902  25.207  1.00  0.00     0.270 C 
ATOM     11  H   UNL A   1      31.590  26.754  25.616  1.00  0.00     0.348 HD
ATOM     12  C   UNL A   1      32.469  24.112  23.887  1.00  0.00     0.029 C 
ATOM     13  C   UNL A   1      31.968  25.095  22.807  1.00  0.00     0.088 C 
ATOM     14  C   UNL A   1      31.687  22.782  23.756  1.00  0.00     0.034 C 
ATOM     15  C   UNL A   1      33.954  23.693  23.727  1.00  0.00     0.034 C 
ATOM     16  C   UNL A   1      32.015  21.829  24.882  1.00  0.00     0.120 C 
ATOM     17  C   UNL A   1      34.364  22.617  24.758  1.00  0.00     0.120 C 
ATOM     18  N   UNL A   1      33.430  21.486  24.826  1.00  0.00    -0.341 N 
ATOM     19  C   UNL A   1      33.931  20.200  24.968  1.00  0.00     0.244 C 
ATOM     20  O   UNL A   1      35.142  19.970  24.915  1.00  0.00    -0.273 OA
BRANCH   9  21
ATOM     21  C   UNL A   1      33.423  27.098  24.873  1.00  0.00     0.262 C 
BRANCH  21  22
ATOM     22  C   UNL A   1      33.961  27.614  26.218  1.00  0.00     0.058 C 
ATOM     23  C   UNL A   1      33.995  29.132  26.346  1.00  0.00     0.010 C 
ENDBRANCH  21  22
ENDBRANCH   9  21
BRANCH  19  24
ATOM     24  C   UNL A   1      32.973  19.047  25.183  1.00  0.00     0.248 C 
BRANCH  24  25
ATOM     25  N   UNL A   1      33.349  17.849  24.470  1.00  0.00    -0.220 N 
ATOM     26  N   UNL A   1      34.009  16.876  25.128  1.00  0.00    -0.044 NA
ATOM     27  C   UNL A   1      33.175  17.477  23.163  1.00  0.00     0.148 A 
ATOM     28  N   UNL A   1      34.238  15.936  24.227  1.00  0.00    -0.024 NA
ATOM     29  N   UNL A   1      33.751  16.302  23.002  1.00  0.00    -0.114 NA
ATOM     30  C   UNL A   1      32.481  18.247  22.111  1.00  0.00     0.091 C 
ENDBRANCH  24  25
ENDBRANCH  19  24
ENDBRANCH   5   8
ENDBRANCH   3   4
ENDBRANCH   2   3
ENDBRANCH   1   2
BRANCH   1  31
ATOM     31  C   UNL A   1      30.515  32.347  25.542  1.00  0.00     0.002 C 
BRANCH  31  32
ATOM     32  C   UNL A   1      31.301  31.740  26.715  1.00  0.00     0.021 C 
BRANCH  32  33
ATOM     33  C   UNL A   1      32.600  32.467  27.015  1.00  0.00     0.116 C 
BRANCH  33  34
ATOM     34  N   UNL A   1      32.380  33.820  27.546  1.00  0.00    -0.352 N 
ATOM     35  C   UNL A   1      33.013  34.447  28.599  1.00  0.00     0.251 C 
ATOM     36  H   UNL A   1      31.688  34.349  27.089  1.00  0.00     0.163 HD
ATOM     37  O   UNL A   1      32.514  35.431  29.149  1.00  0.00    -0.269 OA
BRANCH  35  38
ATOM     38  C   UNL A   1      34.314  33.936  29.043  1.00  0.00     0.039 A 
ATOM     39  C   UNL A   1      34.471  33.148  30.188  1.00  0.00     0.014 A 
ATOM     40  C   UNL A   1      35.403  34.242  28.235  1.00  0.00     0.014 A 
ATOM     41  C   UNL A   1      35.732  32.631  30.468  1.00  0.00     0.010 A 
ATOM     42  C   UNL A   1      36.552  33.526  28.363  1.00  0.00     0.010 A 
ATOM     43  C   UNL A   1      36.762  32.824  29.536  1.00  0.00    -0.014 A 
BRANCH  43  44
ATOM     44  C   UNL A   1      38.087  32.255  29.700  1.00  0.00     0.031 A 
ATOM     45  C   UNL A   1      38.208  30.857  29.229  1.00  0.00     0.074 A 
ATOM     46  C   UNL A   1      39.153  33.024  30.016  1.00  0.00     0.049 A 
ATOM     47  N   UNL A   1      38.396  29.810  29.957  1.00  0.00    -0.248 NA
ATOM     48  C   UNL A   1      37.931  30.560  27.814  1.00  0.00     0.031 C 
ATOM     49  C   UNL A   1      39.222  34.480  30.202  1.00  0.00     0.029 A 
ATOM     50  N   UNL A   1      40.454  32.654  30.136  1.00  0.00    -0.354 N 
ATOM     51  C   UNL A   1      38.476  28.739  29.074  1.00  0.00     0.074 A 
ATOM     52  C   UNL A   1      37.990  29.227  27.810  1.00  0.00     0.031 C 
ATOM     53  C   UNL A   1      40.511  34.884  30.180  1.00  0.00     0.029 A 
ATOM     54  C   UNL A   1      41.360  33.710  30.148  1.00  0.00     0.049 A 
ATOM     55  H   UNL A   1      40.733  31.712  30.210  1.00  0.00     0.167 HD
ATOM     56  C   UNL A   1      39.170  27.617  29.410  1.00  0.00     0.037 A 
ATOM     57  C   UNL A   1      42.712  33.599  30.104  1.00  0.00     0.037 A 
ATOM     58  C   UNL A   1      39.459  27.601  30.826  1.00  0.00     0.049 A 
ATOM     59  C   UNL A   1      43.044  32.214  30.535  1.00  0.00     0.074 A 
ATOM     60  C   UNL A   1      38.683  27.616  31.970  1.00  0.00     0.029 A 
ATOM     61  N   UNL A   1      40.716  27.991  31.222  1.00  0.00    -0.354 N 
ATOM     62  N   UNL A   1      42.854  31.779  31.751  1.00  0.00    -0.248 NA
ATOM     63  C   UNL A   1      43.092  31.184  29.505  1.00  0.00     0.031 C 
ATOM     64  C   UNL A   1      39.371  28.485  32.867  1.00  0.00     0.029 A 
ATOM     65  C   UNL A   1      40.565  28.877  32.260  1.00  0.00     0.049 A 
ATOM     66  H   UNL A   1      41.569  27.691  30.833  1.00  0.00     0.167 HD
ATOM     67  C   UNL A   1      42.324  30.505  31.593  1.00  0.00     0.074 A 
ATOM     68  C   UNL A   1      42.560  30.167  30.189  1.00  0.00     0.031 C 
ATOM     69  C   UNL A   1      41.472  29.971  32.519  1.00  0.00     0.037 A 
BRANCH  56  70
ATOM     70  C   UNL A   1      39.921  26.741  28.439  1.00  0.00     0.057 A 
ATOM     71  C   UNL A   1      40.881  27.333  27.598  1.00  0.00     0.134 A 
ATOM     72  C   UNL A   1      39.542  25.431  28.086  1.00  0.00     0.134 A 
ATOM     73  F   UNL A   1      41.328  28.577  27.831  1.00  0.00    -0.206 F 
ATOM     74  C   UNL A   1      41.351  26.707  26.439  1.00  0.00     0.040 A 
ATOM     75  C   UNL A   1      40.045  24.778  26.957  1.00  0.00     0.040 A 
ATOM     76  F   UNL A   1      38.598  24.747  28.743  1.00  0.00    -0.206 F 
ATOM     77  C   UNL A   1      40.923  25.429  26.108  1.00  0.00     0.006 A 
ENDBRANCH  56  70
BRANCH  57  78
ATOM     78  C   UNL A   1      43.692  34.490  29.437  1.00  0.00     0.057 A 
ATOM     79  C   UNL A   1      43.932  34.408  28.058  1.00  0.00     0.134 A 
ATOM     80  C   UNL A   1      44.215  35.625  30.084  1.00  0.00     0.134 A 
ATOM     81  F   UNL A   1      43.441  33.386  27.342  1.00  0.00    -0.206 F 
ATOM     82  C   UNL A   1      44.626  35.407  27.359  1.00  0.00     0.040 A 
ATOM     83  C   UNL A   1      44.913  36.625  29.400  1.00  0.00     0.040 A 
ATOM     84  F   UNL A   1      43.989  35.845  31.387  1.00  0.00    -0.206 F 
ATOM     85  C   UNL A   1      45.108  36.527  28.028  1.00  0.00     0.006 A 
ENDBRANCH  57  78
BRANCH  69  86
ATOM     86  C   UNL A   1      41.284  30.707  33.820  1.00  0.00     0.057 A 
ATOM     87  C   UNL A   1      40.283  31.665  34.048  1.00  0.00     0.134 A 
ATOM     88  C   UNL A   1      42.031  30.307  34.931  1.00  0.00     0.134 A 
ATOM     89  F   UNL A   1      39.447  32.042  33.075  1.00  0.00    -0.206 F 
ATOM     90  C   UNL A   1      40.065  32.226  35.312  1.00  0.00     0.040 A 
ATOM     91  C   UNL A   1      41.802  30.832  36.205  1.00  0.00     0.040 A 
ATOM     92  F   UNL A   1      42.965  29.350  34.806  1.00  0.00    -0.206 F 
ATOM     93  C   UNL A   1      40.823  31.803  36.398  1.00  0.00     0.006 A 
ENDBRANCH  69  86
ENDBRANCH  43  44
ENDBRANCH  35  38
ENDBRANCH  33  34
ENDBRANCH  32  33
ENDBRANCH  31  32
ENDBRANCH   1  31
TORSDOF 17
ENDMDL
MODEL 3
REMARK VINA RESULT:     -12.1      2.120      6.013
REMARK SMILES CCC[N@@H+]1CC2(CCN(C(=O)Cn3nnnc3C)CC2)C[C@H]1C(=O)NCCCCCCNC(=O)c1ccc(-c2c3nc(c(-c4c(F)cccc4F)c4ccc([nH]4)c(-c4c(F)cccc4F)c4nc(c(-c5c(F)cccc5F)c5ccc2[nH]5)C=C4)C=C3)cc1
REMARK SMILES IDX 28 1 27 2 26 3 25 4 23 5 24 6 22 8 4 9 5 10 6 12 21 13 7 14
REMARK SMILES IDX 20 15 8 16 19 17 9 18 10 19 11 20 3 21 2 22 1 23 12 24 13 25
REMARK SMILES IDX 14 26 17 27 15 28 16 29 18 30 29 31 30 32 31 33 32 34 33 35
REMARK SMILES IDX 34 37 35 38 36 39 88 40 37 41 87 42 38 43 39 44 40 45 81 46
REMARK SMILES IDX 41 47 86 48 80 49 82 50 42 51 85 52 79 53 78 54 43 56 69 57
REMARK SMILES IDX 52 58 68 59 53 60 56 61 67 62 83 63 54 64 55 65 66 67 84 68
REMARK SMILES IDX 57 69 44 70 45 71 50 72 46 73 47 74 49 75 51 76 48 77 70 78
REMARK SMILES IDX 71 79 76 80 72 81 73 82 75 83 77 84 74 85 58 86 59 87 64 88
REMARK SMILES IDX 60 89 61 90 63 91 65 92 62 93
REMARK H PARENT 25 7 4 11 32 36 82 55 56 66
REMARK Flexibility Score: inf
ROOT
ATOM      1  C   UNL A   1      30.963  30.872  25.403  1.00  0.00     0.002 C 
ENDROOT
BRANCH   1   2
ATOM      2  C   UNL A   1      31.028  29.409  24.967  1.00  0.00     0.021 C 
BRANCH   2   3
ATOM      3  C   UNL A   1      30.391  29.151  23.605  1.00  0.00     0.116 C 
BRANCH   3   4
ATOM      4  N   UNL A   1      29.707  27.897  23.473  1.00  0.00    -0.351 N 
ATOM      5  C   UNL A   1      30.181  26.622  23.444  1.00  0.00     0.278 C 
ATOM      6  O   UNL A   1      29.315  25.739  23.527  1.00  0.00    -0.268 OA
ATOM      7  H   UNL A   1      28.729  27.971  23.390  1.00  0.00     0.163 HD
BRANCH   5   8
ATOM      8  C   UNL A   1      31.680  26.201  23.350  1.00  0.00     0.274 C 
ATOM      9  N   UNL A   1      32.393  26.219  24.661  1.00  0.00    -0.324 N 
ATOM     10  C   UNL A   1      32.565  24.815  25.048  1.00  0.00     0.270 C 
ATOM     11  H   UNL A   1      31.885  26.687  25.412  1.00  0.00     0.348 HD
ATOM     12  C   UNL A   1      32.629  23.953  23.765  1.00  0.00     0.029 C 
ATOM     13  C   UNL A   1      32.038  24.875  22.677  1.00  0.00     0.088 C 
ATOM     14  C   UNL A   1      31.845  22.618  23.772  1.00  0.00     0.034 C 
ATOM     15  C   UNL A   1      34.098  23.525  23.506  1.00  0.00     0.034 C 
ATOM     16  C   UNL A   1      32.268  21.729  24.918  1.00  0.00     0.120 C 
ATOM     17  C   UNL A   1      34.596  22.507  24.558  1.00  0.00     0.120 C 
ATOM     18  N   UNL A   1      33.675  21.382  24.766  1.00  0.00    -0.341 N 
ATOM     19  C   UNL A   1      34.191  20.106  24.936  1.00  0.00     0.244 C 
ATOM     20  O   UNL A   1      35.394  19.872  24.797  1.00  0.00    -0.273 OA
BRANCH   9  21
ATOM     21  C   UNL A   1      33.650  26.988  24.502  1.00  0.00     0.262 C 
BRANCH  21  22
ATOM     22  C   UNL A   1      33.954  27.589  23.120  1.00  0.00     0.058 C 
ATOM     23  C   UNL A   1      34.073  29.109  23.103  1.00  0.00     0.010 C 
ENDBRANCH  21  22
ENDBRANCH   9  21
BRANCH  19  24
ATOM     24  C   UNL A   1      33.258  18.968  25.292  1.00  0.00     0.248 C 
BRANCH  24  25
ATOM     25  N   UNL A   1      33.524  17.756  24.552  1.00  0.00    -0.220 N 
ATOM     26  N   UNL A   1      34.198  16.757  25.153  1.00  0.00    -0.044 NA
ATOM     27  C   UNL A   1      33.224  17.394  23.265  1.00  0.00     0.148 A 
ATOM     28  N   UNL A   1      34.311  15.809  24.238  1.00  0.00    -0.024 NA
ATOM     29  N   UNL A   1      33.737  16.197  23.058  1.00  0.00    -0.114 NA
ATOM     30  C   UNL A   1      32.475  18.192  22.275  1.00  0.00     0.091 C 
ENDBRANCH  24  25
ENDBRANCH  19  24
ENDBRANCH   5   8
ENDBRANCH   3   4
ENDBRANCH   2   3
ENDBRANCH   1   2
BRANCH   1  31
ATOM     31  C   UNL A   1      31.957  31.296  26.501  1.00  0.00     0.002 C 
BRANCH  31  32
ATOM     32  C   UNL A   1      32.888  30.212  27.067  1.00  0.00     0.021 C 
BRANCH  32  33
ATOM     33  C   UNL A   1      34.255  30.738  27.472  1.00  0.00     0.116 C 
BRANCH  33  34
ATOM     34  N   UNL A   1      34.187  31.668  28.608  1.00  0.00    -0.352 N 
ATOM     35  C   UNL A   1      35.042  31.779  29.685  1.00  0.00     0.251 C 
ATOM     36  H   UNL A   1      33.429  32.295  28.600  1.00  0.00     0.163 HD
ATOM     37  O   UNL A   1      34.695  32.353  30.719  1.00  0.00    -0.269 OA
BRANCH  35  38
ATOM     38  C   UNL A   1      36.393  31.218  29.572  1.00  0.00     0.039 A 
ATOM     39  C   UNL A   1      37.542  32.011  29.511  1.00  0.00     0.014 A 
ATOM     40  C   UNL A   1      36.483  29.831  29.567  1.00  0.00     0.014 A 
ATOM     41  C   UNL A   1      38.783  31.379  29.503  1.00  0.00     0.010 A 
ATOM     42  C   UNL A   1      37.679  29.238  29.828  1.00  0.00     0.010 A 
ATOM     43  C   UNL A   1      38.832  29.988  29.672  1.00  0.00    -0.014 A 
BRANCH  43  44
ATOM     44  C   UNL A   1      40.078  29.250  29.759  1.00  0.00     0.031 A 
ATOM     45  C   UNL A   1      40.537  29.000  31.144  1.00  0.00     0.074 A 
ATOM     46  C   UNL A   1      40.616  28.639  28.680  1.00  0.00     0.049 A 
ATOM     47  N   UNL A   1      41.573  29.510  31.719  1.00  0.00    -0.248 NA
ATOM     48  C   UNL A   1      39.671  28.227  32.049  1.00  0.00     0.031 C 
ATOM     49  C   UNL A   1      40.091  28.549  27.311  1.00  0.00     0.029 A 
ATOM     50  N   UNL A   1      41.728  27.864  28.617  1.00  0.00    -0.354 N 
ATOM     51  C   UNL A   1      41.614  28.957  32.994  1.00  0.00     0.074 A 
ATOM     52  C   UNL A   1      40.330  28.342  33.204  1.00  0.00     0.031 C 
ATOM     53  C   UNL A   1      40.753  27.587  26.629  1.00  0.00     0.029 A 
ATOM     54  C   UNL A   1      41.850  27.115  27.450  1.00  0.00     0.049 A 
ATOM     55  H   UNL A   1      42.397  27.834  29.340  1.00  0.00     0.167 HD
ATOM     56  C   UNL A   1      42.796  28.847  33.661  1.00  0.00     0.037 A 
ATOM     57  C   UNL A   1      42.781  26.156  27.213  1.00  0.00     0.037 A 
ATOM     58  C   UNL A   1      43.816  29.650  33.027  1.00  0.00     0.049 A 
ATOM     59  C   UNL A   1      43.897  26.396  28.167  1.00  0.00     0.074 A 
ATOM     60  C   UNL A   1      43.952  30.999  32.753  1.00  0.00     0.029 A 
ATOM     61  N   UNL A   1      44.705  29.008  32.197  1.00  0.00    -0.354 N 
ATOM     62  N   UNL A   1      44.677  27.441  28.105  1.00  0.00    -0.248 NA
ATOM     63  C   UNL A   1      43.813  25.757  29.473  1.00  0.00     0.031 C 
ATOM     64  C   UNL A   1      44.527  31.050  31.449  1.00  0.00     0.029 A 
ATOM     65  C   UNL A   1      44.792  29.742  31.041  1.00  0.00     0.049 A 
ATOM     66  H   UNL A   1      45.190  28.175  32.395  1.00  0.00     0.167 HD
ATOM     67  C   UNL A   1      44.824  27.851  29.424  1.00  0.00     0.074 A 
ATOM     68  C   UNL A   1      44.327  26.733  30.227  1.00  0.00     0.031 C 
ATOM     69  C   UNL A   1      45.039  29.163  29.740  1.00  0.00     0.037 A 
BRANCH  56  70
ATOM     70  C   UNL A   1      43.144  27.742  34.626  1.00  0.00     0.057 A 
ATOM     71  C   UNL A   1      43.313  26.437  34.127  1.00  0.00     0.134 A 
ATOM     72  C   UNL A   1      43.026  27.836  36.026  1.00  0.00     0.134 A 
ATOM     73  F   UNL A   1      43.442  26.214  32.810  1.00  0.00    -0.206 F 
ATOM     74  C   UNL A   1      43.266  25.307  34.949  1.00  0.00     0.040 A 
ATOM     75  C   UNL A   1      43.030  26.715  36.862  1.00  0.00     0.040 A 
ATOM     76  F   UNL A   1      42.801  28.993  36.658  1.00  0.00    -0.206 F 
ATOM     77  C   UNL A   1      43.112  25.443  36.322  1.00  0.00     0.006 A 
ENDBRANCH  56  70
BRANCH  57  78
ATOM     78  C   UNL A   1      42.635  24.895  26.447  1.00  0.00     0.057 A 
ATOM     79  C   UNL A   1      43.461  24.607  25.351  1.00  0.00     0.134 A 
ATOM     80  C   UNL A   1      41.870  23.820  26.936  1.00  0.00     0.134 A 
ATOM     81  F   UNL A   1      44.261  25.552  24.835  1.00  0.00    -0.206 F 
ATOM     82  C   UNL A   1      43.543  23.323  24.792  1.00  0.00     0.040 A 
ATOM     83  C   UNL A   1      41.938  22.536  26.385  1.00  0.00     0.040 A 
ATOM     84  F   UNL A   1      41.098  23.958  28.023  1.00  0.00    -0.206 F 
ATOM     85  C   UNL A   1      42.788  22.279  25.317  1.00  0.00     0.006 A 
ENDBRANCH  57  78
BRANCH  69  86
ATOM     86  C   UNL A   1      45.323  30.128  28.617  1.00  0.00     0.057 A 
ATOM     87  C   UNL A   1      46.577  30.280  28.004  1.00  0.00     0.134 A 
ATOM     88  C   UNL A   1      44.250  30.798  28.023  1.00  0.00     0.134 A 
ATOM     89  F   UNL A   1      47.647  29.602  28.432  1.00  0.00    -0.206 F 
ATOM     90  C   UNL A   1      46.760  31.092  26.879  1.00  0.00     0.040 A 
ATOM     91  C   UNL A   1      44.412  31.585  26.881  1.00  0.00     0.040 A 
ATOM     92  F   UNL A   1      43.010  30.654  28.514  1.00  0.00    -0.206 F 
ATOM     93  C   UNL A   1      45.672  31.743  26.310  1.00  0.00     0.006 A 
ENDBRANCH  69  86
ENDBRANCH  43  44
ENDBRANCH  35  38
ENDBRANCH  33  34
ENDBRANCH  32  33
ENDBRANCH  31  32
ENDBRANCH   1  31
TORSDOF 17
ENDMDL
