MODEL 1
REMARK VINA RESULT:     -12.0      0.000      0.000
REMARK SMILES C[C@H](c1ccccc1F)N(C)c1cccc(F)c1C(=O)NCCCCCCNC(=O)c1ccc(-c2c3nc(c(-c4c(F)cccc4F)c4ccc([nH]4)c(-c4c(F)cccc4F)c4nc(c(-c5c(F)cccc5F)c5ccc2[nH]5)C=C4)C=C3)cc1
REMARK SMILES IDX 24 1 23 2 22 3 21 4 19 5 20 6 18 8 12 9 13 10 14 11 16 12
REMARK SMILES IDX 15 13 17 14 10 15 11 16 2 17 1 18 3 19 4 20 8 21 5 22 7 23
REMARK SMILES IDX 9 24 6 25 25 26 26 27 27 28 28 29 29 30 30 32 31 33 32 34
REMARK SMILES IDX 84 35 33 36 83 37 34 38 35 39 36 40 77 41 37 42 82 43 76 44
REMARK SMILES IDX 78 45 38 46 81 47 75 48 74 49 39 51 65 52 48 53 64 54 49 55
REMARK SMILES IDX 52 56 63 57 79 58 50 59 51 60 62 62 80 63 53 64 40 65 41 66
REMARK SMILES IDX 46 67 42 68 43 69 45 70 47 71 44 72 66 73 67 74 72 75 68 76
REMARK SMILES IDX 69 77 71 78 73 79 70 80 54 81 55 82 60 83 56 84 57 85 59 86
REMARK SMILES IDX 61 87 58 88
REMARK H PARENT 21 7 28 31 78 50 52 61
REMARK Flexibility Score: inf
ROOT
ATOM      1  C   UNL A   1      30.114  29.747  23.841  1.00  0.00     0.002 C 
ENDROOT
BRANCH   1   2
ATOM      2  C   UNL A   1      30.654  29.218  22.510  1.00  0.00     0.021 C 
BRANCH   2   3
ATOM      3  C   UNL A   1      30.616  27.708  22.291  1.00  0.00     0.116 C 
BRANCH   3   4
ATOM      4  N   UNL A   1      31.851  27.115  21.805  1.00  0.00    -0.352 N 
ATOM      5  C   UNL A   1      32.980  26.719  22.507  1.00  0.00     0.256 C 
ATOM      6  O   UNL A   1      33.810  26.031  21.916  1.00  0.00    -0.269 OA
ATOM      7  H   UNL A   1      31.891  26.970  20.832  1.00  0.00     0.163 HD
BRANCH   5   8
ATOM      8  C   UNL A   1      33.210  27.160  23.912  1.00  0.00     0.098 A 
ATOM      9  C   UNL A   1      32.692  26.454  25.026  1.00  0.00     0.053 A 
ATOM     10  C   UNL A   1      33.144  26.862  26.301  1.00  0.00     0.027 A 
ATOM     11  C   UNL A   1      33.958  27.976  26.499  1.00  0.00     0.005 A 
ATOM     12  C   UNL A   1      33.937  28.340  24.135  1.00  0.00     0.138 A 
ATOM     13  C   UNL A   1      34.327  28.740  25.409  1.00  0.00     0.040 A 
ATOM     14  F   UNL A   1      34.288  29.139  23.115  1.00  0.00    -0.206 F 
BRANCH   9  15
ATOM     15  N   UNL A   1      31.764  25.419  24.957  1.00  0.00    -0.367 N 
ATOM     16  C   UNL A   1      30.390  25.671  25.369  1.00  0.00     0.144 C 
BRANCH  15  17
ATOM     17  C   UNL A   1      32.109  24.075  24.420  1.00  0.00     0.112 C 
ATOM     18  C   UNL A   1      30.911  23.497  23.649  1.00  0.00     0.036 C 
BRANCH  17  19
ATOM     19  C   UNL A   1      32.711  23.162  25.483  1.00  0.00     0.010 A 
ATOM     20  C   UNL A   1      32.406  23.264  26.852  1.00  0.00     0.009 A 
ATOM     21  C   UNL A   1      33.664  22.204  25.102  1.00  0.00     0.128 A 
ATOM     22  C   UNL A   1      33.076  22.478  27.797  1.00  0.00     0.001 A 
ATOM     23  C   UNL A   1      34.353  21.440  26.041  1.00  0.00     0.039 A 
ATOM     24  F   UNL A   1      33.970  22.036  23.806  1.00  0.00    -0.207 F 
ATOM     25  C   UNL A   1      34.066  21.584  27.395  1.00  0.00     0.003 A 
ENDBRANCH  17  19
ENDBRANCH  15  17
ENDBRANCH   9  15
ENDBRANCH   5   8
ENDBRANCH   3   4
ENDBRANCH   2   3
ENDBRANCH   1   2
BRANCH   1  26
ATOM     26  C   UNL A   1      31.133  30.019  24.950  1.00  0.00     0.002 C 
BRANCH  26  27
ATOM     27  C   UNL A   1      30.986  31.337  25.713  1.00  0.00     0.021 C 
BRANCH  27  28
ATOM     28  C   UNL A   1      32.146  31.715  26.628  1.00  0.00     0.116 C 
BRANCH  28  29
ATOM     29  N   UNL A   1      32.103  33.101  27.062  1.00  0.00    -0.352 N 
ATOM     30  C   UNL A   1      32.960  33.789  27.892  1.00  0.00     0.251 C 
ATOM     31  H   UNL A   1      31.350  33.628  26.709  1.00  0.00     0.163 HD
ATOM     32  O   UNL A   1      32.691  34.926  28.253  1.00  0.00    -0.269 OA
BRANCH  30  33
ATOM     33  C   UNL A   1      34.199  33.138  28.376  1.00  0.00     0.039 A 
ATOM     34  C   UNL A   1      35.386  33.876  28.389  1.00  0.00     0.014 A 
ATOM     35  C   UNL A   1      34.190  31.815  28.822  1.00  0.00     0.014 A 
ATOM     36  C   UNL A   1      36.545  33.315  28.930  1.00  0.00     0.010 A 
ATOM     37  C   UNL A   1      35.328  31.280  29.422  1.00  0.00     0.010 A 
ATOM     38  C   UNL A   1      36.512  32.029  29.494  1.00  0.00    -0.014 A 
BRANCH  38  39
ATOM     39  C   UNL A   1      37.689  31.462  30.200  1.00  0.00     0.031 A 
ATOM     40  C   UNL A   1      38.575  30.459  29.517  1.00  0.00     0.074 A 
ATOM     41  C   UNL A   1      37.914  31.791  31.488  1.00  0.00     0.049 A 
ATOM     42  N   UNL A   1      39.575  29.772  30.006  1.00  0.00    -0.248 NA
ATOM     43  C   UNL A   1      38.284  30.173  28.103  1.00  0.00     0.031 C 
ATOM     44  C   UNL A   1      37.111  32.733  32.270  1.00  0.00     0.029 A 
ATOM     45  N   UNL A   1      38.875  31.362  32.371  1.00  0.00    -0.354 N 
ATOM     46  C   UNL A   1      40.027  28.969  28.968  1.00  0.00     0.074 A 
ATOM     47  C   UNL A   1      39.164  29.218  27.834  1.00  0.00     0.031 C 
ATOM     48  C   UNL A   1      37.622  32.825  33.508  1.00  0.00     0.029 A 
ATOM     49  C   UNL A   1      38.757  31.914  33.624  1.00  0.00     0.049 A 
ATOM     50  H   UNL A   1      39.580  30.720  32.128  1.00  0.00     0.167 HD
ATOM     51  C   UNL A   1      41.080  28.119  28.956  1.00  0.00     0.037 A 
ATOM     52  C   UNL A   1      39.468  31.698  34.748  1.00  0.00     0.037 A 
ATOM     53  C   UNL A   1      41.948  27.892  30.082  1.00  0.00     0.049 A 
ATOM     54  C   UNL A   1      40.605  30.715  34.723  1.00  0.00     0.074 A 
ATOM     55  C   UNL A   1      43.075  27.089  30.148  1.00  0.00     0.029 A 
ATOM     56  N   UNL A   1      41.789  28.462  31.335  1.00  0.00    -0.354 N 
ATOM     57  N   UNL A   1      41.052  29.999  33.720  1.00  0.00    -0.248 NA
ATOM     58  C   UNL A   1      41.334  30.503  35.982  1.00  0.00     0.031 C 
ATOM     59  C   UNL A   1      43.563  27.131  31.455  1.00  0.00     0.029 A 
ATOM     60  C   UNL A   1      42.778  28.004  32.189  1.00  0.00     0.049 A 
ATOM     61  H   UNL A   1      41.079  29.098  31.581  1.00  0.00     0.167 HD
ATOM     62  C   UNL A   1      42.125  29.271  34.217  1.00  0.00     0.074 A 
ATOM     63  C   UNL A   1      42.269  29.638  35.611  1.00  0.00     0.031 C 
ATOM     64  C   UNL A   1      42.916  28.380  33.574  1.00  0.00     0.037 A 
BRANCH  51  65
ATOM     65  C   UNL A   1      41.368  27.372  27.686  1.00  0.00     0.057 A 
ATOM     66  C   UNL A   1      42.214  27.917  26.712  1.00  0.00     0.134 A 
ATOM     67  C   UNL A   1      40.741  26.154  27.392  1.00  0.00     0.134 A 
ATOM     68  F   UNL A   1      42.839  29.084  26.926  1.00  0.00    -0.206 F 
ATOM     69  C   UNL A   1      42.414  27.284  25.483  1.00  0.00     0.040 A 
ATOM     70  C   UNL A   1      40.955  25.499  26.178  1.00  0.00     0.040 A 
ATOM     71  F   UNL A   1      39.925  25.576  28.285  1.00  0.00    -0.206 F 
ATOM     72  C   UNL A   1      41.785  26.070  25.215  1.00  0.00     0.006 A 
ENDBRANCH  51  65
BRANCH  52  73
ATOM     73  C   UNL A   1      39.129  32.445  35.986  1.00  0.00     0.057 A 
ATOM     74  C   UNL A   1      38.238  31.929  36.935  1.00  0.00     0.134 A 
ATOM     75  C   UNL A   1      39.668  33.712  36.232  1.00  0.00     0.134 A 
ATOM     76  F   UNL A   1      37.683  30.720  36.756  1.00  0.00    -0.206 F 
ATOM     77  C   UNL A   1      37.877  32.655  38.071  1.00  0.00     0.040 A 
ATOM     78  C   UNL A   1      39.335  34.439  37.377  1.00  0.00     0.040 A 
ATOM     79  F   UNL A   1      40.542  34.252  35.370  1.00  0.00    -0.206 F 
ATOM     80  C   UNL A   1      38.429  33.914  38.296  1.00  0.00     0.006 A 
ENDBRANCH  52  73
BRANCH  64  81
ATOM     81  C   UNL A   1      44.030  27.741  34.349  1.00  0.00     0.057 A 
ATOM     82  C   UNL A   1      43.817  26.546  35.050  1.00  0.00     0.134 A 
ATOM     83  C   UNL A   1      45.275  28.363  34.494  1.00  0.00     0.134 A 
ATOM     84  F   UNL A   1      42.640  25.905  34.961  1.00  0.00    -0.206 F 
ATOM     85  C   UNL A   1      44.792  26.009  35.889  1.00  0.00     0.040 A 
ATOM     86  C   UNL A   1      46.268  27.822  35.312  1.00  0.00     0.040 A 
ATOM     87  F   UNL A   1      45.545  29.504  33.840  1.00  0.00    -0.206 F 
ATOM     88  C   UNL A   1      46.022  26.649  36.024  1.00  0.00     0.006 A 
ENDBRANCH  64  81
ENDBRANCH  38  39
ENDBRANCH  30  33
ENDBRANCH  28  29
ENDBRANCH  27  28
ENDBRANCH  26  27
ENDBRANCH   1  26
TORSDOF 16
ENDMDL
MODEL 2
REMARK VINA RESULT:     -11.9      0.374      5.991
REMARK SMILES C[C@H](c1ccccc1F)N(C)c1cccc(F)c1C(=O)NCCCCCCNC(=O)c1ccc(-c2c3nc(c(-c4c(F)cccc4F)c4ccc([nH]4)c(-c4c(F)cccc4F)c4nc(c(-c5c(F)cccc5F)c5ccc2[nH]5)C=C4)C=C3)cc1
REMARK SMILES IDX 24 1 23 2 22 3 21 4 19 5 20 6 18 8 12 9 13 10 14 11 16 12
REMARK SMILES IDX 15 13 17 14 10 15 11 16 2 17 1 18 3 19 4 20 8 21 5 22 7 23
REMARK SMILES IDX 9 24 6 25 25 26 26 27 27 28 28 29 29 30 30 32 31 33 32 34
REMARK SMILES IDX 84 35 33 36 83 37 34 38 35 39 36 40 77 41 37 42 82 43 76 44
REMARK SMILES IDX 78 45 38 46 81 47 75 48 74 49 39 51 65 52 48 53 64 54 49 55
REMARK SMILES IDX 52 56 63 57 79 58 50 59 51 60 62 62 80 63 53 64 40 65 41 66
REMARK SMILES IDX 46 67 42 68 43 69 45 70 47 71 44 72 66 73 67 74 72 75 68 76
REMARK SMILES IDX 69 77 71 78 73 79 70 80 54 81 55 82 60 83 56 84 57 85 59 86
REMARK SMILES IDX 61 87 58 88
REMARK H PARENT 21 7 28 31 78 50 52 61
REMARK Flexibility Score: inf
ROOT
ATOM      1  C   UNL A   1      29.879  29.955  23.686  1.00  0.00     0.002 C 
ENDROOT
BRANCH   1   2
ATOM      2  C   UNL A   1      30.405  29.329  22.393  1.00  0.00     0.021 C 
BRANCH   2   3
ATOM      3  C   UNL A   1      30.469  27.805  22.329  1.00  0.00     0.116 C 
BRANCH   3   4
ATOM      4  N   UNL A   1      31.700  27.252  21.789  1.00  0.00    -0.352 N 
ATOM      5  C   UNL A   1      32.849  26.839  22.446  1.00  0.00     0.256 C 
ATOM      6  O   UNL A   1      33.675  26.191  21.806  1.00  0.00    -0.269 OA
ATOM      7  H   UNL A   1      31.721  27.155  20.809  1.00  0.00     0.163 HD
BRANCH   5   8
ATOM      8  C   UNL A   1      33.106  27.216  23.866  1.00  0.00     0.098 A 
ATOM      9  C   UNL A   1      32.670  26.421  24.955  1.00  0.00     0.053 A 
ATOM     10  C   UNL A   1      33.144  26.784  26.235  1.00  0.00     0.027 A 
ATOM     11  C   UNL A   1      33.900  27.932  26.468  1.00  0.00     0.005 A 
ATOM     12  C   UNL A   1      33.772  28.423  24.130  1.00  0.00     0.138 A 
ATOM     13  C   UNL A   1      34.185  28.775  25.411  1.00  0.00     0.040 A 
ATOM     14  F   UNL A   1      34.038  29.296  23.146  1.00  0.00    -0.206 F 
BRANCH   9  15
ATOM     15  N   UNL A   1      31.801  25.338  24.859  1.00  0.00    -0.367 N 
ATOM     16  C   UNL A   1      30.398  25.523  25.203  1.00  0.00     0.144 C 
BRANCH  15  17
ATOM     17  C   UNL A   1      32.239  24.007  24.358  1.00  0.00     0.112 C 
ATOM     18  C   UNL A   1      31.106  23.353  23.550  1.00  0.00     0.036 C 
BRANCH  17  19
ATOM     19  C   UNL A   1      32.846  23.145  25.459  1.00  0.00     0.010 A 
ATOM     20  C   UNL A   1      32.401  23.167  26.792  1.00  0.00     0.009 A 
ATOM     21  C   UNL A   1      33.944  22.322  25.157  1.00  0.00     0.128 A 
ATOM     22  C   UNL A   1      33.071  22.442  27.786  1.00  0.00     0.001 A 
ATOM     23  C   UNL A   1      34.630  21.621  26.146  1.00  0.00     0.039 A 
ATOM     24  F   UNL A   1      34.391  22.232  23.895  1.00  0.00    -0.207 F 
ATOM     25  C   UNL A   1      34.199  21.688  27.467  1.00  0.00     0.003 A 
ENDBRANCH  17  19
ENDBRANCH  15  17
ENDBRANCH   9  15
ENDBRANCH   5   8
ENDBRANCH   3   4
ENDBRANCH   2   3
ENDBRANCH   1   2
BRANCH   1  26
ATOM     26  C   UNL A   1      30.884  30.164  24.822  1.00  0.00     0.002 C 
BRANCH  26  27
ATOM     27  C   UNL A   1      30.770  31.469  25.613  1.00  0.00     0.021 C 
BRANCH  27  28
ATOM     28  C   UNL A   1      31.916  31.776  26.570  1.00  0.00     0.116 C 
BRANCH  28  29
ATOM     29  N   UNL A   1      31.963  33.170  26.977  1.00  0.00    -0.352 N 
ATOM     30  C   UNL A   1      32.877  33.822  27.773  1.00  0.00     0.251 C 
ATOM     31  H   UNL A   1      31.234  33.733  26.629  1.00  0.00     0.163 HD
ATOM     32  O   UNL A   1      32.683  34.980  28.117  1.00  0.00    -0.269 OA
BRANCH  30  33
ATOM     33  C   UNL A   1      34.087  33.110  28.243  1.00  0.00     0.039 A 
ATOM     34  C   UNL A   1      35.246  33.848  28.500  1.00  0.00     0.014 A 
ATOM     35  C   UNL A   1      34.078  31.727  28.439  1.00  0.00     0.014 A 
ATOM     36  C   UNL A   1      36.369  33.212  29.035  1.00  0.00     0.010 A 
ATOM     37  C   UNL A   1      35.173  31.106  29.035  1.00  0.00     0.010 A 
ATOM     38  C   UNL A   1      36.324  31.844  29.351  1.00  0.00    -0.014 A 
BRANCH  38  39
ATOM     39  C   UNL A   1      37.451  31.172  30.048  1.00  0.00     0.031 A 
ATOM     40  C   UNL A   1      37.735  31.467  31.493  1.00  0.00     0.074 A 
ATOM     41  C   UNL A   1      38.269  30.356  29.353  1.00  0.00     0.049 A 
ATOM     42  N   UNL A   1      38.735  31.068  32.236  1.00  0.00    -0.248 NA
ATOM     43  C   UNL A   1      36.779  32.343  32.190  1.00  0.00     0.031 C 
ATOM     44  C   UNL A   1      38.115  30.011  27.939  1.00  0.00     0.029 A 
ATOM     45  N   UNL A   1      39.401  29.679  29.739  1.00  0.00    -0.354 N 
ATOM     46  C   UNL A   1      38.537  31.649  33.481  1.00  0.00     0.074 A 
ATOM     47  C   UNL A   1      37.347  32.466  33.383  1.00  0.00     0.031 C 
ATOM     48  C   UNL A   1      39.101  29.173  27.580  1.00  0.00     0.029 A 
ATOM     49  C   UNL A   1      39.986  28.961  28.723  1.00  0.00     0.049 A 
ATOM     50  H   UNL A   1      39.758  29.706  30.655  1.00  0.00     0.167 HD
ATOM     51  C   UNL A   1      39.269  31.496  34.609  1.00  0.00     0.037 A 
ATOM     52  C   UNL A   1      41.116  28.229  28.704  1.00  0.00     0.037 A 
ATOM     53  C   UNL A   1      40.441  30.666  34.706  1.00  0.00     0.049 A 
ATOM     54  C   UNL A   1      41.938  28.111  29.958  1.00  0.00     0.074 A 
ATOM     55  C   UNL A   1      41.218  30.405  35.822  1.00  0.00     0.029 A 
ATOM     56  N   UNL A   1      41.005  29.964  33.652  1.00  0.00    -0.354 N 
ATOM     57  N   UNL A   1      41.712  28.627  31.141  1.00  0.00    -0.248 NA
ATOM     58  C   UNL A   1      43.173  27.317  29.876  1.00  0.00     0.031 C 
ATOM     59  C   UNL A   1      42.283  29.592  35.431  1.00  0.00     0.029 A 
ATOM     60  C   UNL A   1      42.139  29.297  34.086  1.00  0.00     0.049 A 
ATOM     61  H   UNL A   1      40.653  29.943  32.733  1.00  0.00     0.167 HD
ATOM     62  C   UNL A   1      42.759  28.203  31.949  1.00  0.00     0.074 A 
ATOM     63  C   UNL A   1      43.618  27.380  31.124  1.00  0.00     0.031 C 
ATOM     64  C   UNL A   1      42.984  28.474  33.257  1.00  0.00     0.037 A 
BRANCH  51  65
ATOM     65  C   UNL A   1      38.828  32.233  35.840  1.00  0.00     0.057 A 
ATOM     66  C   UNL A   1      39.198  33.569  36.046  1.00  0.00     0.134 A 
ATOM     67  C   UNL A   1      38.111  31.595  36.860  1.00  0.00     0.134 A 
ATOM     68  F   UNL A   1      39.893  34.235  35.113  1.00  0.00    -0.206 F 
ATOM     69  C   UNL A   1      38.882  34.239  37.230  1.00  0.00     0.040 A 
ATOM     70  C   UNL A   1      37.766  32.264  38.037  1.00  0.00     0.040 A 
ATOM     71  F   UNL A   1      37.720  30.320  36.723  1.00  0.00    -0.206 F 
ATOM     72  C   UNL A   1      38.163  33.586  38.228  1.00  0.00     0.006 A 
ENDBRANCH  51  65
BRANCH  52  73
ATOM     73  C   UNL A   1      41.524  27.539  27.454  1.00  0.00     0.057 A 
ATOM     74  C   UNL A   1      41.198  26.197  27.215  1.00  0.00     0.134 A 
ATOM     75  C   UNL A   1      42.281  28.200  26.481  1.00  0.00     0.134 A 
ATOM     76  F   UNL A   1      40.479  25.505  28.113  1.00  0.00    -0.206 F 
ATOM     77  C   UNL A   1      41.629  25.533  26.067  1.00  0.00     0.040 A 
ATOM     78  C   UNL A   1      42.697  27.554  25.315  1.00  0.00     0.040 A 
ATOM     79  F   UNL A   1      42.608  29.490  26.642  1.00  0.00    -0.206 F 
ATOM     80  C   UNL A   1      42.379  26.213  25.110  1.00  0.00     0.006 A 
ENDBRANCH  52  73
BRANCH  64  81
ATOM     81  C   UNL A   1      44.195  27.869  33.902  1.00  0.00     0.057 A 
ATOM     82  C   UNL A   1      44.122  26.612  34.519  1.00  0.00     0.134 A 
ATOM     83  C   UNL A   1      45.398  28.575  34.013  1.00  0.00     0.134 A 
ATOM     84  F   UNL A   1      42.992  25.889  34.458  1.00  0.00    -0.206 F 
ATOM     85  C   UNL A   1      45.192  26.093  35.246  1.00  0.00     0.040 A 
ATOM     86  C   UNL A   1      46.486  28.054  34.717  1.00  0.00     0.040 A 
ATOM     87  F   UNL A   1      45.536  29.779  33.436  1.00  0.00    -0.206 F 
ATOM     88  C   UNL A   1      46.379  26.816  35.348  1.00  0.00     0.006 A 
ENDBRANCH  64  81
ENDBRANCH  38  39
ENDBRANCH  30  33
ENDBRANCH  28  29
ENDBRANCH  27  28
ENDBRANCH  26  27
ENDBRANCH   1  26
TORSDOF 16
ENDMDL
MODEL 3
REMARK VINA RESULT:     -11.7      1.693      2.526
REMARK SMILES C[C@H](c1ccccc1F)N(C)c1cccc(F)c1C(=O)NCCCCCCNC(=O)c1ccc(-c2c3nc(c(-c4c(F)cccc4F)c4ccc([nH]4)c(-c4c(F)cccc4F)c4nc(c(-c5c(F)cccc5F)c5ccc2[nH]5)C=C4)C=C3)cc1
REMARK SMILES IDX 24 1 23 2 22 3 21 4 19 5 20 6 18 8 12 9 13 10 14 11 16 12
REMARK SMILES IDX 15 13 17 14 10 15 11 16 2 17 1 18 3 19 4 20 8 21 5 22 7 23
REMARK SMILES IDX 9 24 6 25 25 26 26 27 27 28 28 29 29 30 30 32 31 33 32 34
REMARK SMILES IDX 84 35 33 36 83 37 34 38 35 39 36 40 77 41 37 42 82 43 76 44
REMARK SMILES IDX 78 45 38 46 81 47 75 48 74 49 39 51 65 52 48 53 64 54 49 55
REMARK SMILES IDX 52 56 63 57 79 58 50 59 51 60 62 62 80 63 53 64 40 65 41 66
REMARK SMILES IDX 46 67 42 68 43 69 45 70 47 71 44 72 66 73 67 74 72 75 68 76
REMARK SMILES IDX 69 77 71 78 73 79 70 80 54 81 55 82 60 83 56 84 57 85 59 86
REMARK SMILES IDX 61 87 58 88
REMARK H PARENT 21 7 28 31 78 50 52 61
REMARK Flexibility Score: inf
ROOT
ATOM      1  C   UNL A   1      32.364  29.341  27.266  1.00  0.00     0.002 C 
ENDROOT
BRANCH   1   2
ATOM      2  C   UNL A   1      31.444  28.193  27.686  1.00  0.00     0.021 C 
BRANCH   2   3
ATOM      3  C   UNL A   1      31.125  27.132  26.635  1.00  0.00     0.116 C 
BRANCH   3   4
ATOM      4  N   UNL A   1      31.880  25.895  26.745  1.00  0.00    -0.352 N 
ATOM      5  C   UNL A   1      32.897  25.403  25.942  1.00  0.00     0.256 C 
ATOM      6  O   UNL A   1      33.545  24.445  26.359  1.00  0.00    -0.269 OA
ATOM      7  H   UNL A   1      31.633  25.320  27.506  1.00  0.00     0.163 HD
BRANCH   5   8
ATOM      8  C   UNL A   1      33.162  25.977  24.591  1.00  0.00     0.098 A 
ATOM      9  C   UNL A   1      32.784  25.317  23.396  1.00  0.00     0.053 A 
ATOM     10  C   UNL A   1      32.914  26.052  22.197  1.00  0.00     0.027 A 
ATOM     11  C   UNL A   1      33.496  27.317  22.140  1.00  0.00     0.005 A 
ATOM     12  C   UNL A   1      33.843  27.201  24.504  1.00  0.00     0.138 A 
ATOM     13  C   UNL A   1      33.997  27.879  23.299  1.00  0.00     0.040 A 
ATOM     14  F   UNL A   1      34.383  27.771  25.593  1.00  0.00    -0.206 F 
BRANCH   9  15
ATOM     15  N   UNL A   1      32.325  24.005  23.316  1.00  0.00    -0.367 N 
ATOM     16  C   UNL A   1      30.986  23.693  23.797  1.00  0.00     0.144 C 
BRANCH  15  17
ATOM     17  C   UNL A   1      33.130  22.915  22.700  1.00  0.00     0.112 C 
ATOM     18  C   UNL A   1      32.221  21.724  22.357  1.00  0.00     0.036 C 
BRANCH  17  19
ATOM     19  C   UNL A   1      34.373  22.581  23.517  1.00  0.00     0.010 A 
ATOM     20  C   UNL A   1      35.661  23.042  23.190  1.00  0.00     0.009 A 
ATOM     21  C   UNL A   1      34.255  21.724  24.623  1.00  0.00     0.128 A 
ATOM     22  C   UNL A   1      36.783  22.609  23.906  1.00  0.00     0.001 A 
ATOM     23  C   UNL A   1      35.372  21.269  25.321  1.00  0.00     0.039 A 
ATOM     24  F   UNL A   1      33.048  21.280  25.006  1.00  0.00    -0.207 F 
ATOM     25  C   UNL A   1      36.641  21.704  24.956  1.00  0.00     0.003 A 
ENDBRANCH  17  19
ENDBRANCH  15  17
ENDBRANCH   9  15
ENDBRANCH   5   8
ENDBRANCH   3   4
ENDBRANCH   2   3
ENDBRANCH   1   2
BRANCH   1  26
ATOM     26  C   UNL A   1      31.862  30.271  26.159  1.00  0.00     0.002 C 
BRANCH  26  27
ATOM     27  C   UNL A   1      31.564  31.718  26.557  1.00  0.00     0.021 C 
BRANCH  27  28
ATOM     28  C   UNL A   1      32.675  32.452  27.300  1.00  0.00     0.116 C 
BRANCH  28  29
ATOM     29  N   UNL A   1      32.362  33.846  27.564  1.00  0.00    -0.352 N 
ATOM     30  C   UNL A   1      32.957  34.731  28.433  1.00  0.00     0.251 C 
ATOM     31  H   UNL A   1      31.613  34.213  27.041  1.00  0.00     0.163 HD
ATOM     32  O   UNL A   1      32.472  35.839  28.618  1.00  0.00    -0.269 OA
BRANCH  30  33
ATOM     33  C   UNL A   1      34.175  34.330  29.175  1.00  0.00     0.039 A 
ATOM     34  C   UNL A   1      34.035  33.774  30.449  1.00  0.00     0.014 A 
ATOM     35  C   UNL A   1      35.445  34.493  28.616  1.00  0.00     0.014 A 
ATOM     36  C   UNL A   1      35.161  33.301  31.127  1.00  0.00     0.010 A 
ATOM     37  C   UNL A   1      36.558  33.962  29.262  1.00  0.00     0.010 A 
ATOM     38  C   UNL A   1      36.426  33.349  30.517  1.00  0.00    -0.014 A 
BRANCH  38  39
ATOM     39  C   UNL A   1      37.617  32.729  31.153  1.00  0.00     0.031 A 
ATOM     40  C   UNL A   1      38.266  31.522  30.537  1.00  0.00     0.074 A 
ATOM     41  C   UNL A   1      38.064  33.206  32.332  1.00  0.00     0.049 A 
ATOM     42  N   UNL A   1      39.237  30.779  31.002  1.00  0.00    -0.248 NA
ATOM     43  C   UNL A   1      37.741  31.079  29.235  1.00  0.00     0.031 C 
ATOM     44  C   UNL A   1      37.503  34.355  33.045  1.00  0.00     0.029 A 
ATOM     45  N   UNL A   1      39.084  32.777  33.145  1.00  0.00    -0.354 N 
ATOM     46  C   UNL A   1      39.433  29.779  30.060  1.00  0.00     0.074 A 
ATOM     47  C   UNL A   1      38.451  29.980  29.017  1.00  0.00     0.031 C 
ATOM     48  C   UNL A   1      38.196  34.552  34.177  1.00  0.00     0.029 A 
ATOM     49  C   UNL A   1      39.218  33.515  34.298  1.00  0.00     0.049 A 
ATOM     50  H   UNL A   1      39.665  32.014  32.925  1.00  0.00     0.167 HD
ATOM     51  C   UNL A   1      40.363  28.796  30.055  1.00  0.00     0.037 A 
ATOM     52  C   UNL A   1      40.053  33.366  35.344  1.00  0.00     0.037 A 
ATOM     53  C   UNL A   1      41.352  28.613  31.085  1.00  0.00     0.049 A 
ATOM     54  C   UNL A   1      41.048  32.239  35.336  1.00  0.00     0.074 A 
ATOM     55  C   UNL A   1      42.371  27.677  31.140  1.00  0.00     0.029 A 
ATOM     56  N   UNL A   1      41.446  29.376  32.239  1.00  0.00    -0.354 N 
ATOM     57  N   UNL A   1      41.254  31.329  34.415  1.00  0.00    -0.248 NA
ATOM     58  C   UNL A   1      41.921  32.110  36.512  1.00  0.00     0.031 C 
ATOM     59  C   UNL A   1      43.046  27.838  32.351  1.00  0.00     0.029 A 
ATOM     60  C   UNL A   1      42.486  28.910  33.026  1.00  0.00     0.049 A 
ATOM     61  H   UNL A   1      40.861  30.134  32.465  1.00  0.00     0.167 HD
ATOM     62  C   UNL A   1      42.293  30.537  34.886  1.00  0.00     0.074 A 
ATOM     63  C   UNL A   1      42.681  31.077  36.173  1.00  0.00     0.031 C 
ATOM     64  C   UNL A   1      42.869  29.459  34.303  1.00  0.00     0.037 A 
BRANCH  51  65
ATOM     65  C   UNL A   1      40.371  27.839  28.898  1.00  0.00     0.057 A 
ATOM     66  C   UNL A   1      41.076  28.142  27.725  1.00  0.00     0.134 A 
ATOM     67  C   UNL A   1      39.613  26.662  28.913  1.00  0.00     0.134 A 
ATOM     68  F   UNL A   1      41.814  29.258  27.641  1.00  0.00    -0.206 F 
ATOM     69  C   UNL A   1      41.013  27.313  26.603  1.00  0.00     0.040 A 
ATOM     70  C   UNL A   1      39.565  25.812  27.806  1.00  0.00     0.040 A 
ATOM     71  F   UNL A   1      38.922  26.311  30.007  1.00  0.00    -0.206 F 
ATOM     72  C   UNL A   1      40.258  26.144  26.643  1.00  0.00     0.006 A 
ENDBRANCH  51  65
BRANCH  52  73
ATOM     73  C   UNL A   1      39.990  34.324  36.476  1.00  0.00     0.057 A 
ATOM     74  C   UNL A   1      39.223  34.063  37.619  1.00  0.00     0.134 A 
ATOM     75  C   UNL A   1      40.675  35.544  36.426  1.00  0.00     0.134 A 
ATOM     76  F   UNL A   1      38.538  32.914  37.726  1.00  0.00    -0.206 F 
ATOM     77  C   UNL A   1      39.120  34.988  38.658  1.00  0.00     0.040 A 
ATOM     78  C   UNL A   1      40.601  36.468  37.470  1.00  0.00     0.040 A 
ATOM     79  F   UNL A   1      41.442  35.843  35.368  1.00  0.00    -0.206 F 
ATOM     80  C   UNL A   1      39.813  36.194  38.587  1.00  0.00     0.006 A 
ENDBRANCH  52  73
BRANCH  64  81
ATOM     81  C   UNL A   1      43.998  28.787  35.026  1.00  0.00     0.057 A 
ATOM     82  C   UNL A   1      45.326  29.165  34.783  1.00  0.00     0.134 A 
ATOM     83  C   UNL A   1      43.780  27.695  35.873  1.00  0.00     0.134 A 
ATOM     84  F   UNL A   1      45.602  30.197  33.971  1.00  0.00    -0.206 F 
ATOM     85  C   UNL A   1      46.396  28.462  35.335  1.00  0.00     0.040 A 
ATOM     86  C   UNL A   1      44.844  26.999  36.452  1.00  0.00     0.040 A 
ATOM     87  F   UNL A   1      42.532  27.291  36.155  1.00  0.00    -0.206 F 
ATOM     88  C   UNL A   1      46.156  27.374  36.171  1.00  0.00     0.006 A 
ENDBRANCH  64  81
ENDBRANCH  38  39
ENDBRANCH  30  33
ENDBRANCH  28  29
ENDBRANCH  27  28
ENDBRANCH  26  27
ENDBRANCH   1  26
TORSDOF 16
ENDMDL
