MODEL 1
REMARK VINA RESULT:     -11.0      0.000      0.000
REMARK SMILES CC[C@@H](NS(=O)(=O)c1cc(C)ccc1C)C(=O)NCCCCCCNC(=O)c1ccc(-c2c3nc(c(-c4c(F)cccc4F)c4ccc([nH]4)c(-c4c(F)cccc4F)c4nc(c(-c5c(F)cccc5F)c5ccc2[nH]5)C=C4)C=C3)cc1
REMARK SMILES IDX 21 1 20 2 19 3 18 4 16 5 17 6 3 8 2 9 1 10 4 11 5 13 6 14
REMARK SMILES IDX 7 15 8 16 9 17 14 18 10 19 13 20 15 21 11 22 12 23 22 24
REMARK SMILES IDX 23 25 24 26 25 27 26 28 27 30 28 31 29 32 81 33 30 34 80 35
REMARK SMILES IDX 31 36 32 37 33 38 74 39 34 40 79 41 73 42 75 43 35 44 78 45
REMARK SMILES IDX 72 46 71 47 36 49 62 50 45 51 61 52 46 53 49 54 60 55 76 56
REMARK SMILES IDX 47 57 48 58 59 60 77 61 50 62 37 63 38 64 43 65 39 66 40 67
REMARK SMILES IDX 42 68 44 69 41 70 63 71 64 72 69 73 65 74 66 75 68 76 70 77
REMARK SMILES IDX 67 78 51 79 52 80 57 81 53 82 54 83 56 84 58 85 55 86
REMARK H PARENT 18 7 4 12 25 29 75 48 49 59
REMARK Flexibility Score: inf
ROOT
ATOM      1  C   UNL A   1      39.016  21.623  26.010  1.00  0.00     0.002 C 
ENDROOT
BRANCH   1   2
ATOM      2  C   UNL A   1      38.526  23.070  26.149  1.00  0.00     0.021 C 
BRANCH   2   3
ATOM      3  C   UNL A   1      37.196  23.354  25.460  1.00  0.00     0.116 C 
BRANCH   3   4
ATOM      4  N   UNL A   1      36.064  23.185  26.364  1.00  0.00    -0.355 N 
ATOM      5  C   UNL A   1      34.903  22.471  26.218  1.00  0.00     0.238 C 
ATOM      6  O   UNL A   1      34.146  22.395  27.188  1.00  0.00    -0.273 OA
ATOM      7  H   UNL A   1      36.148  23.664  27.221  1.00  0.00     0.163 HD
BRANCH   5   8
ATOM      8  C   UNL A   1      34.545  21.816  24.881  1.00  0.00     0.158 C 
BRANCH   8   9
ATOM      9  C   UNL A   1      34.574  20.286  25.072  1.00  0.00     0.027 C 
ATOM     10  C   UNL A   1      33.534  19.499  24.293  1.00  0.00     0.006 C 
ENDBRANCH   8   9
BRANCH   8  11
ATOM     11  N   UNL A   1      33.243  22.357  24.410  1.00  0.00    -0.199 NA
ATOM     12  H   UNL A   1      32.896  22.985  25.136  1.00  0.00     0.142 HD
BRANCH  11  13
ATOM     13  S   UNL A   1      33.210  23.222  22.942  1.00  0.00     0.241 S 
ATOM     14  O   UNL A   1      34.530  23.773  22.766  1.00  0.00    -0.207 OA
ATOM     15  O   UNL A   1      32.650  22.284  21.985  1.00  0.00    -0.207 OA
BRANCH  13  16
ATOM     16  C   UNL A   1      32.029  24.557  23.087  1.00  0.00     0.085 A 
ATOM     17  C   UNL A   1      31.203  24.620  24.213  1.00  0.00     0.025 A 
ATOM     18  C   UNL A   1      31.942  25.571  22.115  1.00  0.00    -0.031 A 
ATOM     19  C   UNL A   1      30.425  25.753  24.488  1.00  0.00    -0.050 A 
ATOM     20  C   UNL A   1      31.113  26.681  22.371  1.00  0.00     0.005 A 
ATOM     21  C   UNL A   1      32.671  25.557  20.802  1.00  0.00     0.046 C 
ATOM     22  C   UNL A   1      29.648  25.876  25.763  1.00  0.00     0.044 C 
ATOM     23  C   UNL A   1      30.378  26.780  23.550  1.00  0.00     0.004 A 
ENDBRANCH  13  16
ENDBRANCH  11  13
ENDBRANCH   8  11
ENDBRANCH   5   8
ENDBRANCH   3   4
ENDBRANCH   2   3
ENDBRANCH   1   2
BRANCH   1  24
ATOM     24  C   UNL A   1      40.454  21.330  26.480  1.00  0.00     0.002 C 
BRANCH  24  25
ATOM     25  C   UNL A   1      41.083  20.006  26.047  1.00  0.00     0.021 C 
BRANCH  25  26
ATOM     26  C   UNL A   1      42.541  19.864  26.430  1.00  0.00     0.116 C 
BRANCH  26  27
ATOM     27  N   UNL A   1      43.468  19.644  25.327  1.00  0.00    -0.352 N 
ATOM     28  C   UNL A   1      44.214  20.565  24.607  1.00  0.00     0.251 C 
ATOM     29  H   UNL A   1      43.583  18.704  25.054  1.00  0.00     0.163 HD
ATOM     30  O   UNL A   1      44.878  20.210  23.639  1.00  0.00    -0.269 OA
BRANCH  28  31
ATOM     31  C   UNL A   1      44.295  21.965  25.085  1.00  0.00     0.039 A 
ATOM     32  C   UNL A   1      45.164  22.289  26.133  1.00  0.00     0.014 A 
ATOM     33  C   UNL A   1      43.365  22.893  24.645  1.00  0.00     0.014 A 
ATOM     34  C   UNL A   1      44.949  23.456  26.867  1.00  0.00     0.010 A 
ATOM     35  C   UNL A   1      43.035  23.935  25.480  1.00  0.00     0.010 A 
ATOM     36  C   UNL A   1      43.822  24.233  26.593  1.00  0.00    -0.014 A 
BRANCH  36  37
ATOM     37  C   UNL A   1      43.532  25.463  27.328  1.00  0.00     0.031 A 
ATOM     38  C   UNL A   1      44.479  26.581  27.053  1.00  0.00     0.074 A 
ATOM     39  C   UNL A   1      42.388  25.736  27.981  1.00  0.00     0.049 A 
ATOM     40  N   UNL A   1      45.491  26.969  27.761  1.00  0.00    -0.248 NA
ATOM     41  C   UNL A   1      44.398  27.228  25.731  1.00  0.00     0.031 C 
ATOM     42  C   UNL A   1      41.141  24.975  28.002  1.00  0.00     0.029 A 
ATOM     43  N   UNL A   1      42.080  26.862  28.688  1.00  0.00    -0.354 N 
ATOM     44  C   UNL A   1      46.058  28.011  27.028  1.00  0.00     0.074 A 
ATOM     45  C   UNL A   1      45.566  27.861  25.692  1.00  0.00     0.031 C 
ATOM     46  C   UNL A   1      40.161  25.749  28.528  1.00  0.00     0.029 A 
ATOM     47  C   UNL A   1      40.731  27.014  28.975  1.00  0.00     0.049 A 
ATOM     48  H   UNL A   1      42.759  27.514  28.972  1.00  0.00     0.167 HD
ATOM     49  C   UNL A   1      46.610  29.110  27.614  1.00  0.00     0.037 A 
ATOM     50  C   UNL A   1      40.143  28.130  29.477  1.00  0.00     0.037 A 
ATOM     51  C   UNL A   1      46.811  28.893  29.026  1.00  0.00     0.049 A 
ATOM     52  C   UNL A   1      41.214  29.008  30.020  1.00  0.00     0.074 A 
ATOM     53  C   UNL A   1      47.456  27.940  29.792  1.00  0.00     0.029 A 
ATOM     54  N   UNL A   1      45.986  29.564  29.897  1.00  0.00    -0.354 N 
ATOM     55  N   UNL A   1      41.886  28.775  31.111  1.00  0.00    -0.248 NA
ATOM     56  C   UNL A   1      41.806  29.995  29.127  1.00  0.00     0.031 C 
ATOM     57  C   UNL A   1      46.639  27.774  30.950  1.00  0.00     0.029 A 
ATOM     58  C   UNL A   1      45.571  28.665  30.843  1.00  0.00     0.049 A 
ATOM     59  H   UNL A   1      45.738  30.515  29.850  1.00  0.00     0.167 HD
ATOM     60  C   UNL A   1      43.163  29.245  30.849  1.00  0.00     0.074 A 
ATOM     61  C   UNL A   1      43.023  30.091  29.669  1.00  0.00     0.031 C 
ATOM     62  C   UNL A   1      44.255  28.675  31.435  1.00  0.00     0.037 A 
BRANCH  49  63
ATOM     63  C   UNL A   1      46.611  30.509  27.007  1.00  0.00     0.057 A 
ATOM     64  C   UNL A   1      47.816  31.236  27.002  1.00  0.00     0.134 A 
ATOM     65  C   UNL A   1      45.473  31.273  26.661  1.00  0.00     0.134 A 
ATOM     66  F   UNL A   1      48.981  30.641  27.301  1.00  0.00    -0.206 F 
ATOM     67  C   UNL A   1      47.870  32.618  26.779  1.00  0.00     0.040 A 
ATOM     68  C   UNL A   1      45.525  32.640  26.374  1.00  0.00     0.040 A 
ATOM     69  F   UNL A   1      44.228  30.790  26.666  1.00  0.00    -0.206 F 
ATOM     70  C   UNL A   1      46.719  33.328  26.472  1.00  0.00     0.006 A 
ENDBRANCH  49  63
BRANCH  50  71
ATOM     71  C   UNL A   1      38.751  28.624  29.356  1.00  0.00     0.057 A 
ATOM     72  C   UNL A   1      37.896  28.646  30.470  1.00  0.00     0.134 A 
ATOM     73  C   UNL A   1      38.306  29.328  28.226  1.00  0.00     0.134 A 
ATOM     74  F   UNL A   1      38.244  28.032  31.611  1.00  0.00    -0.206 F 
ATOM     75  C   UNL A   1      36.688  29.354  30.473  1.00  0.00     0.040 A 
ATOM     76  C   UNL A   1      37.094  30.029  28.210  1.00  0.00     0.040 A 
ATOM     77  F   UNL A   1      39.070  29.439  27.130  1.00  0.00    -0.206 F 
ATOM     78  C   UNL A   1      36.288  30.058  29.343  1.00  0.00     0.006 A 
ENDBRANCH  50  71
BRANCH  62  79
ATOM     79  C   UNL A   1      44.034  27.777  32.617  1.00  0.00     0.057 A 
ATOM     80  C   UNL A   1      43.909  26.382  32.537  1.00  0.00     0.134 A 
ATOM     81  C   UNL A   1      44.081  28.337  33.899  1.00  0.00     0.134 A 
ATOM     82  F   UNL A   1      43.964  25.744  31.360  1.00  0.00    -0.206 F 
ATOM     83  C   UNL A   1      43.779  25.590  33.681  1.00  0.00     0.040 A 
ATOM     84  C   UNL A   1      43.993  27.552  35.051  1.00  0.00     0.040 A 
ATOM     85  F   UNL A   1      44.255  29.659  34.055  1.00  0.00    -0.206 F 
ATOM     86  C   UNL A   1      43.827  26.175  34.944  1.00  0.00     0.006 A 
ENDBRANCH  62  79
ENDBRANCH  36  37
ENDBRANCH  28  31
ENDBRANCH  26  27
ENDBRANCH  25  26
ENDBRANCH  24  25
ENDBRANCH   1  24
TORSDOF 17
ENDMDL
MODEL 2
REMARK VINA RESULT:     -10.7      1.487      3.035
REMARK SMILES CC[C@@H](NS(=O)(=O)c1cc(C)ccc1C)C(=O)NCCCCCCNC(=O)c1ccc(-c2c3nc(c(-c4c(F)cccc4F)c4ccc([nH]4)c(-c4c(F)cccc4F)c4nc(c(-c5c(F)cccc5F)c5ccc2[nH]5)C=C4)C=C3)cc1
REMARK SMILES IDX 21 1 20 2 19 3 18 4 16 5 17 6 3 8 2 9 1 10 4 11 5 13 6 14
REMARK SMILES IDX 7 15 8 16 9 17 14 18 10 19 13 20 15 21 11 22 12 23 22 24
REMARK SMILES IDX 23 25 24 26 25 27 26 28 27 30 28 31 29 32 81 33 30 34 80 35
REMARK SMILES IDX 31 36 32 37 33 38 74 39 34 40 79 41 73 42 75 43 35 44 78 45
REMARK SMILES IDX 72 46 71 47 36 49 62 50 45 51 61 52 46 53 49 54 60 55 76 56
REMARK SMILES IDX 47 57 48 58 59 60 77 61 50 62 37 63 38 64 43 65 39 66 40 67
REMARK SMILES IDX 42 68 44 69 41 70 63 71 64 72 69 73 65 74 66 75 68 76 70 77
REMARK SMILES IDX 67 78 51 79 52 80 57 81 53 82 54 83 56 84 58 85 55 86
REMARK H PARENT 18 7 4 12 25 29 75 48 49 59
REMARK Flexibility Score: inf
ROOT
ATOM      1  C   UNL A   1      39.218  20.841  25.632  1.00  0.00     0.002 C 
ENDROOT
BRANCH   1   2
ATOM      2  C   UNL A   1      39.110  22.254  26.221  1.00  0.00     0.021 C 
BRANCH   2   3
ATOM      3  C   UNL A   1      37.816  22.984  25.875  1.00  0.00     0.116 C 
BRANCH   3   4
ATOM      4  N   UNL A   1      37.500  22.894  24.453  1.00  0.00    -0.355 N 
ATOM      5  C   UNL A   1      36.327  23.122  23.783  1.00  0.00     0.238 C 
ATOM      6  O   UNL A   1      36.349  23.088  22.551  1.00  0.00    -0.273 OA
ATOM      7  H   UNL A   1      38.255  22.624  23.881  1.00  0.00     0.163 HD
BRANCH   5   8
ATOM      8  C   UNL A   1      35.023  23.379  24.543  1.00  0.00     0.158 C 
BRANCH   8   9
ATOM      9  C   UNL A   1      34.682  24.878  24.423  1.00  0.00     0.027 C 
ATOM     10  C   UNL A   1      33.980  25.499  25.618  1.00  0.00     0.006 C 
ENDBRANCH   8   9
BRANCH   8  11
ATOM     11  N   UNL A   1      33.973  22.462  24.028  1.00  0.00    -0.199 NA
ATOM     12  H   UNL A   1      34.366  21.973  23.224  1.00  0.00     0.142 HD
BRANCH  11  13
ATOM     13  S   UNL A   1      33.349  21.275  25.080  1.00  0.00     0.241 S 
ATOM     14  O   UNL A   1      34.240  21.226  26.211  1.00  0.00    -0.207 OA
ATOM     15  O   UNL A   1      31.950  21.632  25.237  1.00  0.00    -0.207 OA
BRANCH  13  16
ATOM     16  C   UNL A   1      33.372  19.695  24.243  1.00  0.00     0.085 A 
ATOM     17  C   UNL A   1      34.119  18.645  24.785  1.00  0.00     0.025 A 
ATOM     18  C   UNL A   1      32.622  19.470  23.074  1.00  0.00    -0.031 A 
ATOM     19  C   UNL A   1      33.998  17.334  24.303  1.00  0.00    -0.050 A 
ATOM     20  C   UNL A   1      32.549  18.160  22.560  1.00  0.00     0.005 A 
ATOM     21  C   UNL A   1      31.885  20.537  22.316  1.00  0.00     0.046 C 
ATOM     22  C   UNL A   1      34.691  16.188  24.972  1.00  0.00     0.044 C 
ATOM     23  C   UNL A   1      33.213  17.102  23.176  1.00  0.00     0.004 A 
ENDBRANCH  13  16
ENDBRANCH  11  13
ENDBRANCH   8  11
ENDBRANCH   5   8
ENDBRANCH   3   4
ENDBRANCH   2   3
ENDBRANCH   1   2
BRANCH   1  24
ATOM     24  C   UNL A   1      40.383  19.969  26.137  1.00  0.00     0.002 C 
BRANCH  24  25
ATOM     25  C   UNL A   1      41.354  20.596  27.137  1.00  0.00     0.021 C 
BRANCH  25  26
ATOM     26  C   UNL A   1      42.669  19.857  27.264  1.00  0.00     0.116 C 
BRANCH  26  27
ATOM     27  N   UNL A   1      43.392  19.629  26.019  1.00  0.00    -0.352 N 
ATOM     28  C   UNL A   1      43.935  20.550  25.136  1.00  0.00     0.251 C 
ATOM     29  H   UNL A   1      43.513  18.684  25.769  1.00  0.00     0.163 HD
ATOM     30  O   UNL A   1      44.433  20.181  24.078  1.00  0.00    -0.269 OA
BRANCH  28  31
ATOM     31  C   UNL A   1      44.014  21.975  25.532  1.00  0.00     0.039 A 
ATOM     32  C   UNL A   1      44.905  22.365  26.539  1.00  0.00     0.014 A 
ATOM     33  C   UNL A   1      43.066  22.870  25.063  1.00  0.00     0.014 A 
ATOM     34  C   UNL A   1      44.697  23.570  27.211  1.00  0.00     0.010 A 
ATOM     35  C   UNL A   1      42.746  23.955  25.845  1.00  0.00     0.010 A 
ATOM     36  C   UNL A   1      43.556  24.322  26.920  1.00  0.00    -0.014 A 
BRANCH  36  37
ATOM     37  C   UNL A   1      43.272  25.589  27.592  1.00  0.00     0.031 A 
ATOM     38  C   UNL A   1      44.225  26.687  27.261  1.00  0.00     0.074 A 
ATOM     39  C   UNL A   1      42.129  25.901  28.229  1.00  0.00     0.049 A 
ATOM     40  N   UNL A   1      45.238  27.105  27.949  1.00  0.00    -0.248 NA
ATOM     41  C   UNL A   1      44.148  27.266  25.908  1.00  0.00     0.031 C 
ATOM     42  C   UNL A   1      40.878  25.148  28.287  1.00  0.00     0.029 A 
ATOM     43  N   UNL A   1      41.826  27.063  28.878  1.00  0.00    -0.354 N 
ATOM     44  C   UNL A   1      45.811  28.106  27.165  1.00  0.00     0.074 A 
ATOM     45  C   UNL A   1      45.320  27.890  25.838  1.00  0.00     0.031 C 
ATOM     46  C   UNL A   1      39.901  25.954  28.773  1.00  0.00     0.029 A 
ATOM     47  C   UNL A   1      40.478  27.236  29.154  1.00  0.00     0.049 A 
ATOM     48  H   UNL A   1      42.509  27.725  29.128  1.00  0.00     0.167 HD
ATOM     49  C   UNL A   1      46.369  29.230  27.695  1.00  0.00     0.037 A 
ATOM     50  C   UNL A   1      39.896  28.380  29.599  1.00  0.00     0.037 A 
ATOM     51  C   UNL A   1      46.568  29.084  29.116  1.00  0.00     0.049 A 
ATOM     52  C   UNL A   1      40.971  29.279  30.097  1.00  0.00     0.074 A 
ATOM     53  C   UNL A   1      47.208  28.168  29.931  1.00  0.00     0.029 A 
ATOM     54  N   UNL A   1      45.745  29.802  29.952  1.00  0.00    -0.354 N 
ATOM     55  N   UNL A   1      41.640  29.098  31.199  1.00  0.00    -0.248 NA
ATOM     56  C   UNL A   1      41.569  30.216  29.156  1.00  0.00     0.031 C 
ATOM     57  C   UNL A   1      46.388  28.066  31.094  1.00  0.00     0.029 A 
ATOM     58  C   UNL A   1      45.325  28.955  30.941  1.00  0.00     0.049 A 
ATOM     59  H   UNL A   1      45.503  30.751  29.856  1.00  0.00     0.167 HD
ATOM     60  C   UNL A   1      42.920  29.548  30.915  1.00  0.00     0.074 A 
ATOM     61  C   UNL A   1      42.785  30.333  29.694  1.00  0.00     0.031 C 
ATOM     62  C   UNL A   1      44.009  29.002  31.531  1.00  0.00     0.037 A 
BRANCH  49  63
ATOM     63  C   UNL A   1      46.377  30.596  27.017  1.00  0.00     0.057 A 
ATOM     64  C   UNL A   1      47.589  31.311  26.967  1.00  0.00     0.134 A 
ATOM     65  C   UNL A   1      45.244  31.352  26.641  1.00  0.00     0.134 A 
ATOM     66  F   UNL A   1      48.751  30.721  27.288  1.00  0.00    -0.206 F 
ATOM     67  C   UNL A   1      47.653  32.679  26.674  1.00  0.00     0.040 A 
ATOM     68  C   UNL A   1      45.306  32.702  26.284  1.00  0.00     0.040 A 
ATOM     69  F   UNL A   1      43.995  30.881  26.679  1.00  0.00    -0.206 F 
ATOM     70  C   UNL A   1      46.506  33.383  26.339  1.00  0.00     0.006 A 
ENDBRANCH  49  63
BRANCH  50  71
ATOM     71  C   UNL A   1      38.507  28.874  29.451  1.00  0.00     0.057 A 
ATOM     72  C   UNL A   1      37.656  28.973  30.564  1.00  0.00     0.134 A 
ATOM     73  C   UNL A   1      38.061  29.508  28.281  1.00  0.00     0.134 A 
ATOM     74  F   UNL A   1      38.004  28.431  31.741  1.00  0.00    -0.206 F 
ATOM     75  C   UNL A   1      36.452  29.688  30.526  1.00  0.00     0.040 A 
ATOM     76  C   UNL A   1      36.854  30.214  28.224  1.00  0.00     0.040 A 
ATOM     77  F   UNL A   1      38.822  29.543  27.176  1.00  0.00    -0.206 F 
ATOM     78  C   UNL A   1      36.052  30.320  29.355  1.00  0.00     0.006 A 
ENDBRANCH  50  71
BRANCH  62  79
ATOM     79  C   UNL A   1      43.783  28.166  32.757  1.00  0.00     0.057 A 
ATOM     80  C   UNL A   1      43.609  28.689  34.048  1.00  0.00     0.134 A 
ATOM     81  C   UNL A   1      43.605  26.787  32.602  1.00  0.00     0.134 A 
ATOM     82  F   UNL A   1      43.652  30.009  34.276  1.00  0.00    -0.206 F 
ATOM     83  C   UNL A   1      43.328  27.865  35.141  1.00  0.00     0.040 A 
ATOM     84  C   UNL A   1      43.284  25.959  33.679  1.00  0.00     0.040 A 
ATOM     85  F   UNL A   1      43.701  26.224  31.386  1.00  0.00    -0.206 F 
ATOM     86  C   UNL A   1      43.159  26.496  34.957  1.00  0.00     0.006 A 
ENDBRANCH  62  79
ENDBRANCH  36  37
ENDBRANCH  28  31
ENDBRANCH  26  27
ENDBRANCH  25  26
ENDBRANCH  24  25
ENDBRANCH   1  24
TORSDOF 17
ENDMDL
MODEL 3
REMARK VINA RESULT:     -10.7      2.743      7.964
REMARK SMILES CC[C@@H](NS(=O)(=O)c1cc(C)ccc1C)C(=O)NCCCCCCNC(=O)c1ccc(-c2c3nc(c(-c4c(F)cccc4F)c4ccc([nH]4)c(-c4c(F)cccc4F)c4nc(c(-c5c(F)cccc5F)c5ccc2[nH]5)C=C4)C=C3)cc1
REMARK SMILES IDX 21 1 20 2 19 3 18 4 16 5 17 6 3 8 2 9 1 10 4 11 5 13 6 14
REMARK SMILES IDX 7 15 8 16 9 17 14 18 10 19 13 20 15 21 11 22 12 23 22 24
REMARK SMILES IDX 23 25 24 26 25 27 26 28 27 30 28 31 29 32 81 33 30 34 80 35
REMARK SMILES IDX 31 36 32 37 33 38 74 39 34 40 79 41 73 42 75 43 35 44 78 45
REMARK SMILES IDX 72 46 71 47 36 49 62 50 45 51 61 52 46 53 49 54 60 55 76 56
REMARK SMILES IDX 47 57 48 58 59 60 77 61 50 62 37 63 38 64 43 65 39 66 40 67
REMARK SMILES IDX 42 68 44 69 41 70 63 71 64 72 69 73 65 74 66 75 68 76 70 77
REMARK SMILES IDX 67 78 51 79 52 80 57 81 53 82 54 83 56 84 58 85 55 86
REMARK H PARENT 18 7 4 12 25 29 75 48 49 59
REMARK Flexibility Score: inf
ROOT
ATOM      1  C   UNL A   1      31.443  27.790  27.167  1.00  0.00     0.002 C 
ENDROOT
BRANCH   1   2
ATOM      2  C   UNL A   1      31.359  27.068  25.816  1.00  0.00     0.021 C 
BRANCH   2   3
ATOM      3  C   UNL A   1      31.810  25.611  25.851  1.00  0.00     0.116 C 
BRANCH   3   4
ATOM      4  N   UNL A   1      30.843  24.755  26.529  1.00  0.00    -0.355 N 
ATOM      5  C   UNL A   1      30.912  23.431  26.876  1.00  0.00     0.238 C 
ATOM      6  O   UNL A   1      29.995  22.962  27.553  1.00  0.00    -0.273 OA
ATOM      7  H   UNL A   1      30.002  25.202  26.777  1.00  0.00     0.163 HD
BRANCH   5   8
ATOM      8  C   UNL A   1      32.077  22.553  26.408  1.00  0.00     0.158 C 
BRANCH   8   9
ATOM      9  C   UNL A   1      32.967  22.245  27.628  1.00  0.00     0.027 C 
ATOM     10  C   UNL A   1      34.337  22.902  27.635  1.00  0.00     0.006 C 
ENDBRANCH   8   9
BRANCH   8  11
ATOM     11  N   UNL A   1      31.533  21.354  25.718  1.00  0.00    -0.199 NA
ATOM     12  H   UNL A   1      30.694  21.648  25.217  1.00  0.00     0.142 HD
BRANCH  11  13
ATOM     13  S   UNL A   1      32.529  20.545  24.596  1.00  0.00     0.241 S 
ATOM     14  O   UNL A   1      32.895  19.293  25.209  1.00  0.00    -0.207 OA
ATOM     15  O   UNL A   1      31.779  20.587  23.353  1.00  0.00    -0.207 OA
BRANCH  13  16
ATOM     16  C   UNL A   1      34.003  21.521  24.327  1.00  0.00     0.085 A 
ATOM     17  C   UNL A   1      35.213  21.100  24.886  1.00  0.00     0.025 A 
ATOM     18  C   UNL A   1      33.983  22.680  23.529  1.00  0.00    -0.031 A 
ATOM     19  C   UNL A   1      36.432  21.694  24.527  1.00  0.00    -0.050 A 
ATOM     20  C   UNL A   1      35.206  23.306  23.218  1.00  0.00     0.005 A 
ATOM     21  C   UNL A   1      32.738  23.313  22.979  1.00  0.00     0.046 C 
ATOM     22  C   UNL A   1      37.738  21.153  25.020  1.00  0.00     0.044 C 
ATOM     23  C   UNL A   1      36.416  22.810  23.696  1.00  0.00     0.004 A 
ENDBRANCH  13  16
ENDBRANCH  11  13
ENDBRANCH   8  11
ENDBRANCH   5   8
ENDBRANCH   3   4
ENDBRANCH   2   3
ENDBRANCH   1   2
BRANCH   1  24
ATOM     24  C   UNL A   1      32.609  28.780  27.351  1.00  0.00     0.002 C 
BRANCH  24  25
ATOM     25  C   UNL A   1      32.370  30.236  26.951  1.00  0.00     0.021 C 
BRANCH  25  26
ATOM     26  C   UNL A   1      33.600  31.112  27.053  1.00  0.00     0.116 C 
BRANCH  26  27
ATOM     27  N   UNL A   1      33.741  31.865  28.293  1.00  0.00    -0.352 N 
ATOM     28  C   UNL A   1      34.778  31.858  29.214  1.00  0.00     0.251 C 
ATOM     29  H   UNL A   1      32.992  32.468  28.508  1.00  0.00     0.163 HD
ATOM     30  O   UNL A   1      34.687  32.491  30.260  1.00  0.00    -0.269 OA
BRANCH  28  31
ATOM     31  C   UNL A   1      36.046  31.173  28.874  1.00  0.00     0.039 A 
ATOM     32  C   UNL A   1      36.092  29.774  28.853  1.00  0.00     0.014 A 
ATOM     33  C   UNL A   1      37.219  31.905  28.790  1.00  0.00     0.014 A 
ATOM     34  C   UNL A   1      37.323  29.126  28.966  1.00  0.00     0.010 A 
ATOM     35  C   UNL A   1      38.405  31.278  29.093  1.00  0.00     0.010 A 
ATOM     36  C   UNL A   1      38.474  29.887  29.178  1.00  0.00    -0.014 A 
BRANCH  36  37
ATOM     37  C   UNL A   1      39.794  29.273  29.313  1.00  0.00     0.031 A 
ATOM     38  C   UNL A   1      40.274  29.150  30.719  1.00  0.00     0.074 A 
ATOM     39  C   UNL A   1      40.449  28.599  28.350  1.00  0.00     0.049 A 
ATOM     40  N   UNL A   1      41.100  29.918  31.356  1.00  0.00    -0.248 NA
ATOM     41  C   UNL A   1      39.608  28.156  31.578  1.00  0.00     0.031 C 
ATOM     42  C   UNL A   1      39.974  28.197  27.028  1.00  0.00     0.029 A 
ATOM     43  N   UNL A   1      41.684  28.023  28.428  1.00  0.00    -0.354 N 
ATOM     44  C   UNL A   1      41.159  29.386  32.643  1.00  0.00     0.074 A 
ATOM     45  C   UNL A   1      39.989  28.572  32.782  1.00  0.00     0.031 C 
ATOM     46  C   UNL A   1      40.834  27.288  26.508  1.00  0.00     0.029 A 
ATOM     47  C   UNL A   1      41.967  27.125  27.409  1.00  0.00     0.049 A 
ATOM     48  H   UNL A   1      42.321  28.226  29.149  1.00  0.00     0.167 HD
ATOM     49  C   UNL A   1      42.303  29.367  33.382  1.00  0.00     0.037 A 
ATOM     50  C   UNL A   1      43.026  26.274  27.368  1.00  0.00     0.037 A 
ATOM     51  C   UNL A   1      43.304  30.229  32.802  1.00  0.00     0.049 A 
ATOM     52  C   UNL A   1      44.016  26.724  28.382  1.00  0.00     0.074 A 
ATOM     53  C   UNL A   1      43.357  31.559  32.426  1.00  0.00     0.029 A 
ATOM     54  N   UNL A   1      44.381  29.634  32.189  1.00  0.00    -0.354 N 
ATOM     55  N   UNL A   1      44.764  27.785  28.273  1.00  0.00    -0.248 NA
ATOM     56  C   UNL A   1      43.915  26.174  29.727  1.00  0.00     0.031 C 
ATOM     57  C   UNL A   1      44.159  31.582  31.245  1.00  0.00     0.029 A 
ATOM     58  C   UNL A   1      44.581  30.276  30.997  1.00  0.00     0.049 A 
ATOM     59  H   UNL A   1      44.910  28.883  32.542  1.00  0.00     0.167 HD
ATOM     60  C   UNL A   1      44.872  28.278  29.563  1.00  0.00     0.074 A 
ATOM     61  C   UNL A   1      44.438  27.184  30.426  1.00  0.00     0.031 C 
ATOM     62  C   UNL A   1      45.025  29.614  29.794  1.00  0.00     0.037 A 
BRANCH  49  63
ATOM     63  C   UNL A   1      42.662  28.287  34.397  1.00  0.00     0.057 A 
ATOM     64  C   UNL A   1      42.899  26.980  33.929  1.00  0.00     0.134 A 
ATOM     65  C   UNL A   1      42.546  28.386  35.802  1.00  0.00     0.134 A 
ATOM     66  F   UNL A   1      43.040  26.733  32.618  1.00  0.00    -0.206 F 
ATOM     67  C   UNL A   1      42.912  25.862  34.771  1.00  0.00     0.040 A 
ATOM     68  C   UNL A   1      42.622  27.283  36.658  1.00  0.00     0.040 A 
ATOM     69  F   UNL A   1      42.261  29.522  36.443  1.00  0.00    -0.206 F 
ATOM     70  C   UNL A   1      42.764  26.009  36.143  1.00  0.00     0.006 A 
ENDBRANCH  49  63
BRANCH  50  71
ATOM     71  C   UNL A   1      43.189  24.973  26.678  1.00  0.00     0.057 A 
ATOM     72  C   UNL A   1      42.447  23.849  27.076  1.00  0.00     0.134 A 
ATOM     73  C   UNL A   1      43.867  24.858  25.455  1.00  0.00     0.134 A 
ATOM     74  F   UNL A   1      41.735  23.868  28.213  1.00  0.00    -0.206 F 
ATOM     75  C   UNL A   1      42.356  22.694  26.290  1.00  0.00     0.040 A 
ATOM     76  C   UNL A   1      43.797  23.704  24.665  1.00  0.00     0.040 A 
ATOM     77  F   UNL A   1      44.548  25.891  24.937  1.00  0.00    -0.206 F 
ATOM     78  C   UNL A   1      43.025  22.623  25.074  1.00  0.00     0.006 A 
ENDBRANCH  50  71
BRANCH  62  79
ATOM     79  C   UNL A   1      45.420  30.490  28.642  1.00  0.00     0.057 A 
ATOM     80  C   UNL A   1      44.517  31.030  27.714  1.00  0.00     0.134 A 
ATOM     81  C   UNL A   1      46.753  30.906  28.546  1.00  0.00     0.134 A 
ATOM     82  F   UNL A   1      43.203  30.777  27.792  1.00  0.00    -0.206 F 
ATOM     83  C   UNL A   1      44.936  31.901  26.704  1.00  0.00     0.040 A 
ATOM     84  C   UNL A   1      47.176  31.806  27.566  1.00  0.00     0.040 A 
ATOM     85  F   UNL A   1      47.664  30.473  29.433  1.00  0.00    -0.206 F 
ATOM     86  C   UNL A   1      46.269  32.296  26.632  1.00  0.00     0.006 A 
ENDBRANCH  62  79
ENDBRANCH  36  37
ENDBRANCH  28  31
ENDBRANCH  26  27
ENDBRANCH  25  26
ENDBRANCH  24  25
ENDBRANCH   1  24
TORSDOF 17
ENDMDL
