MODEL 1
REMARK VINA RESULT:     -11.2      0.000      0.000
REMARK SMILES C=Cc1cccc(-c2ccc([C@@H](C)C(=O)NCCCCCCNC(=O)c3ccc(-c4c5nc(c(-c6c(F)cccc6F)c6ccc([nH]6)c(-c6c(F)cccc6F)c6nc(c(-c7c(F)cccc7F)c7ccc4[nH]7)C=C6)C=C5)cc3)cc2)c1
REMARK SMILES IDX 19 1 18 2 17 3 16 4 14 5 15 6 12 8 13 9 11 10 8 11 9 12
REMARK SMILES IDX 81 13 10 14 80 15 7 16 3 17 4 18 82 19 5 20 6 21 2 22 1 23
REMARK SMILES IDX 20 24 21 25 22 26 23 27 24 28 25 30 26 31 27 32 79 33 28 34
REMARK SMILES IDX 78 35 29 36 30 37 31 38 72 39 32 40 77 41 71 42 73 43 33 44
REMARK SMILES IDX 76 45 70 46 69 47 34 49 60 50 43 51 59 52 44 53 47 54 58 55
REMARK SMILES IDX 74 56 45 57 46 58 57 60 75 61 48 62 35 63 36 64 41 65 37 66
REMARK SMILES IDX 38 67 40 68 42 69 39 70 61 71 62 72 67 73 63 74 64 75 66 76
REMARK SMILES IDX 68 77 65 78 49 79 50 80 55 81 51 82 52 83 54 84 56 85 53 86
REMARK H PARENT 16 7 23 29 73 48 47 59
REMARK Flexibility Score: inf
ROOT
ATOM      1  C   UNL A   1      33.008  25.598  26.098  1.00  0.00     0.002 C 
ENDROOT
BRANCH   1   2
ATOM      2  C   UNL A   1      32.483  24.229  26.543  1.00  0.00     0.021 C 
BRANCH   2   3
ATOM      3  C   UNL A   1      32.931  23.072  25.648  1.00  0.00     0.116 C 
BRANCH   3   4
ATOM      4  N   UNL A   1      34.020  23.456  24.776  1.00  0.00    -0.356 N 
ATOM      5  C   UNL A   1      34.059  23.706  23.439  1.00  0.00     0.227 C 
ATOM      6  O   UNL A   1      35.174  23.933  22.952  1.00  0.00    -0.274 OA
ATOM      7  H   UNL A   1      34.888  23.553  25.231  1.00  0.00     0.163 HD
BRANCH   5   8
ATOM      8  C   UNL A   1      32.812  23.738  22.542  1.00  0.00     0.105 C 
ATOM      9  C   UNL A   1      33.098  23.419  21.073  1.00  0.00     0.023 C 
BRANCH   8  10
ATOM     10  C   UNL A   1      31.905  24.930  22.808  1.00  0.00    -0.036 A 
ATOM     11  C   UNL A   1      30.200  27.209  23.108  1.00  0.00    -0.018 A 
ATOM     12  C   UNL A   1      29.805  25.928  23.527  1.00  0.00     0.009 A 
ATOM     13  C   UNL A   1      31.491  27.327  22.572  1.00  0.00     0.009 A 
ATOM     14  C   UNL A   1      30.649  24.818  23.409  1.00  0.00     0.005 A 
ATOM     15  C   UNL A   1      32.320  26.208  22.406  1.00  0.00     0.005 A 
BRANCH  11  16
ATOM     16  C   UNL A   1      29.282  28.368  23.213  1.00  0.00    -0.018 A 
ATOM     17  C   UNL A   1      28.908  30.787  23.467  1.00  0.00    -0.026 A 
ATOM     18  C   UNL A   1      27.530  30.582  23.356  1.00  0.00     0.008 A 
ATOM     19  C   UNL A   1      29.768  29.678  23.400  1.00  0.00     0.016 A 
ATOM     20  C   UNL A   1      27.022  29.300  23.171  1.00  0.00     0.001 A 
ATOM     21  C   UNL A   1      27.889  28.207  23.108  1.00  0.00     0.009 A 
BRANCH  17  22
ATOM     22  C   UNL A   1      29.401  32.148  23.708  1.00  0.00     0.000 C 
ATOM     23  C   UNL A   1      28.973  33.234  23.052  1.00  0.00     0.009 C 
ENDBRANCH  17  22
ENDBRANCH  11  16
ENDBRANCH   8  10
ENDBRANCH   5   8
ENDBRANCH   3   4
ENDBRANCH   2   3
ENDBRANCH   1   2
BRANCH   1  24
ATOM     24  C   UNL A   1      32.097  26.788  26.426  1.00  0.00     0.002 C 
BRANCH  24  25
ATOM     25  C   UNL A   1      32.711  28.174  26.201  1.00  0.00     0.021 C 
BRANCH  25  26
ATOM     26  C   UNL A   1      33.837  28.541  27.166  1.00  0.00     0.116 C 
BRANCH  26  27
ATOM     27  N   UNL A   1      33.752  29.928  27.595  1.00  0.00    -0.352 N 
ATOM     28  C   UNL A   1      34.657  30.688  28.292  1.00  0.00     0.251 C 
ATOM     29  H   UNL A   1      32.920  30.391  27.349  1.00  0.00     0.163 HD
ATOM     30  O   UNL A   1      34.321  31.772  28.756  1.00  0.00    -0.269 OA
BRANCH  28  31
ATOM     31  C   UNL A   1      36.039  30.202  28.494  1.00  0.00     0.039 A 
ATOM     32  C   UNL A   1      36.952  30.300  27.439  1.00  0.00     0.014 A 
ATOM     33  C   UNL A   1      36.424  29.613  29.701  1.00  0.00     0.014 A 
ATOM     34  C   UNL A   1      38.263  29.852  27.612  1.00  0.00     0.010 A 
ATOM     35  C   UNL A   1      37.747  29.225  29.893  1.00  0.00     0.010 A 
ATOM     36  C   UNL A   1      38.678  29.333  28.849  1.00  0.00    -0.014 A 
BRANCH  36  37
ATOM     37  C   UNL A   1      40.076  28.884  29.065  1.00  0.00     0.031 A 
ATOM     38  C   UNL A   1      41.086  29.821  29.666  1.00  0.00     0.074 A 
ATOM     39  C   UNL A   1      40.452  27.655  28.662  1.00  0.00     0.049 A 
ATOM     40  N   UNL A   1      42.367  29.643  29.861  1.00  0.00    -0.248 NA
ATOM     41  C   UNL A   1      40.593  31.145  30.079  1.00  0.00     0.031 C 
ATOM     42  C   UNL A   1      39.577  26.667  28.030  1.00  0.00     0.029 A 
ATOM     43  N   UNL A   1      41.674  27.032  28.715  1.00  0.00    -0.354 N 
ATOM     44  C   UNL A   1      42.836  30.834  30.402  1.00  0.00     0.074 A 
ATOM     45  C   UNL A   1      41.712  31.743  30.460  1.00  0.00     0.031 C 
ATOM     46  C   UNL A   1      40.284  25.555  27.772  1.00  0.00     0.029 A 
ATOM     47  C   UNL A   1      41.669  25.764  28.187  1.00  0.00     0.049 A 
ATOM     48  H   UNL A   1      42.478  27.454  29.095  1.00  0.00     0.167 HD
ATOM     49  C   UNL A   1      44.085  31.134  30.832  1.00  0.00     0.037 A 
ATOM     50  C   UNL A   1      42.668  24.873  28.049  1.00  0.00     0.037 A 
ATOM     51  C   UNL A   1      45.196  30.220  30.799  1.00  0.00     0.049 A 
ATOM     52  C   UNL A   1      44.045  25.231  28.533  1.00  0.00     0.074 A 
ATOM     53  C   UNL A   1      46.487  30.412  31.261  1.00  0.00     0.029 A 
ATOM     54  N   UNL A   1      45.145  28.937  30.275  1.00  0.00    -0.354 N 
ATOM     55  N   UNL A   1      44.462  26.340  29.093  1.00  0.00    -0.248 NA
ATOM     56  C   UNL A   1      45.090  24.210  28.370  1.00  0.00     0.031 C 
ATOM     57  C   UNL A   1      47.226  29.257  30.984  1.00  0.00     0.029 A 
ATOM     58  C   UNL A   1      46.385  28.331  30.388  1.00  0.00     0.049 A 
ATOM     59  H   UNL A   1      44.346  28.518  29.881  1.00  0.00     0.167 HD
ATOM     60  C   UNL A   1      45.807  26.143  29.375  1.00  0.00     0.074 A 
ATOM     61  C   UNL A   1      46.134  24.802  28.933  1.00  0.00     0.031 C 
ATOM     62  C   UNL A   1      46.692  26.994  29.950  1.00  0.00     0.037 A 
BRANCH  49  63
ATOM     63  C   UNL A   1      44.311  32.514  31.378  1.00  0.00     0.057 A 
ATOM     64  C   UNL A   1      44.155  32.803  32.741  1.00  0.00     0.134 A 
ATOM     65  C   UNL A   1      44.713  33.561  30.538  1.00  0.00     0.134 A 
ATOM     66  F   UNL A   1      43.760  31.848  33.597  1.00  0.00    -0.206 F 
ATOM     67  C   UNL A   1      44.360  34.089  33.243  1.00  0.00     0.040 A 
ATOM     68  C   UNL A   1      44.948  34.845  31.034  1.00  0.00     0.040 A 
ATOM     69  F   UNL A   1      44.888  33.352  29.225  1.00  0.00    -0.206 F 
ATOM     70  C   UNL A   1      44.764  35.113  32.389  1.00  0.00     0.006 A 
ENDBRANCH  49  63
BRANCH  50  71
ATOM     71  C   UNL A   1      42.396  23.542  27.453  1.00  0.00     0.057 A 
ATOM     72  C   UNL A   1      42.138  22.431  28.264  1.00  0.00     0.134 A 
ATOM     73  C   UNL A   1      42.389  23.347  26.067  1.00  0.00     0.134 A 
ATOM     74  F   UNL A   1      42.151  22.553  29.599  1.00  0.00    -0.206 F 
ATOM     75  C   UNL A   1      41.897  21.169  27.719  1.00  0.00     0.040 A 
ATOM     76  C   UNL A   1      42.127  22.095  25.508  1.00  0.00     0.040 A 
ATOM     77  F   UNL A   1      42.622  24.374  25.237  1.00  0.00    -0.206 F 
ATOM     78  C   UNL A   1      41.887  21.000  26.336  1.00  0.00     0.006 A 
ENDBRANCH  50  71
BRANCH  62  79
ATOM     79  C   UNL A   1      48.087  26.487  30.166  1.00  0.00     0.057 A 
ATOM     80  C   UNL A   1      49.097  26.678  29.214  1.00  0.00     0.134 A 
ATOM     81  C   UNL A   1      48.431  25.837  31.357  1.00  0.00     0.134 A 
ATOM     82  F   UNL A   1      48.827  27.283  28.048  1.00  0.00    -0.206 F 
ATOM     83  C   UNL A   1      50.397  26.218  29.432  1.00  0.00     0.040 A 
ATOM     84  C   UNL A   1      49.733  25.394  31.596  1.00  0.00     0.040 A 
ATOM     85  F   UNL A   1      47.511  25.629  32.312  1.00  0.00    -0.206 F 
ATOM     86  C   UNL A   1      50.719  25.581  30.630  1.00  0.00     0.006 A 
ENDBRANCH  62  79
ENDBRANCH  36  37
ENDBRANCH  28  31
ENDBRANCH  26  27
ENDBRANCH  25  26
ENDBRANCH  24  25
ENDBRANCH   1  24
TORSDOF 16
ENDMDL
MODEL 2
REMARK VINA RESULT:     -11.2      3.275      8.106
REMARK SMILES C=Cc1cccc(-c2ccc([C@@H](C)C(=O)NCCCCCCNC(=O)c3ccc(-c4c5nc(c(-c6c(F)cccc6F)c6ccc([nH]6)c(-c6c(F)cccc6F)c6nc(c(-c7c(F)cccc7F)c7ccc4[nH]7)C=C6)C=C5)cc3)cc2)c1
REMARK SMILES IDX 19 1 18 2 17 3 16 4 14 5 15 6 12 8 13 9 11 10 8 11 9 12
REMARK SMILES IDX 81 13 10 14 80 15 7 16 3 17 4 18 82 19 5 20 6 21 2 22 1 23
REMARK SMILES IDX 20 24 21 25 22 26 23 27 24 28 25 30 26 31 27 32 79 33 28 34
REMARK SMILES IDX 78 35 29 36 30 37 31 38 72 39 32 40 77 41 71 42 73 43 33 44
REMARK SMILES IDX 76 45 70 46 69 47 34 49 60 50 43 51 59 52 44 53 47 54 58 55
REMARK SMILES IDX 74 56 45 57 46 58 57 60 75 61 48 62 35 63 36 64 41 65 37 66
REMARK SMILES IDX 38 67 40 68 42 69 39 70 61 71 62 72 67 73 63 74 64 75 66 76
REMARK SMILES IDX 68 77 65 78 49 79 50 80 55 81 51 82 52 83 54 84 56 85 53 86
REMARK H PARENT 16 7 23 29 73 48 47 59
REMARK Flexibility Score: inf
ROOT
ATOM      1  C   UNL A   1      31.360  27.047  26.187  1.00  0.00     0.002 C 
ENDROOT
BRANCH   1   2
ATOM      2  C   UNL A   1      30.642  25.704  26.016  1.00  0.00     0.021 C 
BRANCH   2   3
ATOM      3  C   UNL A   1      30.079  25.476  24.612  1.00  0.00     0.116 C 
BRANCH   3   4
ATOM      4  N   UNL A   1      30.442  24.174  24.092  1.00  0.00    -0.356 N 
ATOM      5  C   UNL A   1      31.531  23.754  23.392  1.00  0.00     0.227 C 
ATOM      6  O   UNL A   1      31.517  22.580  23.004  1.00  0.00    -0.274 OA
ATOM      7  H   UNL A   1      29.782  23.467  24.276  1.00  0.00     0.163 HD
BRANCH   5   8
ATOM      8  C   UNL A   1      32.746  24.646  23.093  1.00  0.00     0.105 C 
ATOM      9  C   UNL A   1      32.954  24.927  21.604  1.00  0.00     0.023 C 
BRANCH   8  10
ATOM     10  C   UNL A   1      33.986  24.265  23.887  1.00  0.00    -0.036 A 
ATOM     11  C   UNL A   1      36.433  23.626  25.228  1.00  0.00    -0.018 A 
ATOM     12  C   UNL A   1      35.462  24.455  25.813  1.00  0.00     0.009 A 
ATOM     13  C   UNL A   1      36.129  23.090  23.967  1.00  0.00     0.009 A 
ATOM     14  C   UNL A   1      34.252  24.744  25.171  1.00  0.00     0.005 A 
ATOM     15  C   UNL A   1      34.939  23.417  23.301  1.00  0.00     0.005 A 
BRANCH  11  16
ATOM     16  C   UNL A   1      37.721  23.355  25.908  1.00  0.00    -0.018 A 
ATOM     17  C   UNL A   1      39.608  21.854  26.403  1.00  0.00    -0.026 A 
ATOM     18  C   UNL A   1      40.207  22.863  27.163  1.00  0.00     0.008 A 
ATOM     19  C   UNL A   1      38.370  22.109  25.789  1.00  0.00     0.016 A 
ATOM     20  C   UNL A   1      39.590  24.103  27.297  1.00  0.00     0.001 A 
ATOM     21  C   UNL A   1      38.359  24.341  26.683  1.00  0.00     0.009 A 
BRANCH  17  22
ATOM     22  C   UNL A   1      40.268  20.546  26.322  1.00  0.00     0.000 C 
ATOM     23  C   UNL A   1      41.156  20.092  27.215  1.00  0.00     0.009 C 
ENDBRANCH  17  22
ENDBRANCH  11  16
ENDBRANCH   8  10
ENDBRANCH   5   8
ENDBRANCH   3   4
ENDBRANCH   2   3
ENDBRANCH   1   2
BRANCH   1  24
ATOM     24  C   UNL A   1      31.425  27.920  24.927  1.00  0.00     0.002 C 
BRANCH  24  25
ATOM     25  C   UNL A   1      32.810  28.051  24.283  1.00  0.00     0.021 C 
BRANCH  25  26
ATOM     26  C   UNL A   1      33.655  29.209  24.809  1.00  0.00     0.116 C 
BRANCH  26  27
ATOM     27  N   UNL A   1      32.841  30.221  25.462  1.00  0.00    -0.352 N 
ATOM     28  C   UNL A   1      33.012  30.836  26.677  1.00  0.00     0.251 C 
ATOM     29  H   UNL A   1      32.048  30.510  24.956  1.00  0.00     0.163 HD
ATOM     30  O   UNL A   1      32.104  31.504  27.160  1.00  0.00    -0.269 OA
BRANCH  28  31
ATOM     31  C   UNL A   1      34.285  30.690  27.414  1.00  0.00     0.039 A 
ATOM     32  C   UNL A   1      35.083  31.820  27.615  1.00  0.00     0.014 A 
ATOM     33  C   UNL A   1      34.715  29.440  27.866  1.00  0.00     0.014 A 
ATOM     34  C   UNL A   1      36.287  31.705  28.313  1.00  0.00     0.010 A 
ATOM     35  C   UNL A   1      35.884  29.336  28.615  1.00  0.00     0.010 A 
ATOM     36  C   UNL A   1      36.685  30.466  28.841  1.00  0.00    -0.014 A 
BRANCH  36  37
ATOM     37  C   UNL A   1      37.943  30.328  29.615  1.00  0.00     0.031 A 
ATOM     38  C   UNL A   1      39.112  29.584  29.030  1.00  0.00     0.074 A 
ATOM     39  C   UNL A   1      38.013  30.816  30.868  1.00  0.00     0.049 A 
ATOM     40  N   UNL A   1      40.263  29.290  29.577  1.00  0.00    -0.248 NA
ATOM     41  C   UNL A   1      38.954  29.083  27.656  1.00  0.00     0.031 C 
ATOM     42  C   UNL A   1      36.936  31.523  31.562  1.00  0.00     0.029 A 
ATOM     43  N   UNL A   1      39.034  30.782  31.785  1.00  0.00    -0.354 N 
ATOM     44  C   UNL A   1      40.958  28.556  28.624  1.00  0.00     0.074 A 
ATOM     45  C   UNL A   1      40.081  28.409  27.482  1.00  0.00     0.031 C 
ATOM     46  C   UNL A   1      37.358  31.872  32.788  1.00  0.00     0.029 A 
ATOM     47  C   UNL A   1      38.722  31.385  32.979  1.00  0.00     0.049 A 
ATOM     48  H   UNL A   1      39.906  30.364  31.605  1.00  0.00     0.167 HD
ATOM     49  C   UNL A   1      42.221  28.068  28.685  1.00  0.00     0.037 A 
ATOM     50  C   UNL A   1      39.451  31.525  34.102  1.00  0.00     0.037 A 
ATOM     51  C   UNL A   1      43.101  28.238  29.811  1.00  0.00     0.049 A 
ATOM     52  C   UNL A   1      40.848  30.974  34.146  1.00  0.00     0.074 A 
ATOM     53  C   UNL A   1      44.416  27.828  29.948  1.00  0.00     0.029 A 
ATOM     54  N   UNL A   1      42.754  28.873  30.994  1.00  0.00    -0.354 N 
ATOM     55  N   UNL A   1      41.512  30.331  33.216  1.00  0.00    -0.248 NA
ATOM     56  C   UNL A   1      41.599  31.172  35.393  1.00  0.00     0.031 C 
ATOM     57  C   UNL A   1      44.854  28.185  31.228  1.00  0.00     0.029 A 
ATOM     58  C   UNL A   1      43.825  28.852  31.872  1.00  0.00     0.049 A 
ATOM     59  H   UNL A   1      41.877  29.279  31.182  1.00  0.00     0.167 HD
ATOM     60  C   UNL A   1      42.766  30.073  33.754  1.00  0.00     0.074 A 
ATOM     61  C   UNL A   1      42.773  30.638  35.088  1.00  0.00     0.031 C 
ATOM     62  C   UNL A   1      43.818  29.427  33.193  1.00  0.00     0.037 A 
BRANCH  49  63
ATOM     63  C   UNL A   1      42.722  27.304  27.495  1.00  0.00     0.057 A 
ATOM     64  C   UNL A   1      43.216  27.955  26.356  1.00  0.00     0.134 A 
ATOM     65  C   UNL A   1      42.734  25.903  27.495  1.00  0.00     0.134 A 
ATOM     66  F   UNL A   1      43.220  29.295  26.287  1.00  0.00    -0.206 F 
ATOM     67  C   UNL A   1      43.675  27.239  25.248  1.00  0.00     0.040 A 
ATOM     68  C   UNL A   1      43.216  25.178  26.404  1.00  0.00     0.040 A 
ATOM     69  F   UNL A   1      42.282  25.218  28.555  1.00  0.00    -0.206 F 
ATOM     70  C   UNL A   1      43.682  25.847  25.273  1.00  0.00     0.006 A 
ENDBRANCH  49  63
BRANCH  50  71
ATOM     71  C   UNL A   1      38.882  32.244  35.268  1.00  0.00     0.057 A 
ATOM     72  C   UNL A   1      38.311  31.543  36.336  1.00  0.00     0.134 A 
ATOM     73  C   UNL A   1      38.892  33.642  35.344  1.00  0.00     0.134 A 
ATOM     74  F   UNL A   1      38.256  30.203  36.310  1.00  0.00    -0.206 F 
ATOM     75  C   UNL A   1      37.757  32.205  37.432  1.00  0.00     0.040 A 
ATOM     76  C   UNL A   1      38.362  34.316  36.445  1.00  0.00     0.040 A 
ATOM     77  F   UNL A   1      39.431  34.370  34.356  1.00  0.00    -0.206 F 
ATOM     78  C   UNL A   1      37.786  33.596  37.490  1.00  0.00     0.006 A 
ENDBRANCH  50  71
BRANCH  62  79
ATOM     79  C   UNL A   1      45.074  29.330  34.007  1.00  0.00     0.057 A 
ATOM     80  C   UNL A   1      46.038  30.347  33.999  1.00  0.00     0.134 A 
ATOM     81  C   UNL A   1      45.302  28.225  34.836  1.00  0.00     0.134 A 
ATOM     82  F   UNL A   1      45.884  31.425  33.216  1.00  0.00    -0.206 F 
ATOM     83  C   UNL A   1      47.196  30.256  34.773  1.00  0.00     0.040 A 
ATOM     84  C   UNL A   1      46.444  28.134  35.632  1.00  0.00     0.040 A 
ATOM     85  F   UNL A   1      44.413  27.221  34.893  1.00  0.00    -0.206 F 
ATOM     86  C   UNL A   1      47.397  29.150  35.599  1.00  0.00     0.006 A 
ENDBRANCH  62  79
ENDBRANCH  36  37
ENDBRANCH  28  31
ENDBRANCH  26  27
ENDBRANCH  25  26
ENDBRANCH  24  25
ENDBRANCH   1  24
TORSDOF 16
ENDMDL
MODEL 3
REMARK VINA RESULT:     -11.1      2.985      7.820
REMARK SMILES C=Cc1cccc(-c2ccc([C@@H](C)C(=O)NCCCCCCNC(=O)c3ccc(-c4c5nc(c(-c6c(F)cccc6F)c6ccc([nH]6)c(-c6c(F)cccc6F)c6nc(c(-c7c(F)cccc7F)c7ccc4[nH]7)C=C6)C=C5)cc3)cc2)c1
REMARK SMILES IDX 19 1 18 2 17 3 16 4 14 5 15 6 12 8 13 9 11 10 8 11 9 12
REMARK SMILES IDX 81 13 10 14 80 15 7 16 3 17 4 18 82 19 5 20 6 21 2 22 1 23
REMARK SMILES IDX 20 24 21 25 22 26 23 27 24 28 25 30 26 31 27 32 79 33 28 34
REMARK SMILES IDX 78 35 29 36 30 37 31 38 72 39 32 40 77 41 71 42 73 43 33 44
REMARK SMILES IDX 76 45 70 46 69 47 34 49 60 50 43 51 59 52 44 53 47 54 58 55
REMARK SMILES IDX 74 56 45 57 46 58 57 60 75 61 48 62 35 63 36 64 41 65 37 66
REMARK SMILES IDX 38 67 40 68 42 69 39 70 61 71 62 72 67 73 63 74 64 75 66 76
REMARK SMILES IDX 68 77 65 78 49 79 50 80 55 81 51 82 52 83 54 84 56 85 53 86
REMARK H PARENT 16 7 23 29 73 48 47 59
REMARK Flexibility Score: inf
ROOT
ATOM      1  C   UNL A   1      34.372  25.490  25.371  1.00  0.00     0.002 C 
ENDROOT
BRANCH   1   2
ATOM      2  C   UNL A   1      33.827  26.813  25.919  1.00  0.00     0.021 C 
BRANCH   2   3
ATOM      3  C   UNL A   1      32.903  27.553  24.949  1.00  0.00     0.116 C 
BRANCH   3   4
ATOM      4  N   UNL A   1      33.558  27.833  23.690  1.00  0.00    -0.356 N 
ATOM      5  C   UNL A   1      33.285  27.425  22.421  1.00  0.00     0.227 C 
ATOM      6  O   UNL A   1      34.091  27.766  21.546  1.00  0.00    -0.274 OA
ATOM      7  H   UNL A   1      34.343  28.425  23.764  1.00  0.00     0.163 HD
BRANCH   5   8
ATOM      8  C   UNL A   1      32.045  26.601  22.040  1.00  0.00     0.105 C 
ATOM      9  C   UNL A   1      30.723  27.339  22.257  1.00  0.00     0.023 C 
BRANCH   8  10
ATOM     10  C   UNL A   1      32.102  25.162  22.529  1.00  0.00    -0.036 A 
ATOM     11  C   UNL A   1      32.380  22.503  23.550  1.00  0.00    -0.018 A 
ATOM     12  C   UNL A   1      31.237  23.278  23.805  1.00  0.00     0.009 A 
ATOM     13  C   UNL A   1      33.365  23.079  22.734  1.00  0.00     0.009 A 
ATOM     14  C   UNL A   1      31.086  24.568  23.281  1.00  0.00     0.005 A 
ATOM     15  C   UNL A   1      33.239  24.389  22.248  1.00  0.00     0.005 A 
BRANCH  11  16
ATOM     16  C   UNL A   1      32.536  21.151  24.137  1.00  0.00    -0.018 A 
ATOM     17  C   UNL A   1      32.835  18.723  23.872  1.00  0.00    -0.026 A 
ATOM     18  C   UNL A   1      32.891  18.581  25.262  1.00  0.00     0.008 A 
ATOM     19  C   UNL A   1      32.653  20.004  23.326  1.00  0.00     0.016 A 
ATOM     20  C   UNL A   1      32.779  19.696  26.087  1.00  0.00     0.001 A 
ATOM     21  C   UNL A   1      32.596  20.963  25.530  1.00  0.00     0.009 A 
BRANCH  17  22
ATOM     22  C   UNL A   1      32.911  17.518  23.037  1.00  0.00     0.000 C 
ATOM     23  C   UNL A   1      33.877  16.595  23.128  1.00  0.00     0.009 C 
ENDBRANCH  17  22
ENDBRANCH  11  16
ENDBRANCH   8  10
ENDBRANCH   5   8
ENDBRANCH   3   4
ENDBRANCH   2   3
ENDBRANCH   1   2
BRANCH   1  24
ATOM     24  C   UNL A   1      34.069  24.253  26.226  1.00  0.00     0.002 C 
BRANCH  24  25
ATOM     25  C   UNL A   1      35.231  23.269  26.402  1.00  0.00     0.021 C 
BRANCH  25  26
ATOM     26  C   UNL A   1      36.549  23.713  25.771  1.00  0.00     0.116 C 
BRANCH  26  27
ATOM     27  N   UNL A   1      37.593  22.715  25.938  1.00  0.00    -0.352 N 
ATOM     28  C   UNL A   1      38.911  22.872  26.287  1.00  0.00     0.251 C 
ATOM     29  H   UNL A   1      37.312  21.786  25.777  1.00  0.00     0.163 HD
ATOM     30  O   UNL A   1      39.695  21.938  26.163  1.00  0.00    -0.269 OA
BRANCH  28  31
ATOM     31  C   UNL A   1      39.395  24.170  26.806  1.00  0.00     0.039 A 
ATOM     32  C   UNL A   1      39.200  24.473  28.157  1.00  0.00     0.014 A 
ATOM     33  C   UNL A   1      39.997  25.103  25.958  1.00  0.00     0.014 A 
ATOM     34  C   UNL A   1      39.655  25.690  28.668  1.00  0.00     0.010 A 
ATOM     35  C   UNL A   1      40.505  26.289  26.480  1.00  0.00     0.010 A 
ATOM     36  C   UNL A   1      40.333  26.599  27.839  1.00  0.00    -0.014 A 
BRANCH  36  37
ATOM     37  C   UNL A   1      40.855  27.882  28.368  1.00  0.00     0.031 A 
ATOM     38  C   UNL A   1      39.903  28.935  28.867  1.00  0.00     0.074 A 
ATOM     39  C   UNL A   1      42.178  28.127  28.343  1.00  0.00     0.049 A 
ATOM     40  N   UNL A   1      40.158  30.146  29.293  1.00  0.00    -0.248 NA
ATOM     41  C   UNL A   1      38.474  28.588  28.862  1.00  0.00     0.031 C 
ATOM     42  C   UNL A   1      43.200  27.203  27.848  1.00  0.00     0.029 A 
ATOM     43  N   UNL A   1      42.890  29.234  28.733  1.00  0.00    -0.354 N 
ATOM     44  C   UNL A   1      38.924  30.710  29.589  1.00  0.00     0.074 A 
ATOM     45  C   UNL A   1      37.918  29.727  29.249  1.00  0.00     0.031 C 
ATOM     46  C   UNL A   1      44.409  27.773  27.982  1.00  0.00     0.029 A 
ATOM     47  C   UNL A   1      44.245  29.113  28.539  1.00  0.00     0.049 A 
ATOM     48  H   UNL A   1      42.471  30.037  29.115  1.00  0.00     0.167 HD
ATOM     49  C   UNL A   1      38.654  31.928  30.117  1.00  0.00     0.037 A 
ATOM     50  C   UNL A   1      45.241  29.986  28.778  1.00  0.00     0.037 A 
ATOM     51  C   UNL A   1      39.657  32.895  30.479  1.00  0.00     0.049 A 
ATOM     52  C   UNL A   1      44.916  31.331  29.362  1.00  0.00     0.074 A 
ATOM     53  C   UNL A   1      39.488  34.135  31.070  1.00  0.00     0.029 A 
ATOM     54  N   UNL A   1      41.020  32.726  30.285  1.00  0.00    -0.354 N 
ATOM     55  N   UNL A   1      43.749  31.830  29.689  1.00  0.00    -0.248 NA
ATOM     56  C   UNL A   1      46.048  32.234  29.616  1.00  0.00     0.031 C 
ATOM     57  C   UNL A   1      40.746  34.732  31.202  1.00  0.00     0.029 A 
ATOM     58  C   UNL A   1      41.702  33.846  30.730  1.00  0.00     0.049 A 
ATOM     59  H   UNL A   1      41.441  31.929  29.890  1.00  0.00     0.167 HD
ATOM     60  C   UNL A   1      44.006  33.091  30.212  1.00  0.00     0.074 A 
ATOM     61  C   UNL A   1      45.442  33.276  30.168  1.00  0.00     0.031 C 
ATOM     62  C   UNL A   1      43.132  34.011  30.687  1.00  0.00     0.037 A 
BRANCH  49  63
ATOM     63  C   UNL A   1      37.211  32.280  30.334  1.00  0.00     0.057 A 
ATOM     64  C   UNL A   1      36.538  31.934  31.514  1.00  0.00     0.134 A 
ATOM     65  C   UNL A   1      36.493  32.993  29.365  1.00  0.00     0.134 A 
ATOM     66  F   UNL A   1      37.165  31.240  32.476  1.00  0.00    -0.206 F 
ATOM     67  C   UNL A   1      35.194  32.258  31.709  1.00  0.00     0.040 A 
ATOM     68  C   UNL A   1      35.156  33.345  29.561  1.00  0.00     0.040 A 
ATOM     69  F   UNL A   1      37.079  33.361  28.217  1.00  0.00    -0.206 F 
ATOM     70  C   UNL A   1      34.501  32.971  30.733  1.00  0.00     0.006 A 
ENDBRANCH  49  63
BRANCH  50  71
ATOM     71  C   UNL A   1      46.646  29.602  28.493  1.00  0.00     0.057 A 
ATOM     72  C   UNL A   1      47.421  28.946  29.456  1.00  0.00     0.134 A 
ATOM     73  C   UNL A   1      47.247  29.881  27.260  1.00  0.00     0.134 A 
ATOM     74  F   UNL A   1      46.905  28.670  30.663  1.00  0.00    -0.206 F 
ATOM     75  C   UNL A   1      48.748  28.594  29.210  1.00  0.00     0.040 A 
ATOM     76  C   UNL A   1      48.567  29.514  26.992  1.00  0.00     0.040 A 
ATOM     77  F   UNL A   1      46.555  30.501  26.294  1.00  0.00    -0.206 F 
ATOM     78  C   UNL A   1      49.323  28.874  27.973  1.00  0.00     0.006 A 
ENDBRANCH  50  71
BRANCH  62  79
ATOM     79  C   UNL A   1      43.708  35.285  31.231  1.00  0.00     0.057 A 
ATOM     80  C   UNL A   1      43.836  36.434  30.440  1.00  0.00     0.134 A 
ATOM     81  C   UNL A   1      44.103  35.372  32.572  1.00  0.00     0.134 A 
ATOM     82  F   UNL A   1      43.487  36.410  29.145  1.00  0.00    -0.206 F 
ATOM     83  C   UNL A   1      44.356  37.620  30.960  1.00  0.00     0.040 A 
ATOM     84  C   UNL A   1      44.603  36.559  33.109  1.00  0.00     0.040 A 
ATOM     85  F   UNL A   1      44.000  34.308  33.383  1.00  0.00    -0.206 F 
ATOM     86  C   UNL A   1      44.735  37.686  32.300  1.00  0.00     0.006 A 
ENDBRANCH  62  79
ENDBRANCH  36  37
ENDBRANCH  28  31
ENDBRANCH  26  27
ENDBRANCH  25  26
ENDBRANCH  24  25
ENDBRANCH   1  24
TORSDOF 16
ENDMDL
