MODEL 1
REMARK VINA RESULT:     -12.6      0.000      0.000
REMARK SMILES Cc1cccc(NC(=O)[C@H]2C=C[C@@H]([NH3+])C2)c1C(=O)NCCCCCCNC(=O)c1ccc(-c2c3nc(c(-c4c(F)cccc4F)c4ccc([nH]4)c(-c4c(F)cccc4F)c4nc(c(-c5c(F)cccc5F)c5ccc2[nH]5)C=C4)C=C3)cc1
REMARK SMILES IDX 22 1 21 2 20 3 19 4 17 5 18 6 16 8 1 9 2 10 3 11 4 12 6 13
REMARK SMILES IDX 5 14 7 15 8 16 9 18 10 19 11 20 15 21 12 22 13 23 14 24
REMARK SMILES IDX 23 28 24 29 25 30 26 31 27 32 28 34 29 35 30 36 82 37 31 38
REMARK SMILES IDX 81 39 32 40 33 41 34 42 75 43 35 44 80 45 74 46 76 47 36 48
REMARK SMILES IDX 79 49 73 50 72 51 37 53 63 54 46 55 62 56 47 57 50 58 61 59
REMARK SMILES IDX 77 60 48 61 49 62 60 64 78 65 51 66 38 67 39 68 44 69 40 70
REMARK SMILES IDX 41 71 43 72 45 73 42 74 64 75 65 76 70 77 66 78 67 79 69 80
REMARK SMILES IDX 71 81 68 82 52 83 53 84 58 85 54 86 55 87 57 88 59 89 56 90
REMARK H PARENT 19 7 7 17 14 25 14 26 14 27 26 33 76 52 50 63
REMARK Flexibility Score: inf
ROOT
ATOM      1  C   UNL A   1      31.579  27.840  27.154  1.00  0.00     0.002 C 
ENDROOT
BRANCH   1   2
ATOM      2  C   UNL A   1      31.847  26.548  26.375  1.00  0.00     0.021 C 
BRANCH   2   3
ATOM      3  C   UNL A   1      30.708  25.515  26.357  1.00  0.00     0.116 C 
BRANCH   3   4
ATOM      4  N   UNL A   1      30.860  24.619  25.232  1.00  0.00    -0.352 N 
ATOM      5  C   UNL A   1      31.845  23.841  24.687  1.00  0.00     0.253 C 
ATOM      6  O   UNL A   1      31.474  23.264  23.655  1.00  0.00    -0.269 OA
ATOM      7  H   UNL A   1      30.025  24.550  24.716  1.00  0.00     0.163 HD
BRANCH   5   8
ATOM      8  C   UNL A   1      33.248  23.559  25.190  1.00  0.00     0.066 A 
ATOM      9  C   UNL A   1      32.695  22.609  27.561  1.00  0.00     0.045 C 
ATOM     10  C   UNL A   1      33.606  22.956  26.427  1.00  0.00    -0.036 A 
ATOM     11  C   UNL A   1      34.964  22.737  26.743  1.00  0.00     0.004 A 
ATOM     12  C   UNL A   1      35.963  23.321  26.001  1.00  0.00     0.002 A 
ATOM     13  C   UNL A   1      34.322  24.084  24.381  1.00  0.00     0.054 A 
ATOM     14  C   UNL A   1      35.613  24.058  24.884  1.00  0.00     0.027 A 
BRANCH  13  15
ATOM     15  N   UNL A   1      34.087  24.631  23.095  1.00  0.00    -0.325 N 
ATOM     16  C   UNL A   1      33.564  25.754  22.541  1.00  0.00     0.231 C 
ATOM     17  H   UNL A   1      34.396  24.012  22.395  1.00  0.00     0.169 HD
ATOM     18  O   UNL A   1      33.610  25.774  21.295  1.00  0.00    -0.274 OA
BRANCH  16  19
ATOM     19  C   UNL A   1      32.864  26.956  23.206  1.00  0.00     0.107 C 
ATOM     20  C   UNL A   1      33.767  28.151  23.295  1.00  0.00    -0.012 C 
ATOM     21  C   UNL A   1      31.514  27.526  22.753  1.00  0.00     0.087 C 
ATOM     22  C   UNL A   1      33.097  29.295  23.119  1.00  0.00     0.033 C 
ATOM     23  C   UNL A   1      31.643  29.069  22.864  1.00  0.00     0.205 C 
BRANCH  23  24
ATOM     24  N   UNL A   1      31.207  29.785  21.673  1.00  0.00    -0.352 N 
ATOM     25  H   UNL A   1      30.532  30.503  21.936  1.00  0.00     0.345 HD
ATOM     26  H   UNL A   1      30.771  29.131  21.023  1.00  0.00     0.345 HD
ATOM     27  H   UNL A   1      32.012  30.223  21.225  1.00  0.00     0.345 HD
ENDBRANCH  23  24
ENDBRANCH  16  19
ENDBRANCH  13  15
ENDBRANCH   5   8
ENDBRANCH   3   4
ENDBRANCH   2   3
ENDBRANCH   1   2
BRANCH   1  28
ATOM     28  C   UNL A   1      32.437  29.056  26.779  1.00  0.00     0.002 C 
BRANCH  28  29
ATOM     29  C   UNL A   1      33.671  29.303  27.649  1.00  0.00     0.021 C 
BRANCH  29  30
ATOM     30  C   UNL A   1      34.422  30.589  27.319  1.00  0.00     0.116 C 
BRANCH  30  31
ATOM     31  N   UNL A   1      34.900  31.301  28.495  1.00  0.00    -0.352 N 
ATOM     32  C   UNL A   1      35.918  30.974  29.371  1.00  0.00     0.251 C 
ATOM     33  H   UNL A   1      34.429  32.142  28.697  1.00  0.00     0.163 HD
ATOM     34  O   UNL A   1      36.157  31.705  30.330  1.00  0.00    -0.269 OA
BRANCH  32  35
ATOM     35  C   UNL A   1      36.798  29.816  29.087  1.00  0.00     0.039 A 
ATOM     36  C   UNL A   1      37.084  28.937  30.138  1.00  0.00     0.014 A 
ATOM     37  C   UNL A   1      37.460  29.683  27.869  1.00  0.00     0.014 A 
ATOM     38  C   UNL A   1      38.187  28.091  30.047  1.00  0.00     0.010 A 
ATOM     39  C   UNL A   1      38.600  28.904  27.803  1.00  0.00     0.010 A 
ATOM     40  C   UNL A   1      39.003  28.162  28.916  1.00  0.00    -0.014 A 
BRANCH  40  41
ATOM     41  C   UNL A   1      40.348  27.599  28.871  1.00  0.00     0.031 A 
ATOM     42  C   UNL A   1      40.574  26.188  28.500  1.00  0.00     0.074 A 
ATOM     43  C   UNL A   1      41.403  28.404  29.126  1.00  0.00     0.049 A 
ATOM     44  N   UNL A   1      41.633  25.518  28.809  1.00  0.00    -0.248 NA
ATOM     45  C   UNL A   1      39.587  25.405  27.767  1.00  0.00     0.031 C 
ATOM     46  C   UNL A   1      42.819  28.113  28.920  1.00  0.00     0.029 A 
ATOM     47  N   UNL A   1      41.397  29.591  29.873  1.00  0.00    -0.354 N 
ATOM     48  C   UNL A   1      41.581  24.314  28.147  1.00  0.00     0.074 A 
ATOM     49  C   UNL A   1      40.271  24.280  27.534  1.00  0.00     0.031 C 
ATOM     50  C   UNL A   1      43.539  28.879  29.755  1.00  0.00     0.029 A 
ATOM     51  C   UNL A   1      42.600  29.582  30.614  1.00  0.00     0.049 A 
ATOM     52  H   UNL A   1      40.699  30.286  29.879  1.00  0.00     0.167 HD
ATOM     53  C   UNL A   1      42.688  23.517  28.105  1.00  0.00     0.037 A 
ATOM     54  C   UNL A   1      42.577  29.521  31.977  1.00  0.00     0.037 A 
ATOM     55  C   UNL A   1      43.783  24.064  28.897  1.00  0.00     0.049 A 
ATOM     56  C   UNL A   1      43.246  28.301  32.570  1.00  0.00     0.074 A 
ATOM     57  C   UNL A   1      44.889  24.846  28.606  1.00  0.00     0.029 A 
ATOM     58  N   UNL A   1      43.664  24.066  30.275  1.00  0.00    -0.354 N 
ATOM     59  N   UNL A   1      43.715  27.304  31.871  1.00  0.00    -0.248 NA
ATOM     60  C   UNL A   1      43.347  28.065  34.013  1.00  0.00     0.031 C 
ATOM     61  C   UNL A   1      45.404  25.358  29.830  1.00  0.00     0.029 A 
ATOM     62  C   UNL A   1      44.615  24.878  30.859  1.00  0.00     0.049 A 
ATOM     63  H   UNL A   1      42.989  23.553  30.775  1.00  0.00     0.167 HD
ATOM     64  C   UNL A   1      44.111  26.308  32.721  1.00  0.00     0.074 A 
ATOM     65  C   UNL A   1      43.873  26.830  34.053  1.00  0.00     0.031 C 
ATOM     66  C   UNL A   1      44.566  25.101  32.290  1.00  0.00     0.037 A 
BRANCH  53  67
ATOM     67  C   UNL A   1      42.839  22.350  27.163  1.00  0.00     0.057 A 
ATOM     68  C   UNL A   1      42.061  21.187  27.325  1.00  0.00     0.134 A 
ATOM     69  C   UNL A   1      43.761  22.295  26.104  1.00  0.00     0.134 A 
ATOM     70  F   UNL A   1      41.075  21.119  28.228  1.00  0.00    -0.206 F 
ATOM     71  C   UNL A   1      42.265  20.026  26.569  1.00  0.00     0.040 A 
ATOM     72  C   UNL A   1      44.016  21.122  25.381  1.00  0.00     0.040 A 
ATOM     73  F   UNL A   1      44.421  23.388  25.698  1.00  0.00    -0.206 F 
ATOM     74  C   UNL A   1      43.275  19.975  25.622  1.00  0.00     0.006 A 
ENDBRANCH  53  67
BRANCH  54  75
ATOM     75  C   UNL A   1      41.403  30.212  32.572  1.00  0.00     0.057 A 
ATOM     76  C   UNL A   1      41.375  31.618  32.586  1.00  0.00     0.134 A 
ATOM     77  C   UNL A   1      40.194  29.550  32.802  1.00  0.00     0.134 A 
ATOM     78  F   UNL A   1      42.502  32.317  32.373  1.00  0.00    -0.206 F 
ATOM     79  C   UNL A   1      40.182  32.332  32.709  1.00  0.00     0.040 A 
ATOM     80  C   UNL A   1      38.994  30.255  32.945  1.00  0.00     0.040 A 
ATOM     81  F   UNL A   1      40.133  28.211  32.783  1.00  0.00    -0.206 F 
ATOM     82  C   UNL A   1      38.981  31.646  32.858  1.00  0.00     0.006 A 
ENDBRANCH  54  75
BRANCH  66  83
ATOM     83  C   UNL A   1      45.011  24.031  33.230  1.00  0.00     0.057 A 
ATOM     84  C   UNL A   1      44.158  22.989  33.613  1.00  0.00     0.134 A 
ATOM     85  C   UNL A   1      46.259  24.090  33.869  1.00  0.00     0.134 A 
ATOM     86  F   UNL A   1      42.936  22.868  33.073  1.00  0.00    -0.206 F 
ATOM     87  C   UNL A   1      44.532  22.047  34.576  1.00  0.00     0.040 A 
ATOM     88  C   UNL A   1      46.630  23.177  34.858  1.00  0.00     0.040 A 
ATOM     89  F   UNL A   1      47.162  25.028  33.544  1.00  0.00    -0.206 F 
ATOM     90  C   UNL A   1      45.766  22.149  35.212  1.00  0.00     0.006 A 
ENDBRANCH  66  83
ENDBRANCH  40  41
ENDBRANCH  32  35
ENDBRANCH  30  31
ENDBRANCH  29  30
ENDBRANCH  28  29
ENDBRANCH   1  28
TORSDOF 16
ENDMDL
MODEL 2
REMARK VINA RESULT:     -12.5      1.231      2.965
REMARK SMILES Cc1cccc(NC(=O)[C@H]2C=C[C@@H]([NH3+])C2)c1C(=O)NCCCCCCNC(=O)c1ccc(-c2c3nc(c(-c4c(F)cccc4F)c4ccc([nH]4)c(-c4c(F)cccc4F)c4nc(c(-c5c(F)cccc5F)c5ccc2[nH]5)C=C4)C=C3)cc1
REMARK SMILES IDX 22 1 21 2 20 3 19 4 17 5 18 6 16 8 1 9 2 10 3 11 4 12 6 13
REMARK SMILES IDX 5 14 7 15 8 16 9 18 10 19 11 20 15 21 12 22 13 23 14 24
REMARK SMILES IDX 23 28 24 29 25 30 26 31 27 32 28 34 29 35 30 36 82 37 31 38
REMARK SMILES IDX 81 39 32 40 33 41 34 42 75 43 35 44 80 45 74 46 76 47 36 48
REMARK SMILES IDX 79 49 73 50 72 51 37 53 63 54 46 55 62 56 47 57 50 58 61 59
REMARK SMILES IDX 77 60 48 61 49 62 60 64 78 65 51 66 38 67 39 68 44 69 40 70
REMARK SMILES IDX 41 71 43 72 45 73 42 74 64 75 65 76 70 77 66 78 67 79 69 80
REMARK SMILES IDX 71 81 68 82 52 83 53 84 58 85 54 86 55 87 57 88 59 89 56 90
REMARK H PARENT 19 7 7 17 14 25 14 26 14 27 26 33 76 52 50 63
REMARK Flexibility Score: inf
ROOT
ATOM      1  C   UNL A   1      32.030  29.575  24.990  1.00  0.00     0.002 C 
ENDROOT
BRANCH   1   2
ATOM      2  C   UNL A   1      33.294  29.035  24.315  1.00  0.00     0.021 C 
BRANCH   2   3
ATOM      3  C   UNL A   1      33.280  28.991  22.778  1.00  0.00     0.116 C 
BRANCH   3   4
ATOM      4  N   UNL A   1      33.511  27.642  22.311  1.00  0.00    -0.352 N 
ATOM      5  C   UNL A   1      33.181  26.371  22.695  1.00  0.00     0.253 C 
ATOM      6  O   UNL A   1      33.673  25.510  21.952  1.00  0.00    -0.269 OA
ATOM      7  H   UNL A   1      34.056  27.637  21.492  1.00  0.00     0.163 HD
BRANCH   5   8
ATOM      8  C   UNL A   1      32.284  25.901  23.825  1.00  0.00     0.066 A 
ATOM      9  C   UNL A   1      30.035  27.026  23.113  1.00  0.00     0.045 C 
ATOM     10  C   UNL A   1      30.889  26.139  23.963  1.00  0.00    -0.036 A 
ATOM     11  C   UNL A   1      30.184  25.611  25.065  1.00  0.00     0.004 A 
ATOM     12  C   UNL A   1      30.856  25.087  26.144  1.00  0.00     0.002 A 
ATOM     13  C   UNL A   1      32.954  25.263  24.934  1.00  0.00     0.054 A 
ATOM     14  C   UNL A   1      32.235  25.006  26.090  1.00  0.00     0.027 A 
BRANCH  13  15
ATOM     15  N   UNL A   1      34.323  24.905  24.870  1.00  0.00    -0.325 N 
ATOM     16  C   UNL A   1      35.085  23.823  24.569  1.00  0.00     0.231 C 
ATOM     17  H   UNL A   1      34.892  25.670  25.116  1.00  0.00     0.169 HD
ATOM     18  O   UNL A   1      36.312  24.030  24.640  1.00  0.00    -0.274 OA
BRANCH  16  19
ATOM     19  C   UNL A   1      34.666  22.378  24.231  1.00  0.00     0.107 C 
ATOM     20  C   UNL A   1      35.744  21.389  24.565  1.00  0.00    -0.012 C 
ATOM     21  C   UNL A   1      33.372  21.719  24.724  1.00  0.00     0.087 C 
ATOM     22  C   UNL A   1      35.240  20.236  25.015  1.00  0.00     0.033 C 
ATOM     23  C   UNL A   1      33.747  20.255  25.079  1.00  0.00     0.205 C 
BRANCH  23  24
ATOM     24  N   UNL A   1      33.278  19.826  26.389  1.00  0.00    -0.352 N 
ATOM     25  H   UNL A   1      32.264  19.717  26.368  1.00  0.00     0.345 HD
ATOM     26  H   UNL A   1      33.530  20.526  27.087  1.00  0.00     0.345 HD
ATOM     27  H   UNL A   1      33.711  18.934  26.631  1.00  0.00     0.345 HD
ENDBRANCH  23  24
ENDBRANCH  16  19
ENDBRANCH  13  15
ENDBRANCH   5   8
ENDBRANCH   3   4
ENDBRANCH   2   3
ENDBRANCH   1   2
BRANCH   1  28
ATOM     28  C   UNL A   1      31.994  29.518  26.523  1.00  0.00     0.002 C 
BRANCH  28  29
ATOM     29  C   UNL A   1      32.797  30.596  27.255  1.00  0.00     0.021 C 
BRANCH  29  30
ATOM     30  C   UNL A   1      34.224  30.184  27.603  1.00  0.00     0.116 C 
BRANCH  30  31
ATOM     31  N   UNL A   1      34.905  31.130  28.476  1.00  0.00    -0.352 N 
ATOM     32  C   UNL A   1      36.112  31.007  29.138  1.00  0.00     0.251 C 
ATOM     33  H   UNL A   1      34.437  31.984  28.616  1.00  0.00     0.163 HD
ATOM     34  O   UNL A   1      36.511  31.922  29.856  1.00  0.00    -0.269 OA
BRANCH  32  35
ATOM     35  C   UNL A   1      36.981  29.833  28.887  1.00  0.00     0.039 A 
ATOM     36  C   UNL A   1      37.236  28.964  29.955  1.00  0.00     0.014 A 
ATOM     37  C   UNL A   1      37.663  29.673  27.683  1.00  0.00     0.014 A 
ATOM     38  C   UNL A   1      38.328  28.102  29.896  1.00  0.00     0.010 A 
ATOM     39  C   UNL A   1      38.793  28.878  27.649  1.00  0.00     0.010 A 
ATOM     40  C   UNL A   1      39.165  28.147  28.780  1.00  0.00    -0.014 A 
BRANCH  40  41
ATOM     41  C   UNL A   1      40.503  27.564  28.767  1.00  0.00     0.031 A 
ATOM     42  C   UNL A   1      40.717  26.149  28.403  1.00  0.00     0.074 A 
ATOM     43  C   UNL A   1      41.563  28.354  29.046  1.00  0.00     0.049 A 
ATOM     44  N   UNL A   1      41.759  25.464  28.738  1.00  0.00    -0.248 NA
ATOM     45  C   UNL A   1      39.737  25.379  27.649  1.00  0.00     0.031 C 
ATOM     46  C   UNL A   1      42.979  28.043  28.875  1.00  0.00     0.029 A 
ATOM     47  N   UNL A   1      41.556  29.543  29.791  1.00  0.00    -0.354 N 
ATOM     48  C   UNL A   1      41.706  24.260  28.077  1.00  0.00     0.074 A 
ATOM     49  C   UNL A   1      40.411  24.244  27.433  1.00  0.00     0.031 C 
ATOM     50  C   UNL A   1      43.689  28.800  29.725  1.00  0.00     0.029 A 
ATOM     51  C   UNL A   1      42.740  29.517  30.561  1.00  0.00     0.049 A 
ATOM     52  H   UNL A   1      40.868  30.247  29.780  1.00  0.00     0.167 HD
ATOM     53  C   UNL A   1      42.801  23.448  28.062  1.00  0.00     0.037 A 
ATOM     54  C   UNL A   1      42.684  29.459  31.923  1.00  0.00     0.037 A 
ATOM     55  C   UNL A   1      43.886  23.980  28.880  1.00  0.00     0.049 A 
ATOM     56  C   UNL A   1      43.322  28.230  32.534  1.00  0.00     0.074 A 
ATOM     57  C   UNL A   1      45.009  24.746  28.614  1.00  0.00     0.029 A 
ATOM     58  N   UNL A   1      43.734  23.986  30.254  1.00  0.00    -0.354 N 
ATOM     59  N   UNL A   1      43.793  27.225  31.847  1.00  0.00    -0.248 NA
ATOM     60  C   UNL A   1      43.385  27.995  33.979  1.00  0.00     0.031 C 
ATOM     61  C   UNL A   1      45.503  25.252  29.849  1.00  0.00     0.029 A 
ATOM     62  C   UNL A   1      44.682  24.786  30.860  1.00  0.00     0.049 A 
ATOM     63  H   UNL A   1      43.039  23.484  30.739  1.00  0.00     0.167 HD
ATOM     64  C   UNL A   1      44.154  26.225  32.708  1.00  0.00     0.074 A 
ATOM     65  C   UNL A   1      43.892  26.753  34.032  1.00  0.00     0.031 C 
ATOM     66  C   UNL A   1      44.602  25.011  32.289  1.00  0.00     0.037 A 
BRANCH  53  67
ATOM     67  C   UNL A   1      42.959  22.278  27.126  1.00  0.00     0.057 A 
ATOM     68  C   UNL A   1      42.156  21.129  27.266  1.00  0.00     0.134 A 
ATOM     69  C   UNL A   1      43.908  22.205  26.093  1.00  0.00     0.134 A 
ATOM     70  F   UNL A   1      41.144  21.079  28.142  1.00  0.00    -0.206 F 
ATOM     71  C   UNL A   1      42.360  19.963  26.517  1.00  0.00     0.040 A 
ATOM     72  C   UNL A   1      44.164  21.027  25.378  1.00  0.00     0.040 A 
ATOM     73  F   UNL A   1      44.599  23.286  25.705  1.00  0.00    -0.206 F 
ATOM     74  C   UNL A   1      43.395  19.893  25.598  1.00  0.00     0.006 A 
ENDBRANCH  53  67
BRANCH  54  75
ATOM     75  C   UNL A   1      41.506  30.167  32.490  1.00  0.00     0.057 A 
ATOM     76  C   UNL A   1      41.504  31.573  32.513  1.00  0.00     0.134 A 
ATOM     77  C   UNL A   1      40.280  29.526  32.680  1.00  0.00     0.134 A 
ATOM     78  F   UNL A   1      42.649  32.253  32.336  1.00  0.00    -0.206 F 
ATOM     79  C   UNL A   1      40.321  32.308  32.606  1.00  0.00     0.040 A 
ATOM     80  C   UNL A   1      39.090  30.252  32.794  1.00  0.00     0.040 A 
ATOM     81  F   UNL A   1      40.195  28.188  32.650  1.00  0.00    -0.206 F 
ATOM     82  C   UNL A   1      39.104  31.643  32.716  1.00  0.00     0.006 A 
ENDBRANCH  54  75
BRANCH  66  83
ATOM     83  C   UNL A   1      45.009  23.937  33.240  1.00  0.00     0.057 A 
ATOM     84  C   UNL A   1      44.111  22.947  33.658  1.00  0.00     0.134 A 
ATOM     85  C   UNL A   1      46.270  23.942  33.855  1.00  0.00     0.134 A 
ATOM     86  F   UNL A   1      42.874  22.880  33.143  1.00  0.00    -0.206 F 
ATOM     87  C   UNL A   1      44.455  22.005  34.632  1.00  0.00     0.040 A 
ATOM     88  C   UNL A   1      46.613  23.029  34.854  1.00  0.00     0.040 A 
ATOM     89  F   UNL A   1      47.215  24.826  33.496  1.00  0.00    -0.206 F 
ATOM     90  C   UNL A   1      45.704  22.053  35.244  1.00  0.00     0.006 A 
ENDBRANCH  66  83
ENDBRANCH  40  41
ENDBRANCH  32  35
ENDBRANCH  30  31
ENDBRANCH  29  30
ENDBRANCH  28  29
ENDBRANCH   1  28
TORSDOF 16
ENDMDL
MODEL 3
REMARK VINA RESULT:     -12.3      1.738      2.479
REMARK SMILES Cc1cccc(NC(=O)[C@H]2C=C[C@@H]([NH3+])C2)c1C(=O)NCCCCCCNC(=O)c1ccc(-c2c3nc(c(-c4c(F)cccc4F)c4ccc([nH]4)c(-c4c(F)cccc4F)c4nc(c(-c5c(F)cccc5F)c5ccc2[nH]5)C=C4)C=C3)cc1
REMARK SMILES IDX 22 1 21 2 20 3 19 4 17 5 18 6 16 8 1 9 2 10 3 11 4 12 6 13
REMARK SMILES IDX 5 14 7 15 8 16 9 18 10 19 11 20 15 21 12 22 13 23 14 24
REMARK SMILES IDX 23 28 24 29 25 30 26 31 27 32 28 34 29 35 30 36 82 37 31 38
REMARK SMILES IDX 81 39 32 40 33 41 34 42 75 43 35 44 80 45 74 46 76 47 36 48
REMARK SMILES IDX 79 49 73 50 72 51 37 53 63 54 46 55 62 56 47 57 50 58 61 59
REMARK SMILES IDX 77 60 48 61 49 62 60 64 78 65 51 66 38 67 39 68 44 69 40 70
REMARK SMILES IDX 41 71 43 72 45 73 42 74 64 75 65 76 70 77 66 78 67 79 69 80
REMARK SMILES IDX 71 81 68 82 52 83 53 84 58 85 54 86 55 87 57 88 59 89 56 90
REMARK H PARENT 19 7 7 17 14 25 14 26 14 27 26 33 76 52 50 63
REMARK Flexibility Score: inf
ROOT
ATOM      1  C   UNL A   1      33.925  27.435  25.880  1.00  0.00     0.002 C 
ENDROOT
BRANCH   1   2
ATOM      2  C   UNL A   1      33.619  26.172  25.070  1.00  0.00     0.021 C 
BRANCH   2   3
ATOM      3  C   UNL A   1      34.627  25.018  25.199  1.00  0.00     0.116 C 
BRANCH   3   4
ATOM      4  N   UNL A   1      34.428  24.313  26.445  1.00  0.00    -0.352 N 
ATOM      5  C   UNL A   1      34.080  23.052  26.847  1.00  0.00     0.253 C 
ATOM      6  O   UNL A   1      34.005  22.953  28.080  1.00  0.00    -0.269 OA
ATOM      7  H   UNL A   1      34.587  24.902  27.217  1.00  0.00     0.163 HD
BRANCH   5   8
ATOM      8  C   UNL A   1      33.841  21.803  26.021  1.00  0.00     0.066 A 
ATOM      9  C   UNL A   1      36.254  21.402  25.101  1.00  0.00     0.045 C 
ATOM     10  C   UNL A   1      34.817  21.048  25.313  1.00  0.00    -0.036 A 
ATOM     11  C   UNL A   1      34.440  19.886  24.605  1.00  0.00     0.004 A 
ATOM     12  C   UNL A   1      33.115  19.604  24.371  1.00  0.00     0.002 A 
ATOM     13  C   UNL A   1      32.459  21.429  25.833  1.00  0.00     0.054 A 
ATOM     14  C   UNL A   1      32.154  20.435  24.917  1.00  0.00     0.027 A 
BRANCH  13  15
ATOM     15  N   UNL A   1      31.414  22.059  26.552  1.00  0.00    -0.325 N 
ATOM     16  C   UNL A   1      30.689  23.206  26.511  1.00  0.00     0.231 C 
ATOM     17  H   UNL A   1      31.126  21.495  27.307  1.00  0.00     0.169 HD
ATOM     18  O   UNL A   1      29.817  23.288  27.399  1.00  0.00    -0.274 OA
BRANCH  16  19
ATOM     19  C   UNL A   1      30.831  24.436  25.594  1.00  0.00     0.107 C 
ATOM     20  C   UNL A   1      30.839  24.055  24.142  1.00  0.00    -0.012 C 
ATOM     21  C   UNL A   1      29.924  25.672  25.663  1.00  0.00     0.087 C 
ATOM     22  C   UNL A   1      30.217  24.965  23.385  1.00  0.00     0.033 C 
ATOM     23  C   UNL A   1      29.670  26.097  24.192  1.00  0.00     0.205 C 
BRANCH  23  24
ATOM     24  N   UNL A   1      28.266  26.328  23.878  1.00  0.00    -0.352 N 
ATOM     25  H   UNL A   1      28.175  27.192  23.343  1.00  0.00     0.345 HD
ATOM     26  H   UNL A   1      27.732  26.406  24.743  1.00  0.00     0.345 HD
ATOM     27  H   UNL A   1      27.908  25.548  23.327  1.00  0.00     0.345 HD
ENDBRANCH  23  24
ENDBRANCH  16  19
ENDBRANCH  13  15
ENDBRANCH   5   8
ENDBRANCH   3   4
ENDBRANCH   2   3
ENDBRANCH   1   2
BRANCH   1  28
ATOM     28  C   UNL A   1      32.894  27.832  26.945  1.00  0.00     0.002 C 
BRANCH  28  29
ATOM     29  C   UNL A   1      32.809  29.324  27.276  1.00  0.00     0.021 C 
BRANCH  29  30
ATOM     30  C   UNL A   1      34.105  30.092  27.037  1.00  0.00     0.116 C 
BRANCH  30  31
ATOM     31  N   UNL A   1      34.486  30.950  28.150  1.00  0.00    -0.352 N 
ATOM     32  C   UNL A   1      35.569  30.859  29.004  1.00  0.00     0.251 C 
ATOM     33  H   UNL A   1      33.882  31.709  28.320  1.00  0.00     0.163 HD
ATOM     34  O   UNL A   1      35.705  31.681  29.908  1.00  0.00    -0.269 OA
BRANCH  32  35
ATOM     35  C   UNL A   1      36.629  29.853  28.755  1.00  0.00     0.039 A 
ATOM     36  C   UNL A   1      36.933  28.953  29.783  1.00  0.00     0.014 A 
ATOM     37  C   UNL A   1      37.418  29.892  27.608  1.00  0.00     0.014 A 
ATOM     38  C   UNL A   1      38.149  28.273  29.765  1.00  0.00     0.010 A 
ATOM     39  C   UNL A   1      38.658  29.281  27.622  1.00  0.00     0.010 A 
ATOM     40  C   UNL A   1      39.052  28.530  28.732  1.00  0.00    -0.014 A 
BRANCH  40  41
ATOM     41  C   UNL A   1      40.461  28.159  28.800  1.00  0.00     0.031 A 
ATOM     42  C   UNL A   1      40.949  26.896  28.210  1.00  0.00     0.074 A 
ATOM     43  C   UNL A   1      41.337  29.016  29.371  1.00  0.00     0.049 A 
ATOM     44  N   UNL A   1      42.047  26.312  28.554  1.00  0.00    -0.248 NA
ATOM     45  C   UNL A   1      40.201  26.169  27.192  1.00  0.00     0.031 C 
ATOM     46  C   UNL A   1      42.794  28.952  29.346  1.00  0.00     0.029 A 
ATOM     47  N   UNL A   1      41.048  30.010  30.318  1.00  0.00    -0.354 N 
ATOM     48  C   UNL A   1      42.271  25.277  27.677  1.00  0.00     0.074 A 
ATOM     49  C   UNL A   1      41.076  25.212  26.864  1.00  0.00     0.031 C 
ATOM     50  C   UNL A   1      43.270  29.608  30.417  1.00  0.00     0.029 A 
ATOM     51  C   UNL A   1      42.127  29.992  31.229  1.00  0.00     0.049 A 
ATOM     52  H   UNL A   1      40.257  30.596  30.342  1.00  0.00     0.167 HD
ATOM     53  C   UNL A   1      43.482  24.650  27.665  1.00  0.00     0.037 A 
ATOM     54  C   UNL A   1      41.931  29.644  32.534  1.00  0.00     0.037 A 
ATOM     55  C   UNL A   1      44.364  25.149  28.714  1.00  0.00     0.049 A 
ATOM     56  C   UNL A   1      42.695  28.419  32.986  1.00  0.00     0.074 A 
ATOM     57  C   UNL A   1      45.365  26.105  28.760  1.00  0.00     0.029 A 
ATOM     58  N   UNL A   1      44.063  24.846  30.029  1.00  0.00    -0.354 N 
ATOM     59  N   UNL A   1      43.401  27.657  32.196  1.00  0.00    -0.248 NA
ATOM     60  C   UNL A   1      42.636  27.898  34.354  1.00  0.00     0.031 C 
ATOM     61  C   UNL A   1      45.627  26.407  30.125  1.00  0.00     0.029 A 
ATOM     62  C   UNL A   1      44.790  25.628  30.903  1.00  0.00     0.049 A 
ATOM     63  H   UNL A   1      43.413  24.160  30.307  1.00  0.00     0.167 HD
ATOM     64  C   UNL A   1      43.827  26.560  32.895  1.00  0.00     0.074 A 
ATOM     65  C   UNL A   1      43.335  26.757  34.244  1.00  0.00     0.031 C 
ATOM     66  C   UNL A   1      44.516  25.537  32.322  1.00  0.00     0.037 A 
BRANCH  53  67
ATOM     67  C   UNL A   1      43.936  23.735  26.556  1.00  0.00     0.057 A 
ATOM     68  C   UNL A   1      43.626  22.361  26.583  1.00  0.00     0.134 A 
ATOM     69  C   UNL A   1      44.713  24.139  25.458  1.00  0.00     0.134 A 
ATOM     70  F   UNL A   1      42.816  21.839  27.513  1.00  0.00    -0.206 F 
ATOM     71  C   UNL A   1      44.145  21.448  25.656  1.00  0.00     0.040 A 
ATOM     72  C   UNL A   1      45.287  23.229  24.560  1.00  0.00     0.040 A 
ATOM     73  F   UNL A   1      44.913  25.435  25.185  1.00  0.00    -0.206 F 
ATOM     74  C   UNL A   1      45.015  21.873  24.665  1.00  0.00     0.006 A 
ENDBRANCH  53  67
BRANCH  54  75
ATOM     75  C   UNL A   1      40.596  30.044  33.051  1.00  0.00     0.057 A 
ATOM     76  C   UNL A   1      40.336  31.406  33.283  1.00  0.00     0.134 A 
ATOM     77  C   UNL A   1      39.494  29.187  32.991  1.00  0.00     0.134 A 
ATOM     78  F   UNL A   1      41.350  32.285  33.352  1.00  0.00    -0.206 F 
ATOM     79  C   UNL A   1      39.036  31.911  33.338  1.00  0.00     0.040 A 
ATOM     80  C   UNL A   1      38.186  29.678  33.065  1.00  0.00     0.040 A 
ATOM     81  F   UNL A   1      39.657  27.878  32.751  1.00  0.00    -0.206 F 
ATOM     82  C   UNL A   1      37.955  31.046  33.198  1.00  0.00     0.006 A 
ENDBRANCH  54  75
BRANCH  66  83
ATOM     83  C   UNL A   1      44.990  24.357  33.102  1.00  0.00     0.057 A 
ATOM     84  C   UNL A   1      44.206  23.204  33.238  1.00  0.00     0.134 A 
ATOM     85  C   UNL A   1      46.184  24.396  33.837  1.00  0.00     0.134 A 
ATOM     86  F   UNL A   1      43.037  23.088  32.592  1.00  0.00    -0.206 F 
ATOM     87  C   UNL A   1      44.598  22.140  34.056  1.00  0.00     0.040 A 
ATOM     88  C   UNL A   1      46.569  23.356  34.686  1.00  0.00     0.040 A 
ATOM     89  F   UNL A   1      47.023  25.441  33.745  1.00  0.00    -0.206 F 
ATOM     90  C   UNL A   1      45.775  22.221  34.795  1.00  0.00     0.006 A 
ENDBRANCH  66  83
ENDBRANCH  40  41
ENDBRANCH  32  35
ENDBRANCH  30  31
ENDBRANCH  29  30
ENDBRANCH  28  29
ENDBRANCH   1  28
TORSDOF 16
ENDMDL
