MODEL 1
REMARK VINA RESULT:     -11.7      0.000      0.000
REMARK SMILES Cc1ccc(F)cc1S(=O)(=O)Nc1ccc(N(C)C)c(C(=O)NCCCCCCNC(=O)c2ccc(-c3c4nc(c(-c5c(F)cccc5F)c5ccc([nH]5)c(-c5c(F)cccc5F)c5nc(c(-c6c(F)cccc6F)c6ccc3[nH]6)C=C5)C=C4)cc2)c1
REMARK SMILES IDX 26 1 25 2 24 3 23 4 21 5 22 6 20 8 13 9 14 10 87 11 15 12
REMARK SMILES IDX 16 13 12 14 9 16 10 17 11 18 8 19 1 20 2 21 3 22 4 23 7 24
REMARK SMILES IDX 5 25 6 26 17 27 18 28 19 29 27 30 28 31 29 32 30 33 31 34
REMARK SMILES IDX 32 36 33 37 34 38 86 39 35 40 85 41 36 42 37 43 38 44 79 45
REMARK SMILES IDX 39 46 84 47 78 48 80 49 40 50 83 51 77 52 76 53 41 55 67 56
REMARK SMILES IDX 50 57 66 58 51 59 54 60 65 61 81 62 52 63 53 64 64 66 82 67
REMARK SMILES IDX 55 68 42 69 43 70 48 71 44 72 45 73 47 74 49 75 46 76 68 77
REMARK SMILES IDX 69 78 74 79 70 80 71 81 73 82 75 83 72 84 56 85 57 86 62 87
REMARK SMILES IDX 58 88 59 89 61 90 63 91 60 92
REMARK H PARENT 23 7 12 15 30 35 80 54 54 65
REMARK Flexibility Score: inf
ROOT
ATOM      1  C   UNL A   1      36.590  22.136  24.775  1.00  0.00     0.002 C 
ENDROOT
BRANCH   1   2
ATOM      2  C   UNL A   1      36.269  22.985  26.012  1.00  0.00     0.021 C 
BRANCH   2   3
ATOM      3  C   UNL A   1      34.948  23.751  25.870  1.00  0.00     0.116 C 
BRANCH   3   4
ATOM      4  N   UNL A   1      33.942  23.109  26.697  1.00  0.00    -0.352 N 
ATOM      5  C   UNL A   1      32.578  23.283  26.772  1.00  0.00     0.253 C 
ATOM      6  O   UNL A   1      32.019  22.945  27.814  1.00  0.00    -0.269 OA
ATOM      7  H   UNL A   1      34.299  22.429  27.314  1.00  0.00     0.163 HD
BRANCH   5   8
ATOM      8  C   UNL A   1      31.780  23.807  25.627  1.00  0.00     0.065 A 
ATOM      9  C   UNL A   1      30.432  25.627  24.761  1.00  0.00     0.050 A 
ATOM     10  C   UNL A   1      30.113  24.856  23.655  1.00  0.00     0.029 A 
ATOM     11  C   UNL A   1      31.117  25.041  25.811  1.00  0.00     0.042 A 
ATOM     12  C   UNL A   1      30.718  23.611  23.482  1.00  0.00     0.029 A 
ATOM     13  C   UNL A   1      31.648  23.081  24.404  1.00  0.00     0.049 A 
BRANCH   9  14
ATOM     14  N   UNL A   1      30.122  27.007  24.677  1.00  0.00    -0.280 N 
ATOM     15  H   UNL A   1      29.238  27.284  25.009  1.00  0.00     0.180 HD
BRANCH  14  16
ATOM     16  S   UNL A   1      31.107  28.206  24.069  1.00  0.00     0.262 S 
ATOM     17  O   UNL A   1      30.247  29.235  23.518  1.00  0.00    -0.201 OA
ATOM     18  O   UNL A   1      32.064  27.515  23.229  1.00  0.00    -0.201 OA
BRANCH  16  19
ATOM     19  C   UNL A   1      32.086  29.021  25.333  1.00  0.00     0.093 A 
ATOM     20  C   UNL A   1      33.897  27.228  25.828  1.00  0.00     0.046 C 
ATOM     21  C   UNL A   1      33.175  28.517  26.066  1.00  0.00    -0.030 A 
ATOM     22  C   UNL A   1      33.662  29.278  27.157  1.00  0.00     0.008 A 
ATOM     23  C   UNL A   1      33.160  30.543  27.450  1.00  0.00     0.039 A 
ATOM     24  C   UNL A   1      31.617  30.323  25.618  1.00  0.00     0.061 A 
ATOM     25  C   UNL A   1      32.160  31.068  26.655  1.00  0.00     0.124 A 
ATOM     26  F   UNL A   1      31.692  32.297  26.902  1.00  0.00    -0.207 F 
ENDBRANCH  16  19
ENDBRANCH  14  16
ENDBRANCH   9  14
BRANCH  13  27
ATOM     27  N   UNL A   1      32.409  21.983  24.010  1.00  0.00    -0.377 N 
ATOM     28  C   UNL A   1      32.249  20.649  24.585  1.00  0.00     0.143 C 
ATOM     29  C   UNL A   1      33.482  22.084  23.024  1.00  0.00     0.143 C 
ENDBRANCH  13  27
ENDBRANCH   5   8
ENDBRANCH   3   4
ENDBRANCH   2   3
ENDBRANCH   1   2
BRANCH   1  30
ATOM     30  C   UNL A   1      36.499  20.624  25.011  1.00  0.00     0.002 C 
BRANCH  30  31
ATOM     31  C   UNL A   1      37.811  19.859  24.812  1.00  0.00     0.021 C 
BRANCH  31  32
ATOM     32  C   UNL A   1      38.917  20.226  25.795  1.00  0.00     0.116 C 
BRANCH  32  33
ATOM     33  N   UNL A   1      39.955  19.209  25.853  1.00  0.00    -0.352 N 
ATOM     34  C   UNL A   1      41.299  19.364  26.082  1.00  0.00     0.251 C 
ATOM     35  H   UNL A   1      39.652  18.283  25.709  1.00  0.00     0.163 HD
ATOM     36  O   UNL A   1      42.073  18.426  25.919  1.00  0.00    -0.269 OA
BRANCH  34  37
ATOM     37  C   UNL A   1      41.815  20.679  26.513  1.00  0.00     0.039 A 
ATOM     38  C   UNL A   1      42.179  21.616  25.543  1.00  0.00     0.014 A 
ATOM     39  C   UNL A   1      41.948  20.976  27.872  1.00  0.00     0.014 A 
ATOM     40  C   UNL A   1      42.636  22.875  25.937  1.00  0.00     0.010 A 
ATOM     41  C   UNL A   1      42.353  22.248  28.262  1.00  0.00     0.010 A 
ATOM     42  C   UNL A   1      42.708  23.205  27.299  1.00  0.00    -0.014 A 
BRANCH  42  43
ATOM     43  C   UNL A   1      43.182  24.535  27.750  1.00  0.00     0.031 A 
ATOM     44  C   UNL A   1      42.183  25.586  28.142  1.00  0.00     0.074 A 
ATOM     45  C   UNL A   1      44.497  24.820  27.733  1.00  0.00     0.049 A 
ATOM     46  N   UNL A   1      42.379  26.845  28.442  1.00  0.00    -0.248 NA
ATOM     47  C   UNL A   1      40.772  25.170  28.173  1.00  0.00     0.031 C 
ATOM     48  C   UNL A   1      45.561  23.894  27.345  1.00  0.00     0.029 A 
ATOM     49  N   UNL A   1      45.158  25.984  28.033  1.00  0.00    -0.354 N 
ATOM     50  C   UNL A   1      41.117  27.376  28.668  1.00  0.00     0.074 A 
ATOM     51  C   UNL A   1      40.160  26.315  28.438  1.00  0.00     0.031 C 
ATOM     52  C   UNL A   1      46.744  24.521  27.441  1.00  0.00     0.029 A 
ATOM     53  C   UNL A   1      46.519  25.902  27.861  1.00  0.00     0.049 A 
ATOM     54  H   UNL A   1      44.703  26.799  28.341  1.00  0.00     0.167 HD
ATOM     55  C   UNL A   1      40.785  28.634  29.047  1.00  0.00     0.037 A 
ATOM     56  C   UNL A   1      47.472  26.838  28.016  1.00  0.00     0.037 A 
ATOM     57  C   UNL A   1      41.741  29.678  29.306  1.00  0.00     0.049 A 
ATOM     58  C   UNL A   1      47.082  28.224  28.446  1.00  0.00     0.074 A 
ATOM     59  C   UNL A   1      41.509  30.969  29.746  1.00  0.00     0.029 A 
ATOM     60  N   UNL A   1      43.112  29.546  29.152  1.00  0.00    -0.354 N 
ATOM     61  N   UNL A   1      45.889  28.706  28.696  1.00  0.00    -0.248 NA
ATOM     62  C   UNL A   1      48.172  29.196  28.617  1.00  0.00     0.031 C 
ATOM     63  C   UNL A   1      42.741  31.628  29.833  1.00  0.00     0.029 A 
ATOM     64  C   UNL A   1      43.741  30.735  29.480  1.00  0.00     0.049 A 
ATOM     65  H   UNL A   1      43.571  28.728  28.855  1.00  0.00     0.167 HD
ATOM     66  C   UNL A   1      46.085  30.025  29.081  1.00  0.00     0.074 A 
ATOM     67  C   UNL A   1      47.512  30.268  29.035  1.00  0.00     0.031 C 
ATOM     68  C   UNL A   1      45.164  30.952  29.442  1.00  0.00     0.037 A 
BRANCH  55  69
ATOM     69  C   UNL A   1      39.326  28.941  29.198  1.00  0.00     0.057 A 
ATOM     70  C   UNL A   1      38.557  29.416  28.128  1.00  0.00     0.134 A 
ATOM     71  C   UNL A   1      38.680  28.752  30.426  1.00  0.00     0.134 A 
ATOM     72  F   UNL A   1      39.120  29.632  26.930  1.00  0.00    -0.206 F 
ATOM     73  C   UNL A   1      37.204  29.724  28.282  1.00  0.00     0.040 A 
ATOM     74  C   UNL A   1      37.321  29.034  30.585  1.00  0.00     0.040 A 
ATOM     75  F   UNL A   1      39.357  28.295  31.490  1.00  0.00    -0.206 F 
ATOM     76  C   UNL A   1      36.582  29.528  29.513  1.00  0.00     0.006 A 
ENDBRANCH  55  69
BRANCH  56  77
ATOM     77  C   UNL A   1      48.895  26.485  27.791  1.00  0.00     0.057 A 
ATOM     78  C   UNL A   1      49.689  26.008  28.840  1.00  0.00     0.134 A 
ATOM     79  C   UNL A   1      49.490  26.605  26.530  1.00  0.00     0.134 A 
ATOM     80  F   UNL A   1      49.176  25.890  30.073  1.00  0.00    -0.206 F 
ATOM     81  C   UNL A   1      51.029  25.670  28.646  1.00  0.00     0.040 A 
ATOM     82  C   UNL A   1      50.824  26.253  26.317  1.00  0.00     0.040 A 
ATOM     83  F   UNL A   1      48.779  27.052  25.486  1.00  0.00    -0.206 F 
ATOM     84  C   UNL A   1      51.598  25.787  27.379  1.00  0.00     0.006 A 
ENDBRANCH  56  77
BRANCH  68  85
ATOM     85  C   UNL A   1      45.675  32.297  29.858  1.00  0.00     0.057 A 
ATOM     86  C   UNL A   1      46.018  32.578  31.185  1.00  0.00     0.134 A 
ATOM     87  C   UNL A   1      45.868  33.308  28.908  1.00  0.00     0.134 A 
ATOM     88  F   UNL A   1      45.842  31.656  32.143  1.00  0.00    -0.206 F 
ATOM     89  C   UNL A   1      46.525  33.825  31.557  1.00  0.00     0.040 A 
ATOM     90  C   UNL A   1      46.394  34.551  29.263  1.00  0.00     0.040 A 
ATOM     91  F   UNL A   1      45.564  33.098  27.618  1.00  0.00    -0.206 F 
ATOM     92  C   UNL A   1      46.720  34.812  30.592  1.00  0.00     0.006 A 
ENDBRANCH  68  85
ENDBRANCH  42  43
ENDBRANCH  34  37
ENDBRANCH  32  33
ENDBRANCH  31  32
ENDBRANCH  30  31
ENDBRANCH   1  30
TORSDOF 17
ENDMDL
MODEL 2
REMARK VINA RESULT:     -11.6      1.605      6.148
REMARK SMILES Cc1ccc(F)cc1S(=O)(=O)Nc1ccc(N(C)C)c(C(=O)NCCCCCCNC(=O)c2ccc(-c3c4nc(c(-c5c(F)cccc5F)c5ccc([nH]5)c(-c5c(F)cccc5F)c5nc(c(-c6c(F)cccc6F)c6ccc3[nH]6)C=C5)C=C4)cc2)c1
REMARK SMILES IDX 26 1 25 2 24 3 23 4 21 5 22 6 20 8 13 9 14 10 87 11 15 12
REMARK SMILES IDX 16 13 12 14 9 16 10 17 11 18 8 19 1 20 2 21 3 22 4 23 7 24
REMARK SMILES IDX 5 25 6 26 17 27 18 28 19 29 27 30 28 31 29 32 30 33 31 34
REMARK SMILES IDX 32 36 33 37 34 38 86 39 35 40 85 41 36 42 37 43 38 44 79 45
REMARK SMILES IDX 39 46 84 47 78 48 80 49 40 50 83 51 77 52 76 53 41 55 67 56
REMARK SMILES IDX 50 57 66 58 51 59 54 60 65 61 81 62 52 63 53 64 64 66 82 67
REMARK SMILES IDX 55 68 42 69 43 70 48 71 44 72 45 73 47 74 49 75 46 76 68 77
REMARK SMILES IDX 69 78 74 79 70 80 71 81 73 82 75 83 72 84 56 85 57 86 62 87
REMARK SMILES IDX 58 88 59 89 61 90 63 91 60 92
REMARK H PARENT 23 7 12 15 30 35 80 54 54 65
REMARK Flexibility Score: inf
ROOT
ATOM      1  C   UNL A   1      36.631  21.673  25.346  1.00  0.00     0.002 C 
ENDROOT
BRANCH   1   2
ATOM      2  C   UNL A   1      35.493  22.176  26.244  1.00  0.00     0.021 C 
BRANCH   2   3
ATOM      3  C   UNL A   1      34.864  23.473  25.720  1.00  0.00     0.116 C 
BRANCH   3   4
ATOM      4  N   UNL A   1      35.194  23.620  24.313  1.00  0.00    -0.352 N 
ATOM      5  C   UNL A   1      34.402  23.617  23.187  1.00  0.00     0.253 C 
ATOM      6  O   UNL A   1      34.940  23.336  22.117  1.00  0.00    -0.269 OA
ATOM      7  H   UNL A   1      36.155  23.743  24.134  1.00  0.00     0.163 HD
BRANCH   5   8
ATOM      8  C   UNL A   1      32.959  23.989  23.229  1.00  0.00     0.065 A 
ATOM      9  C   UNL A   1      31.314  25.754  22.989  1.00  0.00     0.050 A 
ATOM     10  C   UNL A   1      30.330  24.888  23.438  1.00  0.00     0.029 A 
ATOM     11  C   UNL A   1      32.637  25.353  23.051  1.00  0.00     0.042 A 
ATOM     12  C   UNL A   1      30.640  23.548  23.670  1.00  0.00     0.029 A 
ATOM     13  C   UNL A   1      31.938  23.022  23.478  1.00  0.00     0.049 A 
BRANCH   9  14
ATOM     14  N   UNL A   1      30.868  26.958  22.390  1.00  0.00    -0.280 N 
ATOM     15  H   UNL A   1      30.479  26.887  21.489  1.00  0.00     0.180 HD
BRANCH  14  16
ATOM     16  S   UNL A   1      30.941  28.482  23.060  1.00  0.00     0.262 S 
ATOM     17  O   UNL A   1      29.602  28.826  23.497  1.00  0.00    -0.201 OA
ATOM     18  O   UNL A   1      31.628  29.292  22.076  1.00  0.00    -0.201 OA
BRANCH  16  19
ATOM     19  C   UNL A   1      31.964  28.555  24.533  1.00  0.00     0.093 A 
ATOM     20  C   UNL A   1      34.342  28.738  23.507  1.00  0.00     0.046 C 
ATOM     21  C   UNL A   1      33.366  28.579  24.631  1.00  0.00    -0.030 A 
ATOM     22  C   UNL A   1      33.954  28.434  25.912  1.00  0.00     0.008 A 
ATOM     23  C   UNL A   1      33.182  28.371  27.070  1.00  0.00     0.039 A 
ATOM     24  C   UNL A   1      31.197  28.533  25.720  1.00  0.00     0.061 A 
ATOM     25  C   UNL A   1      31.807  28.454  26.964  1.00  0.00     0.124 A 
ATOM     26  F   UNL A   1      31.054  28.432  28.070  1.00  0.00    -0.207 F 
ENDBRANCH  16  19
ENDBRANCH  14  16
ENDBRANCH   9  14
BRANCH  13  27
ATOM     27  N   UNL A   1      32.087  21.638  23.453  1.00  0.00    -0.377 N 
ATOM     28  C   UNL A   1      32.026  20.847  22.226  1.00  0.00     0.143 C 
ATOM     29  C   UNL A   1      32.259  20.844  24.667  1.00  0.00     0.143 C 
ENDBRANCH  13  27
ENDBRANCH   5   8
ENDBRANCH   3   4
ENDBRANCH   2   3
ENDBRANCH   1   2
BRANCH   1  30
ATOM     30  C   UNL A   1      36.557  20.178  25.017  1.00  0.00     0.002 C 
BRANCH  30  31
ATOM     31  C   UNL A   1      37.912  19.480  24.868  1.00  0.00     0.021 C 
BRANCH  31  32
ATOM     32  C   UNL A   1      39.025  20.059  25.736  1.00  0.00     0.116 C 
BRANCH  32  33
ATOM     33  N   UNL A   1      40.173  19.170  25.816  1.00  0.00    -0.352 N 
ATOM     34  C   UNL A   1      41.478  19.475  26.109  1.00  0.00     0.251 C 
ATOM     35  H   UNL A   1      39.988  18.219  25.637  1.00  0.00     0.163 HD
ATOM     36  O   UNL A   1      42.364  18.640  25.959  1.00  0.00    -0.269 OA
BRANCH  34  37
ATOM     37  C   UNL A   1      41.815  20.829  26.594  1.00  0.00     0.039 A 
ATOM     38  C   UNL A   1      42.278  21.781  25.683  1.00  0.00     0.014 A 
ATOM     39  C   UNL A   1      41.684  21.149  27.949  1.00  0.00     0.014 A 
ATOM     40  C   UNL A   1      42.568  23.073  26.122  1.00  0.00     0.010 A 
ATOM     41  C   UNL A   1      41.923  22.450  28.375  1.00  0.00     0.010 A 
ATOM     42  C   UNL A   1      42.374  23.422  27.468  1.00  0.00    -0.014 A 
BRANCH  42  43
ATOM     43  C   UNL A   1      42.666  24.787  27.965  1.00  0.00     0.031 A 
ATOM     44  C   UNL A   1      44.066  25.145  28.373  1.00  0.00     0.074 A 
ATOM     45  C   UNL A   1      41.665  25.672  28.123  1.00  0.00     0.049 A 
ATOM     46  N   UNL A   1      44.509  26.234  28.949  1.00  0.00    -0.248 NA
ATOM     47  C   UNL A   1      45.102  24.130  28.124  1.00  0.00     0.031 C 
ATOM     48  C   UNL A   1      40.261  25.433  27.790  1.00  0.00     0.029 A 
ATOM     49  N   UNL A   1      41.678  26.950  28.624  1.00  0.00    -0.354 N 
ATOM     50  C   UNL A   1      45.865  26.022  29.157  1.00  0.00     0.074 A 
ATOM     51  C   UNL A   1      46.167  24.690  28.678  1.00  0.00     0.031 C 
ATOM     52  C   UNL A   1      39.548  26.531  28.086  1.00  0.00     0.029 A 
ATOM     53  C   UNL A   1      40.437  27.537  28.661  1.00  0.00     0.049 A 
ATOM     54  H   UNL A   1      42.497  27.401  28.927  1.00  0.00     0.167 HD
ATOM     55  C   UNL A   1      46.781  26.868  29.688  1.00  0.00     0.037 A 
ATOM     56  C   UNL A   1      40.061  28.746  29.117  1.00  0.00     0.037 A 
ATOM     57  C   UNL A   1      46.484  28.203  30.134  1.00  0.00     0.049 A 
ATOM     58  C   UNL A   1      41.096  29.671  29.693  1.00  0.00     0.074 A 
ATOM     59  C   UNL A   1      47.351  29.157  30.637  1.00  0.00     0.029 A 
ATOM     60  N   UNL A   1      45.220  28.774  30.125  1.00  0.00    -0.354 N 
ATOM     61  N   UNL A   1      42.382  29.477  29.848  1.00  0.00    -0.248 NA
ATOM     62  C   UNL A   1      40.625  30.985  30.157  1.00  0.00     0.031 C 
ATOM     63  C   UNL A   1      46.606  30.298  30.957  1.00  0.00     0.029 A 
ATOM     64  C   UNL A   1      45.281  30.065  30.622  1.00  0.00     0.049 A 
ATOM     65  H   UNL A   1      44.401  28.327  29.811  1.00  0.00     0.167 HD
ATOM     66  C   UNL A   1      42.880  30.649  30.399  1.00  0.00     0.074 A 
ATOM     67  C   UNL A   1      41.757  31.552  30.548  1.00  0.00     0.031 C 
ATOM     68  C   UNL A   1      44.154  30.952  30.747  1.00  0.00     0.037 A 
BRANCH  55  69
ATOM     69  C   UNL A   1      48.186  26.363  29.814  1.00  0.00     0.057 A 
ATOM     70  C   UNL A   1      49.120  26.515  28.781  1.00  0.00     0.134 A 
ATOM     71  C   UNL A   1      48.614  25.723  30.985  1.00  0.00     0.134 A 
ATOM     72  F   UNL A   1      48.769  27.106  27.629  1.00  0.00    -0.206 F 
ATOM     73  C   UNL A   1      50.420  26.020  28.895  1.00  0.00     0.040 A 
ATOM     74  C   UNL A   1      49.919  25.246  31.118  1.00  0.00     0.040 A 
ATOM     75  F   UNL A   1      47.771  25.549  32.013  1.00  0.00    -0.206 F 
ATOM     76  C   UNL A   1      50.824  25.388  30.068  1.00  0.00     0.006 A 
ENDBRANCH  55  69
BRANCH  56  77
ATOM     77  C   UNL A   1      38.641  29.161  29.019  1.00  0.00     0.057 A 
ATOM     78  C   UNL A   1      38.114  29.628  27.810  1.00  0.00     0.134 A 
ATOM     79  C   UNL A   1      37.778  29.093  30.118  1.00  0.00     0.134 A 
ATOM     80  F   UNL A   1      38.898  29.732  26.728  1.00  0.00    -0.206 F 
ATOM     81  C   UNL A   1      36.780  30.022  27.699  1.00  0.00     0.040 A 
ATOM     82  C   UNL A   1      36.437  29.465  30.017  1.00  0.00     0.040 A 
ATOM     83  F   UNL A   1      38.225  28.649  31.302  1.00  0.00    -0.206 F 
ATOM     84  C   UNL A   1      35.936  29.936  28.805  1.00  0.00     0.006 A 
ENDBRANCH  56  77
BRANCH  68  85
ATOM     85  C   UNL A   1      44.409  32.329  31.281  1.00  0.00     0.057 A 
ATOM     86  C   UNL A   1      44.379  32.606  32.652  1.00  0.00     0.134 A 
ATOM     87  C   UNL A   1      44.735  33.378  30.412  1.00  0.00     0.134 A 
ATOM     88  F   UNL A   1      44.060  31.646  33.533  1.00  0.00    -0.206 F 
ATOM     89  C   UNL A   1      44.652  33.885  33.141  1.00  0.00     0.040 A 
ATOM     90  C   UNL A   1      45.030  34.655  30.890  1.00  0.00     0.040 A 
ATOM     91  F   UNL A   1      44.786  33.174  29.087  1.00  0.00    -0.206 F 
ATOM     92  C   UNL A   1      44.984  34.911  32.259  1.00  0.00     0.006 A 
ENDBRANCH  68  85
ENDBRANCH  42  43
ENDBRANCH  34  37
ENDBRANCH  32  33
ENDBRANCH  31  32
ENDBRANCH  30  31
ENDBRANCH   1  30
TORSDOF 17
ENDMDL
MODEL 3
REMARK VINA RESULT:     -11.5      1.741      2.543
REMARK SMILES Cc1ccc(F)cc1S(=O)(=O)Nc1ccc(N(C)C)c(C(=O)NCCCCCCNC(=O)c2ccc(-c3c4nc(c(-c5c(F)cccc5F)c5ccc([nH]5)c(-c5c(F)cccc5F)c5nc(c(-c6c(F)cccc6F)c6ccc3[nH]6)C=C5)C=C4)cc2)c1
REMARK SMILES IDX 26 1 25 2 24 3 23 4 21 5 22 6 20 8 13 9 14 10 87 11 15 12
REMARK SMILES IDX 16 13 12 14 9 16 10 17 11 18 8 19 1 20 2 21 3 22 4 23 7 24
REMARK SMILES IDX 5 25 6 26 17 27 18 28 19 29 27 30 28 31 29 32 30 33 31 34
REMARK SMILES IDX 32 36 33 37 34 38 86 39 35 40 85 41 36 42 37 43 38 44 79 45
REMARK SMILES IDX 39 46 84 47 78 48 80 49 40 50 83 51 77 52 76 53 41 55 67 56
REMARK SMILES IDX 50 57 66 58 51 59 54 60 65 61 81 62 52 63 53 64 64 66 82 67
REMARK SMILES IDX 55 68 42 69 43 70 48 71 44 72 45 73 47 74 49 75 46 76 68 77
REMARK SMILES IDX 69 78 74 79 70 80 71 81 73 82 75 83 72 84 56 85 57 86 62 87
REMARK SMILES IDX 58 88 59 89 61 90 63 91 60 92
REMARK H PARENT 23 7 12 15 30 35 80 54 54 65
REMARK Flexibility Score: inf
ROOT
ATOM      1  C   UNL A   1      38.305  23.288  26.641  1.00  0.00     0.002 C 
ENDROOT
BRANCH   1   2
ATOM      2  C   UNL A   1      37.045  23.317  25.767  1.00  0.00     0.021 C 
BRANCH   2   3
ATOM      3  C   UNL A   1      36.613  21.918  25.315  1.00  0.00     0.116 C 
BRANCH   3   4
ATOM      4  N   UNL A   1      35.663  21.386  26.276  1.00  0.00    -0.352 N 
ATOM      5  C   UNL A   1      34.294  21.256  26.226  1.00  0.00     0.253 C 
ATOM      6  O   UNL A   1      33.692  21.177  27.297  1.00  0.00    -0.269 OA
ATOM      7  H   UNL A   1      36.072  21.060  27.111  1.00  0.00     0.163 HD
BRANCH   5   8
ATOM      8  C   UNL A   1      33.550  21.157  24.938  1.00  0.00     0.065 A 
ATOM      9  C   UNL A   1      32.624  22.342  23.036  1.00  0.00     0.050 A 
ATOM     10  C   UNL A   1      32.025  21.169  22.606  1.00  0.00     0.029 A 
ATOM     11  C   UNL A   1      33.234  22.365  24.278  1.00  0.00     0.042 A 
ATOM     12  C   UNL A   1      32.283  19.974  23.276  1.00  0.00     0.029 A 
ATOM     13  C   UNL A   1      33.132  19.900  24.403  1.00  0.00     0.049 A 
BRANCH   9  14
ATOM     14  N   UNL A   1      32.662  23.409  22.105  1.00  0.00    -0.280 N 
ATOM     15  H   UNL A   1      32.200  23.265  21.247  1.00  0.00     0.180 HD
BRANCH  14  16
ATOM     16  S   UNL A   1      33.412  24.882  22.317  1.00  0.00     0.262 S 
ATOM     17  O   UNL A   1      33.163  25.670  21.126  1.00  0.00    -0.201 OA
ATOM     18  O   UNL A   1      34.765  24.559  22.720  1.00  0.00    -0.201 OA
BRANCH  16  19
ATOM     19  C   UNL A   1      32.725  25.831  23.676  1.00  0.00     0.093 A 
ATOM     20  C   UNL A   1      30.211  25.201  23.534  1.00  0.00     0.046 C 
ATOM     21  C   UNL A   1      31.380  25.971  24.063  1.00  0.00    -0.030 A 
ATOM     22  C   UNL A   1      31.060  26.937  25.048  1.00  0.00     0.008 A 
ATOM     23  C   UNL A   1      32.046  27.667  25.707  1.00  0.00     0.039 A 
ATOM     24  C   UNL A   1      33.716  26.549  24.383  1.00  0.00     0.061 A 
ATOM     25  C   UNL A   1      33.372  27.442  25.388  1.00  0.00     0.124 A 
ATOM     26  F   UNL A   1      34.332  28.110  26.037  1.00  0.00    -0.207 F 
ENDBRANCH  16  19
ENDBRANCH  14  16
ENDBRANCH   9  14
BRANCH  13  27
ATOM     27  N   UNL A   1      33.556  18.642  24.823  1.00  0.00    -0.377 N 
ATOM     28  C   UNL A   1      34.826  18.046  24.415  1.00  0.00     0.143 C 
ATOM     29  C   UNL A   1      32.734  17.778  25.667  1.00  0.00     0.143 C 
ENDBRANCH  13  27
ENDBRANCH   5   8
ENDBRANCH   3   4
ENDBRANCH   2   3
ENDBRANCH   1   2
BRANCH   1  30
ATOM     30  C   UNL A   1      39.461  22.473  26.051  1.00  0.00     0.002 C 
BRANCH  30  31
ATOM     31  C   UNL A   1      39.600  21.052  26.604  1.00  0.00     0.021 C 
BRANCH  31  32
ATOM     32  C   UNL A   1      39.674  19.960  25.541  1.00  0.00     0.116 C 
BRANCH  32  33
ATOM     33  N   UNL A   1      40.652  18.937  25.877  1.00  0.00    -0.352 N 
ATOM     34  C   UNL A   1      41.965  19.091  26.245  1.00  0.00     0.251 C 
ATOM     35  H   UNL A   1      40.328  18.008  25.836  1.00  0.00     0.163 HD
ATOM     36  O   UNL A   1      42.711  18.120  26.321  1.00  0.00    -0.269 OA
BRANCH  34  37
ATOM     37  C   UNL A   1      42.483  20.442  26.537  1.00  0.00     0.039 A 
ATOM     38  C   UNL A   1      42.969  21.225  25.487  1.00  0.00     0.014 A 
ATOM     39  C   UNL A   1      42.500  20.927  27.848  1.00  0.00     0.014 A 
ATOM     40  C   UNL A   1      43.430  22.517  25.743  1.00  0.00     0.010 A 
ATOM     41  C   UNL A   1      42.910  22.233  28.095  1.00  0.00     0.010 A 
ATOM     42  C   UNL A   1      43.386  23.036  27.046  1.00  0.00    -0.014 A 
BRANCH  42  43
ATOM     43  C   UNL A   1      43.862  24.406  27.352  1.00  0.00     0.031 A 
ATOM     44  C   UNL A   1      42.875  25.460  27.765  1.00  0.00     0.074 A 
ATOM     45  C   UNL A   1      45.159  24.719  27.183  1.00  0.00     0.049 A 
ATOM     46  N   UNL A   1      43.062  26.741  27.953  1.00  0.00    -0.248 NA
ATOM     47  C   UNL A   1      41.486  25.016  27.966  1.00  0.00     0.031 C 
ATOM     48  C   UNL A   1      46.208  23.791  26.759  1.00  0.00     0.029 A 
ATOM     49  N   UNL A   1      45.812  25.917  27.332  1.00  0.00    -0.354 N 
ATOM     50  C   UNL A   1      41.812  27.260  28.264  1.00  0.00     0.074 A 
ATOM     51  C   UNL A   1      40.870  26.163  28.207  1.00  0.00     0.031 C 
ATOM     52  C   UNL A   1      47.375  24.450  26.692  1.00  0.00     0.029 A 
ATOM     53  C   UNL A   1      47.151  25.853  27.032  1.00  0.00     0.049 A 
ATOM     54  H   UNL A   1      45.365  26.742  27.625  1.00  0.00     0.167 HD
ATOM     55  C   UNL A   1      41.481  28.534  28.583  1.00  0.00     0.037 A 
ATOM     56  C   UNL A   1      48.087  26.820  27.024  1.00  0.00     0.037 A 
ATOM     57  C   UNL A   1      42.426  29.616  28.671  1.00  0.00     0.049 A 
ATOM     58  C   UNL A   1      47.699  28.224  27.390  1.00  0.00     0.074 A 
ATOM     59  C   UNL A   1      42.200  30.931  29.038  1.00  0.00     0.029 A 
ATOM     60  N   UNL A   1      43.779  29.504  28.392  1.00  0.00    -0.354 N 
ATOM     61  N   UNL A   1      46.522  28.696  27.723  1.00  0.00    -0.248 NA
ATOM     62  C   UNL A   1      48.771  29.231  27.382  1.00  0.00     0.031 C 
ATOM     63  C   UNL A   1      43.414  31.622  28.955  1.00  0.00     0.029 A 
ATOM     64  C   UNL A   1      44.401  30.728  28.569  1.00  0.00     0.049 A 
ATOM     65  H   UNL A   1      44.231  28.677  28.109  1.00  0.00     0.167 HD
ATOM     66  C   UNL A   1      46.715  30.044  27.990  1.00  0.00     0.074 A 
ATOM     67  C   UNL A   1      48.123  30.315  27.785  1.00  0.00     0.031 C 
ATOM     68  C   UNL A   1      45.806  30.974  28.374  1.00  0.00     0.037 A 
BRANCH  55  69
ATOM     69  C   UNL A   1      40.035  28.818  28.856  1.00  0.00     0.057 A 
ATOM     70  C   UNL A   1      39.156  29.211  27.840  1.00  0.00     0.134 A 
ATOM     71  C   UNL A   1      39.514  28.690  30.150  1.00  0.00     0.134 A 
ATOM     72  F   UNL A   1      39.596  29.366  26.582  1.00  0.00    -0.206 F 
ATOM     73  C   UNL A   1      37.816  29.498  28.106  1.00  0.00     0.040 A 
ATOM     74  C   UNL A   1      38.170  28.951  30.423  1.00  0.00     0.040 A 
ATOM     75  F   UNL A   1      40.301  28.313  31.168  1.00  0.00    -0.206 F 
ATOM     76  C   UNL A   1      37.318  29.364  29.400  1.00  0.00     0.006 A 
ENDBRANCH  55  69
BRANCH  56  77
ATOM     77  C   UNL A   1      49.490  26.483  26.684  1.00  0.00     0.057 A 
ATOM     78  C   UNL A   1      50.378  26.034  27.669  1.00  0.00     0.134 A 
ATOM     79  C   UNL A   1      49.976  26.591  25.376  1.00  0.00     0.134 A 
ATOM     80  F   UNL A   1      49.973  25.929  28.943  1.00  0.00    -0.206 F 
ATOM     81  C   UNL A   1      51.701  25.712  27.367  1.00  0.00     0.040 A 
ATOM     82  C   UNL A   1      51.292  26.255  25.057  1.00  0.00     0.040 A 
ATOM     83  F   UNL A   1      49.172  27.012  24.389  1.00  0.00    -0.206 F 
ATOM     84  C   UNL A   1      52.160  25.817  26.055  1.00  0.00     0.006 A 
ENDBRANCH  56  77
BRANCH  68  85
ATOM     85  C   UNL A   1      46.314  32.358  28.640  1.00  0.00     0.057 A 
ATOM     86  C   UNL A   1      46.366  33.331  27.636  1.00  0.00     0.134 A 
ATOM     87  C   UNL A   1      46.712  32.732  29.930  1.00  0.00     0.134 A 
ATOM     88  F   UNL A   1      46.010  33.029  26.378  1.00  0.00    -0.206 F 
ATOM     89  C   UNL A   1      46.808  34.628  27.903  1.00  0.00     0.040 A 
ATOM     90  C   UNL A   1      47.137  34.031  30.213  1.00  0.00     0.040 A 
ATOM     91  F   UNL A   1      46.680  31.847  30.937  1.00  0.00    -0.206 F 
ATOM     92  C   UNL A   1      47.189  34.981  29.196  1.00  0.00     0.006 A 
ENDBRANCH  68  85
ENDBRANCH  42  43
ENDBRANCH  34  37
ENDBRANCH  32  33
ENDBRANCH  31  32
ENDBRANCH  30  31
ENDBRANCH   1  30
TORSDOF 17
ENDMDL
