MODEL 1
REMARK VINA RESULT:     -11.2      0.000      0.000
REMARK SMILES C=CCOc1ccccc1-c1cc(C(=O)NCCCCCCNC(=O)c2ccc(-c3c4nc(c(-c5c(F)cccc5F)c5ccc([nH]5)c(-c5c(F)cccc5F)c5nc(c(-c6c(F)cccc6F)c6ccc3[nH]6)C=C5)C=C4)cc2)nc(N)n1
REMARK SMILES IDX 18 1 17 2 16 3 14 4 15 5 13 7 11 8 12 9 83 10 81 11 80 12
REMARK SMILES IDX 10 13 5 14 6 15 7 16 9 17 8 18 4 19 3 20 2 21 1 22 82 23
REMARK SMILES IDX 19 26 20 27 21 28 22 29 23 30 24 31 25 33 26 34 27 35 79 36
REMARK SMILES IDX 28 37 78 38 29 39 30 40 31 41 72 42 32 43 77 44 71 45 73 46
REMARK SMILES IDX 33 47 76 48 70 49 69 50 34 52 60 53 43 54 59 55 44 56 47 57
REMARK SMILES IDX 58 58 74 59 45 60 46 61 57 63 75 64 48 65 35 66 36 67 41 68
REMARK SMILES IDX 37 69 38 70 40 71 42 72 39 73 61 74 62 75 67 76 63 77 64 78
REMARK SMILES IDX 66 79 68 80 65 81 49 82 50 83 55 84 51 85 52 86 54 87 56 88
REMARK SMILES IDX 53 89
REMARK H PARENT 16 6 82 24 82 25 23 32 73 51 47 62
REMARK Flexibility Score: inf
ROOT
ATOM      1  C   UNL A   1      36.461  23.306  25.473  1.00  0.00     0.021 C 
ENDROOT
BRANCH   1   2
ATOM      2  C   UNL A   1      35.197  24.099  25.154  1.00  0.00     0.116 C 
BRANCH   2   3
ATOM      3  N   UNL A   1      34.574  23.693  23.909  1.00  0.00    -0.351 N 
ATOM      4  C   UNL A   1      33.299  23.927  23.441  1.00  0.00     0.270 C 
ATOM      5  O   UNL A   1      32.996  23.477  22.336  1.00  0.00    -0.268 OA
ATOM      6  H   UNL A   1      35.150  23.170  23.305  1.00  0.00     0.163 HD
BRANCH   4   7
ATOM      7  C   UNL A   1      32.271  24.645  24.257  1.00  0.00     0.134 A 
ATOM      8  C   UNL A   1      30.772  26.409  24.459  1.00  0.00     0.080 A 
ATOM      9  C   UNL A   1      31.883  25.894  23.835  1.00  0.00     0.063 A 
ATOM     10  N   UNL A   1      30.161  25.771  25.482  1.00  0.00    -0.213 NA
ATOM     11  C   UNL A   1      30.650  24.588  25.848  1.00  0.00     0.221 A 
ATOM     12  N   UNL A   1      31.699  23.994  25.288  1.00  0.00    -0.208 NA
BRANCH   8  13
ATOM     13  C   UNL A   1      30.096  27.624  23.984  1.00  0.00     0.042 A 
ATOM     14  C   UNL A   1      30.692  28.900  24.054  1.00  0.00     0.129 A 
ATOM     15  C   UNL A   1      30.021  30.037  23.595  1.00  0.00     0.047 A 
ATOM     16  C   UNL A   1      28.751  29.918  23.035  1.00  0.00     0.004 A 
ATOM     17  C   UNL A   1      28.818  27.530  23.403  1.00  0.00     0.014 A 
ATOM     18  C   UNL A   1      28.148  28.665  22.939  1.00  0.00     0.001 A 
BRANCH  14  19
ATOM     19  O   UNL A   1      31.914  29.081  24.656  1.00  0.00    -0.489 OA
BRANCH  19  20
ATOM     20  C   UNL A   1      31.839  29.955  25.791  1.00  0.00     0.257 C 
BRANCH  20  21
ATOM     21  C   UNL A   1      32.271  29.191  27.010  1.00  0.00     0.006 C 
ATOM     22  C   UNL A   1      31.510  28.300  27.659  1.00  0.00     0.007 C 
ENDBRANCH  20  21
ENDBRANCH  19  20
ENDBRANCH  14  19
ENDBRANCH   8  13
BRANCH  11  23
ATOM     23  N   UNL A   1      29.959  23.881  26.789  1.00  0.00    -0.368 N 
ATOM     24  H   UNL A   1      29.027  23.614  26.618  1.00  0.00     0.159 HD
ATOM     25  H   UNL A   1      30.393  23.638  27.639  1.00  0.00     0.159 HD
ENDBRANCH  11  23
ENDBRANCH   4   7
ENDBRANCH   2   3
ENDBRANCH   1   2
BRANCH   1  26
ATOM     26  C   UNL A   1      36.856  22.239  24.450  1.00  0.00     0.002 C 
BRANCH  26  27
ATOM     27  C   UNL A   1      36.521  20.797  24.836  1.00  0.00     0.002 C 
BRANCH  27  28
ATOM     28  C   UNL A   1      37.712  19.839  24.903  1.00  0.00     0.021 C 
BRANCH  28  29
ATOM     29  C   UNL A   1      38.882  20.318  25.756  1.00  0.00     0.116 C 
BRANCH  29  30
ATOM     30  N   UNL A   1      39.975  19.361  25.790  1.00  0.00    -0.352 N 
ATOM     31  C   UNL A   1      41.301  19.557  26.089  1.00  0.00     0.251 C 
ATOM     32  H   UNL A   1      39.729  18.434  25.566  1.00  0.00     0.163 HD
ATOM     33  O   UNL A   1      42.114  18.660  25.901  1.00  0.00    -0.269 OA
BRANCH  31  34
ATOM     34  C   UNL A   1      41.755  20.864  26.617  1.00  0.00     0.039 A 
ATOM     35  C   UNL A   1      42.176  21.842  25.713  1.00  0.00     0.014 A 
ATOM     36  C   UNL A   1      41.772  21.123  27.990  1.00  0.00     0.014 A 
ATOM     37  C   UNL A   1      42.550  23.105  26.182  1.00  0.00     0.010 A 
ATOM     38  C   UNL A   1      42.071  22.404  28.449  1.00  0.00     0.010 A 
ATOM     39  C   UNL A   1      42.461  23.408  27.551  1.00  0.00    -0.014 A 
BRANCH  39  40
ATOM     40  C   UNL A   1      42.755  24.776  28.054  1.00  0.00     0.031 A 
ATOM     41  C   UNL A   1      44.152  25.156  28.459  1.00  0.00     0.074 A 
ATOM     42  C   UNL A   1      41.746  25.659  28.201  1.00  0.00     0.049 A 
ATOM     43  N   UNL A   1      44.586  26.280  28.973  1.00  0.00    -0.248 NA
ATOM     44  C   UNL A   1      45.194  24.133  28.287  1.00  0.00     0.031 C 
ATOM     45  C   UNL A   1      40.340  25.398  27.887  1.00  0.00     0.029 A 
ATOM     46  N   UNL A   1      41.748  26.952  28.664  1.00  0.00    -0.354 N 
ATOM     47  C   UNL A   1      45.945  26.094  29.192  1.00  0.00     0.074 A 
ATOM     48  C   UNL A   1      46.253  24.735  28.808  1.00  0.00     0.031 C 
ATOM     49  C   UNL A   1      39.621  26.502  28.142  1.00  0.00     0.029 A 
ATOM     50  C   UNL A   1      40.503  27.533  28.679  1.00  0.00     0.049 A 
ATOM     51  H   UNL A   1      42.564  27.418  28.957  1.00  0.00     0.167 HD
ATOM     52  C   UNL A   1      46.858  26.985  29.651  1.00  0.00     0.037 A 
ATOM     53  C   UNL A   1      40.113  28.755  29.089  1.00  0.00     0.037 A 
ATOM     54  C   UNL A   1      46.551  28.343  30.020  1.00  0.00     0.049 A 
ATOM     55  C   UNL A   1      41.143  29.716  29.616  1.00  0.00     0.074 A 
ATOM     56  C   UNL A   1      47.416  29.337  30.443  1.00  0.00     0.029 A 
ATOM     57  N   UNL A   1      45.280  28.896  30.014  1.00  0.00    -0.354 N 
ATOM     58  N   UNL A   1      42.436  29.550  29.753  1.00  0.00    -0.248 NA
ATOM     59  C   UNL A   1      40.659  31.037  30.042  1.00  0.00     0.031 C 
ATOM     60  C   UNL A   1      46.661  30.474  30.747  1.00  0.00     0.029 A 
ATOM     61  C   UNL A   1      45.333  30.209  30.455  1.00  0.00     0.049 A 
ATOM     62  H   UNL A   1      44.460  28.427  29.738  1.00  0.00     0.167 HD
ATOM     63  C   UNL A   1      42.924  30.753  30.248  1.00  0.00     0.074 A 
ATOM     64  C   UNL A   1      41.789  31.644  30.374  1.00  0.00     0.031 C 
ATOM     65  C   UNL A   1      44.198  31.089  30.569  1.00  0.00     0.037 A 
BRANCH  52  66
ATOM     66  C   UNL A   1      48.280  26.518  29.784  1.00  0.00     0.057 A 
ATOM     67  C   UNL A   1      49.221  26.715  28.765  1.00  0.00     0.134 A 
ATOM     68  C   UNL A   1      48.725  25.905  30.962  1.00  0.00     0.134 A 
ATOM     69  F   UNL A   1      48.861  27.286  27.606  1.00  0.00    -0.206 F 
ATOM     70  C   UNL A   1      50.546  26.295  28.902  1.00  0.00     0.040 A 
ATOM     71  C   UNL A   1      50.054  25.509  31.123  1.00  0.00     0.040 A 
ATOM     72  F   UNL A   1      47.879  25.692  31.982  1.00  0.00    -0.206 F 
ATOM     73  C   UNL A   1      50.968  25.698  30.088  1.00  0.00     0.006 A 
ENDBRANCH  52  66
BRANCH  53  74
ATOM     74  C   UNL A   1      38.682  29.148  29.007  1.00  0.00     0.057 A 
ATOM     75  C   UNL A   1      37.847  29.073  30.128  1.00  0.00     0.134 A 
ATOM     76  C   UNL A   1      38.112  29.591  27.807  1.00  0.00     0.134 A 
ATOM     77  F   UNL A   1      38.329  28.639  31.302  1.00  0.00    -0.206 F 
ATOM     78  C   UNL A   1      36.492  29.401  30.054  1.00  0.00     0.040 A 
ATOM     79  C   UNL A   1      36.766  29.949  27.727  1.00  0.00     0.040 A 
ATOM     80  F   UNL A   1      38.860  29.693  26.699  1.00  0.00    -0.206 F 
ATOM     81  C   UNL A   1      35.949  29.845  28.849  1.00  0.00     0.006 A 
ENDBRANCH  53  74
BRANCH  65  82
ATOM     82  C   UNL A   1      44.440  32.491  31.049  1.00  0.00     0.057 A 
ATOM     83  C   UNL A   1      44.454  32.818  32.411  1.00  0.00     0.134 A 
ATOM     84  C   UNL A   1      44.699  33.521  30.135  1.00  0.00     0.134 A 
ATOM     85  F   UNL A   1      44.201  31.883  33.339  1.00  0.00    -0.206 F 
ATOM     86  C   UNL A   1      44.691  34.125  32.844  1.00  0.00     0.040 A 
ATOM     87  C   UNL A   1      44.969  34.823  30.557  1.00  0.00     0.040 A 
ATOM     88  F   UNL A   1      44.710  33.274  28.816  1.00  0.00    -0.206 F 
ATOM     89  C   UNL A   1      44.957  35.129  31.915  1.00  0.00     0.006 A 
ENDBRANCH  65  82
ENDBRANCH  39  40
ENDBRANCH  31  34
ENDBRANCH  29  30
ENDBRANCH  28  29
ENDBRANCH  27  28
ENDBRANCH  26  27
ENDBRANCH   1  26
TORSDOF 18
ENDMDL
MODEL 2
REMARK VINA RESULT:     -11.1      0.967      6.199
REMARK SMILES C=CCOc1ccccc1-c1cc(C(=O)NCCCCCCNC(=O)c2ccc(-c3c4nc(c(-c5c(F)cccc5F)c5ccc([nH]5)c(-c5c(F)cccc5F)c5nc(c(-c6c(F)cccc6F)c6ccc3[nH]6)C=C5)C=C4)cc2)nc(N)n1
REMARK SMILES IDX 18 1 17 2 16 3 14 4 15 5 13 7 11 8 12 9 83 10 81 11 80 12
REMARK SMILES IDX 10 13 5 14 6 15 7 16 9 17 8 18 4 19 3 20 2 21 1 22 82 23
REMARK SMILES IDX 19 26 20 27 21 28 22 29 23 30 24 31 25 33 26 34 27 35 79 36
REMARK SMILES IDX 28 37 78 38 29 39 30 40 31 41 72 42 32 43 77 44 71 45 73 46
REMARK SMILES IDX 33 47 76 48 70 49 69 50 34 52 60 53 43 54 59 55 44 56 47 57
REMARK SMILES IDX 58 58 74 59 45 60 46 61 57 63 75 64 48 65 35 66 36 67 41 68
REMARK SMILES IDX 37 69 38 70 40 71 42 72 39 73 61 74 62 75 67 76 63 77 64 78
REMARK SMILES IDX 66 79 68 80 65 81 49 82 50 83 55 84 51 85 52 86 54 87 56 88
REMARK SMILES IDX 53 89
REMARK H PARENT 16 6 82 24 82 25 23 32 73 51 47 62
REMARK Flexibility Score: inf
ROOT
ATOM      1  C   UNL A   1      36.550  23.337  25.616  1.00  0.00     0.021 C 
ENDROOT
BRANCH   1   2
ATOM      2  C   UNL A   1      35.243  24.058  25.295  1.00  0.00     0.116 C 
BRANCH   2   3
ATOM      3  N   UNL A   1      34.658  23.635  24.038  1.00  0.00    -0.351 N 
ATOM      4  C   UNL A   1      33.390  23.841  23.539  1.00  0.00     0.270 C 
ATOM      5  O   UNL A   1      33.122  23.382  22.428  1.00  0.00    -0.268 OA
ATOM      6  H   UNL A   1      35.258  23.122  23.450  1.00  0.00     0.163 HD
BRANCH   4   7
ATOM      7  C   UNL A   1      32.329  24.542  24.327  1.00  0.00     0.134 A 
ATOM      8  C   UNL A   1      30.810  26.292  24.499  1.00  0.00     0.080 A 
ATOM      9  C   UNL A   1      31.946  25.793  23.908  1.00  0.00     0.063 A 
ATOM     10  N   UNL A   1      30.168  25.636  25.493  1.00  0.00    -0.213 NA
ATOM     11  C   UNL A   1      30.655  24.453  25.861  1.00  0.00     0.221 A 
ATOM     12  N   UNL A   1      31.726  23.874  25.330  1.00  0.00    -0.208 NA
BRANCH   8  13
ATOM     13  C   UNL A   1      30.141  27.507  24.016  1.00  0.00     0.042 A 
ATOM     14  C   UNL A   1      30.738  28.783  24.094  1.00  0.00     0.129 A 
ATOM     15  C   UNL A   1      30.075  29.921  23.627  1.00  0.00     0.047 A 
ATOM     16  C   UNL A   1      28.811  29.804  23.052  1.00  0.00     0.004 A 
ATOM     17  C   UNL A   1      28.870  27.416  23.421  1.00  0.00     0.014 A 
ATOM     18  C   UNL A   1      28.208  28.552  22.949  1.00  0.00     0.001 A 
BRANCH  14  19
ATOM     19  O   UNL A   1      31.954  28.963  24.710  1.00  0.00    -0.489 OA
BRANCH  19  20
ATOM     20  C   UNL A   1      31.862  29.819  25.857  1.00  0.00     0.257 C 
BRANCH  20  21
ATOM     21  C   UNL A   1      32.346  29.059  27.059  1.00  0.00     0.006 C 
ATOM     22  C   UNL A   1      31.632  28.133  27.712  1.00  0.00     0.007 C 
ENDBRANCH  20  21
ENDBRANCH  19  20
ENDBRANCH  14  19
ENDBRANCH   8  13
BRANCH  11  23
ATOM     23  N   UNL A   1      29.937  23.729  26.768  1.00  0.00    -0.368 N 
ATOM     24  H   UNL A   1      30.397  23.108  27.378  1.00  0.00     0.159 HD
ATOM     25  H   UNL A   1      28.958  23.828  26.813  1.00  0.00     0.159 HD
ENDBRANCH  11  23
ENDBRANCH   4   7
ENDBRANCH   2   3
ENDBRANCH   1   2
BRANCH   1  26
ATOM     26  C   UNL A   1      36.997  22.284  24.601  1.00  0.00     0.002 C 
BRANCH  26  27
ATOM     27  C   UNL A   1      36.656  20.836  24.958  1.00  0.00     0.002 C 
BRANCH  27  28
ATOM     28  C   UNL A   1      37.831  19.857  24.937  1.00  0.00     0.021 C 
BRANCH  28  29
ATOM     29  C   UNL A   1      39.040  20.278  25.767  1.00  0.00     0.116 C 
BRANCH  29  30
ATOM     30  N   UNL A   1      40.056  19.242  25.837  1.00  0.00    -0.352 N 
ATOM     31  C   UNL A   1      41.399  19.349  26.107  1.00  0.00     0.251 C 
ATOM     32  H   UNL A   1      39.735  18.326  25.666  1.00  0.00     0.163 HD
ATOM     33  O   UNL A   1      42.136  18.382  25.956  1.00  0.00    -0.269 OA
BRANCH  31  34
ATOM     34  C   UNL A   1      41.962  20.641  26.558  1.00  0.00     0.039 A 
ATOM     35  C   UNL A   1      42.458  21.528  25.598  1.00  0.00     0.014 A 
ATOM     36  C   UNL A   1      42.007  20.978  27.913  1.00  0.00     0.014 A 
ATOM     37  C   UNL A   1      42.937  22.780  25.993  1.00  0.00     0.010 A 
ATOM     38  C   UNL A   1      42.413  22.254  28.297  1.00  0.00     0.010 A 
ATOM     39  C   UNL A   1      42.881  23.169  27.342  1.00  0.00    -0.014 A 
BRANCH  39  40
ATOM     40  C   UNL A   1      43.289  24.534  27.764  1.00  0.00     0.031 A 
ATOM     41  C   UNL A   1      42.252  25.575  28.085  1.00  0.00     0.074 A 
ATOM     42  C   UNL A   1      44.598  24.854  27.799  1.00  0.00     0.049 A 
ATOM     43  N   UNL A   1      42.417  26.832  28.413  1.00  0.00    -0.248 NA
ATOM     44  C   UNL A   1      40.844  25.156  28.005  1.00  0.00     0.031 C 
ATOM     45  C   UNL A   1      45.699  23.949  27.466  1.00  0.00     0.029 A 
ATOM     46  N   UNL A   1      45.224  26.033  28.121  1.00  0.00    -0.354 N 
ATOM     47  C   UNL A   1      41.138  27.353  28.568  1.00  0.00     0.074 A 
ATOM     48  C   UNL A   1      40.209  26.293  28.246  1.00  0.00     0.031 C 
ATOM     49  C   UNL A   1      46.864  24.597  27.626  1.00  0.00     0.029 A 
ATOM     50  C   UNL A   1      46.593  25.973  28.027  1.00  0.00     0.049 A 
ATOM     51  H   UNL A   1      44.737  26.844  28.394  1.00  0.00     0.167 HD
ATOM     52  C   UNL A   1      40.774  28.596  28.966  1.00  0.00     0.037 A 
ATOM     53  C   UNL A   1      47.526  26.923  28.230  1.00  0.00     0.037 A 
ATOM     54  C   UNL A   1      41.702  29.645  29.300  1.00  0.00     0.049 A 
ATOM     55  C   UNL A   1      47.092  28.301  28.648  1.00  0.00     0.074 A 
ATOM     56  C   UNL A   1      41.429  30.920  29.766  1.00  0.00     0.029 A 
ATOM     57  N   UNL A   1      43.081  29.543  29.199  1.00  0.00    -0.354 N 
ATOM     58  N   UNL A   1      45.882  28.759  28.858  1.00  0.00    -0.248 NA
ATOM     59  C   UNL A   1      48.156  29.294  28.862  1.00  0.00     0.031 C 
ATOM     60  C   UNL A   1      42.640  31.608  29.892  1.00  0.00     0.029 A 
ATOM     61  C   UNL A   1      43.672  30.742  29.565  1.00  0.00     0.049 A 
ATOM     62  H   UNL A   1      43.569  28.739  28.909  1.00  0.00     0.167 HD
ATOM     63  C   UNL A   1      46.040  30.080  29.260  1.00  0.00     0.074 A 
ATOM     64  C   UNL A   1      47.464  30.345  29.277  1.00  0.00     0.031 C 
ATOM     65  C   UNL A   1      45.091  30.992  29.585  1.00  0.00     0.037 A 
BRANCH  52  66
ATOM     66  C   UNL A   1      39.303  28.893  29.060  1.00  0.00     0.057 A 
ATOM     67  C   UNL A   1      38.592  28.732  30.256  1.00  0.00     0.134 A 
ATOM     68  C   UNL A   1      38.601  29.387  27.954  1.00  0.00     0.134 A 
ATOM     69  F   UNL A   1      39.200  28.253  31.352  1.00  0.00    -0.206 F 
ATOM     70  C   UNL A   1      37.230  29.027  30.342  1.00  0.00     0.040 A 
ATOM     71  C   UNL A   1      37.246  29.715  28.036  1.00  0.00     0.040 A 
ATOM     72  F   UNL A   1      39.221  29.573  26.779  1.00  0.00    -0.206 F 
ATOM     73  C   UNL A   1      36.555  29.529  29.232  1.00  0.00     0.006 A 
ENDBRANCH  52  66
BRANCH  53  74
ATOM     74  C   UNL A   1      48.967  26.603  28.053  1.00  0.00     0.057 A 
ATOM     75  C   UNL A   1      49.582  26.707  26.800  1.00  0.00     0.134 A 
ATOM     76  C   UNL A   1      49.758  26.172  29.125  1.00  0.00     0.134 A 
ATOM     77  F   UNL A   1      48.874  27.097  25.730  1.00  0.00    -0.206 F 
ATOM     78  C   UNL A   1      50.924  26.371  26.614  1.00  0.00     0.040 A 
ATOM     79  C   UNL A   1      51.108  25.860  28.958  1.00  0.00     0.040 A 
ATOM     80  F   UNL A   1      49.231  26.059  30.354  1.00  0.00    -0.206 F 
ATOM     81  C   UNL A   1      51.692  25.949  27.698  1.00  0.00     0.006 A 
ENDBRANCH  53  74
BRANCH  65  82
ATOM     82  C   UNL A   1      45.560  32.347  30.027  1.00  0.00     0.057 A 
ATOM     83  C   UNL A   1      45.866  32.628  31.365  1.00  0.00     0.134 A 
ATOM     84  C   UNL A   1      45.743  33.377  29.093  1.00  0.00     0.134 A 
ATOM     85  F   UNL A   1      45.701  31.693  32.312  1.00  0.00    -0.206 F 
ATOM     86  C   UNL A   1      46.312  33.891  31.761  1.00  0.00     0.040 A 
ATOM     87  C   UNL A   1      46.218  34.632  29.473  1.00  0.00     0.040 A 
ATOM     88  F   UNL A   1      45.478  33.173  27.794  1.00  0.00    -0.206 F 
ATOM     89  C   UNL A   1      46.495  34.895  30.812  1.00  0.00     0.006 A 
ENDBRANCH  65  82
ENDBRANCH  39  40
ENDBRANCH  31  34
ENDBRANCH  29  30
ENDBRANCH  28  29
ENDBRANCH  27  28
ENDBRANCH  26  27
ENDBRANCH   1  26
TORSDOF 18
ENDMDL
MODEL 3
REMARK VINA RESULT:     -10.9      5.581     10.979
REMARK SMILES C=CCOc1ccccc1-c1cc(C(=O)NCCCCCCNC(=O)c2ccc(-c3c4nc(c(-c5c(F)cccc5F)c5ccc([nH]5)c(-c5c(F)cccc5F)c5nc(c(-c6c(F)cccc6F)c6ccc3[nH]6)C=C5)C=C4)cc2)nc(N)n1
REMARK SMILES IDX 18 1 17 2 16 3 14 4 15 5 13 7 11 8 12 9 83 10 81 11 80 12
REMARK SMILES IDX 10 13 5 14 6 15 7 16 9 17 8 18 4 19 3 20 2 21 1 22 82 23
REMARK SMILES IDX 19 26 20 27 21 28 22 29 23 30 24 31 25 33 26 34 27 35 79 36
REMARK SMILES IDX 28 37 78 38 29 39 30 40 31 41 72 42 32 43 77 44 71 45 73 46
REMARK SMILES IDX 33 47 76 48 70 49 69 50 34 52 60 53 43 54 59 55 44 56 47 57
REMARK SMILES IDX 58 58 74 59 45 60 46 61 57 63 75 64 48 65 35 66 36 67 41 68
REMARK SMILES IDX 37 69 38 70 40 71 42 72 39 73 61 74 62 75 67 76 63 77 64 78
REMARK SMILES IDX 66 79 68 80 65 81 49 82 50 83 55 84 51 85 52 86 54 87 56 88
REMARK SMILES IDX 53 89
REMARK H PARENT 16 6 82 24 82 25 23 32 73 51 47 62
REMARK Flexibility Score: inf
ROOT
ATOM      1  C   UNL A   1      44.903  24.674  30.719  1.00  0.00     0.021 C 
ENDROOT
BRANCH   1   2
ATOM      2  C   UNL A   1      45.569  25.691  29.796  1.00  0.00     0.116 C 
BRANCH   2   3
ATOM      3  N   UNL A   1      46.772  25.181  29.166  1.00  0.00    -0.351 N 
ATOM      4  C   UNL A   1      46.949  24.629  27.916  1.00  0.00     0.270 C 
ATOM      5  O   UNL A   1      48.082  24.266  27.599  1.00  0.00    -0.268 OA
ATOM      6  H   UNL A   1      47.587  25.239  29.716  1.00  0.00     0.163 HD
BRANCH   4   7
ATOM      7  C   UNL A   1      45.807  24.404  26.977  1.00  0.00     0.134 A 
ATOM      8  C   UNL A   1      43.893  23.208  26.426  1.00  0.00     0.080 A 
ATOM      9  C   UNL A   1      45.069  23.256  27.136  1.00  0.00     0.063 A 
ATOM     10  N   UNL A   1      43.535  24.182  25.558  1.00  0.00    -0.213 NA
ATOM     11  C   UNL A   1      44.350  25.228  25.440  1.00  0.00     0.221 A 
ATOM     12  N   UNL A   1      45.491  25.381  26.104  1.00  0.00    -0.208 NA
BRANCH   8  13
ATOM     13  C   UNL A   1      42.885  22.163  26.645  1.00  0.00     0.042 A 
ATOM     14  C   UNL A   1      42.900  20.936  25.950  1.00  0.00     0.129 A 
ATOM     15  C   UNL A   1      41.925  19.961  26.180  1.00  0.00     0.047 A 
ATOM     16  C   UNL A   1      40.928  20.185  27.128  1.00  0.00     0.004 A 
ATOM     17  C   UNL A   1      41.874  22.357  27.604  1.00  0.00     0.014 A 
ATOM     18  C   UNL A   1      40.901  21.382  27.840  1.00  0.00     0.001 A 
BRANCH  14  19
ATOM     19  O   UNL A   1      43.822  20.692  24.959  1.00  0.00    -0.489 OA
BRANCH  19  20
ATOM     20  C   UNL A   1      44.185  19.307  24.882  1.00  0.00     0.257 C 
BRANCH  20  21
ATOM     21  C   UNL A   1      45.684  19.206  24.884  1.00  0.00     0.006 C 
ATOM     22  C   UNL A   1      46.516  20.238  24.691  1.00  0.00     0.007 C 
ENDBRANCH  20  21
ENDBRANCH  19  20
ENDBRANCH  14  19
ENDBRANCH   8  13
BRANCH  11  23
ATOM     23  N   UNL A   1      43.930  26.272  24.668  1.00  0.00    -0.368 N 
ATOM     24  H   UNL A   1      43.177  26.154  24.046  1.00  0.00     0.159 HD
ATOM     25  H   UNL A   1      44.382  27.145  24.734  1.00  0.00     0.159 HD
ENDBRANCH  11  23
ENDBRANCH   4   7
ENDBRANCH   2   3
ENDBRANCH   1   2
BRANCH   1  26
ATOM     26  C   UNL A   1      44.803  25.074  32.191  1.00  0.00     0.002 C 
BRANCH  26  27
ATOM     27  C   UNL A   1      44.723  23.916  33.187  1.00  0.00     0.002 C 
BRANCH  27  28
ATOM     28  C   UNL A   1      45.944  23.737  34.091  1.00  0.00     0.021 C 
BRANCH  28  29
ATOM     29  C   UNL A   1      47.062  24.753  33.878  1.00  0.00     0.116 C 
BRANCH  29  30
ATOM     30  N   UNL A   1      47.557  25.307  35.127  1.00  0.00    -0.352 N 
ATOM     31  C   UNL A   1      47.190  26.458  35.780  1.00  0.00     0.251 C 
ATOM     32  H   UNL A   1      48.259  24.779  35.572  1.00  0.00     0.163 HD
ATOM     33  O   UNL A   1      47.838  26.855  36.742  1.00  0.00    -0.269 OA
BRANCH  31  34
ATOM     34  C   UNL A   1      46.023  27.238  35.308  1.00  0.00     0.039 A 
ATOM     35  C   UNL A   1      46.238  28.295  34.420  1.00  0.00     0.014 A 
ATOM     36  C   UNL A   1      44.728  26.934  35.737  1.00  0.00     0.014 A 
ATOM     37  C   UNL A   1      45.147  29.005  33.911  1.00  0.00     0.010 A 
ATOM     38  C   UNL A   1      43.639  27.592  35.171  1.00  0.00     0.010 A 
ATOM     39  C   UNL A   1      43.836  28.633  34.251  1.00  0.00    -0.014 A 
BRANCH  39  40
ATOM     40  C   UNL A   1      42.663  29.309  33.638  1.00  0.00     0.031 A 
ATOM     41  C   UNL A   1      42.094  28.818  32.336  1.00  0.00     0.074 A 
ATOM     42  C   UNL A   1      42.148  30.407  34.227  1.00  0.00     0.049 A 
ATOM     43  N   UNL A   1      41.113  29.314  31.623  1.00  0.00    -0.248 NA
ATOM     44  C   UNL A   1      42.722  27.626  31.745  1.00  0.00     0.031 C 
ATOM     45  C   UNL A   1      42.638  31.011  35.467  1.00  0.00     0.029 A 
ATOM     46  N   UNL A   1      41.103  31.217  33.854  1.00  0.00    -0.354 N 
ATOM     47  C   UNL A   1      41.015  28.502  30.500  1.00  0.00     0.074 A 
ATOM     48  C   UNL A   1      42.068  27.516  30.597  1.00  0.00     0.031 C 
ATOM     49  C   UNL A   1      41.882  32.079  35.765  1.00  0.00     0.029 A 
ATOM     50  C   UNL A   1      40.883  32.263  34.718  1.00  0.00     0.049 A 
ATOM     51  H   UNL A   1      40.564  31.063  33.046  1.00  0.00     0.167 HD
ATOM     52  C   UNL A   1      40.114  28.561  29.490  1.00  0.00     0.037 A 
ATOM     53  C   UNL A   1      39.984  33.265  34.666  1.00  0.00     0.037 A 
ATOM     54  C   UNL A   1      39.057  29.535  29.402  1.00  0.00     0.049 A 
ATOM     55  C   UNL A   1      39.010  33.319  33.522  1.00  0.00     0.074 A 
ATOM     56  C   UNL A   1      38.061  29.642  28.447  1.00  0.00     0.029 A 
ATOM     57  N   UNL A   1      38.862  30.574  30.300  1.00  0.00    -0.354 N 
ATOM     58  N   UNL A   1      38.885  32.505  32.502  1.00  0.00    -0.248 NA
ATOM     59  C   UNL A   1      38.049  34.432  33.523  1.00  0.00     0.031 C 
ATOM     60  C   UNL A   1      37.298  30.778  28.735  1.00  0.00     0.029 A 
ATOM     61  C   UNL A   1      37.779  31.344  29.904  1.00  0.00     0.049 A 
ATOM     62  H   UNL A   1      39.411  30.741  31.100  1.00  0.00     0.167 HD
ATOM     63  C   UNL A   1      37.813  32.985  31.760  1.00  0.00     0.074 A 
ATOM     64  C   UNL A   1      37.315  34.155  32.455  1.00  0.00     0.031 C 
ATOM     65  C   UNL A   1      37.288  32.502  30.608  1.00  0.00     0.037 A 
BRANCH  52  66
ATOM     66  C   UNL A   1      40.231  27.541  28.392  1.00  0.00     0.057 A 
ATOM     67  C   UNL A   1      39.642  26.274  28.493  1.00  0.00     0.134 A 
ATOM     68  C   UNL A   1      40.904  27.846  27.202  1.00  0.00     0.134 A 
ATOM     69  F   UNL A   1      38.991  25.913  29.609  1.00  0.00    -0.206 F 
ATOM     70  C   UNL A   1      39.739  25.338  27.462  1.00  0.00     0.040 A 
ATOM     71  C   UNL A   1      40.981  26.929  26.151  1.00  0.00     0.040 A 
ATOM     72  F   UNL A   1      41.485  29.043  27.033  1.00  0.00    -0.206 F 
ATOM     73  C   UNL A   1      40.403  25.668  26.283  1.00  0.00     0.006 A 
ENDBRANCH  52  66
BRANCH  53  74
ATOM     74  C   UNL A   1      39.953  34.294  35.738  1.00  0.00     0.057 A 
ATOM     75  C   UNL A   1      40.655  35.498  35.605  1.00  0.00     0.134 A 
ATOM     76  C   UNL A   1      39.235  34.095  36.924  1.00  0.00     0.134 A 
ATOM     77  F   UNL A   1      41.376  35.741  34.500  1.00  0.00    -0.206 F 
ATOM     78  C   UNL A   1      40.666  36.455  36.621  1.00  0.00     0.040 A 
ATOM     79  C   UNL A   1      39.215  35.055  37.935  1.00  0.00     0.040 A 
ATOM     80  F   UNL A   1      38.535  32.966  37.110  1.00  0.00    -0.206 F 
ATOM     81  C   UNL A   1      39.939  36.235  37.790  1.00  0.00     0.006 A 
ENDBRANCH  53  74
BRANCH  65  82
ATOM     82  C   UNL A   1      36.090  33.210  30.046  1.00  0.00     0.057 A 
ATOM     83  C   UNL A   1      34.816  33.082  30.615  1.00  0.00     0.134 A 
ATOM     84  C   UNL A   1      36.220  34.060  28.940  1.00  0.00     0.134 A 
ATOM     85  F   UNL A   1      34.619  32.274  31.668  1.00  0.00    -0.206 F 
ATOM     86  C   UNL A   1      33.711  33.755  30.088  1.00  0.00     0.040 A 
ATOM     87  C   UNL A   1      35.129  34.762  28.424  1.00  0.00     0.040 A 
ATOM     88  F   UNL A   1      37.413  34.236  28.351  1.00  0.00    -0.206 F 
ATOM     89  C   UNL A   1      33.869  34.603  28.994  1.00  0.00     0.006 A 
ENDBRANCH  65  82
ENDBRANCH  39  40
ENDBRANCH  31  34
ENDBRANCH  29  30
ENDBRANCH  28  29
ENDBRANCH  27  28
ENDBRANCH  26  27
ENDBRANCH   1  26
TORSDOF 18
ENDMDL
