MODEL 1
REMARK VINA RESULT:      -9.8      0.000      0.000
REMARK SMILES CCN(C(=O)NC[C@]1(C)CCCO1)[C@@H](C)CC(=O)NCCCCCCNC(=O)c1ccc(-c2c3nc(c(-c4c(F)cccc4F)c4ccc([nH]4)c(-c4c(F)cccc4F)c4nc(c(-c5c(F)cccc5F)c5ccc2[nH]5)C=C4)C=C3)cc1
REMARK SMILES IDX 21 1 20 2 19 3 17 4 18 5 16 7 14 8 15 9 3 10 2 11 1 12 4 13
REMARK SMILES IDX 5 14 6 15 7 17 8 18 10 19 13 20 9 21 11 22 12 23 22 24 23 25
REMARK SMILES IDX 24 26 25 27 26 28 27 29 28 31 29 32 30 33 82 34 31 35 81 36
REMARK SMILES IDX 32 37 33 38 34 39 75 40 35 41 80 42 74 43 76 44 36 45 79 46
REMARK SMILES IDX 73 47 72 48 37 50 63 51 46 52 62 53 47 54 50 55 61 56 77 57
REMARK SMILES IDX 48 58 49 59 60 61 78 62 51 63 38 64 39 65 44 66 40 67 41 68
REMARK SMILES IDX 43 69 45 70 42 71 64 72 65 73 70 74 66 75 67 76 69 77 71 78
REMARK SMILES IDX 68 79 52 80 53 81 58 82 54 83 55 84 57 85 59 86 56 87
REMARK H PARENT 19 6 6 16 26 30 76 49 50 60
REMARK Flexibility Score: inf
ROOT
ATOM      1  C   UNL A   1      37.698  23.406  26.242  1.00  0.00     0.021 C 
ENDROOT
BRANCH   1   2
ATOM      2  C   UNL A   1      36.235  23.395  25.803  1.00  0.00     0.116 C 
BRANCH   2   3
ATOM      3  N   UNL A   1      35.369  22.920  26.863  1.00  0.00    -0.356 N 
ATOM      4  C   UNL A   1      34.437  21.927  26.841  1.00  0.00     0.222 C 
ATOM      5  O   UNL A   1      33.773  21.723  27.858  1.00  0.00    -0.275 OA
ATOM      6  H   UNL A   1      35.470  23.384  27.725  1.00  0.00     0.163 HD
BRANCH   4   7
ATOM      7  C   UNL A   1      34.253  21.066  25.605  1.00  0.00     0.124 C 
BRANCH   7   8
ATOM      8  C   UNL A   1      32.792  21.035  25.120  1.00  0.00     0.093 C 
ATOM      9  C   UNL A   1      32.553  19.903  24.107  1.00  0.00     0.031 C 
BRANCH   8  10
ATOM     10  N   UNL A   1      32.252  22.338  24.606  1.00  0.00    -0.322 N 
BRANCH  10  11
ATOM     11  C   UNL A   1      32.149  22.528  23.144  1.00  0.00     0.118 C 
ATOM     12  C   UNL A   1      33.311  23.253  22.481  1.00  0.00     0.027 C 
ENDBRANCH  10  11
BRANCH  10  13
ATOM     13  C   UNL A   1      31.432  23.009  25.491  1.00  0.00     0.317 C 
ATOM     14  O   UNL A   1      30.470  22.475  26.051  1.00  0.00    -0.249 OA
ATOM     15  N   UNL A   1      31.616  24.290  25.842  1.00  0.00    -0.335 N 
ATOM     16  H   UNL A   1      30.795  24.690  26.208  1.00  0.00     0.165 HD
BRANCH  15  17
ATOM     17  C   UNL A   1      32.717  25.239  25.819  1.00  0.00     0.152 C 
BRANCH  17  18
ATOM     18  C   UNL A   1      32.312  26.706  25.497  1.00  0.00     0.083 C 
ATOM     19  C   UNL A   1      31.614  26.837  24.142  1.00  0.00     0.039 C 
ATOM     20  O   UNL A   1      33.475  27.546  25.382  1.00  0.00    -0.373 OA
ATOM     21  C   UNL A   1      31.425  27.239  26.624  1.00  0.00     0.044 C 
ATOM     22  C   UNL A   1      32.755  26.984  23.170  1.00  0.00     0.031 C 
ATOM     23  C   UNL A   1      33.808  27.700  23.991  1.00  0.00     0.161 C 
ENDBRANCH  17  18
ENDBRANCH  15  17
ENDBRANCH  10  13
ENDBRANCH   8  10
ENDBRANCH   7   8
ENDBRANCH   4   7
ENDBRANCH   2   3
ENDBRANCH   1   2
BRANCH   1  24
ATOM     24  C   UNL A   1      38.545  22.242  25.725  1.00  0.00     0.002 C 
BRANCH  24  25
ATOM     25  C   UNL A   1      37.799  21.204  24.877  1.00  0.00     0.002 C 
BRANCH  25  26
ATOM     26  C   UNL A   1      38.373  19.781  24.865  1.00  0.00     0.021 C 
BRANCH  26  27
ATOM     27  C   UNL A   1      39.193  19.372  26.089  1.00  0.00     0.116 C 
BRANCH  27  28
ATOM     28  N   UNL A   1      40.518  18.882  25.754  1.00  0.00    -0.352 N 
ATOM     29  C   UNL A   1      41.749  19.478  25.847  1.00  0.00     0.251 C 
ATOM     30  H   UNL A   1      40.535  17.964  25.399  1.00  0.00     0.163 HD
ATOM     31  O   UNL A   1      42.731  18.890  25.388  1.00  0.00    -0.269 OA
BRANCH  29  32
ATOM     32  C   UNL A   1      41.937  20.811  26.468  1.00  0.00     0.039 A 
ATOM     33  C   UNL A   1      42.294  21.888  25.649  1.00  0.00     0.014 A 
ATOM     34  C   UNL A   1      41.862  21.003  27.848  1.00  0.00     0.014 A 
ATOM     35  C   UNL A   1      42.540  23.148  26.206  1.00  0.00     0.010 A 
ATOM     36  C   UNL A   1      42.027  22.281  28.396  1.00  0.00     0.010 A 
ATOM     37  C   UNL A   1      42.392  23.364  27.585  1.00  0.00    -0.014 A 
BRANCH  37  38
ATOM     38  C   UNL A   1      42.670  24.704  28.178  1.00  0.00     0.031 A 
ATOM     39  C   UNL A   1      44.074  25.103  28.557  1.00  0.00     0.074 A 
ATOM     40  C   UNL A   1      41.659  25.571  28.387  1.00  0.00     0.049 A 
ATOM     41  N   UNL A   1      44.510  26.240  29.041  1.00  0.00    -0.248 NA
ATOM     42  C   UNL A   1      45.120  24.082  28.395  1.00  0.00     0.031 C 
ATOM     43  C   UNL A   1      40.247  25.306  28.114  1.00  0.00     0.029 A 
ATOM     44  N   UNL A   1      41.669  26.858  28.869  1.00  0.00    -0.354 N 
ATOM     45  C   UNL A   1      45.873  26.065  29.255  1.00  0.00     0.074 A 
ATOM     46  C   UNL A   1      46.178  24.694  28.907  1.00  0.00     0.031 C 
ATOM     47  C   UNL A   1      39.534  26.411  28.382  1.00  0.00     0.029 A 
ATOM     48  C   UNL A   1      40.431  27.454  28.873  1.00  0.00     0.049 A 
ATOM     49  H   UNL A   1      42.486  27.311  29.181  1.00  0.00     0.167 HD
ATOM     50  C   UNL A   1      46.796  26.965  29.674  1.00  0.00     0.037 A 
ATOM     51  C   UNL A   1      40.062  28.703  29.212  1.00  0.00     0.037 A 
ATOM     52  C   UNL A   1      46.506  28.340  29.992  1.00  0.00     0.049 A 
ATOM     53  C   UNL A   1      41.102  29.690  29.666  1.00  0.00     0.074 A 
ATOM     54  C   UNL A   1      47.384  29.345  30.358  1.00  0.00     0.029 A 
ATOM     55  N   UNL A   1      45.238  28.901  29.983  1.00  0.00    -0.354 N 
ATOM     56  N   UNL A   1      42.396  29.533  29.785  1.00  0.00    -0.248 NA
ATOM     57  C   UNL A   1      40.625  31.034  30.022  1.00  0.00     0.031 C 
ATOM     58  C   UNL A   1      46.642  30.505  30.613  1.00  0.00     0.029 A 
ATOM     59  C   UNL A   1      45.308  30.234  30.357  1.00  0.00     0.049 A 
ATOM     60  H   UNL A   1      44.411  28.424  29.745  1.00  0.00     0.167 HD
ATOM     61  C   UNL A   1      42.894  30.766  30.189  1.00  0.00     0.074 A 
ATOM     62  C   UNL A   1      41.761  31.661  30.291  1.00  0.00     0.031 C 
ATOM     63  C   UNL A   1      44.177  31.123  30.444  1.00  0.00     0.037 A 
BRANCH  50  64
ATOM     64  C   UNL A   1      48.212  26.482  29.814  1.00  0.00     0.057 A 
ATOM     65  C   UNL A   1      48.677  25.876  30.989  1.00  0.00     0.134 A 
ATOM     66  C   UNL A   1      49.124  26.624  28.761  1.00  0.00     0.134 A 
ATOM     67  F   UNL A   1      47.858  25.718  32.042  1.00  0.00    -0.206 F 
ATOM     68  C   UNL A   1      50.004  25.468  31.128  1.00  0.00     0.040 A 
ATOM     69  C   UNL A   1      50.447  26.192  28.876  1.00  0.00     0.040 A 
ATOM     70  F   UNL A   1      48.746  27.185  27.602  1.00  0.00    -0.206 F 
ATOM     71  C   UNL A   1      50.894  25.623  30.066  1.00  0.00     0.006 A 
ENDBRANCH  50  64
BRANCH  51  72
ATOM     72  C   UNL A   1      38.644  29.118  29.070  1.00  0.00     0.057 A 
ATOM     73  C   UNL A   1      37.770  29.065  30.162  1.00  0.00     0.134 A 
ATOM     74  C   UNL A   1      38.129  29.578  27.854  1.00  0.00     0.134 A 
ATOM     75  F   UNL A   1      38.201  28.614  31.350  1.00  0.00    -0.206 F 
ATOM     76  C   UNL A   1      36.430  29.439  30.048  1.00  0.00     0.040 A 
ATOM     77  C   UNL A   1      36.796  29.978  27.729  1.00  0.00     0.040 A 
ATOM     78  F   UNL A   1      38.917  29.660  26.772  1.00  0.00    -0.206 F 
ATOM     79  C   UNL A   1      35.942  29.903  28.828  1.00  0.00     0.006 A 
ENDBRANCH  51  72
BRANCH  63  80
ATOM     80  C   UNL A   1      44.432  32.558  30.808  1.00  0.00     0.057 A 
ATOM     81  C   UNL A   1      44.453  32.997  32.138  1.00  0.00     0.134 A 
ATOM     82  C   UNL A   1      44.686  33.508  29.810  1.00  0.00     0.134 A 
ATOM     83  F   UNL A   1      44.205  32.141  33.141  1.00  0.00    -0.206 F 
ATOM     84  C   UNL A   1      44.690  34.335  32.460  1.00  0.00     0.040 A 
ATOM     85  C   UNL A   1      44.951  34.842  30.121  1.00  0.00     0.040 A 
ATOM     86  F   UNL A   1      44.690  33.153  28.517  1.00  0.00    -0.206 F 
ATOM     87  C   UNL A   1      44.946  35.261  31.451  1.00  0.00     0.006 A 
ENDBRANCH  63  80
ENDBRANCH  37  38
ENDBRANCH  29  32
ENDBRANCH  27  28
ENDBRANCH  26  27
ENDBRANCH  25  26
ENDBRANCH  24  25
ENDBRANCH   1  24
TORSDOF 19
ENDMDL
MODEL 2
REMARK VINA RESULT:      -9.5      1.101      2.756
REMARK SMILES CCN(C(=O)NC[C@]1(C)CCCO1)[C@@H](C)CC(=O)NCCCCCCNC(=O)c1ccc(-c2c3nc(c(-c4c(F)cccc4F)c4ccc([nH]4)c(-c4c(F)cccc4F)c4nc(c(-c5c(F)cccc5F)c5ccc2[nH]5)C=C4)C=C3)cc1
REMARK SMILES IDX 21 1 20 2 19 3 17 4 18 5 16 7 14 8 15 9 3 10 2 11 1 12 4 13
REMARK SMILES IDX 5 14 6 15 7 17 8 18 10 19 13 20 9 21 11 22 12 23 22 24 23 25
REMARK SMILES IDX 24 26 25 27 26 28 27 29 28 31 29 32 30 33 82 34 31 35 81 36
REMARK SMILES IDX 32 37 33 38 34 39 75 40 35 41 80 42 74 43 76 44 36 45 79 46
REMARK SMILES IDX 73 47 72 48 37 50 63 51 46 52 62 53 47 54 50 55 61 56 77 57
REMARK SMILES IDX 48 58 49 59 60 61 78 62 51 63 38 64 39 65 44 66 40 67 41 68
REMARK SMILES IDX 43 69 45 70 42 71 64 72 65 73 70 74 66 75 67 76 69 77 71 78
REMARK SMILES IDX 68 79 52 80 53 81 58 82 54 83 55 84 57 85 59 86 56 87
REMARK H PARENT 19 6 6 16 26 30 76 49 50 60
REMARK Flexibility Score: inf
ROOT
ATOM      1  C   UNL A   1      36.346  22.410  23.984  1.00  0.00     0.021 C 
ENDROOT
BRANCH   1   2
ATOM      2  C   UNL A   1      35.836  23.768  24.461  1.00  0.00     0.116 C 
BRANCH   2   3
ATOM      3  N   UNL A   1      34.777  24.264  23.607  1.00  0.00    -0.356 N 
ATOM      4  C   UNL A   1      33.829  25.210  23.861  1.00  0.00     0.222 C 
ATOM      5  O   UNL A   1      32.986  25.443  22.995  1.00  0.00    -0.275 OA
ATOM      6  H   UNL A   1      34.736  23.858  22.711  1.00  0.00     0.163 HD
BRANCH   4   7
ATOM      7  C   UNL A   1      33.842  25.985  25.165  1.00  0.00     0.124 C 
BRANCH   7   8
ATOM      8  C   UNL A   1      33.206  27.381  25.029  1.00  0.00     0.093 C 
ATOM      9  C   UNL A   1      34.034  28.457  25.749  1.00  0.00     0.031 C 
BRANCH   8  10
ATOM     10  N   UNL A   1      31.757  27.473  25.412  1.00  0.00    -0.322 N 
BRANCH  10  11
ATOM     11  C   UNL A   1      30.755  27.628  24.336  1.00  0.00     0.118 C 
ATOM     12  C   UNL A   1      30.578  29.034  23.784  1.00  0.00     0.027 C 
ENDBRANCH  10  11
BRANCH  10  13
ATOM     13  C   UNL A   1      31.445  26.894  26.624  1.00  0.00     0.317 C 
ATOM     14  O   UNL A   1      31.402  27.530  27.681  1.00  0.00    -0.249 OA
ATOM     15  N   UNL A   1      31.137  25.596  26.766  1.00  0.00    -0.335 N 
ATOM     16  H   UNL A   1      31.255  25.290  27.693  1.00  0.00     0.165 HD
BRANCH  15  17
ATOM     17  C   UNL A   1      30.674  24.525  25.898  1.00  0.00     0.152 C 
BRANCH  17  18
ATOM     18  C   UNL A   1      30.777  23.097  26.508  1.00  0.00     0.083 C 
ATOM     19  C   UNL A   1      31.991  22.936  27.423  1.00  0.00     0.039 C 
ATOM     20  O   UNL A   1      30.975  22.112  25.477  1.00  0.00    -0.373 OA
ATOM     21  C   UNL A   1      29.481  22.778  27.255  1.00  0.00     0.044 C 
ATOM     22  C   UNL A   1      33.101  22.566  26.476  1.00  0.00     0.031 C 
ATOM     23  C   UNL A   1      32.377  21.798  25.389  1.00  0.00     0.161 C 
ENDBRANCH  17  18
ENDBRANCH  15  17
ENDBRANCH  10  13
ENDBRANCH   8  10
ENDBRANCH   7   8
ENDBRANCH   4   7
ENDBRANCH   2   3
ENDBRANCH   1   2
BRANCH   1  24
ATOM     24  C   UNL A   1      37.091  21.584  25.035  1.00  0.00     0.002 C 
BRANCH  24  25
ATOM     25  C   UNL A   1      36.929  20.063  24.920  1.00  0.00     0.002 C 
BRANCH  25  26
ATOM     26  C   UNL A   1      38.218  19.231  24.899  1.00  0.00     0.021 C 
BRANCH  26  27
ATOM     27  C   UNL A   1      39.219  19.507  26.022  1.00  0.00     0.116 C 
BRANCH  27  28
ATOM     28  N   UNL A   1      40.546  18.986  25.748  1.00  0.00    -0.352 N 
ATOM     29  C   UNL A   1      41.785  19.556  25.886  1.00  0.00     0.251 C 
ATOM     30  H   UNL A   1      40.557  18.063  25.404  1.00  0.00     0.163 HD
ATOM     31  O   UNL A   1      42.772  18.941  25.476  1.00  0.00    -0.269 OA
BRANCH  29  32
ATOM     32  C   UNL A   1      41.976  20.892  26.500  1.00  0.00     0.039 A 
ATOM     33  C   UNL A   1      42.235  21.983  25.664  1.00  0.00     0.014 A 
ATOM     34  C   UNL A   1      41.998  21.075  27.883  1.00  0.00     0.014 A 
ATOM     35  C   UNL A   1      42.481  23.248  26.209  1.00  0.00     0.010 A 
ATOM     36  C   UNL A   1      42.163  22.355  28.426  1.00  0.00     0.010 A 
ATOM     37  C   UNL A   1      42.431  23.453  27.597  1.00  0.00    -0.014 A 
BRANCH  37  38
ATOM     38  C   UNL A   1      42.709  24.799  28.177  1.00  0.00     0.031 A 
ATOM     39  C   UNL A   1      44.117  25.212  28.523  1.00  0.00     0.074 A 
ATOM     40  C   UNL A   1      41.696  25.658  28.402  1.00  0.00     0.049 A 
ATOM     41  N   UNL A   1      44.554  26.356  28.992  1.00  0.00    -0.248 NA
ATOM     42  C   UNL A   1      45.169  24.200  28.346  1.00  0.00     0.031 C 
ATOM     43  C   UNL A   1      40.281  25.379  28.160  1.00  0.00     0.029 A 
ATOM     44  N   UNL A   1      41.704  26.948  28.875  1.00  0.00    -0.354 N 
ATOM     45  C   UNL A   1      45.922  26.194  29.179  1.00  0.00     0.074 A 
ATOM     46  C   UNL A   1      46.232  24.823  28.831  1.00  0.00     0.031 C 
ATOM     47  C   UNL A   1      39.563  26.480  28.436  1.00  0.00     0.029 A 
ATOM     48  C   UNL A   1      40.462  27.533  28.902  1.00  0.00     0.049 A 
ATOM     49  H   UNL A   1      42.524  27.410  29.168  1.00  0.00     0.167 HD
ATOM     50  C   UNL A   1      46.846  27.105  29.572  1.00  0.00     0.037 A 
ATOM     51  C   UNL A   1      40.088  28.781  29.242  1.00  0.00     0.037 A 
ATOM     52  C   UNL A   1      46.551  28.479  29.888  1.00  0.00     0.049 A 
ATOM     53  C   UNL A   1      41.129  29.780  29.668  1.00  0.00     0.074 A 
ATOM     54  C   UNL A   1      47.427  29.493  30.231  1.00  0.00     0.029 A 
ATOM     55  N   UNL A   1      45.278  29.029  29.903  1.00  0.00    -0.354 N 
ATOM     56  N   UNL A   1      42.427  29.635  29.761  1.00  0.00    -0.248 NA
ATOM     57  C   UNL A   1      40.648  31.122  30.027  1.00  0.00     0.031 C 
ATOM     58  C   UNL A   1      46.681  30.649  30.494  1.00  0.00     0.029 A 
ATOM     59  C   UNL A   1      45.344  30.365  30.268  1.00  0.00     0.049 A 
ATOM     60  H   UNL A   1      44.450  28.543  29.685  1.00  0.00     0.167 HD
ATOM     61  C   UNL A   1      42.923  30.874  30.147  1.00  0.00     0.074 A 
ATOM     62  C   UNL A   1      41.783  31.760  30.268  1.00  0.00     0.031 C 
ATOM     63  C   UNL A   1      44.207  31.244  30.373  1.00  0.00     0.037 A 
BRANCH  50  64
ATOM     64  C   UNL A   1      48.269  26.634  29.686  1.00  0.00     0.057 A 
ATOM     65  C   UNL A   1      48.771  26.065  30.864  1.00  0.00     0.134 A 
ATOM     66  C   UNL A   1      49.150  26.751  28.603  1.00  0.00     0.134 A 
ATOM     67  F   UNL A   1      47.984  25.933  31.944  1.00  0.00    -0.206 F 
ATOM     68  C   UNL A   1      50.105  25.670  30.976  1.00  0.00     0.040 A 
ATOM     69  C   UNL A   1      50.479  26.332  28.692  1.00  0.00     0.040 A 
ATOM     70  F   UNL A   1      48.735  27.277  27.440  1.00  0.00    -0.206 F 
ATOM     71  C   UNL A   1      50.963  25.800  29.885  1.00  0.00     0.006 A 
ENDBRANCH  50  64
BRANCH  51  72
ATOM     72  C   UNL A   1      38.664  29.183  29.127  1.00  0.00     0.057 A 
ATOM     73  C   UNL A   1      38.145  29.640  27.911  1.00  0.00     0.134 A 
ATOM     74  C   UNL A   1      37.791  29.120  30.218  1.00  0.00     0.134 A 
ATOM     75  F   UNL A   1      38.939  29.741  26.834  1.00  0.00    -0.206 F 
ATOM     76  C   UNL A   1      36.812  30.034  27.784  1.00  0.00     0.040 A 
ATOM     77  C   UNL A   1      36.449  29.489  30.102  1.00  0.00     0.040 A 
ATOM     78  F   UNL A   1      38.226  28.683  31.410  1.00  0.00    -0.206 F 
ATOM     79  C   UNL A   1      35.959  29.953  28.883  1.00  0.00     0.006 A 
ENDBRANCH  51  72
BRANCH  63  80
ATOM     80  C   UNL A   1      44.457  32.683  30.724  1.00  0.00     0.057 A 
ATOM     81  C   UNL A   1      44.508  33.129  32.051  1.00  0.00     0.134 A 
ATOM     82  C   UNL A   1      44.677  33.630  29.715  1.00  0.00     0.134 A 
ATOM     83  F   UNL A   1      44.293  32.276  33.063  1.00  0.00    -0.206 F 
ATOM     84  C   UNL A   1      44.740  34.471  32.360  1.00  0.00     0.040 A 
ATOM     85  C   UNL A   1      44.936  34.969  30.013  1.00  0.00     0.040 A 
ATOM     86  F   UNL A   1      44.651  33.269  28.424  1.00  0.00    -0.206 F 
ATOM     87  C   UNL A   1      44.960  35.394  31.340  1.00  0.00     0.006 A 
ENDBRANCH  63  80
ENDBRANCH  37  38
ENDBRANCH  29  32
ENDBRANCH  27  28
ENDBRANCH  26  27
ENDBRANCH  25  26
ENDBRANCH  24  25
ENDBRANCH   1  24
TORSDOF 19
ENDMDL
MODEL 3
REMARK VINA RESULT:      -9.4      4.173      9.302
REMARK SMILES CCN(C(=O)NC[C@]1(C)CCCO1)[C@@H](C)CC(=O)NCCCCCCNC(=O)c1ccc(-c2c3nc(c(-c4c(F)cccc4F)c4ccc([nH]4)c(-c4c(F)cccc4F)c4nc(c(-c5c(F)cccc5F)c5ccc2[nH]5)C=C4)C=C3)cc1
REMARK SMILES IDX 21 1 20 2 19 3 17 4 18 5 16 7 14 8 15 9 3 10 2 11 1 12 4 13
REMARK SMILES IDX 5 14 6 15 7 17 8 18 10 19 13 20 9 21 11 22 12 23 22 24 23 25
REMARK SMILES IDX 24 26 25 27 26 28 27 29 28 31 29 32 30 33 82 34 31 35 81 36
REMARK SMILES IDX 32 37 33 38 34 39 75 40 35 41 80 42 74 43 76 44 36 45 79 46
REMARK SMILES IDX 73 47 72 48 37 50 63 51 46 52 62 53 47 54 50 55 61 56 77 57
REMARK SMILES IDX 48 58 49 59 60 61 78 62 51 63 38 64 39 65 44 66 40 67 41 68
REMARK SMILES IDX 43 69 45 70 42 71 64 72 65 73 70 74 66 75 67 76 69 77 71 78
REMARK SMILES IDX 68 79 52 80 53 81 58 82 54 83 55 84 57 85 59 86 56 87
REMARK H PARENT 19 6 6 16 26 30 76 49 50 60
REMARK Flexibility Score: inf
ROOT
ATOM      1  C   UNL A   1      33.483  29.159  25.881  1.00  0.00     0.021 C 
ENDROOT
BRANCH   1   2
ATOM      2  C   UNL A   1      32.711  29.345  24.576  1.00  0.00     0.116 C 
BRANCH   2   3
ATOM      3  N   UNL A   1      33.576  29.190  23.425  1.00  0.00    -0.356 N 
ATOM      4  C   UNL A   1      33.588  28.212  22.476  1.00  0.00     0.222 C 
ATOM      5  O   UNL A   1      34.454  28.254  21.601  1.00  0.00    -0.275 OA
ATOM      6  H   UNL A   1      34.254  29.894  23.311  1.00  0.00     0.163 HD
BRANCH   4   7
ATOM      7  C   UNL A   1      32.532  27.122  22.475  1.00  0.00     0.124 C 
BRANCH   7   8
ATOM      8  C   UNL A   1      33.142  25.709  22.494  1.00  0.00     0.093 C 
ATOM      9  C   UNL A   1      32.862  24.951  21.186  1.00  0.00     0.031 C 
BRANCH   8  10
ATOM     10  N   UNL A   1      32.793  24.868  23.688  1.00  0.00    -0.322 N 
BRANCH  10  11
ATOM     11  C   UNL A   1      33.279  25.298  25.015  1.00  0.00     0.118 C 
ATOM     12  C   UNL A   1      34.712  24.918  25.358  1.00  0.00     0.027 C 
ENDBRANCH  10  11
BRANCH  10  13
ATOM     13  C   UNL A   1      31.655  24.102  23.537  1.00  0.00     0.317 C 
ATOM     14  O   UNL A   1      30.558  24.581  23.235  1.00  0.00    -0.249 OA
ATOM     15  N   UNL A   1      31.638  22.768  23.681  1.00  0.00    -0.335 N 
ATOM     16  H   UNL A   1      30.731  22.430  23.855  1.00  0.00     0.165 HD
BRANCH  15  17
ATOM     17  C   UNL A   1      32.618  21.694  23.646  1.00  0.00     0.152 C 
BRANCH  17  18
ATOM     18  C   UNL A   1      32.837  20.963  25.001  1.00  0.00     0.083 C 
ATOM     19  C   UNL A   1      34.233  20.348  25.116  1.00  0.00     0.039 C 
ATOM     20  O   UNL A   1      31.942  19.842  25.130  1.00  0.00    -0.373 OA
ATOM     21  C   UNL A   1      32.572  21.941  26.146  1.00  0.00     0.044 C 
ATOM     22  C   UNL A   1      34.081  19.001  24.462  1.00  0.00     0.031 C 
ATOM     23  C   UNL A   1      32.641  18.638  24.764  1.00  0.00     0.161 C 
ENDBRANCH  17  18
ENDBRANCH  15  17
ENDBRANCH  10  13
ENDBRANCH   8  10
ENDBRANCH   7   8
ENDBRANCH   4   7
ENDBRANCH   2   3
ENDBRANCH   1   2
BRANCH   1  24
ATOM     24  C   UNL A   1      32.972  29.981  27.067  1.00  0.00     0.002 C 
BRANCH  24  25
ATOM     25  C   UNL A   1      31.542  30.521  26.931  1.00  0.00     0.002 C 
BRANCH  25  26
ATOM     26  C   UNL A   1      31.379  32.047  26.922  1.00  0.00     0.021 C 
BRANCH  26  27
ATOM     27  C   UNL A   1      32.669  32.865  27.000  1.00  0.00     0.116 C 
BRANCH  27  28
ATOM     28  N   UNL A   1      32.509  34.119  27.713  1.00  0.00    -0.352 N 
ATOM     29  C   UNL A   1      33.178  34.633  28.794  1.00  0.00     0.251 C 
ATOM     30  H   UNL A   1      31.798  34.701  27.360  1.00  0.00     0.163 HD
ATOM     31  O   UNL A   1      32.779  35.686  29.296  1.00  0.00    -0.269 OA
BRANCH  29  32
ATOM     32  C   UNL A   1      34.356  33.957  29.388  1.00  0.00     0.039 A 
ATOM     33  C   UNL A   1      35.634  34.361  28.986  1.00  0.00     0.014 A 
ATOM     34  C   UNL A   1      34.229  32.875  30.261  1.00  0.00     0.014 A 
ATOM     35  C   UNL A   1      36.769  33.707  29.478  1.00  0.00     0.010 A 
ATOM     36  C   UNL A   1      35.365  32.275  30.816  1.00  0.00     0.010 A 
ATOM     37  C   UNL A   1      36.649  32.667  30.413  1.00  0.00    -0.014 A 
BRANCH  37  38
ATOM     38  C   UNL A   1      37.860  31.961  30.924  1.00  0.00     0.031 A 
ATOM     39  C   UNL A   1      38.390  32.245  32.307  1.00  0.00     0.074 A 
ATOM     40  C   UNL A   1      38.496  31.065  30.146  1.00  0.00     0.049 A 
ATOM     41  N   UNL A   1      39.401  31.696  32.936  1.00  0.00    -0.248 NA
ATOM     42  C   UNL A   1      37.713  33.300  33.074  1.00  0.00     0.031 C 
ATOM     43  C   UNL A   1      38.127  30.723  28.772  1.00  0.00     0.029 A 
ATOM     44  N   UNL A   1      39.584  30.266  30.404  1.00  0.00    -0.354 N 
ATOM     45  C   UNL A   1      39.488  32.350  34.160  1.00  0.00     0.074 A 
ATOM     46  C   UNL A   1      38.468  33.376  34.159  1.00  0.00     0.031 C 
ATOM     47  C   UNL A   1      38.939  29.751  28.328  1.00  0.00     0.029 A 
ATOM     48  C   UNL A   1      39.904  29.419  29.372  1.00  0.00     0.049 A 
ATOM     49  H   UNL A   1      40.088  30.299  31.251  1.00  0.00     0.167 HD
ATOM     50  C   UNL A   1      40.318  32.103  35.204  1.00  0.00     0.037 A 
ATOM     51  C   UNL A   1      40.852  28.467  29.281  1.00  0.00     0.037 A 
ATOM     52  C   UNL A   1      41.313  31.063  35.225  1.00  0.00     0.049 A 
ATOM     53  C   UNL A   1      41.757  28.204  30.453  1.00  0.00     0.074 A 
ATOM     54  C   UNL A   1      42.154  30.693  36.259  1.00  0.00     0.029 A 
ATOM     55  N   UNL A   1      41.604  30.228  34.157  1.00  0.00    -0.354 N 
ATOM     56  N   UNL A   1      41.774  28.774  31.632  1.00  0.00    -0.248 NA
ATOM     57  C   UNL A   1      42.770  27.152  30.282  1.00  0.00     0.031 C 
ATOM     58  C   UNL A   1      42.984  29.660  35.804  1.00  0.00     0.029 A 
ATOM     59  C   UNL A   1      42.625  29.356  34.502  1.00  0.00     0.049 A 
ATOM     60  H   UNL A   1      41.151  30.250  33.283  1.00  0.00     0.167 HD
ATOM     61  C   UNL A   1      42.766  28.126  32.356  1.00  0.00     0.074 A 
ATOM     62  C   UNL A   1      43.327  27.115  31.483  1.00  0.00     0.031 C 
ATOM     63  C   UNL A   1      43.170  28.344  33.632  1.00  0.00     0.037 A 
BRANCH  50  64
ATOM     64  C   UNL A   1      40.180  32.986  36.413  1.00  0.00     0.057 A 
ATOM     65  C   UNL A   1      41.003  34.101  36.616  1.00  0.00     0.134 A 
ATOM     66  C   UNL A   1      39.211  32.717  37.388  1.00  0.00     0.134 A 
ATOM     67  F   UNL A   1      41.960  34.411  35.726  1.00  0.00    -0.206 F 
ATOM     68  C   UNL A   1      40.898  34.892  37.762  1.00  0.00     0.040 A 
ATOM     69  C   UNL A   1      39.074  33.517  38.524  1.00  0.00     0.040 A 
ATOM     70  F   UNL A   1      38.380  31.671  37.254  1.00  0.00    -0.206 F 
ATOM     71  C   UNL A   1      39.928  34.601  38.719  1.00  0.00     0.006 A 
ENDBRANCH  50  64
BRANCH  51  72
ATOM     72  C   UNL A   1      40.953  27.639  28.054  1.00  0.00     0.057 A 
ATOM     73  C   UNL A   1      40.266  26.424  27.952  1.00  0.00     0.134 A 
ATOM     74  C   UNL A   1      41.728  28.036  26.959  1.00  0.00     0.134 A 
ATOM     75  F   UNL A   1      39.521  25.982  28.977  1.00  0.00    -0.206 F 
ATOM     76  C   UNL A   1      40.356  25.625  26.812  1.00  0.00     0.040 A 
ATOM     77  C   UNL A   1      41.810  27.258  25.802  1.00  0.00     0.040 A 
ATOM     78  F   UNL A   1      42.404  29.194  26.992  1.00  0.00    -0.206 F 
ATOM     79  C   UNL A   1      41.127  26.045  25.729  1.00  0.00     0.006 A 
ENDBRANCH  51  72
BRANCH  63  80
ATOM     80  C   UNL A   1      44.236  27.440  34.181  1.00  0.00     0.057 A 
ATOM     81  C   UNL A   1      43.936  26.204  34.767  1.00  0.00     0.134 A 
ATOM     82  C   UNL A   1      45.586  27.804  34.096  1.00  0.00     0.134 A 
ATOM     83  F   UNL A   1      42.662  25.802  34.891  1.00  0.00    -0.206 F 
ATOM     84  C   UNL A   1      44.939  25.375  35.275  1.00  0.00     0.040 A 
ATOM     85  C   UNL A   1      46.599  26.971  34.575  1.00  0.00     0.040 A 
ATOM     86  F   UNL A   1      45.944  28.970  33.538  1.00  0.00    -0.206 F 
ATOM     87  C   UNL A   1      46.275  25.756  35.174  1.00  0.00     0.006 A 
ENDBRANCH  63  80
ENDBRANCH  37  38
ENDBRANCH  29  32
ENDBRANCH  27  28
ENDBRANCH  26  27
ENDBRANCH  25  26
ENDBRANCH  24  25
ENDBRANCH   1  24
TORSDOF 19
ENDMDL
