MODEL 1
REMARK VINA RESULT:      -8.7      0.000      0.000
REMARK SMILES CCCCCC[C@H]1OCC[C@H]1C(=O)NCCCCCCNC(=O)c1ccc(-c2c3nc(c(-c4c(F)cccc4F)c4ccc([nH]4)c(-c4c(F)cccc4F)c4nc(c(-c5c(F)cccc5F)c5ccc2[nH]5)C=C4)C=C3)cc1
REMARK SMILES IDX 16 1 15 2 14 3 12 4 13 5 11 7 7 8 8 9 9 10 10 11 6 12 5 13
REMARK SMILES IDX 4 14 3 15 2 16 1 17 17 18 18 19 19 20 20 21 21 22 22 23
REMARK SMILES IDX 23 25 24 26 25 27 77 28 26 29 76 30 27 31 28 32 29 33 70 34
REMARK SMILES IDX 30 35 75 36 69 37 71 38 31 39 74 40 68 41 67 42 32 44 58 45
REMARK SMILES IDX 41 46 57 47 42 48 45 49 56 50 72 51 43 52 44 53 55 55 73 56
REMARK SMILES IDX 46 57 33 58 34 59 39 60 35 61 36 62 38 63 40 64 37 65 59 66
REMARK SMILES IDX 60 67 65 68 61 69 62 70 64 71 66 72 63 73 47 74 48 75 53 76
REMARK SMILES IDX 49 77 50 78 52 79 54 80 51 81
REMARK H PARENT 14 6 21 24 71 43 45 54
REMARK Flexibility Score: inf
ROOT
ATOM      1  C   UNL A   1      36.015  34.036  35.024  1.00  0.00     0.021 C 
ENDROOT
BRANCH   1   2
ATOM      2  C   UNL A   1      37.442  33.538  34.794  1.00  0.00     0.116 C 
BRANCH   2   3
ATOM      3  N   UNL A   1      37.715  32.310  35.508  1.00  0.00    -0.356 N 
ATOM      4  C   UNL A   1      38.085  31.076  35.083  1.00  0.00     0.225 C 
ATOM      5  O   UNL A   1      38.196  30.211  35.960  1.00  0.00    -0.275 OA
ATOM      6  H   UNL A   1      37.613  32.384  36.484  1.00  0.00     0.163 HD
BRANCH   4   7
ATOM      7  C   UNL A   1      38.426  30.712  33.638  1.00  0.00     0.109 C 
ATOM      8  C   UNL A   1      39.700  29.943  33.310  1.00  0.00     0.130 C 
ATOM      9  O   UNL A   1      39.315  28.575  33.107  1.00  0.00    -0.377 OA
ATOM     10  C   UNL A   1      37.928  28.524  32.760  1.00  0.00     0.161 C 
ATOM     11  C   UNL A   1      37.332  29.899  32.976  1.00  0.00     0.044 C 
BRANCH   8  12
ATOM     12  C   UNL A   1      40.880  30.106  34.282  1.00  0.00     0.033 C 
BRANCH  12  13
ATOM     13  C   UNL A   1      41.730  28.852  34.506  1.00  0.00     0.003 C 
BRANCH  13  14
ATOM     14  C   UNL A   1      41.509  28.146  35.843  1.00  0.00     0.000 C 
BRANCH  14  15
ATOM     15  C   UNL A   1      42.217  26.798  35.986  1.00  0.00    -0.000 C 
BRANCH  15  16
ATOM     16  C   UNL A   1      41.336  25.562  35.777  1.00  0.00    -0.003 C 
ATOM     17  C   UNL A   1      42.123  24.287  35.514  1.00  0.00     0.004 C 
ENDBRANCH  15  16
ENDBRANCH  14  15
ENDBRANCH  13  14
ENDBRANCH  12  13
ENDBRANCH   8  12
ENDBRANCH   4   7
ENDBRANCH   2   3
ENDBRANCH   1   2
BRANCH   1  18
ATOM     18  C   UNL A   1      35.133  34.066  33.775  1.00  0.00     0.002 C 
BRANCH  18  19
ATOM     19  C   UNL A   1      34.649  35.454  33.346  1.00  0.00     0.002 C 
BRANCH  19  20
ATOM     20  C   UNL A   1      33.364  35.484  32.514  1.00  0.00     0.021 C 
BRANCH  20  21
ATOM     21  C   UNL A   1      33.430  36.309  31.231  1.00  0.00     0.116 C 
BRANCH  21  22
ATOM     22  N   UNL A   1      32.752  35.664  30.119  1.00  0.00    -0.352 N 
ATOM     23  C   UNL A   1      33.191  34.691  29.262  1.00  0.00     0.251 C 
ATOM     24  H   UNL A   1      31.833  35.977  29.957  1.00  0.00     0.163 HD
ATOM     25  O   UNL A   1      32.518  34.399  28.275  1.00  0.00    -0.269 OA
BRANCH  23  26
ATOM     26  C   UNL A   1      34.477  34.001  29.499  1.00  0.00     0.039 A 
ATOM     27  C   UNL A   1      35.599  34.417  28.776  1.00  0.00     0.014 A 
ATOM     28  C   UNL A   1      34.579  32.933  30.395  1.00  0.00     0.014 A 
ATOM     29  C   UNL A   1      36.831  33.798  28.992  1.00  0.00     0.010 A 
ATOM     30  C   UNL A   1      35.824  32.364  30.661  1.00  0.00     0.010 A 
ATOM     31  C   UNL A   1      36.960  32.788  29.958  1.00  0.00    -0.014 A 
BRANCH  31  32
ATOM     32  C   UNL A   1      38.285  32.182  30.246  1.00  0.00     0.031 A 
ATOM     33  C   UNL A   1      39.296  32.912  31.084  1.00  0.00     0.074 A 
ATOM     34  C   UNL A   1      38.596  30.990  29.705  1.00  0.00     0.049 A 
ATOM     35  N   UNL A   1      40.503  32.543  31.430  1.00  0.00    -0.248 NA
ATOM     36  C   UNL A   1      38.911  34.244  31.574  1.00  0.00     0.031 C 
ATOM     37  C   UNL A   1      37.728  30.213  28.819  1.00  0.00     0.029 A 
ATOM     38  N   UNL A   1      39.731  30.226  29.815  1.00  0.00    -0.354 N 
ATOM     39  C   UNL A   1      41.024  33.596  32.170  1.00  0.00     0.074 A 
ATOM     40  C   UNL A   1      40.024  34.642  32.172  1.00  0.00     0.031 C 
ATOM     41  C   UNL A   1      38.354  29.076  28.477  1.00  0.00     0.029 A 
ATOM     42  C   UNL A   1      39.675  29.055  29.099  1.00  0.00     0.049 A 
ATOM     43  H   UNL A   1      40.510  30.492  30.354  1.00  0.00     0.167 HD
ATOM     44  C   UNL A   1      42.215  33.675  32.811  1.00  0.00     0.037 A 
ATOM     45  C   UNL A   1      40.585  28.074  28.957  1.00  0.00     0.037 A 
ATOM     46  C   UNL A   1      43.206  32.628  32.814  1.00  0.00     0.049 A 
ATOM     47  C   UNL A   1      41.893  28.172  29.688  1.00  0.00     0.074 A 
ATOM     48  C   UNL A   1      44.414  32.583  33.487  1.00  0.00     0.029 A 
ATOM     49  N   UNL A   1      43.103  31.443  32.100  1.00  0.00    -0.354 N 
ATOM     50  N   UNL A   1      42.337  29.136  30.459  1.00  0.00    -0.248 NA
ATOM     51  C   UNL A   1      42.818  27.042  29.544  1.00  0.00     0.031 C 
ATOM     52  C   UNL A   1      45.063  31.393  33.142  1.00  0.00     0.029 A 
ATOM     53  C   UNL A   1      44.239  30.672  32.293  1.00  0.00     0.049 A 
ATOM     54  H   UNL A   1      42.337  31.188  31.537  1.00  0.00     0.167 HD
ATOM     55  C   UNL A   1      43.588  28.726  30.900  1.00  0.00     0.074 A 
ATOM     56  C   UNL A   1      43.819  27.412  30.330  1.00  0.00     0.031 C 
ATOM     57  C   UNL A   1      44.465  29.376  31.703  1.00  0.00     0.037 A 
BRANCH  44  58
ATOM     58  C   UNL A   1      42.507  34.946  33.557  1.00  0.00     0.057 A 
ATOM     59  C   UNL A   1      42.165  35.107  34.907  1.00  0.00     0.134 A 
ATOM     60  C   UNL A   1      43.139  36.022  32.921  1.00  0.00     0.134 A 
ATOM     61  F   UNL A   1      41.547  34.119  35.574  1.00  0.00    -0.206 F 
ATOM     62  C   UNL A   1      42.402  36.305  35.585  1.00  0.00     0.040 A 
ATOM     63  C   UNL A   1      43.408  37.215  33.597  1.00  0.00     0.040 A 
ATOM     64  F   UNL A   1      43.502  35.936  31.633  1.00  0.00    -0.206 F 
ATOM     65  C   UNL A   1      43.028  37.362  34.929  1.00  0.00     0.006 A 
ENDBRANCH  44  58
BRANCH  45  66
ATOM     66  C   UNL A   1      40.269  26.905  28.101  1.00  0.00     0.057 A 
ATOM     67  C   UNL A   1      40.785  26.794  26.807  1.00  0.00     0.134 A 
ATOM     68  C   UNL A   1      39.474  25.854  28.574  1.00  0.00     0.134 A 
ATOM     69  F   UNL A   1      41.541  27.776  26.294  1.00  0.00    -0.206 F 
ATOM     70  C   UNL A   1      40.516  25.683  26.006  1.00  0.00     0.040 A 
ATOM     71  C   UNL A   1      39.215  24.727  27.793  1.00  0.00     0.040 A 
ATOM     72  F   UNL A   1      38.959  25.897  29.811  1.00  0.00    -0.206 F 
ATOM     73  C   UNL A   1      39.735  24.641  26.503  1.00  0.00     0.006 A 
ENDBRANCH  45  66
BRANCH  57  74
ATOM     74  C   UNL A   1      45.755  28.673  32.012  1.00  0.00     0.057 A 
ATOM     75  C   UNL A   1      46.898  28.846  31.221  1.00  0.00     0.134 A 
ATOM     76  C   UNL A   1      45.861  27.826  33.123  1.00  0.00     0.134 A 
ATOM     77  F   UNL A   1      46.859  29.633  30.134  1.00  0.00    -0.206 F 
ATOM     78  C   UNL A   1      48.091  28.182  31.507  1.00  0.00     0.040 A 
ATOM     79  C   UNL A   1      47.057  27.177  33.435  1.00  0.00     0.040 A 
ATOM     80  F   UNL A   1      44.807  27.622  33.927  1.00  0.00    -0.206 F 
ATOM     81  C   UNL A   1      48.174  27.349  32.620  1.00  0.00     0.006 A 
ENDBRANCH  57  74
ENDBRANCH  31  32
ENDBRANCH  23  26
ENDBRANCH  21  22
ENDBRANCH  20  21
ENDBRANCH  19  20
ENDBRANCH  18  19
ENDBRANCH   1  18
TORSDOF 18
ENDMDL
MODEL 2
REMARK VINA RESULT:      -8.4      4.154      7.306
REMARK SMILES CCCCCC[C@H]1OCC[C@H]1C(=O)NCCCCCCNC(=O)c1ccc(-c2c3nc(c(-c4c(F)cccc4F)c4ccc([nH]4)c(-c4c(F)cccc4F)c4nc(c(-c5c(F)cccc5F)c5ccc2[nH]5)C=C4)C=C3)cc1
REMARK SMILES IDX 16 1 15 2 14 3 12 4 13 5 11 7 7 8 8 9 9 10 10 11 6 12 5 13
REMARK SMILES IDX 4 14 3 15 2 16 1 17 17 18 18 19 19 20 20 21 21 22 22 23
REMARK SMILES IDX 23 25 24 26 25 27 77 28 26 29 76 30 27 31 28 32 29 33 70 34
REMARK SMILES IDX 30 35 75 36 69 37 71 38 31 39 74 40 68 41 67 42 32 44 58 45
REMARK SMILES IDX 41 46 57 47 42 48 45 49 56 50 72 51 43 52 44 53 55 55 73 56
REMARK SMILES IDX 46 57 33 58 34 59 39 60 35 61 36 62 38 63 40 64 37 65 59 66
REMARK SMILES IDX 60 67 65 68 61 69 62 70 64 71 66 72 63 73 47 74 48 75 53 76
REMARK SMILES IDX 49 77 50 78 52 79 54 80 51 81
REMARK H PARENT 14 6 21 24 71 43 45 54
REMARK Flexibility Score: inf
ROOT
ATOM      1  C   UNL A   1      33.409  29.385  27.185  1.00  0.00     0.021 C 
ENDROOT
BRANCH   1   2
ATOM      2  C   UNL A   1      34.050  28.409  26.198  1.00  0.00     0.116 C 
BRANCH   2   3
ATOM      3  N   UNL A   1      33.979  28.885  24.834  1.00  0.00    -0.356 N 
ATOM      4  C   UNL A   1      33.617  28.274  23.678  1.00  0.00     0.225 C 
ATOM      5  O   UNL A   1      33.710  28.959  22.652  1.00  0.00    -0.275 OA
ATOM      6  H   UNL A   1      34.240  29.827  24.725  1.00  0.00     0.163 HD
BRANCH   4   7
ATOM      7  C   UNL A   1      33.059  26.855  23.573  1.00  0.00     0.109 C 
ATOM      8  C   UNL A   1      31.560  26.618  23.436  1.00  0.00     0.130 C 
ATOM      9  O   UNL A   1      31.308  26.354  22.047  1.00  0.00    -0.377 OA
ATOM     10  C   UNL A   1      32.515  25.892  21.432  1.00  0.00     0.161 C 
ATOM     11  C   UNL A   1      33.654  26.086  22.410  1.00  0.00     0.044 C 
BRANCH   8  12
ATOM     12  C   UNL A   1      30.630  27.688  24.031  1.00  0.00     0.033 C 
BRANCH  12  13
ATOM     13  C   UNL A   1      29.648  28.331  23.047  1.00  0.00     0.003 C 
BRANCH  13  14
ATOM     14  C   UNL A   1      30.055  29.710  22.529  1.00  0.00     0.000 C 
BRANCH  14  15
ATOM     15  C   UNL A   1      29.024  30.391  21.626  1.00  0.00    -0.000 C 
BRANCH  15  16
ATOM     16  C   UNL A   1      28.420  31.688  22.172  1.00  0.00    -0.003 C 
ATOM     17  C   UNL A   1      27.677  31.510  23.487  1.00  0.00     0.004 C 
ENDBRANCH  15  16
ENDBRANCH  14  15
ENDBRANCH  13  14
ENDBRANCH  12  13
ENDBRANCH   8  12
ENDBRANCH   4   7
ENDBRANCH   2   3
ENDBRANCH   1   2
BRANCH   1  18
ATOM     18  C   UNL A   1      31.902  29.579  27.014  1.00  0.00     0.002 C 
BRANCH  18  19
ATOM     19  C   UNL A   1      31.487  30.744  26.111  1.00  0.00     0.002 C 
BRANCH  19  20
ATOM     20  C   UNL A   1      31.319  32.099  26.805  1.00  0.00     0.021 C 
BRANCH  20  21
ATOM     21  C   UNL A   1      32.600  32.913  26.974  1.00  0.00     0.116 C 
BRANCH  21  22
ATOM     22  N   UNL A   1      32.361  34.198  27.611  1.00  0.00    -0.352 N 
ATOM     23  C   UNL A   1      33.002  34.792  28.665  1.00  0.00     0.251 C 
ATOM     24  H   UNL A   1      31.624  34.722  27.223  1.00  0.00     0.163 HD
ATOM     25  O   UNL A   1      32.535  35.816  29.163  1.00  0.00    -0.269 OA
BRANCH  23  26
ATOM     26  C   UNL A   1      34.238  34.207  29.225  1.00  0.00     0.039 A 
ATOM     27  C   UNL A   1      34.134  33.389  30.354  1.00  0.00     0.014 A 
ATOM     28  C   UNL A   1      35.493  34.481  28.674  1.00  0.00     0.014 A 
ATOM     29  C   UNL A   1      35.281  32.805  30.895  1.00  0.00     0.010 A 
ATOM     30  C   UNL A   1      36.627  33.842  29.171  1.00  0.00     0.010 A 
ATOM     31  C   UNL A   1      36.533  33.002  30.289  1.00  0.00    -0.014 A 
BRANCH  31  32
ATOM     32  C   UNL A   1      37.742  32.319  30.814  1.00  0.00     0.031 A 
ATOM     33  C   UNL A   1      38.457  32.848  32.024  1.00  0.00     0.074 A 
ATOM     34  C   UNL A   1      38.227  31.245  30.162  1.00  0.00     0.049 A 
ATOM     35  N   UNL A   1      39.531  32.388  32.615  1.00  0.00    -0.248 NA
ATOM     36  C   UNL A   1      37.912  34.070  32.633  1.00  0.00     0.031 C 
ATOM     37  C   UNL A   1      37.664  30.676  28.937  1.00  0.00     0.029 A 
ATOM     38  N   UNL A   1      39.308  30.446  30.436  1.00  0.00    -0.354 N 
ATOM     39  C   UNL A   1      39.794  33.266  33.659  1.00  0.00     0.074 A 
ATOM     40  C   UNL A   1      38.802  34.317  33.583  1.00  0.00     0.031 C 
ATOM     41  C   UNL A   1      38.394  29.610  28.573  1.00  0.00     0.029 A 
ATOM     42  C   UNL A   1      39.488  29.437  29.522  1.00  0.00     0.049 A 
ATOM     43  H   UNL A   1      39.898  30.584  31.211  1.00  0.00     0.167 HD
ATOM     44  C   UNL A   1      40.757  33.190  34.609  1.00  0.00     0.037 A 
ATOM     45  C   UNL A   1      40.432  28.479  29.454  1.00  0.00     0.037 A 
ATOM     46  C   UNL A   1      41.738  32.137  34.688  1.00  0.00     0.049 A 
ATOM     47  C   UNL A   1      41.480  28.401  30.526  1.00  0.00     0.074 A 
ATOM     48  C   UNL A   1      42.712  31.933  35.649  1.00  0.00     0.029 A 
ATOM     49  N   UNL A   1      41.874  31.115  33.760  1.00  0.00    -0.354 N 
ATOM     50  N   UNL A   1      41.663  29.187  31.559  1.00  0.00    -0.248 NA
ATOM     51  C   UNL A   1      42.442  27.296  30.431  1.00  0.00     0.031 C 
ATOM     52  C   UNL A   1      43.467  30.815  35.278  1.00  0.00     0.029 A 
ATOM     53  C   UNL A   1      42.933  30.292  34.110  1.00  0.00     0.049 A 
ATOM     54  H   UNL A   1      41.302  30.993  32.967  1.00  0.00     0.167 HD
ATOM     55  C   UNL A   1      42.754  28.667  32.245  1.00  0.00     0.074 A 
ATOM     56  C   UNL A   1      43.174  27.483  31.521  1.00  0.00     0.031 C 
ATOM     57  C   UNL A   1      43.353  29.129  33.370  1.00  0.00     0.037 A 
BRANCH  44  58
ATOM     58  C   UNL A   1      40.792  34.286  35.636  1.00  0.00     0.057 A 
ATOM     59  C   UNL A   1      41.555  35.449  35.452  1.00  0.00     0.134 A 
ATOM     60  C   UNL A   1      40.054  34.182  36.822  1.00  0.00     0.134 A 
ATOM     61  F   UNL A   1      42.294  35.608  34.343  1.00  0.00    -0.206 F 
ATOM     62  C   UNL A   1      41.616  36.446  36.427  1.00  0.00     0.040 A 
ATOM     63  C   UNL A   1      40.084  35.187  37.792  1.00  0.00     0.040 A 
ATOM     64  F   UNL A   1      39.296  33.102  37.061  1.00  0.00    -0.206 F 
ATOM     65  C   UNL A   1      40.877  36.317  37.601  1.00  0.00     0.006 A 
ENDBRANCH  44  58
BRANCH  45  66
ATOM     66  C   UNL A   1      40.401  27.504  28.336  1.00  0.00     0.057 A 
ATOM     67  C   UNL A   1      41.136  27.720  27.167  1.00  0.00     0.134 A 
ATOM     68  C   UNL A   1      39.666  26.316  28.429  1.00  0.00     0.134 A 
ATOM     69  F   UNL A   1      41.847  28.847  27.014  1.00  0.00    -0.206 F 
ATOM     70  C   UNL A   1      41.135  26.794  26.123  1.00  0.00     0.040 A 
ATOM     71  C   UNL A   1      39.673  25.371  27.403  1.00  0.00     0.040 A 
ATOM     72  F   UNL A   1      38.950  26.047  29.531  1.00  0.00    -0.206 F 
ATOM     73  C   UNL A   1      40.408  25.611  26.243  1.00  0.00     0.006 A 
ENDBRANCH  45  66
BRANCH  57  74
ATOM     74  C   UNL A   1      44.526  28.347  33.886  1.00  0.00     0.057 A 
ATOM     75  C   UNL A   1      44.365  27.267  34.763  1.00  0.00     0.134 A 
ATOM     76  C   UNL A   1      45.831  28.666  33.487  1.00  0.00     0.134 A 
ATOM     77  F   UNL A   1      43.143  26.919  35.195  1.00  0.00    -0.206 F 
ATOM     78  C   UNL A   1      45.460  26.551  35.247  1.00  0.00     0.040 A 
ATOM     79  C   UNL A   1      46.932  27.940  33.944  1.00  0.00     0.040 A 
ATOM     80  F   UNL A   1      46.055  29.685  32.643  1.00  0.00    -0.206 F 
ATOM     81  C   UNL A   1      46.748  26.883  34.833  1.00  0.00     0.006 A 
ENDBRANCH  57  74
ENDBRANCH  31  32
ENDBRANCH  23  26
ENDBRANCH  21  22
ENDBRANCH  20  21
ENDBRANCH  19  20
ENDBRANCH  18  19
ENDBRANCH   1  18
TORSDOF 18
ENDMDL
MODEL 3
REMARK VINA RESULT:      -8.3      4.322      9.766
REMARK SMILES CCCCCC[C@H]1OCC[C@H]1C(=O)NCCCCCCNC(=O)c1ccc(-c2c3nc(c(-c4c(F)cccc4F)c4ccc([nH]4)c(-c4c(F)cccc4F)c4nc(c(-c5c(F)cccc5F)c5ccc2[nH]5)C=C4)C=C3)cc1
REMARK SMILES IDX 16 1 15 2 14 3 12 4 13 5 11 7 7 8 8 9 9 10 10 11 6 12 5 13
REMARK SMILES IDX 4 14 3 15 2 16 1 17 17 18 18 19 19 20 20 21 21 22 22 23
REMARK SMILES IDX 23 25 24 26 25 27 77 28 26 29 76 30 27 31 28 32 29 33 70 34
REMARK SMILES IDX 30 35 75 36 69 37 71 38 31 39 74 40 68 41 67 42 32 44 58 45
REMARK SMILES IDX 41 46 57 47 42 48 45 49 56 50 72 51 43 52 44 53 55 55 73 56
REMARK SMILES IDX 46 57 33 58 34 59 39 60 35 61 36 62 38 63 40 64 37 65 59 66
REMARK SMILES IDX 60 67 65 68 61 69 62 70 64 71 66 72 63 73 47 74 48 75 53 76
REMARK SMILES IDX 49 77 50 78 52 79 54 80 51 81
REMARK H PARENT 14 6 21 24 71 43 45 54
REMARK Flexibility Score: inf
ROOT
ATOM      1  C   UNL A   1      33.671  29.495  26.916  1.00  0.00     0.021 C 
ENDROOT
BRANCH   1   2
ATOM      2  C   UNL A   1      33.983  28.264  26.065  1.00  0.00     0.116 C 
BRANCH   2   3
ATOM      3  N   UNL A   1      34.188  28.600  24.673  1.00  0.00    -0.356 N 
ATOM      4  C   UNL A   1      33.649  28.104  23.531  1.00  0.00     0.225 C 
ATOM      5  O   UNL A   1      34.077  28.587  22.475  1.00  0.00    -0.275 OA
ATOM      6  H   UNL A   1      34.839  29.323  24.528  1.00  0.00     0.163 HD
BRANCH   4   7
ATOM      7  C   UNL A   1      32.533  27.062  23.468  1.00  0.00     0.109 C 
ATOM      8  C   UNL A   1      31.138  27.445  22.988  1.00  0.00     0.130 C 
ATOM      9  O   UNL A   1      31.034  27.005  21.626  1.00  0.00    -0.377 OA
ATOM     10  C   UNL A   1      31.982  25.957  21.399  1.00  0.00     0.161 C 
ATOM     11  C   UNL A   1      32.900  25.876  22.600  1.00  0.00     0.044 C 
BRANCH   8  12
ATOM     12  C   UNL A   1      30.711  28.909  23.190  1.00  0.00     0.033 C 
BRANCH  12  13
ATOM     13  C   UNL A   1      29.201  29.164  23.183  1.00  0.00     0.003 C 
BRANCH  13  14
ATOM     14  C   UNL A   1      28.785  30.615  23.420  1.00  0.00     0.000 C 
BRANCH  14  15
ATOM     15  C   UNL A   1      28.038  31.271  22.257  1.00  0.00    -0.000 C 
BRANCH  15  16
ATOM     16  C   UNL A   1      28.376  32.743  21.999  1.00  0.00    -0.003 C 
ATOM     17  C   UNL A   1      29.154  33.398  23.129  1.00  0.00     0.004 C 
ENDBRANCH  15  16
ENDBRANCH  14  15
ENDBRANCH  13  14
ENDBRANCH  12  13
ENDBRANCH   8  12
ENDBRANCH   4   7
ENDBRANCH   2   3
ENDBRANCH   1   2
BRANCH   1  18
ATOM     18  C   UNL A   1      32.182  29.787  27.109  1.00  0.00     0.002 C 
BRANCH  18  19
ATOM     19  C   UNL A   1      31.572  30.777  26.113  1.00  0.00     0.002 C 
BRANCH  19  20
ATOM     20  C   UNL A   1      31.399  32.212  26.621  1.00  0.00     0.021 C 
BRANCH  20  21
ATOM     21  C   UNL A   1      32.670  32.885  27.133  1.00  0.00     0.116 C 
BRANCH  21  22
ATOM     22  N   UNL A   1      32.428  34.231  27.624  1.00  0.00    -0.352 N 
ATOM     23  C   UNL A   1      33.000  34.905  28.669  1.00  0.00     0.251 C 
ATOM     24  H   UNL A   1      31.746  34.737  27.126  1.00  0.00     0.163 HD
ATOM     25  O   UNL A   1      32.531  35.986  29.027  1.00  0.00    -0.269 OA
BRANCH  23  26
ATOM     26  C   UNL A   1      34.163  34.341  29.387  1.00  0.00     0.039 A 
ATOM     27  C   UNL A   1      33.930  33.586  30.539  1.00  0.00     0.014 A 
ATOM     28  C   UNL A   1      35.472  34.576  28.956  1.00  0.00     0.014 A 
ATOM     29  C   UNL A   1      35.006  33.022  31.228  1.00  0.00     0.010 A 
ATOM     30  C   UNL A   1      36.539  33.955  29.603  1.00  0.00     0.010 A 
ATOM     31  C   UNL A   1      36.316  33.177  30.748  1.00  0.00    -0.014 A 
BRANCH  31  32
ATOM     32  C   UNL A   1      37.455  32.513  31.432  1.00  0.00     0.031 A 
ATOM     33  C   UNL A   1      38.161  31.350  30.795  1.00  0.00     0.074 A 
ATOM     34  C   UNL A   1      37.820  32.930  32.659  1.00  0.00     0.049 A 
ATOM     35  N   UNL A   1      39.165  30.645  31.249  1.00  0.00    -0.248 NA
ATOM     36  C   UNL A   1      37.654  30.904  29.489  1.00  0.00     0.031 C 
ATOM     37  C   UNL A   1      37.170  34.003  33.413  1.00  0.00     0.029 A 
ATOM     38  N   UNL A   1      38.821  32.497  33.491  1.00  0.00    -0.354 N 
ATOM     39  C   UNL A   1      39.406  29.668  30.291  1.00  0.00     0.074 A 
ATOM     40  C   UNL A   1      38.404  29.836  29.261  1.00  0.00     0.031 C 
ATOM     41  C   UNL A   1      37.798  34.155  34.590  1.00  0.00     0.029 A 
ATOM     42  C   UNL A   1      38.876  33.176  34.683  1.00  0.00     0.049 A 
ATOM     43  H   UNL A   1      39.439  31.768  33.255  1.00  0.00     0.167 HD
ATOM     44  C   UNL A   1      40.386  28.734  30.260  1.00  0.00     0.037 A 
ATOM     45  C   UNL A   1      39.702  33.027  35.735  1.00  0.00     0.037 A 
ATOM     46  C   UNL A   1      41.388  28.574  31.284  1.00  0.00     0.049 A 
ATOM     47  C   UNL A   1      40.793  31.997  35.675  1.00  0.00     0.074 A 
ATOM     48  C   UNL A   1      42.463  27.703  31.314  1.00  0.00     0.029 A 
ATOM     49  N   UNL A   1      41.429  29.299  32.466  1.00  0.00    -0.354 N 
ATOM     50  N   UNL A   1      41.064  31.138  34.722  1.00  0.00    -0.248 NA
ATOM     51  C   UNL A   1      41.700  31.926  36.827  1.00  0.00     0.031 C 
ATOM     52  C   UNL A   1      43.127  27.868  32.534  1.00  0.00     0.029 A 
ATOM     53  C   UNL A   1      42.496  28.877  33.245  1.00  0.00     0.049 A 
ATOM     54  H   UNL A   1      40.794  30.009  32.716  1.00  0.00     0.167 HD
ATOM     55  C   UNL A   1      42.179  30.431  35.153  1.00  0.00     0.074 A 
ATOM     56  C   UNL A   1      42.547  30.981  36.443  1.00  0.00     0.031 C 
ATOM     57  C   UNL A   1      42.838  29.418  34.537  1.00  0.00     0.037 A 
BRANCH  44  58
ATOM     58  C   UNL A   1      40.412  27.809  29.076  1.00  0.00     0.057 A 
ATOM     59  C   UNL A   1      41.189  28.082  27.941  1.00  0.00     0.134 A 
ATOM     60  C   UNL A   1      39.655  26.631  29.069  1.00  0.00     0.134 A 
ATOM     61  F   UNL A   1      41.931  29.199  27.878  1.00  0.00    -0.206 F 
ATOM     62  C   UNL A   1      41.178  27.241  26.827  1.00  0.00     0.040 A 
ATOM     63  C   UNL A   1      39.659  25.767  27.971  1.00  0.00     0.040 A 
ATOM     64  F   UNL A   1      38.894  26.302  30.123  1.00  0.00    -0.206 F 
ATOM     65  C   UNL A   1      40.413  26.077  26.842  1.00  0.00     0.006 A 
ENDBRANCH  44  58
BRANCH  45  66
ATOM     66  C   UNL A   1      39.534  33.899  36.923  1.00  0.00     0.057 A 
ATOM     67  C   UNL A   1      38.790  33.480  38.030  1.00  0.00     0.134 A 
ATOM     68  C   UNL A   1      40.145  35.157  36.992  1.00  0.00     0.134 A 
ATOM     69  F   UNL A   1      38.169  32.291  38.016  1.00  0.00    -0.206 F 
ATOM     70  C   UNL A   1      38.651  34.284  39.162  1.00  0.00     0.040 A 
ATOM     71  C   UNL A   1      40.034  35.961  38.126  1.00  0.00     0.040 A 
ATOM     72  F   UNL A   1      40.881  35.609  35.966  1.00  0.00    -0.206 F 
ATOM     73  C   UNL A   1      39.281  35.526  39.216  1.00  0.00     0.006 A 
ENDBRANCH  45  66
BRANCH  57  74
ATOM     74  C   UNL A   1      44.025  28.843  35.254  1.00  0.00     0.057 A 
ATOM     75  C   UNL A   1      43.890  27.818  36.199  1.00  0.00     0.134 A 
ATOM     76  C   UNL A   1      45.319  29.308  34.985  1.00  0.00     0.134 A 
ATOM     77  F   UNL A   1      42.677  27.338  36.513  1.00  0.00    -0.206 F 
ATOM     78  C   UNL A   1      44.996  27.294  36.870  1.00  0.00     0.040 A 
ATOM     79  C   UNL A   1      46.435  28.773  35.630  1.00  0.00     0.040 A 
ATOM     80  F   UNL A   1      45.519  30.283  34.085  1.00  0.00    -0.206 F 
ATOM     81  C   UNL A   1      46.274  27.769  36.582  1.00  0.00     0.006 A 
ENDBRANCH  57  74
ENDBRANCH  31  32
ENDBRANCH  23  26
ENDBRANCH  21  22
ENDBRANCH  20  21
ENDBRANCH  19  20
ENDBRANCH  18  19
ENDBRANCH   1  18
TORSDOF 18
ENDMDL
