MODEL 1
REMARK VINA RESULT:     -11.3      0.000      0.000
REMARK SMILES Cc1ccc(C(=O)N2CCC(CC(=O)NCCCCCCNC(=O)c3ccc(-c4c5nc(c(-c6c(F)cccc6F)c6ccc([nH]6)c(-c6c(F)cccc6F)c6nc(c(-c7c(F)cccc7F)c7ccc4[nH]7)C=C6)C=C5)cc3)CC2)cn1
REMARK SMILES IDX 18 1 17 2 16 3 15 4 13 5 14 6 12 8 11 9 6 10 7 11 8 12 9 13
REMARK SMILES IDX 80 14 10 15 79 16 5 17 1 18 2 19 3 20 82 21 4 22 81 23 19 24
REMARK SMILES IDX 20 25 21 26 22 27 23 28 24 30 25 31 26 32 78 33 27 34 77 35
REMARK SMILES IDX 28 36 29 37 30 38 71 39 31 40 76 41 70 42 72 43 32 44 75 45
REMARK SMILES IDX 69 46 68 47 33 49 59 50 42 51 58 52 43 53 46 54 57 55 73 56
REMARK SMILES IDX 44 57 45 58 56 60 74 61 47 62 34 63 35 64 40 65 36 66 37 67
REMARK SMILES IDX 39 68 41 69 38 70 60 71 61 72 66 73 62 74 63 75 65 76 67 77
REMARK SMILES IDX 64 78 48 79 49 80 54 81 50 82 51 83 53 84 55 85 52 86
REMARK H PARENT 15 7 22 29 72 48 46 59
REMARK Flexibility Score: inf
ROOT
ATOM      1  C   UNL A   1      32.092  26.610  26.538  1.00  0.00     0.002 C 
ENDROOT
BRANCH   1   2
ATOM      2  C   UNL A   1      30.797  26.931  25.795  1.00  0.00     0.021 C 
BRANCH   2   3
ATOM      3  C   UNL A   1      29.953  25.709  25.407  1.00  0.00     0.116 C 
BRANCH   3   4
ATOM      4  N   UNL A   1      29.772  24.821  26.545  1.00  0.00    -0.356 N 
ATOM      5  C   UNL A   1      30.085  23.503  26.706  1.00  0.00     0.220 C 
ATOM      6  O   UNL A   1      29.721  22.941  27.741  1.00  0.00    -0.275 OA
ATOM      7  H   UNL A   1      29.355  25.242  27.332  1.00  0.00     0.163 HD
BRANCH   5   8
ATOM      8  C   UNL A   1      30.859  22.740  25.641  1.00  0.00     0.103 C 
BRANCH   8   9
ATOM      9  C   UNL A   1      32.246  22.246  26.102  1.00  0.00     0.002 C 
ATOM     10  C   UNL A   1      36.051  23.469  25.521  1.00  0.00     0.255 C 
ATOM     11  O   UNL A   1      35.751  24.328  24.698  1.00  0.00    -0.269 OA
ATOM     12  N   UNL A   1      35.130  22.608  26.085  1.00  0.00    -0.339 N 
ATOM     13  C   UNL A   1      34.561  21.567  25.264  1.00  0.00     0.120 C 
ATOM     14  C   UNL A   1      34.394  22.970  27.283  1.00  0.00     0.120 C 
ATOM     15  C   UNL A   1      33.128  21.889  24.904  1.00  0.00     0.026 C 
ATOM     16  C   UNL A   1      32.937  23.316  26.972  1.00  0.00     0.026 C 
BRANCH  10  17
ATOM     17  C   UNL A   1      37.463  23.188  25.880  1.00  0.00     0.058 A 
ATOM     18  C   UNL A   1      41.411  22.105  27.030  1.00  0.00     0.066 C 
ATOM     19  C   UNL A   1      40.029  22.515  26.619  1.00  0.00     0.037 A 
ATOM     20  C   UNL A   1      39.562  23.794  26.900  1.00  0.00     0.024 A 
ATOM     21  N   UNL A   1      39.272  21.585  25.988  1.00  0.00    -0.261 NA
ATOM     22  C   UNL A   1      38.266  24.132  26.525  1.00  0.00     0.017 A 
ATOM     23  C   UNL A   1      38.008  21.937  25.634  1.00  0.00     0.125 A 
ENDBRANCH  10  17
ENDBRANCH   8   9
ENDBRANCH   5   8
ENDBRANCH   3   4
ENDBRANCH   2   3
ENDBRANCH   1   2
BRANCH   1  24
ATOM     24  C   UNL A   1      33.368  26.807  25.721  1.00  0.00     0.002 C 
BRANCH  24  25
ATOM     25  C   UNL A   1      33.243  27.745  24.518  1.00  0.00     0.021 C 
BRANCH  25  26
ATOM     26  C   UNL A   1      33.899  29.114  24.691  1.00  0.00     0.116 C 
BRANCH  26  27
ATOM     27  N   UNL A   1      33.015  30.063  25.348  1.00  0.00    -0.352 N 
ATOM     28  C   UNL A   1      33.113  30.637  26.593  1.00  0.00     0.251 C 
ATOM     29  H   UNL A   1      32.229  30.335  24.822  1.00  0.00     0.163 HD
ATOM     30  O   UNL A   1      32.166  31.236  27.073  1.00  0.00    -0.269 OA
BRANCH  28  31
ATOM     31  C   UNL A   1      34.377  30.519  27.354  1.00  0.00     0.039 A 
ATOM     32  C   UNL A   1      35.140  31.669  27.578  1.00  0.00     0.014 A 
ATOM     33  C   UNL A   1      34.824  29.277  27.812  1.00  0.00     0.014 A 
ATOM     34  C   UNL A   1      36.330  31.577  28.305  1.00  0.00     0.010 A 
ATOM     35  C   UNL A   1      35.971  29.199  28.596  1.00  0.00     0.010 A 
ATOM     36  C   UNL A   1      36.743  30.345  28.838  1.00  0.00    -0.014 A 
BRANCH  36  37
ATOM     37  C   UNL A   1      37.996  30.229  29.626  1.00  0.00     0.031 A 
ATOM     38  C   UNL A   1      39.177  29.495  29.053  1.00  0.00     0.074 A 
ATOM     39  C   UNL A   1      38.055  30.738  30.872  1.00  0.00     0.049 A 
ATOM     40  N   UNL A   1      40.332  29.223  29.606  1.00  0.00    -0.248 NA
ATOM     41  C   UNL A   1      39.032  28.976  27.683  1.00  0.00     0.031 C 
ATOM     42  C   UNL A   1      36.966  31.440  31.553  1.00  0.00     0.029 A 
ATOM     43  N   UNL A   1      39.073  30.733  31.792  1.00  0.00    -0.354 N 
ATOM     44  C   UNL A   1      41.042  28.494  28.661  1.00  0.00     0.074 A 
ATOM     45  C   UNL A   1      40.170  28.317  27.520  1.00  0.00     0.031 C 
ATOM     46  C   UNL A   1      37.381  31.818  32.774  1.00  0.00     0.029 A 
ATOM     47  C   UNL A   1      38.750  31.351  32.976  1.00  0.00     0.049 A 
ATOM     48  H   UNL A   1      39.953  30.325  31.620  1.00  0.00     0.167 HD
ATOM     49  C   UNL A   1      42.314  28.035  28.724  1.00  0.00     0.037 A 
ATOM     50  C   UNL A   1      39.475  31.516  34.098  1.00  0.00     0.037 A 
ATOM     51  C   UNL A   1      43.188  28.231  29.852  1.00  0.00     0.049 A 
ATOM     52  C   UNL A   1      40.880  30.980  34.150  1.00  0.00     0.074 A 
ATOM     53  C   UNL A   1      44.507  27.840  29.999  1.00  0.00     0.029 A 
ATOM     54  N   UNL A   1      42.828  28.876  31.025  1.00  0.00    -0.354 N 
ATOM     55  N   UNL A   1      41.557  30.342  33.227  1.00  0.00    -0.248 NA
ATOM     56  C   UNL A   1      41.624  31.195  35.400  1.00  0.00     0.031 C 
ATOM     57  C   UNL A   1      44.934  28.215  31.277  1.00  0.00     0.029 A 
ATOM     58  C   UNL A   1      43.896  28.883  31.907  1.00  0.00     0.049 A 
ATOM     59  H   UNL A   1      41.943  29.270  31.205  1.00  0.00     0.167 HD
ATOM     60  C   UNL A   1      42.815  30.112  33.769  1.00  0.00     0.074 A 
ATOM     61  C   UNL A   1      42.811  30.689  35.097  1.00  0.00     0.031 C 
ATOM     62  C   UNL A   1      43.880  29.481  33.216  1.00  0.00     0.037 A 
BRANCH  49  63
ATOM     63  C   UNL A   1      42.842  27.287  27.535  1.00  0.00     0.057 A 
ATOM     64  C   UNL A   1      43.443  27.948  26.455  1.00  0.00     0.134 A 
ATOM     65  C   UNL A   1      42.784  25.888  27.482  1.00  0.00     0.134 A 
ATOM     66  F   UNL A   1      43.519  29.288  26.437  1.00  0.00    -0.206 F 
ATOM     67  C   UNL A   1      43.944  27.249  25.356  1.00  0.00     0.040 A 
ATOM     68  C   UNL A   1      43.308  25.176  26.402  1.00  0.00     0.040 A 
ATOM     69  F   UNL A   1      42.229  25.191  28.485  1.00  0.00    -0.206 F 
ATOM     70  C   UNL A   1      43.884  25.857  25.332  1.00  0.00     0.006 A 
ENDBRANCH  49  63
BRANCH  50  71
ATOM     71  C   UNL A   1      38.900  32.239  35.262  1.00  0.00     0.057 A 
ATOM     72  C   UNL A   1      38.242  31.549  36.287  1.00  0.00     0.134 A 
ATOM     73  C   UNL A   1      38.969  33.634  35.365  1.00  0.00     0.134 A 
ATOM     74  F   UNL A   1      38.128  30.214  36.235  1.00  0.00    -0.206 F 
ATOM     75  C   UNL A   1      37.649  32.219  37.357  1.00  0.00     0.040 A 
ATOM     76  C   UNL A   1      38.403  34.315  36.444  1.00  0.00     0.040 A 
ATOM     77  F   UNL A   1      39.592  34.354  34.422  1.00  0.00    -0.206 F 
ATOM     78  C   UNL A   1      37.731  33.607  37.440  1.00  0.00     0.006 A 
ENDBRANCH  50  71
BRANCH  62  79
ATOM     79  C   UNL A   1      45.144  29.430  34.023  1.00  0.00     0.057 A 
ATOM     80  C   UNL A   1      45.432  28.366  34.887  1.00  0.00     0.134 A 
ATOM     81  C   UNL A   1      46.103  30.443  33.904  1.00  0.00     0.134 A 
ATOM     82  F   UNL A   1      44.549  27.370  35.056  1.00  0.00    -0.206 F 
ATOM     83  C   UNL A   1      46.618  28.323  35.621  1.00  0.00     0.040 A 
ATOM     84  C   UNL A   1      47.305  30.399  34.611  1.00  0.00     0.040 A 
ATOM     85  F   UNL A   1      45.894  31.487  33.087  1.00  0.00    -0.206 F 
ATOM     86  C   UNL A   1      47.562  29.339  35.478  1.00  0.00     0.006 A 
ENDBRANCH  62  79
ENDBRANCH  36  37
ENDBRANCH  28  31
ENDBRANCH  26  27
ENDBRANCH  25  26
ENDBRANCH  24  25
ENDBRANCH   1  24
TORSDOF 15
ENDMDL
MODEL 2
REMARK VINA RESULT:     -11.1      3.424      7.949
REMARK SMILES Cc1ccc(C(=O)N2CCC(CC(=O)NCCCCCCNC(=O)c3ccc(-c4c5nc(c(-c6c(F)cccc6F)c6ccc([nH]6)c(-c6c(F)cccc6F)c6nc(c(-c7c(F)cccc7F)c7ccc4[nH]7)C=C6)C=C5)cc3)CC2)cn1
REMARK SMILES IDX 18 1 17 2 16 3 15 4 13 5 14 6 12 8 11 9 6 10 7 11 8 12 9 13
REMARK SMILES IDX 80 14 10 15 79 16 5 17 1 18 2 19 3 20 82 21 4 22 81 23 19 24
REMARK SMILES IDX 20 25 21 26 22 27 23 28 24 30 25 31 26 32 78 33 27 34 77 35
REMARK SMILES IDX 28 36 29 37 30 38 71 39 31 40 76 41 70 42 72 43 32 44 75 45
REMARK SMILES IDX 69 46 68 47 33 49 59 50 42 51 58 52 43 53 46 54 57 55 73 56
REMARK SMILES IDX 44 57 45 58 56 60 74 61 47 62 34 63 35 64 40 65 36 66 37 67
REMARK SMILES IDX 39 68 41 69 38 70 60 71 61 72 66 73 62 74 63 75 65 76 67 77
REMARK SMILES IDX 64 78 48 79 49 80 54 81 50 82 51 83 53 84 55 85 52 86
REMARK H PARENT 15 7 22 29 72 48 46 59
REMARK Flexibility Score: inf
ROOT
ATOM      1  C   UNL A   1      37.024  21.778  24.343  1.00  0.00     0.002 C 
ENDROOT
BRANCH   1   2
ATOM      2  C   UNL A   1      37.469  22.830  25.357  1.00  0.00     0.021 C 
BRANCH   2   3
ATOM      3  C   UNL A   1      36.333  23.659  25.972  1.00  0.00     0.116 C 
BRANCH   3   4
ATOM      4  N   UNL A   1      35.558  22.861  26.911  1.00  0.00    -0.356 N 
ATOM      5  C   UNL A   1      34.233  22.541  26.927  1.00  0.00     0.220 C 
ATOM      6  O   UNL A   1      33.792  21.937  27.907  1.00  0.00    -0.275 OA
ATOM      7  H   UNL A   1      36.079  22.488  27.659  1.00  0.00     0.163 HD
BRANCH   5   8
ATOM      8  C   UNL A   1      33.316  22.919  25.773  1.00  0.00     0.103 C 
BRANCH   8   9
ATOM      9  C   UNL A   1      32.567  24.253  25.973  1.00  0.00     0.002 C 
ATOM     10  C   UNL A   1      30.720  26.885  23.530  1.00  0.00     0.255 C 
ATOM     11  O   UNL A   1      31.083  26.330  22.498  1.00  0.00    -0.269 OA
ATOM     12  N   UNL A   1      31.108  26.470  24.789  1.00  0.00    -0.339 N 
ATOM     13  C   UNL A   1      32.473  26.685  25.200  1.00  0.00     0.120 C 
ATOM     14  C   UNL A   1      30.360  25.457  25.512  1.00  0.00     0.120 C 
ATOM     15  C   UNL A   1      33.246  25.385  25.201  1.00  0.00     0.026 C 
ATOM     16  C   UNL A   1      31.095  24.115  25.533  1.00  0.00     0.026 C 
BRANCH  10  17
ATOM     17  C   UNL A   1      29.938  28.147  23.507  1.00  0.00     0.058 A 
ATOM     18  C   UNL A   1      27.590  31.674  23.154  1.00  0.00     0.066 C 
ATOM     19  C   UNL A   1      28.432  30.442  23.303  1.00  0.00     0.037 A 
ATOM     20  C   UNL A   1      29.745  30.537  23.747  1.00  0.00     0.024 A 
ATOM     21  N   UNL A   1      27.858  29.260  22.971  1.00  0.00    -0.261 NA
ATOM     22  C   UNL A   1      30.504  29.376  23.851  1.00  0.00     0.017 A 
ATOM     23  C   UNL A   1      28.620  28.139  23.077  1.00  0.00     0.125 A 
ENDBRANCH  10  17
ENDBRANCH   8   9
ENDBRANCH   5   8
ENDBRANCH   3   4
ENDBRANCH   2   3
ENDBRANCH   1   2
BRANCH   1  24
ATOM     24  C   UNL A   1      36.951  20.351  24.886  1.00  0.00     0.002 C 
BRANCH  24  25
ATOM     25  C   UNL A   1      38.261  19.559  24.837  1.00  0.00     0.021 C 
BRANCH  25  26
ATOM     26  C   UNL A   1      39.222  19.824  25.994  1.00  0.00     0.116 C 
BRANCH  26  27
ATOM     27  N   UNL A   1      40.459  19.073  25.858  1.00  0.00    -0.352 N 
ATOM     28  C   UNL A   1      41.761  19.504  25.946  1.00  0.00     0.251 C 
ATOM     29  H   UNL A   1      40.348  18.112  25.674  1.00  0.00     0.163 HD
ATOM     30  O   UNL A   1      42.676  18.784  25.581  1.00  0.00    -0.269 OA
BRANCH  28  31
ATOM     31  C   UNL A   1      42.050  20.853  26.484  1.00  0.00     0.039 A 
ATOM     32  C   UNL A   1      42.392  21.875  25.595  1.00  0.00     0.014 A 
ATOM     33  C   UNL A   1      42.018  21.097  27.859  1.00  0.00     0.014 A 
ATOM     34  C   UNL A   1      42.657  23.157  26.085  1.00  0.00     0.010 A 
ATOM     35  C   UNL A   1      42.212  22.388  28.339  1.00  0.00     0.010 A 
ATOM     36  C   UNL A   1      42.547  23.428  27.458  1.00  0.00    -0.014 A 
BRANCH  36  37
ATOM     37  C   UNL A   1      42.809  24.786  27.998  1.00  0.00     0.031 A 
ATOM     38  C   UNL A   1      44.203  25.175  28.407  1.00  0.00     0.074 A 
ATOM     39  C   UNL A   1      41.789  25.650  28.166  1.00  0.00     0.049 A 
ATOM     40  N   UNL A   1      44.625  26.282  28.964  1.00  0.00    -0.248 NA
ATOM     41  C   UNL A   1      45.260  24.176  28.184  1.00  0.00     0.031 C 
ATOM     42  C   UNL A   1      40.387  25.380  27.841  1.00  0.00     0.029 A 
ATOM     43  N   UNL A   1      41.772  26.929  28.663  1.00  0.00    -0.354 N 
ATOM     44  C   UNL A   1      45.988  26.107  29.167  1.00  0.00     0.074 A 
ATOM     45  C   UNL A   1      46.313  24.768  28.727  1.00  0.00     0.031 C 
ATOM     46  C   UNL A   1      39.651  26.467  28.126  1.00  0.00     0.029 A 
ATOM     47  C   UNL A   1      40.521  27.495  28.690  1.00  0.00     0.049 A 
ATOM     48  H   UNL A   1      42.583  27.396  28.972  1.00  0.00     0.167 HD
ATOM     49  C   UNL A   1      46.893  26.990  29.652  1.00  0.00     0.037 A 
ATOM     50  C   UNL A   1      40.122  28.705  29.125  1.00  0.00     0.037 A 
ATOM     51  C   UNL A   1      46.570  28.330  30.070  1.00  0.00     0.049 A 
ATOM     52  C   UNL A   1      41.145  29.661  29.677  1.00  0.00     0.074 A 
ATOM     53  C   UNL A   1      47.421  29.315  30.539  1.00  0.00     0.029 A 
ATOM     54  N   UNL A   1      45.293  28.871  30.067  1.00  0.00    -0.354 N 
ATOM     55  N   UNL A   1      42.439  29.501  29.811  1.00  0.00    -0.248 NA
ATOM     56  C   UNL A   1      40.650  30.968  30.133  1.00  0.00     0.031 C 
ATOM     57  C   UNL A   1      46.653  30.441  30.855  1.00  0.00     0.029 A 
ATOM     58  C   UNL A   1      45.331  30.173  30.536  1.00  0.00     0.049 A 
ATOM     59  H   UNL A   1      44.480  28.398  29.773  1.00  0.00     0.167 HD
ATOM     60  C   UNL A   1      42.917  30.698  30.329  1.00  0.00     0.074 A 
ATOM     61  C   UNL A   1      41.776  31.577  30.476  1.00  0.00     0.031 C 
ATOM     62  C   UNL A   1      44.188  31.040  30.654  1.00  0.00     0.037 A 
BRANCH  49  63
ATOM     63  C   UNL A   1      48.321  26.538  29.746  1.00  0.00     0.057 A 
ATOM     64  C   UNL A   1      49.248  26.813  28.731  1.00  0.00     0.134 A 
ATOM     65  C   UNL A   1      48.787  25.856  30.876  1.00  0.00     0.134 A 
ATOM     66  F   UNL A   1      48.865  27.453  27.615  1.00  0.00    -0.206 F 
ATOM     67  C   UNL A   1      50.579  26.403  28.826  1.00  0.00     0.040 A 
ATOM     68  C   UNL A   1      50.121  25.466  30.996  1.00  0.00     0.040 A 
ATOM     69  F   UNL A   1      47.954  25.567  31.888  1.00  0.00    -0.206 F 
ATOM     70  C   UNL A   1      51.021  25.733  29.965  1.00  0.00     0.006 A 
ENDBRANCH  49  63
BRANCH  50  71
ATOM     71  C   UNL A   1      38.692  29.098  29.039  1.00  0.00     0.057 A 
ATOM     72  C   UNL A   1      38.148  29.584  27.844  1.00  0.00     0.134 A 
ATOM     73  C   UNL A   1      37.843  29.026  30.151  1.00  0.00     0.134 A 
ATOM     74  F   UNL A   1      38.916  29.694  26.750  1.00  0.00    -0.206 F 
ATOM     75  C   UNL A   1      36.822  30.010  27.763  1.00  0.00     0.040 A 
ATOM     76  C   UNL A   1      36.507  29.424  30.076  1.00  0.00     0.040 A 
ATOM     77  F   UNL A   1      38.299  28.563  31.323  1.00  0.00    -0.206 F 
ATOM     78  C   UNL A   1      35.996  29.927  28.881  1.00  0.00     0.006 A 
ENDBRANCH  50  71
BRANCH  62  79
ATOM     79  C   UNL A   1      44.420  32.438  31.147  1.00  0.00     0.057 A 
ATOM     80  C   UNL A   1      44.648  33.507  30.272  1.00  0.00     0.134 A 
ATOM     81  C   UNL A   1      44.375  32.723  32.518  1.00  0.00     0.134 A 
ATOM     82  F   UNL A   1      44.715  33.299  28.948  1.00  0.00    -0.206 F 
ATOM     83  C   UNL A   1      44.848  34.805  30.743  1.00  0.00     0.040 A 
ATOM     84  C   UNL A   1      44.546  34.021  33.001  1.00  0.00     0.040 A 
ATOM     85  F   UNL A   1      44.152  31.746  33.411  1.00  0.00    -0.206 F 
ATOM     86  C   UNL A   1      44.790  35.065  32.112  1.00  0.00     0.006 A 
ENDBRANCH  62  79
ENDBRANCH  36  37
ENDBRANCH  28  31
ENDBRANCH  26  27
ENDBRANCH  25  26
ENDBRANCH  24  25
ENDBRANCH   1  24
TORSDOF 15
ENDMDL
MODEL 3
REMARK VINA RESULT:     -11.0      3.800      9.500
REMARK SMILES Cc1ccc(C(=O)N2CCC(CC(=O)NCCCCCCNC(=O)c3ccc(-c4c5nc(c(-c6c(F)cccc6F)c6ccc([nH]6)c(-c6c(F)cccc6F)c6nc(c(-c7c(F)cccc7F)c7ccc4[nH]7)C=C6)C=C5)cc3)CC2)cn1
REMARK SMILES IDX 18 1 17 2 16 3 15 4 13 5 14 6 12 8 11 9 6 10 7 11 8 12 9 13
REMARK SMILES IDX 80 14 10 15 79 16 5 17 1 18 2 19 3 20 82 21 4 22 81 23 19 24
REMARK SMILES IDX 20 25 21 26 22 27 23 28 24 30 25 31 26 32 78 33 27 34 77 35
REMARK SMILES IDX 28 36 29 37 30 38 71 39 31 40 76 41 70 42 72 43 32 44 75 45
REMARK SMILES IDX 69 46 68 47 33 49 59 50 42 51 58 52 43 53 46 54 57 55 73 56
REMARK SMILES IDX 44 57 45 58 56 60 74 61 47 62 34 63 35 64 40 65 36 66 37 67
REMARK SMILES IDX 39 68 41 69 38 70 60 71 61 72 66 73 62 74 63 75 65 76 67 77
REMARK SMILES IDX 64 78 48 79 49 80 54 81 50 82 51 83 53 84 55 85 52 86
REMARK H PARENT 15 7 22 29 72 48 46 59
REMARK Flexibility Score: inf
ROOT
ATOM      1  C   UNL A   1      37.029  21.774  24.329  1.00  0.00     0.002 C 
ENDROOT
BRANCH   1   2
ATOM      2  C   UNL A   1      37.382  22.907  25.291  1.00  0.00     0.021 C 
BRANCH   2   3
ATOM      3  C   UNL A   1      36.187  23.732  25.787  1.00  0.00     0.116 C 
BRANCH   3   4
ATOM      4  N   UNL A   1      35.485  23.036  26.855  1.00  0.00    -0.356 N 
ATOM      5  C   UNL A   1      34.165  22.722  26.997  1.00  0.00     0.220 C 
ATOM      6  O   UNL A   1      33.797  22.222  28.062  1.00  0.00    -0.275 OA
ATOM      7  H   UNL A   1      36.058  22.742  27.600  1.00  0.00     0.163 HD
BRANCH   5   8
ATOM      8  C   UNL A   1      33.168  22.980  25.877  1.00  0.00     0.103 C 
BRANCH   8   9
ATOM      9  C   UNL A   1      32.406  24.315  26.007  1.00  0.00     0.002 C 
ATOM     10  C   UNL A   1      30.554  26.809  23.426  1.00  0.00     0.255 C 
ATOM     11  O   UNL A   1      30.930  26.208  22.425  1.00  0.00    -0.269 OA
ATOM     12  N   UNL A   1      30.936  26.459  24.706  1.00  0.00    -0.339 N 
ATOM     13  C   UNL A   1      32.296  26.706  25.116  1.00  0.00     0.120 C 
ATOM     14  C   UNL A   1      30.192  25.475  25.473  1.00  0.00     0.120 C 
ATOM     15  C   UNL A   1      33.080  25.415  25.185  1.00  0.00     0.026 C 
ATOM     16  C   UNL A   1      30.938  24.143  25.564  1.00  0.00     0.026 C 
BRANCH  10  17
ATOM     17  C   UNL A   1      29.761  28.060  23.336  1.00  0.00     0.058 A 
ATOM     18  C   UNL A   1      27.641  31.746  23.339  1.00  0.00     0.066 C 
ATOM     19  C   UNL A   1      28.369  30.436  23.317  1.00  0.00     0.037 A 
ATOM     20  C   UNL A   1      27.674  29.248  23.122  1.00  0.00     0.024 A 
ATOM     21  N   UNL A   1      29.711  30.473  23.509  1.00  0.00    -0.261 NA
ATOM     22  C   UNL A   1      28.379  28.049  23.131  1.00  0.00     0.017 A 
ATOM     23  C   UNL A   1      30.378  29.289  23.517  1.00  0.00     0.125 A 
ENDBRANCH  10  17
ENDBRANCH   8   9
ENDBRANCH   5   8
ENDBRANCH   3   4
ENDBRANCH   2   3
ENDBRANCH   1   2
BRANCH   1  24
ATOM     24  C   UNL A   1      36.843  20.407  24.986  1.00  0.00     0.002 C 
BRANCH  24  25
ATOM     25  C   UNL A   1      38.082  19.507  24.999  1.00  0.00     0.021 C 
BRANCH  25  26
ATOM     26  C   UNL A   1      39.157  19.897  26.011  1.00  0.00     0.116 C 
BRANCH  26  27
ATOM     27  N   UNL A   1      40.300  19.000  25.967  1.00  0.00    -0.352 N 
ATOM     28  C   UNL A   1      41.643  19.288  26.000  1.00  0.00     0.251 C 
ATOM     29  H   UNL A   1      40.078  18.043  25.905  1.00  0.00     0.163 HD
ATOM     30  O   UNL A   1      42.465  18.429  25.726  1.00  0.00    -0.269 OA
BRANCH  28  31
ATOM     31  C   UNL A   1      42.090  20.651  26.366  1.00  0.00     0.039 A 
ATOM     32  C   UNL A   1      42.228  20.976  27.718  1.00  0.00     0.014 A 
ATOM     33  C   UNL A   1      42.337  21.611  25.382  1.00  0.00     0.014 A 
ATOM     34  C   UNL A   1      42.660  22.254  28.080  1.00  0.00     0.010 A 
ATOM     35  C   UNL A   1      42.834  22.859  25.741  1.00  0.00     0.010 A 
ATOM     36  C   UNL A   1      42.988  23.198  27.094  1.00  0.00    -0.014 A 
BRANCH  36  37
ATOM     37  C   UNL A   1      43.463  24.557  27.458  1.00  0.00     0.031 A 
ATOM     38  C   UNL A   1      42.473  25.617  27.857  1.00  0.00     0.074 A 
ATOM     39  C   UNL A   1      44.775  24.852  27.380  1.00  0.00     0.049 A 
ATOM     40  N   UNL A   1      42.677  26.878  28.140  1.00  0.00    -0.248 NA
ATOM     41  C   UNL A   1      41.059  25.210  27.923  1.00  0.00     0.031 C 
ATOM     42  C   UNL A   1      45.830  23.923  26.972  1.00  0.00     0.029 A 
ATOM     43  N   UNL A   1      45.445  26.024  27.632  1.00  0.00    -0.354 N 
ATOM     44  C   UNL A   1      41.424  27.415  28.404  1.00  0.00     0.074 A 
ATOM     45  C   UNL A   1      40.458  26.359  28.194  1.00  0.00     0.031 C 
ATOM     46  C   UNL A   1      47.015  24.554  27.023  1.00  0.00     0.029 A 
ATOM     47  C   UNL A   1      46.801  25.939  27.429  1.00  0.00     0.049 A 
ATOM     48  H   UNL A   1      44.994  26.848  27.931  1.00  0.00     0.167 HD
ATOM     49  C   UNL A   1      41.106  28.666  28.812  1.00  0.00     0.037 A 
ATOM     50  C   UNL A   1      47.759  26.877  27.550  1.00  0.00     0.037 A 
ATOM     51  C   UNL A   1      42.071  29.710  29.041  1.00  0.00     0.049 A 
ATOM     52  C   UNL A   1      47.377  28.265  27.986  1.00  0.00     0.074 A 
ATOM     53  C   UNL A   1      41.855  31.001  29.492  1.00  0.00     0.029 A 
ATOM     54  N   UNL A   1      43.436  29.580  28.839  1.00  0.00    -0.354 N 
ATOM     55  N   UNL A   1      46.193  28.742  28.287  1.00  0.00    -0.248 NA
ATOM     56  C   UNL A   1      48.467  29.244  28.106  1.00  0.00     0.031 C 
ATOM     57  C   UNL A   1      43.085  31.663  29.526  1.00  0.00     0.029 A 
ATOM     58  C   UNL A   1      44.074  30.770  29.144  1.00  0.00     0.049 A 
ATOM     59  H   UNL A   1      43.885  28.762  28.524  1.00  0.00     0.167 HD
ATOM     60  C   UNL A   1      46.401  30.063  28.666  1.00  0.00     0.074 A 
ATOM     61  C   UNL A   1      47.825  30.307  28.568  1.00  0.00     0.031 C 
ATOM     62  C   UNL A   1      45.495  30.989  29.061  1.00  0.00     0.037 A 
BRANCH  49  63
ATOM     63  C   UNL A   1      39.655  28.972  29.046  1.00  0.00     0.057 A 
ATOM     64  C   UNL A   1      38.816  29.399  28.008  1.00  0.00     0.134 A 
ATOM     65  C   UNL A   1      39.079  28.802  30.311  1.00  0.00     0.134 A 
ATOM     66  F   UNL A   1      39.307  29.594  26.773  1.00  0.00    -0.206 F 
ATOM     67  C   UNL A   1      37.465  29.671  28.224  1.00  0.00     0.040 A 
ATOM     68  C   UNL A   1      37.723  29.043  30.534  1.00  0.00     0.040 A 
ATOM     69  F   UNL A   1      39.823  28.389  31.348  1.00  0.00    -0.206 F 
ATOM     70  C   UNL A   1      36.912  29.485  29.490  1.00  0.00     0.006 A 
ENDBRANCH  49  63
BRANCH  50  71
ATOM     71  C   UNL A   1      49.179  26.535  27.280  1.00  0.00     0.057 A 
ATOM     72  C   UNL A   1      50.059  26.227  28.325  1.00  0.00     0.134 A 
ATOM     73  C   UNL A   1      49.700  26.537  25.980  1.00  0.00     0.134 A 
ATOM     74  F   UNL A   1      49.623  26.226  29.593  1.00  0.00    -0.206 F 
ATOM     75  C   UNL A   1      51.407  25.959  28.092  1.00  0.00     0.040 A 
ATOM     76  C   UNL A   1      51.042  26.246  25.730  1.00  0.00     0.040 A 
ATOM     77  F   UNL A   1      48.910  26.818  24.934  1.00  0.00    -0.206 F 
ATOM     78  C   UNL A   1      51.902  25.965  26.790  1.00  0.00     0.006 A 
ENDBRANCH  50  71
BRANCH  62  79
ATOM     79  C   UNL A   1      46.019  32.334  29.470  1.00  0.00     0.057 A 
ATOM     80  C   UNL A   1      46.421  32.609  30.783  1.00  0.00     0.134 A 
ATOM     81  C   UNL A   1      46.160  33.358  28.524  1.00  0.00     0.134 A 
ATOM     82  F   UNL A   1      46.300  31.676  31.739  1.00  0.00    -0.206 F 
ATOM     83  C   UNL A   1      46.921  33.860  31.146  1.00  0.00     0.040 A 
ATOM     84  C   UNL A   1      46.684  34.604  28.868  1.00  0.00     0.040 A 
ATOM     85  F   UNL A   1      45.802  33.158  27.245  1.00  0.00    -0.206 F 
ATOM     86  C   UNL A   1      47.060  34.860  30.185  1.00  0.00     0.006 A 
ENDBRANCH  62  79
ENDBRANCH  36  37
ENDBRANCH  28  31
ENDBRANCH  26  27
ENDBRANCH  25  26
ENDBRANCH  24  25
ENDBRANCH   1  24
TORSDOF 15
ENDMDL
