MODEL 1
REMARK VINA RESULT:     -12.6      0.000      0.000
REMARK SMILES O=C(NCCCCCCNC(=O)[C@@H]1CC(=O)N(c2ccc(Cl)cc2C(=O)c2ccccc2)C1)c1ccc(-c2c3nc(c(-c4c(F)cccc4F)c4ccc([nH]4)c(-c4c(F)cccc4F)c4nc(c(-c5c(F)cccc5F)c5ccc2[nH]5)C=C4)C=C3)cc1
REMARK SMILES IDX 7 1 6 2 5 3 4 4 3 5 1 6 2 7 34 9 35 10 87 11 36 12 86 13
REMARK SMILES IDX 37 14 38 15 39 16 80 17 40 18 85 19 79 20 81 21 41 22 84 23
REMARK SMILES IDX 78 24 77 25 42 27 68 28 51 29 67 30 52 31 55 32 66 33 82 34
REMARK SMILES IDX 53 35 54 36 65 38 83 39 56 40 43 41 44 42 49 43 45 44 46 45
REMARK SMILES IDX 48 46 50 47 47 48 69 49 70 50 75 51 71 52 72 53 74 54 76 55
REMARK SMILES IDX 73 56 57 57 58 58 63 59 59 60 60 61 62 62 64 63 61 64 8 65
REMARK SMILES IDX 9 66 10 67 11 68 12 70 13 71 14 72 33 73 15 74 17 75 16 76
REMARK SMILES IDX 18 77 19 78 24 79 20 80 23 81 21 82 22 83 25 84 26 85 27 86
REMARK SMILES IDX 28 87 32 88 29 89 31 90 30 91
REMARK H PARENT 3 8 81 26 55 37 10 69
REMARK Flexibility Score: inf
ROOT
ATOM      1  C   UNL A   1      31.443  29.653  25.030  1.00  0.00     0.002 C 
ENDROOT
BRANCH   1   2
ATOM      2  C   UNL A   1      31.617  30.208  26.450  1.00  0.00     0.002 C 
BRANCH   2   3
ATOM      3  C   UNL A   1      31.443  31.718  26.600  1.00  0.00     0.021 C 
BRANCH   3   4
ATOM      4  C   UNL A   1      32.713  32.486  26.934  1.00  0.00     0.116 C 
BRANCH   4   5
ATOM      5  N   UNL A   1      32.459  33.821  27.441  1.00  0.00    -0.352 N 
ATOM      6  O   UNL A   1      32.696  35.569  28.857  1.00  0.00    -0.269 OA
ATOM      7  C   UNL A   1      33.101  34.482  28.462  1.00  0.00     0.251 C 
ATOM      8  H   UNL A   1      31.732  34.317  26.999  1.00  0.00     0.163 HD
BRANCH   7   9
ATOM      9  C   UNL A   1      34.275  33.849  29.105  1.00  0.00     0.039 A 
ATOM     10  C   UNL A   1      35.571  34.197  28.716  1.00  0.00     0.014 A 
ATOM     11  C   UNL A   1      34.073  32.875  30.086  1.00  0.00     0.014 A 
ATOM     12  C   UNL A   1      36.653  33.473  29.199  1.00  0.00     0.010 A 
ATOM     13  C   UNL A   1      35.171  32.215  30.643  1.00  0.00     0.010 A 
ATOM     14  C   UNL A   1      36.469  32.490  30.185  1.00  0.00    -0.014 A 
BRANCH  14  15
ATOM     15  C   UNL A   1      37.658  31.825  30.779  1.00  0.00     0.031 A 
ATOM     16  C   UNL A   1      38.147  32.173  32.157  1.00  0.00     0.074 A 
ATOM     17  C   UNL A   1      38.290  30.881  30.056  1.00  0.00     0.049 A 
ATOM     18  N   UNL A   1      39.169  31.686  32.815  1.00  0.00    -0.248 NA
ATOM     19  C   UNL A   1      37.397  33.204  32.893  1.00  0.00     0.031 C 
ATOM     20  C   UNL A   1      37.914  30.467  28.701  1.00  0.00     0.029 A 
ATOM     21  N   UNL A   1      39.369  30.091  30.355  1.00  0.00    -0.354 N 
ATOM     22  C   UNL A   1      39.197  32.357  34.031  1.00  0.00     0.074 A 
ATOM     23  C   UNL A   1      38.106  33.308  34.010  1.00  0.00     0.031 C 
ATOM     24  C   UNL A   1      38.718  29.471  28.306  1.00  0.00     0.029 A 
ATOM     25  C   UNL A   1      39.712  29.227  29.344  1.00  0.00     0.049 A 
ATOM     26  H   UNL A   1      39.852  30.137  31.212  1.00  0.00     0.167 HD
ATOM     27  C   UNL A   1      40.051  32.188  35.071  1.00  0.00     0.037 A 
ATOM     28  C   UNL A   1      40.729  28.353  29.246  1.00  0.00     0.037 A 
ATOM     29  C   UNL A   1      41.136  31.237  35.082  1.00  0.00     0.049 A 
ATOM     30  C   UNL A   1      41.686  28.222  30.393  1.00  0.00     0.074 A 
ATOM     31  C   UNL A   1      42.039  30.972  36.097  1.00  0.00     0.029 A 
ATOM     32  N   UNL A   1      41.471  30.404  34.024  1.00  0.00    -0.354 N 
ATOM     33  N   UNL A   1      41.677  28.836  31.551  1.00  0.00    -0.248 NA
ATOM     34  C   UNL A   1      42.798  27.279  30.219  1.00  0.00     0.031 C 
ATOM     35  C   UNL A   1      42.952  30.018  35.635  1.00  0.00     0.029 A 
ATOM     36  C   UNL A   1      42.583  29.643  34.353  1.00  0.00     0.049 A 
ATOM     37  H   UNL A   1      40.991  30.359  33.167  1.00  0.00     0.167 HD
ATOM     38  C   UNL A   1      42.766  28.338  32.252  1.00  0.00     0.074 A 
ATOM     39  C   UNL A   1      43.399  27.355  31.397  1.00  0.00     0.031 C 
ATOM     40  C   UNL A   1      43.202  28.667  33.493  1.00  0.00     0.037 A 
BRANCH  27  41
ATOM     41  C   UNL A   1      39.862  33.061  36.280  1.00  0.00     0.057 A 
ATOM     42  C   UNL A   1      40.530  34.285  36.423  1.00  0.00     0.134 A 
ATOM     43  C   UNL A   1      38.962  32.698  37.290  1.00  0.00     0.134 A 
ATOM     44  F   UNL A   1      41.412  34.691  35.497  1.00  0.00    -0.206 F 
ATOM     45  C   UNL A   1      40.326  35.103  37.537  1.00  0.00     0.040 A 
ATOM     46  C   UNL A   1      38.729  33.520  38.394  1.00  0.00     0.040 A 
ATOM     47  F   UNL A   1      38.280  31.545  37.214  1.00  0.00    -0.206 F 
ATOM     48  C   UNL A   1      39.417  34.724  38.523  1.00  0.00     0.006 A 
ENDBRANCH  27  41
BRANCH  28  49
ATOM     49  C   UNL A   1      40.897  27.548  28.010  1.00  0.00     0.057 A 
ATOM     50  C   UNL A   1      40.314  26.283  27.884  1.00  0.00     0.134 A 
ATOM     51  C   UNL A   1      41.644  28.026  26.925  1.00  0.00     0.134 A 
ATOM     52  F   UNL A   1      39.599  25.765  28.894  1.00  0.00    -0.206 F 
ATOM     53  C   UNL A   1      40.483  25.512  26.732  1.00  0.00     0.040 A 
ATOM     54  C   UNL A   1      41.795  27.281  25.756  1.00  0.00     0.040 A 
ATOM     55  F   UNL A   1      42.219  29.237  26.979  1.00  0.00    -0.206 F 
ATOM     56  C   UNL A   1      41.220  26.015  25.661  1.00  0.00     0.006 A 
ENDBRANCH  28  49
BRANCH  40  57
ATOM     57  C   UNL A   1      44.401  27.926  34.011  1.00  0.00     0.057 A 
ATOM     58  C   UNL A   1      44.284  26.699  34.678  1.00  0.00     0.134 A 
ATOM     59  C   UNL A   1      45.691  28.439  33.822  1.00  0.00     0.134 A 
ATOM     60  F   UNL A   1      43.077  26.161  34.906  1.00  0.00    -0.206 F 
ATOM     61  C   UNL A   1      45.406  26.025  35.163  1.00  0.00     0.040 A 
ATOM     62  C   UNL A   1      46.821  27.759  34.276  1.00  0.00     0.040 A 
ATOM     63  F   UNL A   1      45.873  29.606  33.186  1.00  0.00    -0.206 F 
ATOM     64  C   UNL A   1      46.679  26.551  34.956  1.00  0.00     0.006 A 
ENDBRANCH  40  57
ENDBRANCH  14  15
ENDBRANCH   7   9
ENDBRANCH   4   5
ENDBRANCH   3   4
ENDBRANCH   2   3
ENDBRANCH   1   2
BRANCH   1  65
ATOM     65  C   UNL A   1      31.569  28.131  24.882  1.00  0.00     0.021 C 
BRANCH  65  66
ATOM     66  C   UNL A   1      32.742  27.677  24.024  1.00  0.00     0.116 C 
BRANCH  66  67
ATOM     67  N   UNL A   1      32.971  26.257  24.123  1.00  0.00    -0.356 N 
ATOM     68  C   UNL A   1      33.056  25.523  22.969  1.00  0.00     0.225 C 
ATOM     69  H   UNL A   1      33.065  25.824  25.002  1.00  0.00     0.163 HD
ATOM     70  O   UNL A   1      33.844  25.810  22.073  1.00  0.00    -0.275 OA
BRANCH  68  71
ATOM     71  C   UNL A   1      31.975  24.479  22.781  1.00  0.00     0.107 C 
ATOM     72  C   UNL A   1      30.983  24.280  23.922  1.00  0.00     0.116 C 
ATOM     73  C   UNL A   1      32.576  23.108  22.519  1.00  0.00     0.139 C 
ATOM     74  C   UNL A   1      31.373  22.969  24.534  1.00  0.00     0.227 C 
ATOM     75  N   UNL A   1      32.348  22.372  23.742  1.00  0.00    -0.311 N 
ATOM     76  O   UNL A   1      30.865  22.511  25.552  1.00  0.00    -0.274 OA
BRANCH  75  77
ATOM     77  C   UNL A   1      32.653  20.997  23.829  1.00  0.00     0.055 A 
ATOM     78  C   UNL A   1      32.086  20.162  22.845  1.00  0.00     0.028 A 
ATOM     79  C   UNL A   1      33.517  20.441  24.787  1.00  0.00     0.048 A 
ATOM     80  C   UNL A   1      32.385  18.801  22.787  1.00  0.00     0.023 A 
ATOM     81  C   UNL A   1      33.790  19.056  24.727  1.00  0.00     0.035 A 
ATOM     82  C   UNL A   1      33.235  18.252  23.735  1.00  0.00     0.041 A 
ATOM     83  Cl  UNL A   1      33.611  16.575  23.675  1.00  0.00    -0.084 Cl
BRANCH  79  84
ATOM     84  C   UNL A   1      34.232  21.165  25.875  1.00  0.00     0.195 C 
ATOM     85  O   UNL A   1      33.726  21.159  27.000  1.00  0.00    -0.289 OA
BRANCH  84  86
ATOM     86  C   UNL A   1      35.508  21.898  25.735  1.00  0.00     0.023 A 
ATOM     87  C   UNL A   1      36.628  21.150  25.342  1.00  0.00     0.012 A 
ATOM     88  C   UNL A   1      35.660  23.245  26.077  1.00  0.00     0.012 A 
ATOM     89  C   UNL A   1      37.886  21.744  25.267  1.00  0.00     0.001 A 
ATOM     90  C   UNL A   1      36.928  23.835  26.009  1.00  0.00     0.001 A 
ATOM     91  C   UNL A   1      38.037  23.086  25.607  1.00  0.00     0.000 A 
ENDBRANCH  84  86
ENDBRANCH  79  84
ENDBRANCH  75  77
ENDBRANCH  68  71
ENDBRANCH  66  67
ENDBRANCH  65  66
ENDBRANCH   1  65
TORSDOF 16
ENDMDL
MODEL 2
REMARK VINA RESULT:     -12.6      3.232      4.372
REMARK SMILES O=C(NCCCCCCNC(=O)[C@@H]1CC(=O)N(c2ccc(Cl)cc2C(=O)c2ccccc2)C1)c1ccc(-c2c3nc(c(-c4c(F)cccc4F)c4ccc([nH]4)c(-c4c(F)cccc4F)c4nc(c(-c5c(F)cccc5F)c5ccc2[nH]5)C=C4)C=C3)cc1
REMARK SMILES IDX 7 1 6 2 5 3 4 4 3 5 1 6 2 7 34 9 35 10 87 11 36 12 86 13
REMARK SMILES IDX 37 14 38 15 39 16 80 17 40 18 85 19 79 20 81 21 41 22 84 23
REMARK SMILES IDX 78 24 77 25 42 27 68 28 51 29 67 30 52 31 55 32 66 33 82 34
REMARK SMILES IDX 53 35 54 36 65 38 83 39 56 40 43 41 44 42 49 43 45 44 46 45
REMARK SMILES IDX 48 46 50 47 47 48 69 49 70 50 75 51 71 52 72 53 74 54 76 55
REMARK SMILES IDX 73 56 57 57 58 58 63 59 59 60 60 61 62 62 64 63 61 64 8 65
REMARK SMILES IDX 9 66 10 67 11 68 12 70 13 71 14 72 33 73 15 74 17 75 16 76
REMARK SMILES IDX 18 77 19 78 24 79 20 80 23 81 21 82 22 83 25 84 26 85 27 86
REMARK SMILES IDX 28 87 32 88 29 89 31 90 30 91
REMARK H PARENT 3 8 81 26 55 37 10 69
REMARK Flexibility Score: inf
ROOT
ATOM      1  C   UNL A   1      31.003  27.586  25.225  1.00  0.00     0.002 C 
ENDROOT
BRANCH   1   2
ATOM      2  C   UNL A   1      31.550  28.065  26.577  1.00  0.00     0.002 C 
BRANCH   2   3
ATOM      3  C   UNL A   1      32.896  27.476  26.996  1.00  0.00     0.021 C 
BRANCH   3   4
ATOM      4  C   UNL A   1      34.071  28.440  26.934  1.00  0.00     0.116 C 
BRANCH   4   5
ATOM      5  N   UNL A   1      33.751  29.765  27.432  1.00  0.00    -0.352 N 
ATOM      6  O   UNL A   1      34.103  31.669  28.601  1.00  0.00    -0.269 OA
ATOM      7  C   UNL A   1      34.553  30.623  28.147  1.00  0.00     0.251 C 
ATOM      8  H   UNL A   1      32.843  30.090  27.233  1.00  0.00     0.163 HD
BRANCH   7   9
ATOM      9  C   UNL A   1      35.965  30.255  28.394  1.00  0.00     0.039 A 
ATOM     10  C   UNL A   1      36.928  30.428  27.396  1.00  0.00     0.014 A 
ATOM     11  C   UNL A   1      36.321  29.703  29.626  1.00  0.00     0.014 A 
ATOM     12  C   UNL A   1      38.207  29.918  27.577  1.00  0.00     0.010 A 
ATOM     13  C   UNL A   1      37.635  29.278  29.841  1.00  0.00     0.010 A 
ATOM     14  C   UNL A   1      38.583  29.358  28.810  1.00  0.00    -0.014 A 
BRANCH  14  15
ATOM     15  C   UNL A   1      39.994  28.943  29.019  1.00  0.00     0.031 A 
ATOM     16  C   UNL A   1      40.999  29.863  29.653  1.00  0.00     0.074 A 
ATOM     17  C   UNL A   1      40.358  27.703  28.637  1.00  0.00     0.049 A 
ATOM     18  N   UNL A   1      42.267  29.650  29.902  1.00  0.00    -0.248 NA
ATOM     19  C   UNL A   1      40.524  31.196  30.057  1.00  0.00     0.031 C 
ATOM     20  C   UNL A   1      39.473  26.725  28.000  1.00  0.00     0.029 A 
ATOM     21  N   UNL A   1      41.557  27.046  28.737  1.00  0.00    -0.354 N 
ATOM     22  C   UNL A   1      42.746  30.821  30.476  1.00  0.00     0.074 A 
ATOM     23  C   UNL A   1      41.639  31.753  30.512  1.00  0.00     0.031 C 
ATOM     24  C   UNL A   1      40.144  25.582  27.807  1.00  0.00     0.029 A 
ATOM     25  C   UNL A   1      41.525  25.768  28.237  1.00  0.00     0.049 A 
ATOM     26  H   UNL A   1      42.364  27.452  29.130  1.00  0.00     0.167 HD
ATOM     27  C   UNL A   1      43.994  31.088  30.936  1.00  0.00     0.037 A 
ATOM     28  C   UNL A   1      42.501  24.853  28.110  1.00  0.00     0.037 A 
ATOM     29  C   UNL A   1      45.090  30.151  30.896  1.00  0.00     0.049 A 
ATOM     30  C   UNL A   1      43.882  25.194  28.585  1.00  0.00     0.074 A 
ATOM     31  C   UNL A   1      46.384  30.318  31.361  1.00  0.00     0.029 A 
ATOM     32  N   UNL A   1      45.025  28.877  30.350  1.00  0.00    -0.354 N 
ATOM     33  N   UNL A   1      44.311  26.291  29.159  1.00  0.00    -0.248 NA
ATOM     34  C   UNL A   1      44.917  24.171  28.390  1.00  0.00     0.031 C 
ATOM     35  C   UNL A   1      47.114  29.167  31.048  1.00  0.00     0.029 A 
ATOM     36  C   UNL A   1      46.263  28.258  30.443  1.00  0.00     0.049 A 
ATOM     37  H   UNL A   1      44.220  28.473  29.954  1.00  0.00     0.167 HD
ATOM     38  C   UNL A   1      45.658  26.083  29.415  1.00  0.00     0.074 A 
ATOM     39  C   UNL A   1      45.970  24.746  28.953  1.00  0.00     0.031 C 
ATOM     40  C   UNL A   1      46.557  26.925  29.981  1.00  0.00     0.037 A 
BRANCH  27  41
ATOM     41  C   UNL A   1      44.250  32.454  31.508  1.00  0.00     0.057 A 
ATOM     42  C   UNL A   1      44.674  33.526  30.710  1.00  0.00     0.134 A 
ATOM     43  C   UNL A   1      44.021  32.716  32.865  1.00  0.00     0.134 A 
ATOM     44  F   UNL A   1      44.919  33.345  29.403  1.00  0.00    -0.206 F 
ATOM     45  C   UNL A   1      44.882  34.799  31.245  1.00  0.00     0.040 A 
ATOM     46  C   UNL A   1      44.199  33.990  33.406  1.00  0.00     0.040 A 
ATOM     47  F   UNL A   1      43.604  31.740  33.686  1.00  0.00    -0.206 F 
ATOM     48  C   UNL A   1      44.636  35.035  32.596  1.00  0.00     0.006 A 
ENDBRANCH  27  41
BRANCH  28  49
ATOM     49  C   UNL A   1      42.205  23.534  27.496  1.00  0.00     0.057 A 
ATOM     50  C   UNL A   1      41.880  22.424  28.282  1.00  0.00     0.134 A 
ATOM     51  C   UNL A   1      42.237  23.355  26.106  1.00  0.00     0.134 A 
ATOM     52  F   UNL A   1      41.847  22.529  29.618  1.00  0.00    -0.206 F 
ATOM     53  C   UNL A   1      41.618  21.177  27.712  1.00  0.00     0.040 A 
ATOM     54  C   UNL A   1      41.945  22.123  25.521  1.00  0.00     0.040 A 
ATOM     55  F   UNL A   1      42.529  24.383  25.296  1.00  0.00    -0.206 F 
ATOM     56  C   UNL A   1      41.644  21.026  26.326  1.00  0.00     0.006 A 
ENDBRANCH  28  49
BRANCH  40  57
ATOM     57  C   UNL A   1      47.954  26.405  30.165  1.00  0.00     0.057 A 
ATOM     58  C   UNL A   1      48.935  26.546  29.174  1.00  0.00     0.134 A 
ATOM     59  C   UNL A   1      48.327  25.775  31.359  1.00  0.00     0.134 A 
ATOM     60  F   UNL A   1      48.639  27.126  28.001  1.00  0.00    -0.206 F 
ATOM     61  C   UNL A   1      50.228  26.051  29.354  1.00  0.00     0.040 A 
ATOM     62  C   UNL A   1      49.624  25.303  31.562  1.00  0.00     0.040 A 
ATOM     63  F   UNL A   1      47.438  25.613  32.350  1.00  0.00    -0.206 F 
ATOM     64  C   UNL A   1      50.577  25.434  30.553  1.00  0.00     0.006 A 
ENDBRANCH  40  57
ENDBRANCH  14  15
ENDBRANCH   7   9
ENDBRANCH   4   5
ENDBRANCH   3   4
ENDBRANCH   2   3
ENDBRANCH   1   2
BRANCH   1  65
ATOM     65  C   UNL A   1      31.510  28.340  23.990  1.00  0.00     0.021 C 
BRANCH  65  66
ATOM     66  C   UNL A   1      32.754  27.738  23.351  1.00  0.00     0.116 C 
BRANCH  66  67
ATOM     67  N   UNL A   1      32.933  26.352  23.705  1.00  0.00    -0.356 N 
ATOM     68  C   UNL A   1      33.128  25.438  22.704  1.00  0.00     0.225 C 
ATOM     69  H   UNL A   1      32.915  26.069  24.648  1.00  0.00     0.163 HD
ATOM     70  O   UNL A   1      34.019  25.567  21.871  1.00  0.00    -0.275 OA
BRANCH  68  71
ATOM     71  C   UNL A   1      32.047  24.385  22.564  1.00  0.00     0.107 C 
ATOM     72  C   UNL A   1      31.045  24.250  23.705  1.00  0.00     0.116 C 
ATOM     73  C   UNL A   1      32.648  23.002  22.382  1.00  0.00     0.139 C 
ATOM     74  C   UNL A   1      31.428  22.974  24.392  1.00  0.00     0.227 C 
ATOM     75  N   UNL A   1      32.409  22.335  23.642  1.00  0.00    -0.311 N 
ATOM     76  O   UNL A   1      30.911  22.574  25.429  1.00  0.00    -0.274 OA
BRANCH  75  77
ATOM     77  C   UNL A   1      32.711  20.966  23.808  1.00  0.00     0.055 A 
ATOM     78  C   UNL A   1      32.160  20.079  22.860  1.00  0.00     0.028 A 
ATOM     79  C   UNL A   1      33.560  20.462  24.807  1.00  0.00     0.048 A 
ATOM     80  C   UNL A   1      32.458  18.717  22.880  1.00  0.00     0.023 A 
ATOM     81  C   UNL A   1      33.832  19.075  24.826  1.00  0.00     0.035 A 
ATOM     82  C   UNL A   1      33.293  18.220  23.869  1.00  0.00     0.041 A 
ATOM     83  Cl  UNL A   1      33.669  16.542  23.904  1.00  0.00    -0.084 Cl
BRANCH  79  84
ATOM     84  C   UNL A   1      34.257  21.243  25.867  1.00  0.00     0.195 C 
ATOM     85  O   UNL A   1      33.689  21.376  26.953  1.00  0.00    -0.289 OA
BRANCH  84  86
ATOM     86  C   UNL A   1      35.585  21.881  25.741  1.00  0.00     0.023 A 
ATOM     87  C   UNL A   1      36.648  21.057  25.341  1.00  0.00     0.012 A 
ATOM     88  C   UNL A   1      35.835  23.208  26.101  1.00  0.00     0.012 A 
ATOM     89  C   UNL A   1      37.947  21.557  25.277  1.00  0.00     0.001 A 
ATOM     90  C   UNL A   1      37.144  23.703  26.046  1.00  0.00     0.001 A 
ATOM     91  C   UNL A   1      38.196  22.879  25.635  1.00  0.00     0.000 A 
ENDBRANCH  84  86
ENDBRANCH  79  84
ENDBRANCH  75  77
ENDBRANCH  68  71
ENDBRANCH  66  67
ENDBRANCH  65  66
ENDBRANCH   1  65
TORSDOF 16
ENDMDL
MODEL 3
REMARK VINA RESULT:     -12.5      4.066      8.822
REMARK SMILES O=C(NCCCCCCNC(=O)[C@@H]1CC(=O)N(c2ccc(Cl)cc2C(=O)c2ccccc2)C1)c1ccc(-c2c3nc(c(-c4c(F)cccc4F)c4ccc([nH]4)c(-c4c(F)cccc4F)c4nc(c(-c5c(F)cccc5F)c5ccc2[nH]5)C=C4)C=C3)cc1
REMARK SMILES IDX 7 1 6 2 5 3 4 4 3 5 1 6 2 7 34 9 35 10 87 11 36 12 86 13
REMARK SMILES IDX 37 14 38 15 39 16 80 17 40 18 85 19 79 20 81 21 41 22 84 23
REMARK SMILES IDX 78 24 77 25 42 27 68 28 51 29 67 30 52 31 55 32 66 33 82 34
REMARK SMILES IDX 53 35 54 36 65 38 83 39 56 40 43 41 44 42 49 43 45 44 46 45
REMARK SMILES IDX 48 46 50 47 47 48 69 49 70 50 75 51 71 52 72 53 74 54 76 55
REMARK SMILES IDX 73 56 57 57 58 58 63 59 59 60 60 61 62 62 64 63 61 64 8 65
REMARK SMILES IDX 9 66 10 67 11 68 12 70 13 71 14 72 33 73 15 74 17 75 16 76
REMARK SMILES IDX 18 77 19 78 24 79 20 80 23 81 21 82 22 83 25 84 26 85 27 86
REMARK SMILES IDX 28 87 32 88 29 89 31 90 30 91
REMARK H PARENT 3 8 81 26 55 37 10 69
REMARK Flexibility Score: inf
ROOT
ATOM      1  C   UNL A   1      34.839  20.920  24.986  1.00  0.00     0.002 C 
ENDROOT
BRANCH   1   2
ATOM      2  C   UNL A   1      35.605  22.067  24.314  1.00  0.00     0.002 C 
BRANCH   2   3
ATOM      3  C   UNL A   1      35.575  23.407  25.048  1.00  0.00     0.021 C 
BRANCH   3   4
ATOM      4  C   UNL A   1      36.663  23.594  26.095  1.00  0.00     0.116 C 
BRANCH   4   5
ATOM      5  N   UNL A   1      37.678  22.558  26.057  1.00  0.00    -0.352 N 
ATOM      6  O   UNL A   1      39.780  21.727  26.138  1.00  0.00    -0.269 OA
ATOM      7  C   UNL A   1      39.022  22.672  26.325  1.00  0.00     0.251 C 
ATOM      8  H   UNL A   1      37.365  21.659  25.806  1.00  0.00     0.163 HD
BRANCH   7   9
ATOM      9  C   UNL A   1      39.554  23.964  26.814  1.00  0.00     0.039 A 
ATOM     10  C   UNL A   1      39.504  24.283  28.173  1.00  0.00     0.014 A 
ATOM     11  C   UNL A   1      40.080  24.876  25.896  1.00  0.00     0.014 A 
ATOM     12  C   UNL A   1      39.843  25.563  28.593  1.00  0.00     0.010 A 
ATOM     13  C   UNL A   1      40.512  26.130  26.336  1.00  0.00     0.010 A 
ATOM     14  C   UNL A   1      40.373  26.494  27.684  1.00  0.00    -0.014 A 
BRANCH  14  15
ATOM     15  C   UNL A   1      40.850  27.808  28.186  1.00  0.00     0.031 A 
ATOM     16  C   UNL A   1      42.311  28.160  28.202  1.00  0.00     0.074 A 
ATOM     17  C   UNL A   1      39.936  28.697  28.620  1.00  0.00     0.049 A 
ATOM     18  N   UNL A   1      42.887  29.263  28.611  1.00  0.00    -0.248 NA
ATOM     19  C   UNL A   1      43.250  27.145  27.700  1.00  0.00     0.031 C 
ATOM     20  C   UNL A   1      38.489  28.463  28.663  1.00  0.00     0.029 A 
ATOM     21  N   UNL A   1      40.076  29.976  29.094  1.00  0.00    -0.354 N 
ATOM     22  C   UNL A   1      44.251  29.072  28.432  1.00  0.00     0.074 A 
ATOM     23  C   UNL A   1      44.421  27.735  27.904  1.00  0.00     0.031 C 
ATOM     24  C   UNL A   1      37.876  29.573  29.093  1.00  0.00     0.029 A 
ATOM     25  C   UNL A   1      38.885  30.570  29.428  1.00  0.00     0.049 A 
ATOM     26  H   UNL A   1      40.948  30.425  29.186  1.00  0.00     0.167 HD
ATOM     27  C   UNL A   1      45.266  29.937  28.678  1.00  0.00     0.037 A 
ATOM     28  C   UNL A   1      38.629  31.774  29.969  1.00  0.00     0.037 A 
ATOM     29  C   UNL A   1      45.086  31.268  29.204  1.00  0.00     0.049 A 
ATOM     30  C   UNL A   1      39.775  32.691  30.276  1.00  0.00     0.074 A 
ATOM     31  C   UNL A   1      46.048  32.230  29.463  1.00  0.00     0.029 A 
ATOM     32  N   UNL A   1      43.865  31.822  29.562  1.00  0.00    -0.354 N 
ATOM     33  N   UNL A   1      41.056  32.510  30.066  1.00  0.00    -0.248 NA
ATOM     34  C   UNL A   1      39.441  33.978  30.898  1.00  0.00     0.031 C 
ATOM     35  C   UNL A   1      45.416  33.343  30.027  1.00  0.00     0.029 A 
ATOM     36  C   UNL A   1      44.053  33.101  30.064  1.00  0.00     0.049 A 
ATOM     37  H   UNL A   1      42.994  31.373  29.473  1.00  0.00     0.167 HD
ATOM     38  C   UNL A   1      41.680  33.668  30.509  1.00  0.00     0.074 A 
ATOM     39  C   UNL A   1      40.633  34.553  30.978  1.00  0.00     0.031 C 
ATOM     40  C   UNL A   1      43.001  33.971  30.525  1.00  0.00     0.037 A 
BRANCH  27  41
ATOM     41  C   UNL A   1      46.667  29.469  28.401  1.00  0.00     0.057 A 
ATOM     42  C   UNL A   1      47.437  28.812  29.371  1.00  0.00     0.134 A 
ATOM     43  C   UNL A   1      47.236  29.630  27.131  1.00  0.00     0.134 A 
ATOM     44  F   UNL A   1      46.957  28.630  30.610  1.00  0.00    -0.206 F 
ATOM     45  C   UNL A   1      48.727  28.354  29.095  1.00  0.00     0.040 A 
ATOM     46  C   UNL A   1      48.515  29.153  26.835  1.00  0.00     0.040 A 
ATOM     47  F   UNL A   1      46.553  30.241  26.150  1.00  0.00    -0.206 F 
ATOM     48  C   UNL A   1      49.266  28.518  27.820  1.00  0.00     0.006 A 
ENDBRANCH  27  41
BRANCH  28  49
ATOM     49  C   UNL A   1      37.229  32.170  30.267  1.00  0.00     0.057 A 
ATOM     50  C   UNL A   1      36.445  32.832  29.316  1.00  0.00     0.134 A 
ATOM     51  C   UNL A   1      36.643  31.892  31.509  1.00  0.00     0.134 A 
ATOM     52  F   UNL A   1      36.955  33.137  28.115  1.00  0.00    -0.206 F 
ATOM     53  C   UNL A   1      35.134  33.223  29.596  1.00  0.00     0.040 A 
ATOM     54  C   UNL A   1      35.324  32.248  31.790  1.00  0.00     0.040 A 
ATOM     55  F   UNL A   1      37.338  31.249  32.459  1.00  0.00    -0.206 F 
ATOM     56  C   UNL A   1      34.568  32.924  30.834  1.00  0.00     0.006 A 
ENDBRANCH  28  49
BRANCH  40  57
ATOM     57  C   UNL A   1      43.381  35.332  31.035  1.00  0.00     0.057 A 
ATOM     58  C   UNL A   1      43.587  35.582  32.398  1.00  0.00     0.134 A 
ATOM     59  C   UNL A   1      43.563  36.399  30.147  1.00  0.00     0.134 A 
ATOM     60  F   UNL A   1      43.413  34.607  33.304  1.00  0.00    -0.206 F 
ATOM     61  C   UNL A   1      43.931  36.854  32.861  1.00  0.00     0.040 A 
ATOM     62  C   UNL A   1      43.936  37.667  30.594  1.00  0.00     0.040 A 
ATOM     63  F   UNL A   1      43.387  36.225  28.828  1.00  0.00    -0.206 F 
ATOM     64  C   UNL A   1      44.114  37.898  31.956  1.00  0.00     0.006 A 
ENDBRANCH  40  57
ENDBRANCH  14  15
ENDBRANCH   7   9
ENDBRANCH   4   5
ENDBRANCH   3   4
ENDBRANCH   2   3
ENDBRANCH   1   2
BRANCH   1  65
ATOM     65  C   UNL A   1      33.679  21.330  25.902  1.00  0.00     0.021 C 
BRANCH  65  66
ATOM     66  C   UNL A   1      32.295  21.054  25.328  1.00  0.00     0.116 C 
BRANCH  66  67
ATOM     67  N   UNL A   1      31.535  22.263  25.134  1.00  0.00    -0.356 N 
ATOM     68  C   UNL A   1      31.777  23.020  24.018  1.00  0.00     0.225 C 
ATOM     69  H   UNL A   1      30.856  22.540  25.791  1.00  0.00     0.163 HD
ATOM     70  O   UNL A   1      31.725  22.546  22.888  1.00  0.00    -0.275 OA
BRANCH  68  71
ATOM     71  C   UNL A   1      32.321  24.410  24.279  1.00  0.00     0.107 C 
ATOM     72  C   UNL A   1      32.197  24.959  25.697  1.00  0.00     0.116 C 
ATOM     73  C   UNL A   1      31.653  25.438  23.383  1.00  0.00     0.139 C 
ATOM     74  C   UNL A   1      31.120  25.997  25.604  1.00  0.00     0.227 C 
ATOM     75  N   UNL A   1      30.781  26.178  24.267  1.00  0.00    -0.311 N 
ATOM     76  O   UNL A   1      30.662  26.595  26.570  1.00  0.00    -0.274 OA
BRANCH  75  77
ATOM     77  C   UNL A   1      30.086  27.320  23.814  1.00  0.00     0.055 A 
ATOM     78  C   UNL A   1      28.697  27.176  23.619  1.00  0.00     0.028 A 
ATOM     79  C   UNL A   1      30.681  28.575  23.609  1.00  0.00     0.048 A 
ATOM     80  C   UNL A   1      27.899  28.259  23.252  1.00  0.00     0.023 A 
ATOM     81  C   UNL A   1      29.861  29.656  23.215  1.00  0.00     0.035 A 
ATOM     82  C   UNL A   1      28.488  29.497  23.047  1.00  0.00     0.041 A 
ATOM     83  Cl  UNL A   1      27.515  30.841  22.594  1.00  0.00    -0.084 Cl
BRANCH  79  84
ATOM     84  C   UNL A   1      32.117  28.925  23.797  1.00  0.00     0.195 C 
ATOM     85  O   UNL A   1      32.851  28.899  22.805  1.00  0.00    -0.289 OA
BRANCH  84  86
ATOM     86  C   UNL A   1      32.756  29.310  25.073  1.00  0.00     0.023 A 
ATOM     87  C   UNL A   1      33.865  28.553  25.480  1.00  0.00     0.012 A 
ATOM     88  C   UNL A   1      32.245  30.298  25.918  1.00  0.00     0.012 A 
ATOM     89  C   UNL A   1      34.476  28.794  26.709  1.00  0.00     0.001 A 
ATOM     90  C   UNL A   1      32.856  30.530  27.158  1.00  0.00     0.001 A 
ATOM     91  C   UNL A   1      33.967  29.779  27.551  1.00  0.00     0.000 A 
ENDBRANCH  84  86
ENDBRANCH  79  84
ENDBRANCH  75  77
ENDBRANCH  68  71
ENDBRANCH  66  67
ENDBRANCH  65  66
ENDBRANCH   1  65
TORSDOF 16
ENDMDL
