MODEL 1
REMARK VINA RESULT:     -10.6      0.000      0.000
REMARK SMILES N#Cc1cnc2cc(C(=O)NCCCCCCNC(=O)c3ccc(-c4c5nc(c(-c6c(F)cccc6F)c6ccc([nH]6)c(-c6c(F)cccc6F)c6nc(c(-c7c(F)cccc7F)c7ccc4[nH]7)C=C6)C=C5)cc3)[nH]c2c1
REMARK SMILES IDX 15 1 14 2 13 3 12 4 11 5 9 6 10 7 8 9 3 10 4 11 77 12 5 13
REMARK SMILES IDX 76 14 6 15 75 16 7 17 2 19 1 20 16 21 17 22 18 23 19 24
REMARK SMILES IDX 20 26 21 27 22 28 74 29 23 30 73 31 24 32 25 33 26 34 67 35
REMARK SMILES IDX 27 36 72 37 66 38 68 39 28 40 71 41 65 42 64 43 29 45 55 46
REMARK SMILES IDX 38 47 54 48 39 49 42 50 53 51 69 52 40 53 41 54 52 56 70 57
REMARK SMILES IDX 43 58 30 59 31 60 36 61 32 62 33 63 35 64 37 65 34 66 56 67
REMARK SMILES IDX 57 68 62 69 58 70 59 71 61 72 63 73 60 74 44 75 45 76 50 77
REMARK SMILES IDX 46 78 47 79 49 80 51 81 48 82
REMARK H PARENT 11 8 75 18 18 25 68 44 42 55
REMARK Flexibility Score: inf
ROOT
ATOM      1  C   UNL A   1      35.219  34.601  28.710  1.00  0.00     0.002 C 
ENDROOT
BRANCH   1   2
ATOM      2  C   UNL A   1      34.287  35.700  28.170  1.00  0.00     0.002 C 
BRANCH   2   3
ATOM      3  C   UNL A   1      33.120  36.090  29.078  1.00  0.00     0.021 C 
BRANCH   3   4
ATOM      4  C   UNL A   1      33.246  35.614  30.520  1.00  0.00     0.116 C 
BRANCH   4   5
ATOM      5  N   UNL A   1      33.408  36.696  31.469  1.00  0.00    -0.351 N 
ATOM      6  C   UNL A   1      34.135  36.804  32.625  1.00  0.00     0.267 C 
ATOM      7  O   UNL A   1      34.052  37.871  33.236  1.00  0.00    -0.268 OA
ATOM      8  H   UNL A   1      32.900  37.508  31.239  1.00  0.00     0.163 HD
BRANCH   6   9
ATOM      9  C   UNL A   1      34.913  35.708  33.161  1.00  0.00     0.107 A 
ATOM     10  C   UNL A   1      38.467  33.008  34.148  1.00  0.00     0.072 A 
ATOM     11  C   UNL A   1      37.642  32.828  35.254  1.00  0.00     0.131 A 
ATOM     12  C   UNL A   1      38.031  33.815  33.092  1.00  0.00     0.049 A 
ATOM     13  N   UNL A   1      36.405  33.349  35.403  1.00  0.00    -0.253 NA
ATOM     14  C   UNL A   1      36.780  34.410  33.264  1.00  0.00     0.066 A 
ATOM     15  C   UNL A   1      36.008  34.149  34.386  1.00  0.00     0.089 A 
ATOM     16  N   UNL A   1      36.063  35.295  32.498  1.00  0.00    -0.349 N 
ATOM     17  C   UNL A   1      34.800  34.860  34.250  1.00  0.00     0.062 A 
ATOM     18  H   UNL A   1      36.327  35.596  31.599  1.00  0.00     0.167 HD
BRANCH  10  19
ATOM     19  C   UNL A   1      39.743  32.381  34.113  1.00  0.00     0.101 C 
ATOM     20  N   UNL A   1      40.797  31.875  34.093  1.00  0.00    -0.192 NA
ENDBRANCH  10  19
ENDBRANCH   6   9
ENDBRANCH   4   5
ENDBRANCH   3   4
ENDBRANCH   2   3
ENDBRANCH   1   2
BRANCH   1  21
ATOM     21  C   UNL A   1      35.289  33.296  27.904  1.00  0.00     0.021 C 
BRANCH  21  22
ATOM     22  C   UNL A   1      34.711  32.102  28.639  1.00  0.00     0.116 C 
BRANCH  22  23
ATOM     23  N   UNL A   1      34.585  32.325  30.081  1.00  0.00    -0.352 N 
ATOM     24  C   UNL A   1      35.314  31.730  31.094  1.00  0.00     0.251 C 
ATOM     25  H   UNL A   1      33.902  32.976  30.362  1.00  0.00     0.163 HD
ATOM     26  O   UNL A   1      34.917  31.728  32.252  1.00  0.00    -0.269 OA
BRANCH  24  27
ATOM     27  C   UNL A   1      36.607  31.119  30.745  1.00  0.00     0.039 A 
ATOM     28  C   UNL A   1      37.740  31.875  30.432  1.00  0.00     0.014 A 
ATOM     29  C   UNL A   1      36.665  29.730  30.776  1.00  0.00     0.014 A 
ATOM     30  C   UNL A   1      38.936  31.202  30.189  1.00  0.00     0.010 A 
ATOM     31  C   UNL A   1      37.873  29.100  30.780  1.00  0.00     0.010 A 
ATOM     32  C   UNL A   1      38.986  29.810  30.370  1.00  0.00    -0.014 A 
BRANCH  32  33
ATOM     33  C   UNL A   1      40.216  29.047  30.233  1.00  0.00     0.031 A 
ATOM     34  C   UNL A   1      40.908  28.811  31.524  1.00  0.00     0.074 A 
ATOM     35  C   UNL A   1      40.559  28.433  29.076  1.00  0.00     0.049 A 
ATOM     36  N   UNL A   1      42.035  29.311  31.905  1.00  0.00    -0.248 NA
ATOM     37  C   UNL A   1      40.190  28.085  32.587  1.00  0.00     0.031 C 
ATOM     38  C   UNL A   1      39.809  28.347  27.814  1.00  0.00     0.029 A 
ATOM     39  N   UNL A   1      41.653  27.671  28.811  1.00  0.00    -0.354 N 
ATOM     40  C   UNL A   1      42.279  28.786  33.168  1.00  0.00     0.074 A 
ATOM     41  C   UNL A   1      41.041  28.201  33.610  1.00  0.00     0.031 C 
ATOM     42  C   UNL A   1      40.356  27.403  27.013  1.00  0.00     0.029 A 
ATOM     43  C   UNL A   1      41.590  26.944  27.620  1.00  0.00     0.049 A 
ATOM     44  H   UNL A   1      42.431  27.633  29.413  1.00  0.00     0.167 HD
ATOM     45  C   UNL A   1      43.553  28.667  33.634  1.00  0.00     0.037 A 
ATOM     46  C   UNL A   1      42.499  26.031  27.190  1.00  0.00     0.037 A 
ATOM     47  C   UNL A   1      44.461  29.465  32.848  1.00  0.00     0.049 A 
ATOM     48  C   UNL A   1      43.759  26.308  27.926  1.00  0.00     0.074 A 
ATOM     49  C   UNL A   1      44.596  30.816  32.598  1.00  0.00     0.029 A 
ATOM     50  N   UNL A   1      45.147  28.827  31.843  1.00  0.00    -0.354 N 
ATOM     51  N   UNL A   1      44.457  27.399  27.767  1.00  0.00    -0.248 NA
ATOM     52  C   UNL A   1      43.947  25.618  29.194  1.00  0.00     0.031 C 
ATOM     53  C   UNL A   1      44.925  30.903  31.213  1.00  0.00     0.029 A 
ATOM     54  C   UNL A   1      45.065  29.606  30.717  1.00  0.00     0.049 A 
ATOM     55  H   UNL A   1      45.615  27.963  31.917  1.00  0.00     0.167 HD
ATOM     56  C   UNL A   1      44.828  27.770  29.051  1.00  0.00     0.074 A 
ATOM     57  C   UNL A   1      44.522  26.607  29.886  1.00  0.00     0.031 C 
ATOM     58  C   UNL A   1      45.059  29.077  29.371  1.00  0.00     0.037 A 
BRANCH  45  59
ATOM     59  C   UNL A   1      44.035  27.558  34.533  1.00  0.00     0.057 A 
ATOM     60  C   UNL A   1      44.009  26.234  34.060  1.00  0.00     0.134 A 
ATOM     61  C   UNL A   1      44.244  27.694  35.920  1.00  0.00     0.134 A 
ATOM     62  F   UNL A   1      43.801  25.970  32.761  1.00  0.00    -0.206 F 
ATOM     63  C   UNL A   1      44.113  25.130  34.914  1.00  0.00     0.040 A 
ATOM     64  C   UNL A   1      44.398  26.600  36.775  1.00  0.00     0.040 A 
ATOM     65  F   UNL A   1      44.207  28.880  36.541  1.00  0.00    -0.206 F 
ATOM     66  C   UNL A   1      44.302  25.311  36.278  1.00  0.00     0.006 A 
ENDBRANCH  45  59
BRANCH  46  67
ATOM     67  C   UNL A   1      42.266  24.724  26.522  1.00  0.00     0.057 A 
ATOM     68  C   UNL A   1      43.038  24.331  25.417  1.00  0.00     0.134 A 
ATOM     69  C   UNL A   1      41.520  23.707  27.142  1.00  0.00     0.134 A 
ATOM     70  F   UNL A   1      43.814  25.218  24.778  1.00  0.00    -0.206 F 
ATOM     71  C   UNL A   1      43.097  22.998  24.980  1.00  0.00     0.040 A 
ATOM     72  C   UNL A   1      41.571  22.374  26.716  1.00  0.00     0.040 A 
ATOM     73  F   UNL A   1      40.794  23.956  28.241  1.00  0.00    -0.206 F 
ATOM     74  C   UNL A   1      42.375  22.011  25.642  1.00  0.00     0.006 A 
ENDBRANCH  46  67
BRANCH  58  75
ATOM     75  C   UNL A   1      45.102  30.086  28.252  1.00  0.00     0.057 A 
ATOM     76  C   UNL A   1      43.999  30.838  27.816  1.00  0.00     0.134 A 
ATOM     77  C   UNL A   1      46.348  30.437  27.723  1.00  0.00     0.134 A 
ATOM     78  F   UNL A   1      42.777  30.636  28.322  1.00  0.00    -0.206 F 
ATOM     79  C   UNL A   1      44.129  31.875  26.884  1.00  0.00     0.040 A 
ATOM     80  C   UNL A   1      46.497  31.489  26.816  1.00  0.00     0.040 A 
ATOM     81  F   UNL A   1      47.456  29.799  28.128  1.00  0.00    -0.206 F 
ATOM     82  C   UNL A   1      45.385  32.210  26.389  1.00  0.00     0.006 A 
ENDBRANCH  58  75
ENDBRANCH  32  33
ENDBRANCH  24  27
ENDBRANCH  22  23
ENDBRANCH  21  22
ENDBRANCH   1  21
TORSDOF 14
ENDMDL
MODEL 2
REMARK VINA RESULT:     -10.6      4.637     10.555
REMARK SMILES N#Cc1cnc2cc(C(=O)NCCCCCCNC(=O)c3ccc(-c4c5nc(c(-c6c(F)cccc6F)c6ccc([nH]6)c(-c6c(F)cccc6F)c6nc(c(-c7c(F)cccc7F)c7ccc4[nH]7)C=C6)C=C5)cc3)[nH]c2c1
REMARK SMILES IDX 15 1 14 2 13 3 12 4 11 5 9 6 10 7 8 9 3 10 4 11 77 12 5 13
REMARK SMILES IDX 76 14 6 15 75 16 7 17 2 19 1 20 16 21 17 22 18 23 19 24
REMARK SMILES IDX 20 26 21 27 22 28 74 29 23 30 73 31 24 32 25 33 26 34 67 35
REMARK SMILES IDX 27 36 72 37 66 38 68 39 28 40 71 41 65 42 64 43 29 45 55 46
REMARK SMILES IDX 38 47 54 48 39 49 42 50 53 51 69 52 40 53 41 54 52 56 70 57
REMARK SMILES IDX 43 58 30 59 31 60 36 61 32 62 33 63 35 64 37 65 34 66 56 67
REMARK SMILES IDX 57 68 62 69 58 70 59 71 61 72 63 73 60 74 44 75 45 76 50 77
REMARK SMILES IDX 46 78 47 79 49 80 51 81 48 82
REMARK H PARENT 11 8 75 18 18 25 68 44 42 55
REMARK Flexibility Score: inf
ROOT
ATOM      1  C   UNL A   1      40.984  20.636  26.762  1.00  0.00     0.002 C 
ENDROOT
BRANCH   1   2
ATOM      2  C   UNL A   1      39.714  21.133  26.050  1.00  0.00     0.002 C 
BRANCH   2   3
ATOM      3  C   UNL A   1      39.395  22.619  26.215  1.00  0.00     0.021 C 
BRANCH   3   4
ATOM      4  C   UNL A   1      37.915  22.970  26.110  1.00  0.00     0.116 C 
BRANCH   4   5
ATOM      5  N   UNL A   1      37.063  21.813  25.941  1.00  0.00    -0.351 N 
ATOM      6  C   UNL A   1      35.849  21.646  25.326  1.00  0.00     0.267 C 
ATOM      7  O   UNL A   1      35.356  20.518  25.368  1.00  0.00    -0.268 OA
ATOM      8  H   UNL A   1      37.422  20.990  26.345  1.00  0.00     0.163 HD
BRANCH   6   9
ATOM      9  C   UNL A   1      35.130  22.742  24.713  1.00  0.00     0.107 A 
ATOM     10  C   UNL A   1      33.383  26.905  24.001  1.00  0.00     0.072 A 
ATOM     11  C   UNL A   1      33.570  26.437  22.704  1.00  0.00     0.131 A 
ATOM     12  C   UNL A   1      33.667  26.063  25.082  1.00  0.00     0.049 A 
ATOM     13  N   UNL A   1      33.988  25.196  22.371  1.00  0.00    -0.253 NA
ATOM     14  C   UNL A   1      34.159  24.800  24.749  1.00  0.00     0.066 A 
ATOM     15  C   UNL A   1      34.285  24.403  23.426  1.00  0.00     0.089 A 
ATOM     16  N   UNL A   1      34.602  23.749  25.512  1.00  0.00    -0.349 N 
ATOM     17  C   UNL A   1      34.768  23.080  23.419  1.00  0.00     0.062 A 
ATOM     18  H   UNL A   1      34.553  23.713  26.494  1.00  0.00     0.167 HD
BRANCH  10  19
ATOM     19  C   UNL A   1      32.917  28.232  24.210  1.00  0.00     0.101 C 
ATOM     20  N   UNL A   1      32.547  29.328  24.380  1.00  0.00    -0.192 NA
ENDBRANCH  10  19
ENDBRANCH   6   9
ENDBRANCH   4   5
ENDBRANCH   3   4
ENDBRANCH   2   3
ENDBRANCH   1   2
BRANCH   1  21
ATOM     21  C   UNL A   1      41.733  19.466  26.105  1.00  0.00     0.021 C 
BRANCH  21  22
ATOM     22  C   UNL A   1      43.170  19.332  26.572  1.00  0.00     0.116 C 
BRANCH  22  23
ATOM     23  N   UNL A   1      44.130  19.313  25.467  1.00  0.00    -0.352 N 
ATOM     24  C   UNL A   1      44.514  20.370  24.664  1.00  0.00     0.251 C 
ATOM     25  H   UNL A   1      44.552  18.444  25.274  1.00  0.00     0.163 HD
ATOM     26  O   UNL A   1      45.053  20.188  23.580  1.00  0.00    -0.269 OA
BRANCH  24  27
ATOM     27  C   UNL A   1      44.284  21.735  25.165  1.00  0.00     0.039 A 
ATOM     28  C   UNL A   1      43.313  22.583  24.629  1.00  0.00     0.014 A 
ATOM     29  C   UNL A   1      45.067  22.141  26.241  1.00  0.00     0.014 A 
ATOM     30  C   UNL A   1      43.123  23.829  25.223  1.00  0.00     0.010 A 
ATOM     31  C   UNL A   1      44.715  23.243  26.960  1.00  0.00     0.010 A 
ATOM     32  C   UNL A   1      43.833  24.144  26.393  1.00  0.00    -0.014 A 
BRANCH  32  33
ATOM     33  C   UNL A   1      43.621  25.380  27.129  1.00  0.00     0.031 A 
ATOM     34  C   UNL A   1      44.625  26.428  26.819  1.00  0.00     0.074 A 
ATOM     35  C   UNL A   1      42.493  25.610  27.842  1.00  0.00     0.049 A 
ATOM     36  N   UNL A   1      45.537  26.886  27.607  1.00  0.00    -0.248 NA
ATOM     37  C   UNL A   1      44.751  26.894  25.428  1.00  0.00     0.031 C 
ATOM     38  C   UNL A   1      41.296  24.768  27.983  1.00  0.00     0.029 A 
ATOM     39  N   UNL A   1      42.148  26.718  28.552  1.00  0.00    -0.354 N 
ATOM     40  C   UNL A   1      46.214  27.861  26.883  1.00  0.00     0.074 A 
ATOM     41  C   UNL A   1      45.820  27.691  25.510  1.00  0.00     0.031 C 
ATOM     42  C   UNL A   1      40.287  25.484  28.532  1.00  0.00     0.029 A 
ATOM     43  C   UNL A   1      40.809  26.770  28.945  1.00  0.00     0.049 A 
ATOM     44  H   UNL A   1      42.793  27.429  28.770  1.00  0.00     0.167 HD
ATOM     45  C   UNL A   1      46.852  28.879  27.522  1.00  0.00     0.037 A 
ATOM     46  C   UNL A   1      40.197  27.816  29.560  1.00  0.00     0.037 A 
ATOM     47  C   UNL A   1      47.027  28.575  28.921  1.00  0.00     0.049 A 
ATOM     48  C   UNL A   1      41.273  28.640  30.167  1.00  0.00     0.074 A 
ATOM     49  C   UNL A   1      47.713  27.602  29.622  1.00  0.00     0.029 A 
ATOM     50  N   UNL A   1      46.097  29.083  29.795  1.00  0.00    -0.354 N 
ATOM     51  N   UNL A   1      42.028  28.225  31.147  1.00  0.00    -0.248 NA
ATOM     52  C   UNL A   1      41.835  29.700  29.343  1.00  0.00     0.031 C 
ATOM     53  C   UNL A   1      46.845  27.242  30.694  1.00  0.00     0.029 A 
ATOM     54  C   UNL A   1      45.725  28.074  30.646  1.00  0.00     0.049 A 
ATOM     55  H   UNL A   1      45.758  30.008  29.808  1.00  0.00     0.167 HD
ATOM     56  C   UNL A   1      43.306  28.644  30.809  1.00  0.00     0.074 A 
ATOM     57  C   UNL A   1      43.116  29.589  29.706  1.00  0.00     0.031 C 
ATOM     58  C   UNL A   1      44.409  27.966  31.238  1.00  0.00     0.037 A 
BRANCH  45  59
ATOM     59  C   UNL A   1      46.972  30.283  26.988  1.00  0.00     0.057 A 
ATOM     60  C   UNL A   1      48.221  30.928  27.033  1.00  0.00     0.134 A 
ATOM     61  C   UNL A   1      45.875  31.122  26.705  1.00  0.00     0.134 A 
ATOM     62  F   UNL A   1      49.341  30.242  27.308  1.00  0.00    -0.206 F 
ATOM     63  C   UNL A   1      48.357  32.312  26.879  1.00  0.00     0.040 A 
ATOM     64  C   UNL A   1      46.005  32.497  26.500  1.00  0.00     0.040 A 
ATOM     65  F   UNL A   1      44.611  30.681  26.714  1.00  0.00    -0.206 F 
ATOM     66  C   UNL A   1      47.245  33.103  26.617  1.00  0.00     0.006 A 
ENDBRANCH  45  59
BRANCH  46  67
ATOM     67  C   UNL A   1      38.837  28.369  29.330  1.00  0.00     0.057 A 
ATOM     68  C   UNL A   1      37.932  28.527  30.392  1.00  0.00     0.134 A 
ATOM     69  C   UNL A   1      38.514  29.048  28.143  1.00  0.00     0.134 A 
ATOM     70  F   UNL A   1      38.169  27.949  31.579  1.00  0.00    -0.206 F 
ATOM     71  C   UNL A   1      36.797  29.347  30.295  1.00  0.00     0.040 A 
ATOM     72  C   UNL A   1      37.384  29.869  28.033  1.00  0.00     0.040 A 
ATOM     73  F   UNL A   1      39.334  29.017  27.084  1.00  0.00    -0.206 F 
ATOM     74  C   UNL A   1      36.530  30.036  29.117  1.00  0.00     0.006 A 
ENDBRANCH  46  67
BRANCH  58  75
ATOM     75  C   UNL A   1      44.219  26.870  32.257  1.00  0.00     0.057 A 
ATOM     76  C   UNL A   1      44.160  25.501  31.950  1.00  0.00     0.134 A 
ATOM     77  C   UNL A   1      44.283  27.207  33.612  1.00  0.00     0.134 A 
ATOM     78  F   UNL A   1      44.179  25.071  30.683  1.00  0.00    -0.206 F 
ATOM     79  C   UNL A   1      44.144  24.517  32.947  1.00  0.00     0.040 A 
ATOM     80  C   UNL A   1      44.299  26.235  34.616  1.00  0.00     0.040 A 
ATOM     81  F   UNL A   1      44.392  28.491  33.983  1.00  0.00    -0.206 F 
ATOM     82  C   UNL A   1      44.225  24.884  34.286  1.00  0.00     0.006 A 
ENDBRANCH  58  75
ENDBRANCH  32  33
ENDBRANCH  24  27
ENDBRANCH  22  23
ENDBRANCH  21  22
ENDBRANCH   1  21
TORSDOF 14
ENDMDL
MODEL 3
REMARK VINA RESULT:     -10.5      5.604     11.176
REMARK SMILES N#Cc1cnc2cc(C(=O)NCCCCCCNC(=O)c3ccc(-c4c5nc(c(-c6c(F)cccc6F)c6ccc([nH]6)c(-c6c(F)cccc6F)c6nc(c(-c7c(F)cccc7F)c7ccc4[nH]7)C=C6)C=C5)cc3)[nH]c2c1
REMARK SMILES IDX 15 1 14 2 13 3 12 4 11 5 9 6 10 7 8 9 3 10 4 11 77 12 5 13
REMARK SMILES IDX 76 14 6 15 75 16 7 17 2 19 1 20 16 21 17 22 18 23 19 24
REMARK SMILES IDX 20 26 21 27 22 28 74 29 23 30 73 31 24 32 25 33 26 34 67 35
REMARK SMILES IDX 27 36 72 37 66 38 68 39 28 40 71 41 65 42 64 43 29 45 55 46
REMARK SMILES IDX 38 47 54 48 39 49 42 50 53 51 69 52 40 53 41 54 52 56 70 57
REMARK SMILES IDX 43 58 30 59 31 60 36 61 32 62 33 63 35 64 37 65 34 66 56 67
REMARK SMILES IDX 57 68 62 69 58 70 59 71 61 72 63 73 60 74 44 75 45 76 50 77
REMARK SMILES IDX 46 78 47 79 49 80 51 81 48 82
REMARK H PARENT 11 8 75 18 18 25 68 44 42 55
REMARK Flexibility Score: inf
ROOT
ATOM      1  C   UNL A   1      37.488  23.259  25.891  1.00  0.00     0.002 C 
ENDROOT
BRANCH   1   2
ATOM      2  C   UNL A   1      36.028  22.955  25.513  1.00  0.00     0.002 C 
BRANCH   2   3
ATOM      3  C   UNL A   1      35.072  24.148  25.528  1.00  0.00     0.021 C 
BRANCH   3   4
ATOM      4  C   UNL A   1      33.909  24.046  24.548  1.00  0.00     0.116 C 
BRANCH   4   5
ATOM      5  N   UNL A   1      32.630  23.847  25.195  1.00  0.00    -0.351 N 
ATOM      6  C   UNL A   1      31.877  22.724  25.420  1.00  0.00     0.267 C 
ATOM      7  O   UNL A   1      30.799  22.884  25.994  1.00  0.00    -0.268 OA
ATOM      8  H   UNL A   1      32.223  24.675  25.538  1.00  0.00     0.163 HD
BRANCH   6   9
ATOM      9  C   UNL A   1      32.276  21.413  24.953  1.00  0.00     0.107 A 
ATOM     10  C   UNL A   1      32.882  16.886  24.785  1.00  0.00     0.072 A 
ATOM     11  C   UNL A   1      32.781  17.221  23.438  1.00  0.00     0.131 A 
ATOM     12  C   UNL A   1      32.854  17.900  25.748  1.00  0.00     0.049 A 
ATOM     13  N   UNL A   1      32.684  18.476  22.948  1.00  0.00    -0.253 NA
ATOM     14  C   UNL A   1      32.690  19.196  25.255  1.00  0.00     0.066 A 
ATOM     15  C   UNL A   1      32.630  19.444  23.892  1.00  0.00     0.089 A 
ATOM     16  N   UNL A   1      32.553  20.412  25.877  1.00  0.00    -0.349 N 
ATOM     17  C   UNL A   1      32.500  20.835  23.715  1.00  0.00     0.062 A 
ATOM     18  H   UNL A   1      32.639  20.556  26.846  1.00  0.00     0.167 HD
BRANCH  10  19
ATOM     19  C   UNL A   1      33.000  15.520  25.163  1.00  0.00     0.101 C 
ATOM     20  N   UNL A   1      33.111  14.399  25.477  1.00  0.00    -0.192 NA
ENDBRANCH  10  19
ENDBRANCH   6   9
ENDBRANCH   4   5
ENDBRANCH   3   4
ENDBRANCH   2   3
ENDBRANCH   1   2
BRANCH   1  21
ATOM     21  C   UNL A   1      38.506  22.126  25.691  1.00  0.00     0.021 C 
BRANCH  21  22
ATOM     22  C   UNL A   1      39.657  22.168  26.678  1.00  0.00     0.116 C 
BRANCH  22  23
ATOM     23  N   UNL A   1      40.968  22.158  26.026  1.00  0.00    -0.352 N 
ATOM     24  C   UNL A   1      41.839  23.219  25.865  1.00  0.00     0.251 C 
ATOM     25  H   UNL A   1      41.265  21.293  25.660  1.00  0.00     0.163 HD
ATOM     26  O   UNL A   1      42.736  23.191  25.032  1.00  0.00    -0.269 OA
BRANCH  24  27
ATOM     27  C   UNL A   1      41.677  24.384  26.751  1.00  0.00     0.039 A 
ATOM     28  C   UNL A   1      42.324  24.492  27.984  1.00  0.00     0.014 A 
ATOM     29  C   UNL A   1      40.863  25.410  26.283  1.00  0.00     0.014 A 
ATOM     30  C   UNL A   1      42.164  25.668  28.714  1.00  0.00     0.010 A 
ATOM     31  C   UNL A   1      40.906  26.636  26.876  1.00  0.00     0.010 A 
ATOM     32  C   UNL A   1      41.451  26.735  28.143  1.00  0.00    -0.014 A 
BRANCH  32  33
ATOM     33  C   UNL A   1      41.322  28.028  28.795  1.00  0.00     0.031 A 
ATOM     34  C   UNL A   1      42.391  28.985  28.419  1.00  0.00     0.074 A 
ATOM     35  C   UNL A   1      40.213  28.377  29.489  1.00  0.00     0.049 A 
ATOM     36  N   UNL A   1      43.334  29.434  29.177  1.00  0.00    -0.248 NA
ATOM     37  C   UNL A   1      42.545  29.350  27.000  1.00  0.00     0.031 C 
ATOM     38  C   UNL A   1      38.964  27.626  29.683  1.00  0.00     0.029 A 
ATOM     39  N   UNL A   1      39.942  29.550  30.123  1.00  0.00    -0.354 N 
ATOM     40  C   UNL A   1      44.071  30.313  28.392  1.00  0.00     0.074 A 
ATOM     41  C   UNL A   1      43.664  30.079  27.032  1.00  0.00     0.031 C 
ATOM     42  C   UNL A   1      38.005  28.441  30.181  1.00  0.00     0.029 A 
ATOM     43  C   UNL A   1      38.611  29.715  30.510  1.00  0.00     0.049 A 
ATOM     44  H   UNL A   1      40.633  30.230  30.296  1.00  0.00     0.167 HD
ATOM     45  C   UNL A   1      44.775  31.328  28.963  1.00  0.00     0.037 A 
ATOM     46  C   UNL A   1      38.069  30.837  31.053  1.00  0.00     0.037 A 
ATOM     47  C   UNL A   1      44.933  31.105  30.379  1.00  0.00     0.049 A 
ATOM     48  C   UNL A   1      39.198  31.628  31.606  1.00  0.00     0.074 A 
ATOM     49  C   UNL A   1      45.555  30.139  31.145  1.00  0.00     0.029 A 
ATOM     50  N   UNL A   1      44.040  31.730  31.216  1.00  0.00    -0.354 N 
ATOM     51  N   UNL A   1      39.926  31.229  32.613  1.00  0.00    -0.248 NA
ATOM     52  C   UNL A   1      39.826  32.592  30.716  1.00  0.00     0.031 C 
ATOM     53  C   UNL A   1      44.668  29.908  32.237  1.00  0.00     0.029 A 
ATOM     54  C   UNL A   1      43.604  30.806  32.131  1.00  0.00     0.049 A 
ATOM     55  H   UNL A   1      43.761  32.673  31.168  1.00  0.00     0.167 HD
ATOM     56  C   UNL A   1      41.228  31.541  32.251  1.00  0.00     0.074 A 
ATOM     57  C   UNL A   1      41.098  32.422  31.088  1.00  0.00     0.031 C 
ATOM     58  C   UNL A   1      42.286  30.822  32.727  1.00  0.00     0.037 A 
BRANCH  45  59
ATOM     59  C   UNL A   1      44.985  32.682  28.338  1.00  0.00     0.057 A 
ATOM     60  C   UNL A   1      43.891  33.557  28.217  1.00  0.00     0.134 A 
ATOM     61  C   UNL A   1      46.126  33.046  27.596  1.00  0.00     0.134 A 
ATOM     62  F   UNL A   1      42.738  33.312  28.861  1.00  0.00    -0.206 F 
ATOM     63  C   UNL A   1      43.908  34.669  27.368  1.00  0.00     0.040 A 
ATOM     64  C   UNL A   1      46.173  34.182  26.783  1.00  0.00     0.040 A 
ATOM     65  F   UNL A   1      47.219  32.276  27.531  1.00  0.00    -0.206 F 
ATOM     66  C   UNL A   1      45.051  34.982  26.643  1.00  0.00     0.006 A 
ENDBRANCH  45  59
BRANCH  46  67
ATOM     67  C   UNL A   1      36.748  31.460  30.784  1.00  0.00     0.057 A 
ATOM     68  C   UNL A   1      35.882  31.802  31.836  1.00  0.00     0.134 A 
ATOM     69  C   UNL A   1      36.446  32.028  29.534  1.00  0.00     0.134 A 
ATOM     70  F   UNL A   1      36.105  31.342  33.076  1.00  0.00    -0.206 F 
ATOM     71  C   UNL A   1      34.807  32.688  31.666  1.00  0.00     0.040 A 
ATOM     72  C   UNL A   1      35.377  32.913  29.351  1.00  0.00     0.040 A 
ATOM     73  F   UNL A   1      37.237  31.819  28.473  1.00  0.00    -0.206 F 
ATOM     74  C   UNL A   1      34.562  33.261  30.423  1.00  0.00     0.006 A 
ENDBRANCH  46  67
BRANCH  58  75
ATOM     75  C   UNL A   1      42.028  29.811  33.815  1.00  0.00     0.057 A 
ATOM     76  C   UNL A   1      41.761  28.451  33.589  1.00  0.00     0.134 A 
ATOM     77  C   UNL A   1      42.238  30.197  35.142  1.00  0.00     0.134 A 
ATOM     78  F   UNL A   1      41.627  27.966  32.350  1.00  0.00    -0.206 F 
ATOM     79  C   UNL A   1      41.688  27.525  34.638  1.00  0.00     0.040 A 
ATOM     80  C   UNL A   1      42.198  29.279  36.195  1.00  0.00     0.040 A 
ATOM     81  F   UNL A   1      42.546  31.469  35.432  1.00  0.00    -0.206 F 
ATOM     82  C   UNL A   1      41.918  27.938  35.946  1.00  0.00     0.006 A 
ENDBRANCH  58  75
ENDBRANCH  32  33
ENDBRANCH  24  27
ENDBRANCH  22  23
ENDBRANCH  21  22
ENDBRANCH   1  21
TORSDOF 14
ENDMDL
