MODEL 1
REMARK VINA RESULT:     -11.9      0.000      0.000
REMARK SMILES O=C(NCCCCCCNC(=O)c1nccnc1C(=O)Nc1ccc2c(c1)OCO2)c1ccc(-c2c3nc(c(-c4c(F)cccc4F)c4ccc([nH]4)c(-c4c(F)cccc4F)c4nc(c(-c5c(F)cccc5F)c5ccc2[nH]5)C=C4)C=C3)cc1
REMARK SMILES IDX 6 1 5 2 4 3 3 4 1 5 2 6 31 8 32 9 84 10 33 11 83 12 34 13
REMARK SMILES IDX 35 14 36 15 77 16 37 17 82 18 76 19 78 20 38 21 81 22 75 23
REMARK SMILES IDX 74 24 39 26 65 27 48 28 64 29 49 30 52 31 63 32 79 33 50 34
REMARK SMILES IDX 51 35 62 37 80 38 53 39 40 40 41 41 46 42 42 43 43 44 45 45
REMARK SMILES IDX 47 46 44 47 66 48 67 49 72 50 68 51 69 52 71 53 73 54 70 55
REMARK SMILES IDX 54 56 55 57 60 58 56 59 57 60 59 61 61 62 58 63 7 64 8 65
REMARK SMILES IDX 9 66 10 67 11 68 12 70 13 71 14 72 18 73 15 74 17 75 16 76
REMARK SMILES IDX 19 77 20 78 21 79 22 81 23 82 27 83 24 84 26 85 25 86 28 87
REMARK SMILES IDX 30 88 29 89
REMARK H PARENT 3 7 78 25 52 36 10 69 21 80
REMARK Flexibility Score: inf
ROOT
ATOM      1  C   UNL A   1      36.526  19.971  25.015  1.00  0.00     0.002 C 
ENDROOT
BRANCH   1   2
ATOM      2  C   UNL A   1      38.018  19.957  24.665  1.00  0.00     0.021 C 
BRANCH   2   3
ATOM      3  C   UNL A   1      38.973  20.082  25.846  1.00  0.00     0.116 C 
BRANCH   3   4
ATOM      4  N   UNL A   1      40.039  19.099  25.842  1.00  0.00    -0.352 N 
ATOM      5  O   UNL A   1      42.190  18.409  25.974  1.00  0.00    -0.269 OA
ATOM      6  C   UNL A   1      41.369  19.307  26.129  1.00  0.00     0.251 C 
ATOM      7  H   UNL A   1      39.783  18.178  25.607  1.00  0.00     0.163 HD
BRANCH   6   8
ATOM      8  C   UNL A   1      41.816  20.643  26.590  1.00  0.00     0.039 A 
ATOM      9  C   UNL A   1      41.913  20.943  27.951  1.00  0.00     0.014 A 
ATOM     10  C   UNL A   1      42.154  21.606  25.635  1.00  0.00     0.014 A 
ATOM     11  C   UNL A   1      42.247  22.235  28.356  1.00  0.00     0.010 A 
ATOM     12  C   UNL A   1      42.533  22.890  26.042  1.00  0.00     0.010 A 
ATOM     13  C   UNL A   1      42.555  23.220  27.405  1.00  0.00    -0.014 A 
BRANCH  13  14
ATOM     14  C   UNL A   1      42.921  24.584  27.859  1.00  0.00     0.031 A 
ATOM     15  C   UNL A   1      44.354  25.029  27.884  1.00  0.00     0.074 A 
ATOM     16  C   UNL A   1      41.945  25.441  28.213  1.00  0.00     0.049 A 
ATOM     17  N   UNL A   1      44.847  26.202  28.195  1.00  0.00    -0.248 NA
ATOM     18  C   UNL A   1      45.369  24.030  27.514  1.00  0.00     0.031 C 
ATOM     19  C   UNL A   1      40.516  25.126  28.239  1.00  0.00     0.029 A 
ATOM     20  N   UNL A   1      42.007  26.756  28.596  1.00  0.00    -0.354 N 
ATOM     21  C   UNL A   1      46.225  26.079  28.078  1.00  0.00     0.074 A 
ATOM     22  C   UNL A   1      46.493  24.714  27.675  1.00  0.00     0.031 C 
ATOM     23  C   UNL A   1      39.832  26.232  28.574  1.00  0.00     0.029 A 
ATOM     24  C   UNL A   1      40.775  27.322  28.809  1.00  0.00     0.049 A 
ATOM     25  H   UNL A   1      42.854  27.246  28.708  1.00  0.00     0.167 HD
ATOM     26  C   UNL A   1      47.178  27.018  28.282  1.00  0.00     0.037 A 
ATOM     27  C   UNL A   1      40.441  28.580  29.146  1.00  0.00     0.037 A 
ATOM     28  C   UNL A   1      46.919  28.383  28.658  1.00  0.00     0.049 A 
ATOM     29  C   UNL A   1      41.516  29.604  29.353  1.00  0.00     0.074 A 
ATOM     30  C   UNL A   1      47.825  29.412  28.852  1.00  0.00     0.029 A 
ATOM     31  N   UNL A   1      45.660  28.909  28.893  1.00  0.00    -0.354 N 
ATOM     32  N   UNL A   1      42.812  29.476  29.219  1.00  0.00    -0.248 NA
ATOM     33  C   UNL A   1      41.079  30.946  29.766  1.00  0.00     0.031 C 
ATOM     34  C   UNL A   1      47.112  30.559  29.223  1.00  0.00     0.029 A 
ATOM     35  C   UNL A   1      45.764  30.245  29.243  1.00  0.00     0.049 A 
ATOM     36  H   UNL A   1      44.815  28.407  28.823  1.00  0.00     0.167 HD
ATOM     37  C   UNL A   1      43.347  30.717  29.530  1.00  0.00     0.074 A 
ATOM     38  C   UNL A   1      42.235  31.591  29.843  1.00  0.00     0.031 C 
ATOM     39  C   UNL A   1      44.648  31.096  29.559  1.00  0.00     0.037 A 
BRANCH  26  40
ATOM     40  C   UNL A   1      48.603  26.595  28.112  1.00  0.00     0.057 A 
ATOM     41  C   UNL A   1      49.340  26.063  29.177  1.00  0.00     0.134 A 
ATOM     42  C   UNL A   1      49.231  26.686  26.866  1.00  0.00     0.134 A 
ATOM     43  F   UNL A   1      48.796  25.964  30.399  1.00  0.00    -0.206 F 
ATOM     44  C   UNL A   1      50.662  25.643  29.007  1.00  0.00     0.040 A 
ATOM     45  C   UNL A   1      50.547  26.259  26.681  1.00  0.00     0.040 A 
ATOM     46  F   UNL A   1      48.575  27.186  25.808  1.00  0.00    -0.206 F 
ATOM     47  C   UNL A   1      51.266  25.737  27.755  1.00  0.00     0.006 A 
ENDBRANCH  26  40
BRANCH  27  48
ATOM     48  C   UNL A   1      39.013  28.943  29.278  1.00  0.00     0.057 A 
ATOM     49  C   UNL A   1      38.339  28.765  30.491  1.00  0.00     0.134 A 
ATOM     50  C   UNL A   1      38.300  29.497  28.210  1.00  0.00     0.134 A 
ATOM     51  F   UNL A   1      38.973  28.224  31.542  1.00  0.00    -0.206 F 
ATOM     52  C   UNL A   1      37.001  29.128  30.638  1.00  0.00     0.040 A 
ATOM     53  C   UNL A   1      36.964  29.875  28.347  1.00  0.00     0.040 A 
ATOM     54  F   UNL A   1      38.898  29.689  27.026  1.00  0.00    -0.206 F 
ATOM     55  C   UNL A   1      36.311  29.689  29.564  1.00  0.00     0.006 A 
ENDBRANCH  27  48
BRANCH  39  56
ATOM     56  C   UNL A   1      44.929  32.513  29.947  1.00  0.00     0.057 A 
ATOM     57  C   UNL A   1      44.947  33.536  28.992  1.00  0.00     0.134 A 
ATOM     58  C   UNL A   1      45.166  32.859  31.282  1.00  0.00     0.134 A 
ATOM     59  F   UNL A   1      44.740  33.260  27.696  1.00  0.00    -0.206 F 
ATOM     60  C   UNL A   1      45.203  34.859  29.352  1.00  0.00     0.040 A 
ATOM     61  C   UNL A   1      45.414  34.181  31.655  1.00  0.00     0.040 A 
ATOM     62  F   UNL A   1      45.163  31.921  32.240  1.00  0.00    -0.206 F 
ATOM     63  C   UNL A   1      45.434  35.185  30.688  1.00  0.00     0.006 A 
ENDBRANCH  39  56
ENDBRANCH  13  14
ENDBRANCH   6   8
ENDBRANCH   3   4
ENDBRANCH   2   3
ENDBRANCH   1   2
BRANCH   1  64
ATOM     64  C   UNL A   1      35.777  21.297  24.813  1.00  0.00     0.002 C 
BRANCH  64  65
ATOM     65  C   UNL A   1      36.450  22.337  23.913  1.00  0.00     0.021 C 
BRANCH  65  66
ATOM     66  C   UNL A   1      35.771  23.701  23.880  1.00  0.00     0.116 C 
BRANCH  66  67
ATOM     67  N   UNL A   1      34.517  23.729  24.597  1.00  0.00    -0.351 N 
ATOM     68  C   UNL A   1      33.324  23.826  23.910  1.00  0.00     0.272 C 
ATOM     69  H   UNL A   1      34.515  23.677  25.580  1.00  0.00     0.163 HD
ATOM     70  O   UNL A   1      33.170  23.551  22.726  1.00  0.00    -0.267 OA
BRANCH  68  71
ATOM     71  C   UNL A   1      32.211  24.422  24.679  1.00  0.00     0.159 A 
ATOM     72  N   UNL A   1      31.768  25.629  24.224  1.00  0.00    -0.247 NA
ATOM     73  C   UNL A   1      31.659  23.802  25.788  1.00  0.00     0.159 A 
ATOM     74  C   UNL A   1      30.755  26.172  24.930  1.00  0.00     0.132 A 
ATOM     75  N   UNL A   1      30.627  24.339  26.495  1.00  0.00    -0.247 NA
ATOM     76  C   UNL A   1      30.204  25.546  26.041  1.00  0.00     0.132 A 
BRANCH  73  77
ATOM     77  C   UNL A   1      32.209  22.505  26.216  1.00  0.00     0.276 C 
ATOM     78  O   UNL A   1      33.237  22.493  26.878  1.00  0.00    -0.267 OA
ATOM     79  N   UNL A   1      31.554  21.436  25.635  1.00  0.00    -0.320 N 
ATOM     80  H   UNL A   1      30.574  21.387  25.718  1.00  0.00     0.170 HD
BRANCH  79  81
ATOM     81  C   UNL A   1      32.218  20.408  24.929  1.00  0.00     0.045 A 
ATOM     82  C   UNL A   1      32.231  20.335  23.521  1.00  0.00     0.030 A 
ATOM     83  C   UNL A   1      32.696  19.333  25.688  1.00  0.00     0.076 A 
ATOM     84  C   UNL A   1      32.636  19.167  22.867  1.00  0.00     0.053 A 
ATOM     85  C   UNL A   1      33.057  18.185  25.017  1.00  0.00     0.167 A 
ATOM     86  C   UNL A   1      33.012  18.098  23.646  1.00  0.00     0.165 A 
ATOM     87  O   UNL A   1      33.430  17.012  25.598  1.00  0.00    -0.454 OA
ATOM     88  O   UNL A   1      33.338  16.858  23.192  1.00  0.00    -0.454 OA
ATOM     89  C   UNL A   1      33.496  16.152  24.440  1.00  0.00     0.468 C 
ENDBRANCH  79  81
ENDBRANCH  73  77
ENDBRANCH  68  71
ENDBRANCH  66  67
ENDBRANCH  65  66
ENDBRANCH  64  65
ENDBRANCH   1  64
TORSDOF 15
ENDMDL
MODEL 2
REMARK VINA RESULT:     -11.8      5.024     10.190
REMARK SMILES O=C(NCCCCCCNC(=O)c1nccnc1C(=O)Nc1ccc2c(c1)OCO2)c1ccc(-c2c3nc(c(-c4c(F)cccc4F)c4ccc([nH]4)c(-c4c(F)cccc4F)c4nc(c(-c5c(F)cccc5F)c5ccc2[nH]5)C=C4)C=C3)cc1
REMARK SMILES IDX 6 1 5 2 4 3 3 4 1 5 2 6 31 8 32 9 84 10 33 11 83 12 34 13
REMARK SMILES IDX 35 14 36 15 77 16 37 17 82 18 76 19 78 20 38 21 81 22 75 23
REMARK SMILES IDX 74 24 39 26 65 27 48 28 64 29 49 30 52 31 63 32 79 33 50 34
REMARK SMILES IDX 51 35 62 37 80 38 53 39 40 40 41 41 46 42 42 43 43 44 45 45
REMARK SMILES IDX 47 46 44 47 66 48 67 49 72 50 68 51 69 52 71 53 73 54 70 55
REMARK SMILES IDX 54 56 55 57 60 58 56 59 57 60 59 61 61 62 58 63 7 64 8 65
REMARK SMILES IDX 9 66 10 67 11 68 12 70 13 71 14 72 18 73 15 74 17 75 16 76
REMARK SMILES IDX 19 77 20 78 21 79 22 81 23 82 27 83 24 84 26 85 25 86 28 87
REMARK SMILES IDX 30 88 29 89
REMARK H PARENT 3 7 78 25 52 36 10 69 21 80
REMARK Flexibility Score: inf
ROOT
ATOM      1  C   UNL A   1      32.182  30.523  26.878  1.00  0.00     0.002 C 
ENDROOT
BRANCH   1   2
ATOM      2  C   UNL A   1      31.638  31.956  26.892  1.00  0.00     0.021 C 
BRANCH   2   3
ATOM      3  C   UNL A   1      32.686  33.060  26.824  1.00  0.00     0.116 C 
BRANCH   3   4
ATOM      4  N   UNL A   1      32.362  34.223  27.626  1.00  0.00    -0.352 N 
ATOM      5  O   UNL A   1      32.528  35.579  29.430  1.00  0.00    -0.269 OA
ATOM      6  C   UNL A   1      32.978  34.638  28.785  1.00  0.00     0.251 C 
ATOM      7  H   UNL A   1      31.617  34.781  27.304  1.00  0.00     0.163 HD
BRANCH   6   8
ATOM      8  C   UNL A   1      34.171  33.910  29.278  1.00  0.00     0.039 A 
ATOM      9  C   UNL A   1      34.045  32.766  30.069  1.00  0.00     0.014 A 
ATOM     10  C   UNL A   1      35.440  34.383  28.928  1.00  0.00     0.014 A 
ATOM     11  C   UNL A   1      35.183  32.155  30.594  1.00  0.00     0.010 A 
ATOM     12  C   UNL A   1      36.583  33.744  29.419  1.00  0.00     0.010 A 
ATOM     13  C   UNL A   1      36.461  32.642  30.278  1.00  0.00    -0.014 A 
BRANCH  13  14
ATOM     14  C   UNL A   1      37.658  31.968  30.839  1.00  0.00     0.031 A 
ATOM     15  C   UNL A   1      38.126  32.265  32.234  1.00  0.00     0.074 A 
ATOM     16  C   UNL A   1      38.303  31.051  30.095  1.00  0.00     0.049 A 
ATOM     17  N   UNL A   1      39.114  31.726  32.903  1.00  0.00    -0.248 NA
ATOM     18  C   UNL A   1      37.392  33.301  32.977  1.00  0.00     0.031 C 
ATOM     19  C   UNL A   1      37.951  30.681  28.723  1.00  0.00     0.029 A 
ATOM     20  N   UNL A   1      39.372  30.249  30.396  1.00  0.00    -0.354 N 
ATOM     21  C   UNL A   1      39.135  32.367  34.134  1.00  0.00     0.074 A 
ATOM     22  C   UNL A   1      38.065  33.342  34.119  1.00  0.00     0.031 C 
ATOM     23  C   UNL A   1      38.761  29.690  28.317  1.00  0.00     0.029 A 
ATOM     24  C   UNL A   1      39.702  29.376  29.389  1.00  0.00     0.049 A 
ATOM     25  H   UNL A   1      39.857  30.295  31.252  1.00  0.00     0.167 HD
ATOM     26  C   UNL A   1      39.967  32.158  35.182  1.00  0.00     0.037 A 
ATOM     27  C   UNL A   1      40.649  28.423  29.338  1.00  0.00     0.037 A 
ATOM     28  C   UNL A   1      41.015  31.174  35.215  1.00  0.00     0.049 A 
ATOM     29  C   UNL A   1      41.548  28.204  30.518  1.00  0.00     0.074 A 
ATOM     30  C   UNL A   1      41.884  30.871  36.250  1.00  0.00     0.029 A 
ATOM     31  N   UNL A   1      41.337  30.331  34.165  1.00  0.00    -0.354 N 
ATOM     32  N   UNL A   1      41.541  28.805  31.681  1.00  0.00    -0.248 NA
ATOM     33  C   UNL A   1      42.589  27.176  30.373  1.00  0.00     0.031 C 
ATOM     34  C   UNL A   1      42.744  29.854  35.818  1.00  0.00     0.029 A 
ATOM     35  C   UNL A   1      42.398  29.515  34.521  1.00  0.00     0.049 A 
ATOM     36  H   UNL A   1      40.879  30.314  33.293  1.00  0.00     0.167 HD
ATOM     37  C   UNL A   1      42.574  28.233  32.407  1.00  0.00     0.074 A 
ATOM     38  C   UNL A   1      43.177  27.223  31.561  1.00  0.00     0.031 C 
ATOM     39  C   UNL A   1      42.990  28.523  33.664  1.00  0.00     0.037 A 
BRANCH  26  40
ATOM     40  C   UNL A   1      39.779  33.026  36.387  1.00  0.00     0.057 A 
ATOM     41  C   UNL A   1      40.511  34.207  36.559  1.00  0.00     0.134 A 
ATOM     42  C   UNL A   1      38.833  32.697  37.364  1.00  0.00     0.134 A 
ATOM     43  F   UNL A   1      41.442  34.567  35.662  1.00  0.00    -0.206 F 
ATOM     44  C   UNL A   1      40.313  35.029  37.671  1.00  0.00     0.040 A 
ATOM     45  C   UNL A   1      38.619  33.516  38.474  1.00  0.00     0.040 A 
ATOM     46  F   UNL A   1      38.101  31.578  37.253  1.00  0.00    -0.206 F 
ATOM     47  C   UNL A   1      39.362  34.685  38.629  1.00  0.00     0.006 A 
ENDBRANCH  26  40
BRANCH  27  48
ATOM     48  C   UNL A   1      40.771  27.583  28.127  1.00  0.00     0.057 A 
ATOM     49  C   UNL A   1      40.080  26.371  28.024  1.00  0.00     0.134 A 
ATOM     50  C   UNL A   1      41.557  27.981  27.040  1.00  0.00     0.134 A 
ATOM     51  F   UNL A   1      39.325  25.936  29.044  1.00  0.00    -0.206 F 
ATOM     52  C   UNL A   1      40.165  25.581  26.878  1.00  0.00     0.040 A 
ATOM     53  C   UNL A   1      41.640  27.206  25.883  1.00  0.00     0.040 A 
ATOM     54  F   UNL A   1      42.240  29.133  27.086  1.00  0.00    -0.206 F 
ATOM     55  C   UNL A   1      40.943  26.001  25.801  1.00  0.00     0.006 A 
ENDBRANCH  27  48
BRANCH  39  56
ATOM     56  C   UNL A   1      44.152  27.740  34.188  1.00  0.00     0.057 A 
ATOM     57  C   UNL A   1      43.967  26.512  34.833  1.00  0.00     0.134 A 
ATOM     58  C   UNL A   1      45.461  28.208  34.033  1.00  0.00     0.134 A 
ATOM     59  F   UNL A   1      42.732  26.022  35.021  1.00  0.00    -0.206 F 
ATOM     60  C   UNL A   1      45.049  25.777  35.317  1.00  0.00     0.040 A 
ATOM     61  C   UNL A   1      46.553  27.477  34.505  1.00  0.00     0.040 A 
ATOM     62  F   UNL A   1      45.699  29.379  33.425  1.00  0.00    -0.206 F 
ATOM     63  C   UNL A   1      46.347  26.259  35.150  1.00  0.00     0.006 A 
ENDBRANCH  39  56
ENDBRANCH  13  14
ENDBRANCH   6   8
ENDBRANCH   3   4
ENDBRANCH   2   3
ENDBRANCH   1   2
BRANCH   1  64
ATOM     64  C   UNL A   1      33.644  30.330  27.307  1.00  0.00     0.002 C 
BRANCH  64  65
ATOM     65  C   UNL A   1      34.254  28.946  27.071  1.00  0.00     0.021 C 
BRANCH  65  66
ATOM     66  C   UNL A   1      33.246  27.819  26.876  1.00  0.00     0.116 C 
BRANCH  66  67
ATOM     67  N   UNL A   1      33.330  27.201  25.572  1.00  0.00    -0.351 N 
ATOM     68  C   UNL A   1      32.367  26.299  25.167  1.00  0.00     0.272 C 
ATOM     69  H   UNL A   1      34.077  27.426  24.972  1.00  0.00     0.163 HD
ATOM     70  O   UNL A   1      31.244  26.204  25.649  1.00  0.00    -0.267 OA
BRANCH  68  71
ATOM     71  C   UNL A   1      32.816  25.324  24.151  1.00  0.00     0.159 A 
ATOM     72  N   UNL A   1      33.150  24.093  24.632  1.00  0.00    -0.247 NA
ATOM     73  C   UNL A   1      32.901  25.640  22.805  1.00  0.00     0.159 A 
ATOM     74  C   UNL A   1      33.564  23.207  23.703  1.00  0.00     0.132 A 
ATOM     75  N   UNL A   1      33.304  24.746  21.862  1.00  0.00    -0.247 NA
ATOM     76  C   UNL A   1      33.645  23.527  22.353  1.00  0.00     0.132 A 
BRANCH  73  77
ATOM     77  C   UNL A   1      32.532  27.000  22.376  1.00  0.00     0.276 C 
ATOM     78  O   UNL A   1      33.313  27.916  22.595  1.00  0.00    -0.267 OA
ATOM     79  N   UNL A   1      31.228  27.078  21.928  1.00  0.00    -0.320 N 
ATOM     80  H   UNL A   1      30.938  26.454  21.224  1.00  0.00     0.170 HD
BRANCH  79  81
ATOM     81  C   UNL A   1      30.288  28.008  22.427  1.00  0.00     0.045 A 
ATOM     82  C   UNL A   1      29.139  27.620  23.147  1.00  0.00     0.030 A 
ATOM     83  C   UNL A   1      30.430  29.334  22.001  1.00  0.00     0.076 A 
ATOM     84  C   UNL A   1      28.094  28.521  23.367  1.00  0.00     0.053 A 
ATOM     85  C   UNL A   1      29.370  30.190  22.205  1.00  0.00     0.167 A 
ATOM     86  C   UNL A   1      28.226  29.790  22.854  1.00  0.00     0.165 A 
ATOM     87  O   UNL A   1      29.288  31.472  21.754  1.00  0.00    -0.454 OA
ATOM     88  O   UNL A   1      27.278  30.765  22.884  1.00  0.00    -0.454 OA
ATOM     89  C   UNL A   1      27.921  31.785  22.092  1.00  0.00     0.468 C 
ENDBRANCH  79  81
ENDBRANCH  73  77
ENDBRANCH  68  71
ENDBRANCH  66  67
ENDBRANCH  65  66
ENDBRANCH  64  65
ENDBRANCH   1  64
TORSDOF 15
ENDMDL
MODEL 3
REMARK VINA RESULT:     -11.6      4.642      9.310
REMARK SMILES O=C(NCCCCCCNC(=O)c1nccnc1C(=O)Nc1ccc2c(c1)OCO2)c1ccc(-c2c3nc(c(-c4c(F)cccc4F)c4ccc([nH]4)c(-c4c(F)cccc4F)c4nc(c(-c5c(F)cccc5F)c5ccc2[nH]5)C=C4)C=C3)cc1
REMARK SMILES IDX 6 1 5 2 4 3 3 4 1 5 2 6 31 8 32 9 84 10 33 11 83 12 34 13
REMARK SMILES IDX 35 14 36 15 77 16 37 17 82 18 76 19 78 20 38 21 81 22 75 23
REMARK SMILES IDX 74 24 39 26 65 27 48 28 64 29 49 30 52 31 63 32 79 33 50 34
REMARK SMILES IDX 51 35 62 37 80 38 53 39 40 40 41 41 46 42 42 43 43 44 45 45
REMARK SMILES IDX 47 46 44 47 66 48 67 49 72 50 68 51 69 52 71 53 73 54 70 55
REMARK SMILES IDX 54 56 55 57 60 58 56 59 57 60 59 61 61 62 58 63 7 64 8 65
REMARK SMILES IDX 9 66 10 67 11 68 12 70 13 71 14 72 18 73 15 74 17 75 16 76
REMARK SMILES IDX 19 77 20 78 21 79 22 81 23 82 27 83 24 84 26 85 25 86 28 87
REMARK SMILES IDX 30 88 29 89
REMARK H PARENT 3 7 78 25 52 36 10 69 21 80
REMARK Flexibility Score: inf
ROOT
ATOM      1  C   UNL A   1      31.582  30.685  26.062  1.00  0.00     0.002 C 
ENDROOT
BRANCH   1   2
ATOM      2  C   UNL A   1      31.355  32.114  26.568  1.00  0.00     0.021 C 
BRANCH   2   3
ATOM      3  C   UNL A   1      32.616  32.914  26.869  1.00  0.00     0.116 C 
BRANCH   3   4
ATOM      4  N   UNL A   1      32.368  34.147  27.589  1.00  0.00    -0.352 N 
ATOM      5  O   UNL A   1      32.657  35.630  29.273  1.00  0.00    -0.269 OA
ATOM      6  C   UNL A   1      33.046  34.626  28.687  1.00  0.00     0.251 C 
ATOM      7  H   UNL A   1      31.631  34.708  27.254  1.00  0.00     0.163 HD
BRANCH   6   8
ATOM      8  C   UNL A   1      34.232  33.893  29.189  1.00  0.00     0.039 A 
ATOM      9  C   UNL A   1      34.094  32.737  29.962  1.00  0.00     0.014 A 
ATOM     10  C   UNL A   1      35.506  34.371  28.867  1.00  0.00     0.014 A 
ATOM     11  C   UNL A   1      35.224  32.120  30.497  1.00  0.00     0.010 A 
ATOM     12  C   UNL A   1      36.642  33.726  29.367  1.00  0.00     0.010 A 
ATOM     13  C   UNL A   1      36.507  32.613  30.209  1.00  0.00    -0.014 A 
BRANCH  13  14
ATOM     14  C   UNL A   1      37.695  31.932  30.779  1.00  0.00     0.031 A 
ATOM     15  C   UNL A   1      38.137  32.205  32.187  1.00  0.00     0.074 A 
ATOM     16  C   UNL A   1      38.356  31.030  30.031  1.00  0.00     0.049 A 
ATOM     17  N   UNL A   1      39.115  31.657  32.864  1.00  0.00    -0.248 NA
ATOM     18  C   UNL A   1      37.388  33.227  32.935  1.00  0.00     0.031 C 
ATOM     19  C   UNL A   1      38.029  30.682  28.647  1.00  0.00     0.029 A 
ATOM     20  N   UNL A   1      39.422  30.224  30.338  1.00  0.00    -0.354 N 
ATOM     21  C   UNL A   1      39.112  32.277  34.107  1.00  0.00     0.074 A 
ATOM     22  C   UNL A   1      38.040  33.250  34.089  1.00  0.00     0.031 C 
ATOM     23  C   UNL A   1      38.850  29.700  28.239  1.00  0.00     0.029 A 
ATOM     24  C   UNL A   1      39.772  29.370  29.322  1.00  0.00     0.049 A 
ATOM     25  H   UNL A   1      39.891  30.257  31.203  1.00  0.00     0.167 HD
ATOM     26  C   UNL A   1      39.925  32.053  35.166  1.00  0.00     0.037 A 
ATOM     27  C   UNL A   1      40.722  28.420  29.272  1.00  0.00     0.037 A 
ATOM     28  C   UNL A   1      40.976  31.071  35.200  1.00  0.00     0.049 A 
ATOM     29  C   UNL A   1      41.600  28.183  30.463  1.00  0.00     0.074 A 
ATOM     30  C   UNL A   1      41.826  30.752  36.246  1.00  0.00     0.029 A 
ATOM     31  N   UNL A   1      41.319  30.246  34.142  1.00  0.00    -0.354 N 
ATOM     32  N   UNL A   1      41.571  28.764  31.636  1.00  0.00    -0.248 NA
ATOM     33  C   UNL A   1      42.647  27.161  30.319  1.00  0.00     0.031 C 
ATOM     34  C   UNL A   1      42.697  29.744  35.812  1.00  0.00     0.029 A 
ATOM     35  C   UNL A   1      42.375  29.427  34.503  1.00  0.00     0.049 A 
ATOM     36  H   UNL A   1      40.876  30.244  33.261  1.00  0.00     0.167 HD
ATOM     37  C   UNL A   1      42.593  28.181  32.371  1.00  0.00     0.074 A 
ATOM     38  C   UNL A   1      43.213  27.188  31.518  1.00  0.00     0.031 C 
ATOM     39  C   UNL A   1      42.985  28.451  33.640  1.00  0.00     0.037 A 
BRANCH  26  40
ATOM     40  C   UNL A   1      39.714  32.899  36.381  1.00  0.00     0.057 A 
ATOM     41  C   UNL A   1      40.444  34.075  36.591  1.00  0.00     0.134 A 
ATOM     42  C   UNL A   1      38.747  32.555  37.332  1.00  0.00     0.134 A 
ATOM     43  F   UNL A   1      41.395  34.449  35.721  1.00  0.00    -0.206 F 
ATOM     44  C   UNL A   1      40.225  34.877  37.713  1.00  0.00     0.040 A 
ATOM     45  C   UNL A   1      38.510  33.354  38.452  1.00  0.00     0.040 A 
ATOM     46  F   UNL A   1      38.015  31.440  37.185  1.00  0.00    -0.206 F 
ATOM     47  C   UNL A   1      39.252  34.518  38.644  1.00  0.00     0.006 A 
ENDBRANCH  26  40
BRANCH  27  48
ATOM     48  C   UNL A   1      40.868  27.601  28.049  1.00  0.00     0.057 A 
ATOM     49  C   UNL A   1      41.650  28.047  26.978  1.00  0.00     0.134 A 
ATOM     50  C   UNL A   1      40.255  26.349  27.932  1.00  0.00     0.134 A 
ATOM     51  F   UNL A   1      42.248  29.246  27.033  1.00  0.00    -0.206 F 
ATOM     52  C   UNL A   1      41.818  27.274  25.829  1.00  0.00     0.040 A 
ATOM     53  C   UNL A   1      40.424  25.561  26.794  1.00  0.00     0.040 A 
ATOM     54  F   UNL A   1      39.494  25.874  28.929  1.00  0.00    -0.206 F 
ATOM     55  C   UNL A   1      41.207  26.024  25.738  1.00  0.00     0.006 A 
ENDBRANCH  27  48
BRANCH  39  56
ATOM     56  C   UNL A   1      44.139  27.663  34.171  1.00  0.00     0.057 A 
ATOM     57  C   UNL A   1      43.949  26.411  34.767  1.00  0.00     0.134 A 
ATOM     58  C   UNL A   1      45.448  28.149  34.072  1.00  0.00     0.134 A 
ATOM     59  F   UNL A   1      42.715  25.902  34.901  1.00  0.00    -0.206 F 
ATOM     60  C   UNL A   1      45.024  25.670  35.258  1.00  0.00     0.040 A 
ATOM     61  C   UNL A   1      46.532  27.413  34.550  1.00  0.00     0.040 A 
ATOM     62  F   UNL A   1      45.691  29.343  33.512  1.00  0.00    -0.206 F 
ATOM     63  C   UNL A   1      46.321  26.170  35.147  1.00  0.00     0.006 A 
ENDBRANCH  39  56
ENDBRANCH  13  14
ENDBRANCH   6   8
ENDBRANCH   3   4
ENDBRANCH   2   3
ENDBRANCH   1   2
BRANCH   1  64
ATOM     64  C   UNL A   1      32.098  29.660  27.083  1.00  0.00     0.002 C 
BRANCH  64  65
ATOM     65  C   UNL A   1      33.606  29.651  27.346  1.00  0.00     0.021 C 
BRANCH  65  66
ATOM     66  C   UNL A   1      34.410  28.691  26.477  1.00  0.00     0.116 C 
BRANCH  66  67
ATOM     67  N   UNL A   1      33.613  27.617  25.931  1.00  0.00    -0.351 N 
ATOM     68  C   UNL A   1      33.385  27.541  24.572  1.00  0.00     0.272 C 
ATOM     69  H   UNL A   1      33.232  26.936  26.531  1.00  0.00     0.163 HD
ATOM     70  O   UNL A   1      34.064  28.093  23.712  1.00  0.00    -0.267 OA
BRANCH  68  71
ATOM     71  C   UNL A   1      32.151  26.824  24.187  1.00  0.00     0.159 A 
ATOM     72  N   UNL A   1      31.015  27.578  24.182  1.00  0.00    -0.247 NA
ATOM     73  C   UNL A   1      32.146  25.478  23.860  1.00  0.00     0.159 A 
ATOM     74  C   UNL A   1      29.891  26.920  23.835  1.00  0.00     0.132 A 
ATOM     75  N   UNL A   1      31.017  24.812  23.495  1.00  0.00    -0.247 NA
ATOM     76  C   UNL A   1      29.891  25.570  23.506  1.00  0.00     0.132 A 
BRANCH  73  77
ATOM     77  C   UNL A   1      33.419  24.738  23.904  1.00  0.00     0.276 C 
ATOM     78  O   UNL A   1      34.066  24.622  22.872  1.00  0.00    -0.267 OA
ATOM     79  N   UNL A   1      33.622  24.106  25.115  1.00  0.00    -0.320 N 
ATOM     80  H   UNL A   1      33.560  24.643  25.938  1.00  0.00     0.170 HD
BRANCH  79  81
ATOM     81  C   UNL A   1      33.916  22.729  25.234  1.00  0.00     0.045 A 
ATOM     82  C   UNL A   1      35.230  22.221  25.174  1.00  0.00     0.030 A 
ATOM     83  C   UNL A   1      32.826  21.851  25.209  1.00  0.00     0.076 A 
ATOM     84  C   UNL A   1      35.462  20.854  25.000  1.00  0.00     0.053 A 
ATOM     85  C   UNL A   1      33.086  20.513  25.005  1.00  0.00     0.167 A 
ATOM     86  C   UNL A   1      34.367  20.030  24.886  1.00  0.00     0.165 A 
ATOM     87  O   UNL A   1      32.148  19.540  24.837  1.00  0.00    -0.454 OA
ATOM     88  O   UNL A   1      34.397  18.697  24.617  1.00  0.00    -0.454 OA
ATOM     89  C   UNL A   1      32.988  18.421  24.482  1.00  0.00     0.468 C 
ENDBRANCH  79  81
ENDBRANCH  73  77
ENDBRANCH  68  71
ENDBRANCH  66  67
ENDBRANCH  65  66
ENDBRANCH  64  65
ENDBRANCH   1  64
TORSDOF 15
ENDMDL
