MODEL 1
REMARK VINA RESULT:      -9.8      0.000      0.000
REMARK SMILES [N-]=[N+]=NC[C@H](NC=O)C(=O)NCCCCCCNC(=O)c1ccc(-c2c3nc(c(-c4c(F)cccc4F)c4ccc([nH]4)c(-c4c(F)cccc4F)c4nc(c(-c5c(F)cccc5F)c5ccc2[nH]5)C=C4)C=C3)cc1
REMARK SMILES IDX 14 1 13 2 12 3 11 4 9 5 10 6 5 8 4 9 3 10 1 11 2 12 6 13
REMARK SMILES IDX 7 14 8 16 15 17 16 18 17 19 18 20 19 21 20 23 21 24 22 25
REMARK SMILES IDX 74 26 23 27 73 28 24 29 25 30 26 31 67 32 27 33 72 34 66 35
REMARK SMILES IDX 68 36 28 37 71 38 65 39 64 40 29 42 55 43 38 44 54 45 39 46
REMARK SMILES IDX 42 47 53 48 69 49 40 50 41 51 52 53 70 54 43 55 30 56 31 57
REMARK SMILES IDX 36 58 32 59 33 60 35 61 37 62 34 63 56 64 57 65 62 66 58 67
REMARK SMILES IDX 59 68 61 69 63 70 60 71 44 72 45 73 50 74 46 75 47 76 49 77
REMARK SMILES IDX 51 78 48 79
REMARK H PARENT 11 7 6 15 18 22 68 41 42 52
REMARK Flexibility Score: inf
ROOT
ATOM      1  C   UNL A   1      45.684  24.823  25.196  1.00  0.00     0.002 C 
ENDROOT
BRANCH   1   2
ATOM      2  C   UNL A   1      46.513  23.679  24.600  1.00  0.00     0.021 C 
BRANCH   2   3
ATOM      3  C   UNL A   1      45.714  22.410  24.323  1.00  0.00     0.116 C 
BRANCH   3   4
ATOM      4  N   UNL A   1      46.397  21.230  24.820  1.00  0.00    -0.354 N 
ATOM      5  C   UNL A   1      45.971  19.941  24.929  1.00  0.00     0.242 C 
ATOM      6  O   UNL A   1      46.785  19.100  25.319  1.00  0.00    -0.273 OA
ATOM      7  H   UNL A   1      47.318  21.387  25.130  1.00  0.00     0.163 HD
BRANCH   5   8
ATOM      8  C   UNL A   1      44.581  19.505  24.437  1.00  0.00     0.176 C 
BRANCH   8   9
ATOM      9  C   UNL A   1      43.735  19.095  25.655  1.00  0.00     0.125 C 
BRANCH   9  10
ATOM     10  N   UNL A   1      42.295  19.232  25.374  1.00  0.00    -0.091 NA
ATOM     11  N   UNL A   1      41.014  20.258  27.102  1.00  0.00    -0.003 NA
ATOM     12  N   UNL A   1      41.619  19.763  26.271  1.00  0.00     0.001 N 
ENDBRANCH   9  10
ENDBRANCH   8   9
BRANCH   8  13
ATOM     13  N   UNL A   1      44.644  18.464  23.419  1.00  0.00    -0.347 N 
ATOM     14  C   UNL A   1      45.277  18.621  22.223  1.00  0.00     0.337 C 
ATOM     15  H   UNL A   1      44.205  17.602  23.605  1.00  0.00     0.164 HD
ATOM     16  O   UNL A   1      45.296  17.745  21.369  1.00  0.00    -0.279 OA
ENDBRANCH   8  13
ENDBRANCH   5   8
ENDBRANCH   3   4
ENDBRANCH   2   3
ENDBRANCH   1   2
BRANCH   1  17
ATOM     17  C   UNL A   1      44.169  24.697  25.003  1.00  0.00     0.002 C 
BRANCH  17  18
ATOM     18  C   UNL A   1      43.321  25.199  26.173  1.00  0.00     0.021 C 
BRANCH  18  19
ATOM     19  C   UNL A   1      42.462  24.131  26.840  1.00  0.00     0.116 C 
BRANCH  19  20
ATOM     20  N   UNL A   1      41.180  23.967  26.177  1.00  0.00    -0.352 N 
ATOM     21  C   UNL A   1      39.967  24.540  26.459  1.00  0.00     0.251 C 
ATOM     22  H   UNL A   1      41.182  23.350  25.409  1.00  0.00     0.163 HD
ATOM     23  O   UNL A   1      38.951  24.122  25.912  1.00  0.00    -0.269 OA
BRANCH  21  24
ATOM     24  C   UNL A   1      39.874  25.646  27.436  1.00  0.00     0.039 A 
ATOM     25  C   UNL A   1      39.227  25.411  28.651  1.00  0.00     0.014 A 
ATOM     26  C   UNL A   1      40.402  26.911  27.158  1.00  0.00     0.014 A 
ATOM     27  C   UNL A   1      39.155  26.427  29.605  1.00  0.00     0.010 A 
ATOM     28  C   UNL A   1      40.403  27.897  28.142  1.00  0.00     0.010 A 
ATOM     29  C   UNL A   1      39.774  27.667  29.374  1.00  0.00    -0.014 A 
BRANCH  29  30
ATOM     30  C   UNL A   1      39.783  28.713  30.430  1.00  0.00     0.031 A 
ATOM     31  C   UNL A   1      38.821  29.866  30.381  1.00  0.00     0.074 A 
ATOM     32  C   UNL A   1      40.690  28.634  31.423  1.00  0.00     0.049 A 
ATOM     33  N   UNL A   1      38.674  30.854  31.229  1.00  0.00    -0.248 NA
ATOM     34  C   UNL A   1      37.923  29.937  29.219  1.00  0.00     0.031 C 
ATOM     35  C   UNL A   1      41.717  27.598  31.548  1.00  0.00     0.029 A 
ATOM     36  N   UNL A   1      40.893  29.436  32.518  1.00  0.00    -0.354 N 
ATOM     37  C   UNL A   1      37.675  31.662  30.701  1.00  0.00     0.074 A 
ATOM     38  C   UNL A   1      37.295  31.084  29.430  1.00  0.00     0.031 C 
ATOM     39  C   UNL A   1      42.416  27.805  32.675  1.00  0.00     0.029 A 
ATOM     40  C   UNL A   1      41.914  29.008  33.331  1.00  0.00     0.049 A 
ATOM     41  H   UNL A   1      40.357  30.241  32.703  1.00  0.00     0.167 HD
ATOM     42  C   UNL A   1      37.110  32.771  31.236  1.00  0.00     0.037 A 
ATOM     43  C   UNL A   1      42.396  29.526  34.476  1.00  0.00     0.037 A 
ATOM     44  C   UNL A   1      37.489  33.339  32.505  1.00  0.00     0.049 A 
ATOM     45  C   UNL A   1      41.755  30.761  35.047  1.00  0.00     0.074 A 
ATOM     46  C   UNL A   1      36.933  34.422  33.165  1.00  0.00     0.029 A 
ATOM     47  N   UNL A   1      38.529  32.880  33.300  1.00  0.00    -0.354 N 
ATOM     48  N   UNL A   1      40.751  31.462  34.583  1.00  0.00    -0.248 NA
ATOM     49  C   UNL A   1      42.311  31.267  36.308  1.00  0.00     0.031 C 
ATOM     50  C   UNL A   1      37.678  34.658  34.325  1.00  0.00     0.029 A 
ATOM     51  C   UNL A   1      38.655  33.680  34.425  1.00  0.00     0.049 A 
ATOM     52  H   UNL A   1      39.094  32.101  33.095  1.00  0.00     0.167 HD
ATOM     53  C   UNL A   1      40.539  32.481  35.503  1.00  0.00     0.074 A 
ATOM     54  C   UNL A   1      41.504  32.286  36.566  1.00  0.00     0.031 C 
ATOM     55  C   UNL A   1      39.629  33.486  35.471  1.00  0.00     0.037 A 
BRANCH  42  56
ATOM     56  C   UNL A   1      36.028  33.451  30.443  1.00  0.00     0.057 A 
ATOM     57  C   UNL A   1      36.310  34.202  29.293  1.00  0.00     0.134 A 
ATOM     58  C   UNL A   1      34.684  33.330  30.816  1.00  0.00     0.134 A 
ATOM     59  F   UNL A   1      37.576  34.369  28.881  1.00  0.00    -0.206 F 
ATOM     60  C   UNL A   1      35.299  34.835  28.566  1.00  0.00     0.040 A 
ATOM     61  C   UNL A   1      33.661  33.930  30.079  1.00  0.00     0.040 A 
ATOM     62  F   UNL A   1      34.339  32.619  31.900  1.00  0.00    -0.206 F 
ATOM     63  C   UNL A   1      33.969  34.694  28.955  1.00  0.00     0.006 A 
ENDBRANCH  42  56
BRANCH  43  64
ATOM     64  C   UNL A   1      43.533  28.866  35.166  1.00  0.00     0.057 A 
ATOM     65  C   UNL A   1      43.320  27.914  36.168  1.00  0.00     0.134 A 
ATOM     66  C   UNL A   1      44.860  29.168  34.835  1.00  0.00     0.134 A 
ATOM     67  F   UNL A   1      42.073  27.594  36.543  1.00  0.00    -0.206 F 
ATOM     68  C   UNL A   1      44.384  27.300  36.832  1.00  0.00     0.040 A 
ATOM     69  C   UNL A   1      45.933  28.539  35.468  1.00  0.00     0.040 A 
ATOM     70  F   UNL A   1      45.132  30.063  33.874  1.00  0.00    -0.206 F 
ATOM     71  C   UNL A   1      45.695  27.608  36.477  1.00  0.00     0.006 A 
ENDBRANCH  43  64
BRANCH  55  72
ATOM     72  C   UNL A   1      39.626  34.442  36.632  1.00  0.00     0.057 A 
ATOM     73  C   UNL A   1      38.918  34.177  37.811  1.00  0.00     0.134 A 
ATOM     74  C   UNL A   1      40.351  35.640  36.572  1.00  0.00     0.134 A 
ATOM     75  F   UNL A   1      38.192  33.054  37.932  1.00  0.00    -0.206 F 
ATOM     76  C   UNL A   1      38.897  35.085  38.871  1.00  0.00     0.040 A 
ATOM     77  C   UNL A   1      40.367  36.539  37.638  1.00  0.00     0.040 A 
ATOM     78  F   UNL A   1      41.063  35.953  35.478  1.00  0.00    -0.206 F 
ATOM     79  C   UNL A   1      39.628  36.269  38.788  1.00  0.00     0.006 A 
ENDBRANCH  55  72
ENDBRANCH  29  30
ENDBRANCH  21  24
ENDBRANCH  19  20
ENDBRANCH  18  19
ENDBRANCH  17  18
ENDBRANCH   1  17
TORSDOF 16
ENDMDL
MODEL 2
REMARK VINA RESULT:      -9.8      5.043      9.919
REMARK SMILES [N-]=[N+]=NC[C@H](NC=O)C(=O)NCCCCCCNC(=O)c1ccc(-c2c3nc(c(-c4c(F)cccc4F)c4ccc([nH]4)c(-c4c(F)cccc4F)c4nc(c(-c5c(F)cccc5F)c5ccc2[nH]5)C=C4)C=C3)cc1
REMARK SMILES IDX 14 1 13 2 12 3 11 4 9 5 10 6 5 8 4 9 3 10 1 11 2 12 6 13
REMARK SMILES IDX 7 14 8 16 15 17 16 18 17 19 18 20 19 21 20 23 21 24 22 25
REMARK SMILES IDX 74 26 23 27 73 28 24 29 25 30 26 31 67 32 27 33 72 34 66 35
REMARK SMILES IDX 68 36 28 37 71 38 65 39 64 40 29 42 55 43 38 44 54 45 39 46
REMARK SMILES IDX 42 47 53 48 69 49 40 50 41 51 52 53 70 54 43 55 30 56 31 57
REMARK SMILES IDX 36 58 32 59 33 60 35 61 37 62 34 63 56 64 57 65 62 66 58 67
REMARK SMILES IDX 59 68 61 69 63 70 60 71 44 72 45 73 50 74 46 75 47 76 49 77
REMARK SMILES IDX 51 78 48 79
REMARK H PARENT 11 7 6 15 18 22 68 41 42 52
REMARK Flexibility Score: inf
ROOT
ATOM      1  C   UNL A   1      38.124  23.647  25.768  1.00  0.00     0.002 C 
ENDROOT
BRANCH   1   2
ATOM      2  C   UNL A   1      36.825  23.255  25.053  1.00  0.00     0.021 C 
BRANCH   2   3
ATOM      3  C   UNL A   1      35.565  23.839  25.685  1.00  0.00     0.116 C 
BRANCH   3   4
ATOM      4  N   UNL A   1      35.078  23.007  26.769  1.00  0.00    -0.354 N 
ATOM      5  C   UNL A   1      34.037  22.129  26.812  1.00  0.00     0.242 C 
ATOM      6  O   UNL A   1      33.877  21.481  27.849  1.00  0.00    -0.273 OA
ATOM      7  H   UNL A   1      35.580  23.091  27.611  1.00  0.00     0.163 HD
BRANCH   5   8
ATOM      8  C   UNL A   1      33.182  21.829  25.570  1.00  0.00     0.176 C 
BRANCH   8   9
ATOM      9  C   UNL A   1      32.292  23.050  25.279  1.00  0.00     0.125 C 
BRANCH   9  10
ATOM     10  N   UNL A   1      32.057  23.843  26.499  1.00  0.00    -0.091 NA
ATOM     11  N   UNL A   1      30.060  25.143  26.498  1.00  0.00    -0.003 NA
ATOM     12  N   UNL A   1      31.019  24.526  26.505  1.00  0.00     0.001 N 
ENDBRANCH   9  10
ENDBRANCH   8   9
BRANCH   8  13
ATOM     13  N   UNL A   1      32.419  20.593  25.696  1.00  0.00    -0.347 N 
ATOM     14  C   UNL A   1      32.805  19.412  25.138  1.00  0.00     0.337 C 
ATOM     15  H   UNL A   1      31.579  20.614  26.211  1.00  0.00     0.164 HD
ATOM     16  O   UNL A   1      32.138  18.392  25.231  1.00  0.00    -0.279 OA
ENDBRANCH   8  13
ENDBRANCH   5   8
ENDBRANCH   3   4
ENDBRANCH   2   3
ENDBRANCH   1   2
BRANCH   1  17
ATOM     17  C   UNL A   1      38.859  22.493  26.457  1.00  0.00     0.002 C 
BRANCH  17  18
ATOM     18  C   UNL A   1      39.162  21.289  25.562  1.00  0.00     0.021 C 
BRANCH  18  19
ATOM     19  C   UNL A   1      39.391  19.981  26.312  1.00  0.00     0.116 C 
BRANCH  19  20
ATOM     20  N   UNL A   1      40.597  19.302  25.869  1.00  0.00    -0.352 N 
ATOM     21  C   UNL A   1      41.887  19.761  25.800  1.00  0.00     0.251 C 
ATOM     22  H   UNL A   1      40.469  18.372  25.573  1.00  0.00     0.163 HD
ATOM     23  O   UNL A   1      42.738  19.107  25.206  1.00  0.00    -0.269 OA
BRANCH  21  24
ATOM     24  C   UNL A   1      42.252  21.054  26.419  1.00  0.00     0.039 A 
ATOM     25  C   UNL A   1      42.662  22.100  25.588  1.00  0.00     0.014 A 
ATOM     26  C   UNL A   1      42.211  21.235  27.805  1.00  0.00     0.014 A 
ATOM     27  C   UNL A   1      42.980  23.339  26.144  1.00  0.00     0.010 A 
ATOM     28  C   UNL A   1      42.447  22.496  28.349  1.00  0.00     0.010 A 
ATOM     29  C   UNL A   1      42.840  23.560  27.524  1.00  0.00    -0.014 A 
BRANCH  29  30
ATOM     30  C   UNL A   1      43.083  24.908  28.100  1.00  0.00     0.031 A 
ATOM     31  C   UNL A   1      44.465  25.336  28.506  1.00  0.00     0.074 A 
ATOM     32  C   UNL A   1      42.039  25.739  28.286  1.00  0.00     0.049 A 
ATOM     33  N   UNL A   1      44.862  26.483  29.003  1.00  0.00    -0.248 NA
ATOM     34  C   UNL A   1      45.540  24.344  28.361  1.00  0.00     0.031 C 
ATOM     35  C   UNL A   1      40.641  25.418  27.992  1.00  0.00     0.029 A 
ATOM     36  N   UNL A   1      41.990  27.024  28.764  1.00  0.00    -0.354 N 
ATOM     37  C   UNL A   1      46.225  26.345  29.232  1.00  0.00     0.074 A 
ATOM     38  C   UNL A   1      46.576  24.987  28.879  1.00  0.00     0.031 C 
ATOM     39  C   UNL A   1      39.878  26.489  28.259  1.00  0.00     0.029 A 
ATOM     40  C   UNL A   1      40.724  27.557  28.780  1.00  0.00     0.049 A 
ATOM     41  H   UNL A   1      42.786  27.518  29.067  1.00  0.00     0.167 HD
ATOM     42  C   UNL A   1      47.108  27.273  29.674  1.00  0.00     0.037 A 
ATOM     43  C   UNL A   1      40.290  28.770  29.172  1.00  0.00     0.037 A 
ATOM     44  C   UNL A   1      46.753  28.627  30.018  1.00  0.00     0.049 A 
ATOM     45  C   UNL A   1      41.289  29.780  29.663  1.00  0.00     0.074 A 
ATOM     46  C   UNL A   1      47.583  29.661  30.413  1.00  0.00     0.029 A 
ATOM     47  N   UNL A   1      45.460  29.130  30.024  1.00  0.00    -0.354 N 
ATOM     48  N   UNL A   1      42.588  29.667  29.789  1.00  0.00    -0.248 NA
ATOM     49  C   UNL A   1      40.758  31.092  30.057  1.00  0.00     0.031 C 
ATOM     50  C   UNL A   1      46.787  30.770  30.720  1.00  0.00     0.029 A 
ATOM     51  C   UNL A   1      45.466  30.449  30.450  1.00  0.00     0.049 A 
ATOM     52  H   UNL A   1      44.657  28.626  29.763  1.00  0.00     0.167 HD
ATOM     53  C   UNL A   1      43.035  30.896  30.256  1.00  0.00     0.074 A 
ATOM     54  C   UNL A   1      41.868  31.748  30.364  1.00  0.00     0.031 C 
ATOM     55  C   UNL A   1      44.296  31.285  30.568  1.00  0.00     0.037 A 
BRANCH  42  56
ATOM     56  C   UNL A   1      48.543  26.851  29.822  1.00  0.00     0.057 A 
ATOM     57  C   UNL A   1      49.480  27.025  28.794  1.00  0.00     0.134 A 
ATOM     58  C   UNL A   1      49.003  26.286  31.019  1.00  0.00     0.134 A 
ATOM     59  F   UNL A   1      49.108  27.551  27.616  1.00  0.00    -0.206 F 
ATOM     60  C   UNL A   1      50.810  26.624  28.938  1.00  0.00     0.040 A 
ATOM     61  C   UNL A   1      50.337  25.912  31.187  1.00  0.00     0.040 A 
ATOM     62  F   UNL A   1      48.165  26.097  32.049  1.00  0.00    -0.206 F 
ATOM     63  C   UNL A   1      51.243  26.071  30.141  1.00  0.00     0.006 A 
ENDBRANCH  42  56
BRANCH  43  64
ATOM     64  C   UNL A   1      38.844  29.098  29.096  1.00  0.00     0.057 A 
ATOM     65  C   UNL A   1      38.253  29.499  27.893  1.00  0.00     0.134 A 
ATOM     66  C   UNL A   1      38.017  29.013  30.223  1.00  0.00     0.134 A 
ATOM     67  F   UNL A   1      38.994  29.616  26.781  1.00  0.00    -0.206 F 
ATOM     68  C   UNL A   1      36.897  29.823  27.816  1.00  0.00     0.040 A 
ATOM     69  C   UNL A   1      36.655  29.305  30.154  1.00  0.00     0.040 A 
ATOM     70  F   UNL A   1      38.520  28.624  31.404  1.00  0.00    -0.206 F 
ATOM     71  C   UNL A   1      36.093  29.720  28.949  1.00  0.00     0.006 A 
ENDBRANCH  43  64
BRANCH  55  72
ATOM     72  C   UNL A   1      44.478  32.701  31.040  1.00  0.00     0.057 A 
ATOM     73  C   UNL A   1      44.699  33.759  30.148  1.00  0.00     0.134 A 
ATOM     74  C   UNL A   1      44.421  33.012  32.405  1.00  0.00     0.134 A 
ATOM     75  F   UNL A   1      44.777  33.531  28.827  1.00  0.00    -0.206 F 
ATOM     76  C   UNL A   1      44.896  35.065  30.599  1.00  0.00     0.040 A 
ATOM     77  C   UNL A   1      44.582  34.318  32.865  1.00  0.00     0.040 A 
ATOM     78  F   UNL A   1      44.202  32.050  33.315  1.00  0.00    -0.206 F 
ATOM     79  C   UNL A   1      44.833  35.349  31.961  1.00  0.00     0.006 A 
ENDBRANCH  55  72
ENDBRANCH  29  30
ENDBRANCH  21  24
ENDBRANCH  19  20
ENDBRANCH  18  19
ENDBRANCH  17  18
ENDBRANCH   1  17
TORSDOF 16
ENDMDL
MODEL 3
REMARK VINA RESULT:      -9.7      5.047     10.044
REMARK SMILES [N-]=[N+]=NC[C@H](NC=O)C(=O)NCCCCCCNC(=O)c1ccc(-c2c3nc(c(-c4c(F)cccc4F)c4ccc([nH]4)c(-c4c(F)cccc4F)c4nc(c(-c5c(F)cccc5F)c5ccc2[nH]5)C=C4)C=C3)cc1
REMARK SMILES IDX 14 1 13 2 12 3 11 4 9 5 10 6 5 8 4 9 3 10 1 11 2 12 6 13
REMARK SMILES IDX 7 14 8 16 15 17 16 18 17 19 18 20 19 21 20 23 21 24 22 25
REMARK SMILES IDX 74 26 23 27 73 28 24 29 25 30 26 31 67 32 27 33 72 34 66 35
REMARK SMILES IDX 68 36 28 37 71 38 65 39 64 40 29 42 55 43 38 44 54 45 39 46
REMARK SMILES IDX 42 47 53 48 69 49 40 50 41 51 52 53 70 54 43 55 30 56 31 57
REMARK SMILES IDX 36 58 32 59 33 60 35 61 37 62 34 63 56 64 57 65 62 66 58 67
REMARK SMILES IDX 59 68 61 69 63 70 60 71 44 72 45 73 50 74 46 75 47 76 49 77
REMARK SMILES IDX 51 78 48 79
REMARK H PARENT 11 7 6 15 18 22 68 41 42 52
REMARK Flexibility Score: inf
ROOT
ATOM      1  C   UNL A   1      32.669  30.078  25.741  1.00  0.00     0.002 C 
ENDROOT
BRANCH   1   2
ATOM      2  C   UNL A   1      33.447  29.091  26.620  1.00  0.00     0.021 C 
BRANCH   2   3
ATOM      3  C   UNL A   1      32.973  27.646  26.505  1.00  0.00     0.116 C 
BRANCH   3   4
ATOM      4  N   UNL A   1      33.195  27.116  25.172  1.00  0.00    -0.354 N 
ATOM      5  C   UNL A   1      32.324  26.901  24.149  1.00  0.00     0.242 C 
ATOM      6  O   UNL A   1      32.787  26.506  23.075  1.00  0.00    -0.273 OA
ATOM      7  H   UNL A   1      34.129  26.871  24.977  1.00  0.00     0.163 HD
BRANCH   5   8
ATOM      8  C   UNL A   1      30.838  27.281  24.259  1.00  0.00     0.176 C 
BRANCH   8   9
ATOM      9  C   UNL A   1      30.074  26.104  24.888  1.00  0.00     0.125 C 
BRANCH   9  10
ATOM     10  N   UNL A   1      30.944  24.925  25.046  1.00  0.00    -0.091 NA
ATOM     11  N   UNL A   1      31.027  24.008  27.244  1.00  0.00    -0.003 NA
ATOM     12  N   UNL A   1      30.995  24.442  26.189  1.00  0.00     0.001 N 
ENDBRANCH   9  10
ENDBRANCH   8   9
BRANCH   8  13
ATOM     13  N   UNL A   1      30.269  27.706  22.986  1.00  0.00    -0.347 N 
ATOM     14  C   UNL A   1      29.976  29.003  22.689  1.00  0.00     0.337 C 
ATOM     15  H   UNL A   1      30.085  27.019  22.304  1.00  0.00     0.164 HD
ATOM     16  O   UNL A   1      29.473  29.337  21.626  1.00  0.00    -0.279 OA
ENDBRANCH   8  13
ENDBRANCH   5   8
ENDBRANCH   3   4
ENDBRANCH   2   3
ENDBRANCH   1   2
BRANCH   1  17
ATOM     17  C   UNL A   1      31.410  30.667  26.387  1.00  0.00     0.002 C 
BRANCH  17  18
ATOM     18  C   UNL A   1      31.393  32.193  26.503  1.00  0.00     0.021 C 
BRANCH  18  19
ATOM     19  C   UNL A   1      32.630  32.794  27.161  1.00  0.00     0.116 C 
BRANCH  19  20
ATOM     20  N   UNL A   1      32.396  34.150  27.628  1.00  0.00    -0.352 N 
ATOM     21  C   UNL A   1      33.003  34.844  28.643  1.00  0.00     0.251 C 
ATOM     22  H   UNL A   1      31.696  34.645  27.144  1.00  0.00     0.163 HD
ATOM     23  O   UNL A   1      32.529  35.910  29.023  1.00  0.00    -0.269 OA
BRANCH  21  24
ATOM     24  C   UNL A   1      34.214  34.302  29.297  1.00  0.00     0.039 A 
ATOM     25  C   UNL A   1      34.061  33.538  30.456  1.00  0.00     0.014 A 
ATOM     26  C   UNL A   1      35.492  34.557  28.789  1.00  0.00     0.014 A 
ATOM     27  C   UNL A   1      35.185  32.988  31.074  1.00  0.00     0.010 A 
ATOM     28  C   UNL A   1      36.603  33.937  29.358  1.00  0.00     0.010 A 
ATOM     29  C   UNL A   1      36.461  33.151  30.510  1.00  0.00    -0.014 A 
BRANCH  29  30
ATOM     30  C   UNL A   1      37.642  32.481  31.114  1.00  0.00     0.031 A 
ATOM     31  C   UNL A   1      38.241  32.982  32.399  1.00  0.00     0.074 A 
ATOM     32  C   UNL A   1      38.197  31.431  30.477  1.00  0.00     0.049 A 
ATOM     33  N   UNL A   1      39.256  32.505  33.077  1.00  0.00    -0.248 NA
ATOM     34  C   UNL A   1      37.642  34.188  32.987  1.00  0.00     0.031 C 
ATOM     35  C   UNL A   1      37.748  30.889  29.193  1.00  0.00     0.029 A 
ATOM     36  N   UNL A   1      39.255  30.629  30.824  1.00  0.00    -0.354 N 
ATOM     37  C   UNL A   1      39.417  33.354  34.164  1.00  0.00     0.074 A 
ATOM     38  C   UNL A   1      38.437  34.409  34.023  1.00  0.00     0.031 C 
ATOM     39  C   UNL A   1      38.499  29.823  28.879  1.00  0.00     0.029 A 
ATOM     40  C   UNL A   1      39.507  29.629  29.916  1.00  0.00     0.049 A 
ATOM     41  H   UNL A   1      39.784  30.758  31.644  1.00  0.00     0.167 HD
ATOM     42  C   UNL A   1      40.286  33.251  35.199  1.00  0.00     0.037 A 
ATOM     43  C   UNL A   1      40.445  28.664  29.917  1.00  0.00     0.037 A 
ATOM     44  C   UNL A   1      41.256  32.194  35.337  1.00  0.00     0.049 A 
ATOM     45  C   UNL A   1      41.401  28.573  31.073  1.00  0.00     0.074 A 
ATOM     46  C   UNL A   1      42.137  31.964  36.380  1.00  0.00     0.029 A 
ATOM     47  N   UNL A   1      41.483  31.199  34.397  1.00  0.00    -0.354 N 
ATOM     48  N   UNL A   1      41.483  29.328  32.141  1.00  0.00    -0.248 NA
ATOM     49  C   UNL A   1      42.389  27.487  31.027  1.00  0.00     0.031 C 
ATOM     50  C   UNL A   1      42.941  30.870  36.041  1.00  0.00     0.029 A 
ATOM     51  C   UNL A   1      42.516  30.375  34.819  1.00  0.00     0.049 A 
ATOM     52  H   UNL A   1      40.985  31.094  33.555  1.00  0.00     0.167 HD
ATOM     53  C   UNL A   1      42.515  28.799  32.904  1.00  0.00     0.074 A 
ATOM     54  C   UNL A   1      43.010  27.641  32.188  1.00  0.00     0.031 C 
ATOM     55  C   UNL A   1      43.010  29.232  34.090  1.00  0.00     0.037 A 
BRANCH  42  56
ATOM     56  C   UNL A   1      40.235  34.317  36.257  1.00  0.00     0.057 A 
ATOM     57  C   UNL A   1      41.028  35.472  36.189  1.00  0.00     0.134 A 
ATOM     58  C   UNL A   1      39.361  34.203  37.346  1.00  0.00     0.134 A 
ATOM     59  F   UNL A   1      41.894  35.644  35.179  1.00  0.00    -0.206 F 
ATOM     60  C   UNL A   1      40.977  36.455  37.180  1.00  0.00     0.040 A 
ATOM     61  C   UNL A   1      39.278  35.194  38.326  1.00  0.00     0.040 A 
ATOM     62  F   UNL A   1      38.567  33.130  37.473  1.00  0.00    -0.206 F 
ATOM     63  C   UNL A   1      40.095  36.320  38.250  1.00  0.00     0.006 A 
ENDBRANCH  42  56
BRANCH  43  64
ATOM     64  C   UNL A   1      40.511  27.695  28.793  1.00  0.00     0.057 A 
ATOM     65  C   UNL A   1      41.359  27.908  27.700  1.00  0.00     0.134 A 
ATOM     66  C   UNL A   1      39.731  26.532  28.786  1.00  0.00     0.134 A 
ATOM     67  F   UNL A   1      42.119  29.011  27.639  1.00  0.00    -0.206 F 
ATOM     68  C   UNL A   1      41.416  27.010  26.633  1.00  0.00     0.040 A 
ATOM     69  C   UNL A   1      39.800  25.611  27.740  1.00  0.00     0.040 A 
ATOM     70  F   UNL A   1      38.905  26.265  29.808  1.00  0.00    -0.206 F 
ATOM     71  C   UNL A   1      40.639  25.854  26.655  1.00  0.00     0.006 A 
ENDBRANCH  43  64
BRANCH  55  72
ATOM     72  C   UNL A   1      44.134  28.436  34.694  1.00  0.00     0.057 A 
ATOM     73  C   UNL A   1      45.478  28.756  34.465  1.00  0.00     0.134 A 
ATOM     74  C   UNL A   1      43.866  27.339  35.523  1.00  0.00     0.134 A 
ATOM     75  F   UNL A   1      45.807  29.787  33.671  1.00  0.00    -0.206 F 
ATOM     76  C   UNL A   1      46.514  27.992  35.006  1.00  0.00     0.040 A 
ATOM     77  C   UNL A   1      44.892  26.589  36.097  1.00  0.00     0.040 A 
ATOM     78  F   UNL A   1      42.601  26.981  35.795  1.00  0.00    -0.206 F 
ATOM     79  C   UNL A   1      46.221  26.907  35.830  1.00  0.00     0.006 A 
ENDBRANCH  55  72
ENDBRANCH  29  30
ENDBRANCH  21  24
ENDBRANCH  19  20
ENDBRANCH  18  19
ENDBRANCH  17  18
ENDBRANCH   1  17
TORSDOF 16
ENDMDL
