MODEL 1
REMARK VINA RESULT:      -9.9      0.000      0.000
REMARK SMILES CC(C)[C@H](NC(=O)[C@H](C)NC(=O)C[NH3+])C(=O)NCCCCCCNC(=O)c1ccc(-c2c3nc(c(-c4c(F)cccc4F)c4ccc([nH]4)c(-c4c(F)cccc4F)c4nc(c(-c5c(F)cccc5F)c5ccc2[nH]5)C=C4)C=C3)cc1
REMARK SMILES IDX 19 1 18 2 17 3 15 4 16 5 4 7 2 8 1 9 3 10 5 11 6 12 7 14
REMARK SMILES IDX 8 15 9 16 10 17 11 18 12 20 13 21 14 22 20 26 21 27 22 28
REMARK SMILES IDX 23 29 24 30 25 31 26 33 27 34 28 35 80 36 29 37 79 38 30 39
REMARK SMILES IDX 31 40 32 41 73 42 33 43 78 44 72 45 74 46 34 47 77 48 71 49
REMARK SMILES IDX 70 50 35 52 61 53 44 54 60 55 45 56 48 57 59 58 75 59 46 60
REMARK SMILES IDX 47 61 58 63 76 64 49 65 36 66 37 67 42 68 38 69 39 70 41 71
REMARK SMILES IDX 43 72 40 73 62 74 63 75 68 76 64 77 65 78 67 79 69 80 66 81
REMARK SMILES IDX 50 82 51 83 56 84 52 85 53 86 55 87 57 88 54 89
REMARK H PARENT 17 6 5 13 10 19 14 23 14 24 14 25 24 32 74 51 48 62
REMARK Flexibility Score: inf
ROOT
ATOM      1  C   UNL A   1      37.650  23.689  25.889  1.00  0.00     0.021 C 
ENDROOT
BRANCH   1   2
ATOM      2  C   UNL A   1      36.341  23.728  25.112  1.00  0.00     0.116 C 
BRANCH   2   3
ATOM      3  N   UNL A   1      35.193  23.984  25.932  1.00  0.00    -0.354 N 
ATOM      4  C   UNL A   1      33.879  24.007  25.586  1.00  0.00     0.242 C 
ATOM      5  O   UNL A   1      33.076  24.126  26.520  1.00  0.00    -0.273 OA
ATOM      6  H   UNL A   1      35.384  24.172  26.879  1.00  0.00     0.163 HD
BRANCH   4   7
ATOM      7  C   UNL A   1      33.345  23.729  24.140  1.00  0.00     0.173 C 
BRANCH   7   8
ATOM      8  C   UNL A   1      33.453  22.265  23.687  1.00  0.00     0.015 C 
ATOM      9  C   UNL A   1      33.499  21.223  24.804  1.00  0.00     0.010 C 
ATOM     10  C   UNL A   1      32.324  21.911  22.710  1.00  0.00     0.010 C 
ENDBRANCH   7   8
BRANCH   7  11
ATOM     11  N   UNL A   1      33.651  24.732  23.082  1.00  0.00    -0.342 N 
ATOM     12  C   UNL A   1      33.418  26.030  22.750  1.00  0.00     0.242 C 
ATOM     13  H   UNL A   1      34.212  24.315  22.388  1.00  0.00     0.164 HD
ATOM     14  O   UNL A   1      33.930  26.360  21.670  1.00  0.00    -0.273 OA
BRANCH  12  15
ATOM     15  C   UNL A   1      32.507  27.053  23.516  1.00  0.00     0.168 C 
ATOM     16  C   UNL A   1      33.213  28.417  23.578  1.00  0.00     0.041 C 
BRANCH  15  17
ATOM     17  N   UNL A   1      32.103  26.692  24.868  1.00  0.00    -0.340 N 
ATOM     18  C   UNL A   1      30.834  26.415  25.310  1.00  0.00     0.275 C 
ATOM     19  H   UNL A   1      32.821  26.642  25.540  1.00  0.00     0.164 HD
ATOM     20  O   UNL A   1      30.617  26.396  26.522  1.00  0.00    -0.268 OA
BRANCH  18  21
ATOM     21  C   UNL A   1      29.722  26.072  24.301  1.00  0.00     0.360 C 
BRANCH  21  22
ATOM     22  N   UNL A   1      29.922  24.747  23.708  1.00  0.00    -0.350 N 
ATOM     23  H   UNL A   1      30.740  24.306  24.128  1.00  0.00     0.344 HD
ATOM     24  H   UNL A   1      30.065  24.841  22.703  1.00  0.00     0.344 HD
ATOM     25  H   UNL A   1      29.099  24.169  23.881  1.00  0.00     0.344 HD
ENDBRANCH  21  22
ENDBRANCH  18  21
ENDBRANCH  15  17
ENDBRANCH  12  15
ENDBRANCH   7  11
ENDBRANCH   4   7
ENDBRANCH   2   3
ENDBRANCH   1   2
BRANCH   1  26
ATOM     26  C   UNL A   1      38.411  22.371  25.740  1.00  0.00     0.002 C 
BRANCH  26  27
ATOM     27  C   UNL A   1      37.699  21.301  24.900  1.00  0.00     0.002 C 
BRANCH  27  28
ATOM     28  C   UNL A   1      38.381  19.930  24.853  1.00  0.00     0.021 C 
BRANCH  28  29
ATOM     29  C   UNL A   1      39.120  19.529  26.129  1.00  0.00     0.116 C 
BRANCH  29  30
ATOM     30  N   UNL A   1      40.427  18.955  25.851  1.00  0.00    -0.352 N 
ATOM     31  C   UNL A   1      41.671  19.529  25.868  1.00  0.00     0.251 C 
ATOM     32  H   UNL A   1      40.416  18.000  25.612  1.00  0.00     0.163 HD
ATOM     33  O   UNL A   1      42.631  18.911  25.419  1.00  0.00    -0.269 OA
BRANCH  31  34
ATOM     34  C   UNL A   1      41.865  20.894  26.406  1.00  0.00     0.039 A 
ATOM     35  C   UNL A   1      41.701  21.098  27.780  1.00  0.00     0.014 A 
ATOM     36  C   UNL A   1      42.165  21.972  25.569  1.00  0.00     0.014 A 
ATOM     37  C   UNL A   1      41.896  22.370  28.320  1.00  0.00     0.010 A 
ATOM     38  C   UNL A   1      42.424  23.227  26.118  1.00  0.00     0.010 A 
ATOM     39  C   UNL A   1      42.292  23.437  27.498  1.00  0.00    -0.014 A 
BRANCH  39  40
ATOM     40  C   UNL A   1      42.597  24.768  28.081  1.00  0.00     0.031 A 
ATOM     41  C   UNL A   1      43.989  25.108  28.534  1.00  0.00     0.074 A 
ATOM     42  C   UNL A   1      41.598  25.657  28.244  1.00  0.00     0.049 A 
ATOM     43  N   UNL A   1      44.433  26.214  29.078  1.00  0.00    -0.248 NA
ATOM     44  C   UNL A   1      45.012  24.065  28.376  1.00  0.00     0.031 C 
ATOM     45  C   UNL A   1      40.195  25.425  27.897  1.00  0.00     0.029 A 
ATOM     46  N   UNL A   1      41.609  26.933  28.749  1.00  0.00    -0.354 N 
ATOM     47  C   UNL A   1      45.780  25.997  29.333  1.00  0.00     0.074 A 
ATOM     48  C   UNL A   1      46.072  24.637  28.932  1.00  0.00     0.031 C 
ATOM     49  C   UNL A   1      39.486  26.530  28.171  1.00  0.00     0.029 A 
ATOM     50  C   UNL A   1      40.375  27.536  28.743  1.00  0.00     0.049 A 
ATOM     51  H   UNL A   1      42.423  27.374  29.082  1.00  0.00     0.167 HD
ATOM     52  C   UNL A   1      46.697  26.859  29.835  1.00  0.00     0.037 A 
ATOM     53  C   UNL A   1      40.001  28.762  29.154  1.00  0.00     0.037 A 
ATOM     54  C   UNL A   1      46.408  28.217  30.219  1.00  0.00     0.049 A 
ATOM     55  C   UNL A   1      41.037  29.699  29.705  1.00  0.00     0.074 A 
ATOM     56  C   UNL A   1      47.282  29.187  30.681  1.00  0.00     0.029 A 
ATOM     57  N   UNL A   1      45.148  28.796  30.192  1.00  0.00    -0.354 N 
ATOM     58  N   UNL A   1      42.322  29.506  29.869  1.00  0.00    -0.248 NA
ATOM     59  C   UNL A   1      40.570  31.029  30.121  1.00  0.00     0.031 C 
ATOM     60  C   UNL A   1      46.542  30.339  30.974  1.00  0.00     0.029 A 
ATOM     61  C   UNL A   1      45.216  30.102  30.650  1.00  0.00     0.049 A 
ATOM     62  H   UNL A   1      44.326  28.344  29.891  1.00  0.00     0.167 HD
ATOM     63  C   UNL A   1      42.823  30.693  30.389  1.00  0.00     0.074 A 
ATOM     64  C   UNL A   1      41.704  31.608  30.489  1.00  0.00     0.031 C 
ATOM     65  C   UNL A   1      44.092  30.997  30.752  1.00  0.00     0.037 A 
BRANCH  52  66
ATOM     66  C   UNL A   1      48.104  26.359  29.993  1.00  0.00     0.057 A 
ATOM     67  C   UNL A   1      49.060  26.512  28.981  1.00  0.00     0.134 A 
ATOM     68  C   UNL A   1      48.518  25.749  31.185  1.00  0.00     0.134 A 
ATOM     69  F   UNL A   1      48.727  27.078  27.812  1.00  0.00    -0.206 F 
ATOM     70  C   UNL A   1      50.370  26.054  29.137  1.00  0.00     0.040 A 
ATOM     71  C   UNL A   1      49.832  25.311  31.362  1.00  0.00     0.040 A 
ATOM     72  F   UNL A   1      47.656  25.576  32.198  1.00  0.00    -0.206 F 
ATOM     73  C   UNL A   1      50.760  25.458  30.334  1.00  0.00     0.006 A 
ENDBRANCH  52  66
BRANCH  53  74
ATOM     74  C   UNL A   1      38.582  29.184  29.033  1.00  0.00     0.057 A 
ATOM     75  C   UNL A   1      37.721  29.138  30.135  1.00  0.00     0.134 A 
ATOM     76  C   UNL A   1      38.055  29.638  27.819  1.00  0.00     0.134 A 
ATOM     77  F   UNL A   1      38.165  28.696  31.321  1.00  0.00    -0.206 F 
ATOM     78  C   UNL A   1      36.380  29.509  30.029  1.00  0.00     0.040 A 
ATOM     79  C   UNL A   1      36.723  30.036  27.705  1.00  0.00     0.040 A 
ATOM     80  F   UNL A   1      38.833  29.713  26.729  1.00  0.00    -0.206 F 
ATOM     81  C   UNL A   1      35.878  29.964  28.812  1.00  0.00     0.006 A 
ENDBRANCH  53  74
BRANCH  65  82
ATOM     82  C   UNL A   1      44.335  32.383  31.274  1.00  0.00     0.057 A 
ATOM     83  C   UNL A   1      44.641  33.451  30.420  1.00  0.00     0.134 A 
ATOM     84  C   UNL A   1      44.252  32.657  32.645  1.00  0.00     0.134 A 
ATOM     85  F   UNL A   1      44.752  33.253  29.097  1.00  0.00    -0.206 F 
ATOM     86  C   UNL A   1      44.886  34.733  30.914  1.00  0.00     0.040 A 
ATOM     87  C   UNL A   1      44.467  33.941  33.148  1.00  0.00     0.040 A 
ATOM     88  F   UNL A   1      43.955  31.681  33.518  1.00  0.00    -0.206 F 
ATOM     89  C   UNL A   1      44.793  34.982  32.282  1.00  0.00     0.006 A 
ENDBRANCH  65  82
ENDBRANCH  39  40
ENDBRANCH  31  34
ENDBRANCH  29  30
ENDBRANCH  28  29
ENDBRANCH  27  28
ENDBRANCH  26  27
ENDBRANCH   1  26
TORSDOF 19
ENDMDL
MODEL 2
REMARK VINA RESULT:      -9.7      2.142      7.776
REMARK SMILES CC(C)[C@H](NC(=O)[C@H](C)NC(=O)C[NH3+])C(=O)NCCCCCCNC(=O)c1ccc(-c2c3nc(c(-c4c(F)cccc4F)c4ccc([nH]4)c(-c4c(F)cccc4F)c4nc(c(-c5c(F)cccc5F)c5ccc2[nH]5)C=C4)C=C3)cc1
REMARK SMILES IDX 19 1 18 2 17 3 15 4 16 5 4 7 2 8 1 9 3 10 5 11 6 12 7 14
REMARK SMILES IDX 8 15 9 16 10 17 11 18 12 20 13 21 14 22 20 26 21 27 22 28
REMARK SMILES IDX 23 29 24 30 25 31 26 33 27 34 28 35 80 36 29 37 79 38 30 39
REMARK SMILES IDX 31 40 32 41 73 42 33 43 78 44 72 45 74 46 34 47 77 48 71 49
REMARK SMILES IDX 70 50 35 52 61 53 44 54 60 55 45 56 48 57 59 58 75 59 46 60
REMARK SMILES IDX 47 61 58 63 76 64 49 65 36 66 37 67 42 68 38 69 39 70 41 71
REMARK SMILES IDX 43 72 40 73 62 74 63 75 68 76 64 77 65 78 67 79 69 80 66 81
REMARK SMILES IDX 50 82 51 83 56 84 52 85 53 86 55 87 57 88 54 89
REMARK H PARENT 17 6 5 13 10 19 14 23 14 24 14 25 24 32 74 51 48 62
REMARK Flexibility Score: inf
ROOT
ATOM      1  C   UNL A   1      32.272  25.502  25.363  1.00  0.00     0.021 C 
ENDROOT
BRANCH   1   2
ATOM      2  C   UNL A   1      33.441  25.935  24.490  1.00  0.00     0.116 C 
BRANCH   2   3
ATOM      3  N   UNL A   1      33.878  24.925  23.571  1.00  0.00    -0.354 N 
ATOM      4  C   UNL A   1      34.793  23.937  23.753  1.00  0.00     0.242 C 
ATOM      5  O   UNL A   1      34.890  23.113  22.835  1.00  0.00    -0.273 OA
ATOM      6  H   UNL A   1      33.456  24.950  22.682  1.00  0.00     0.163 HD
BRANCH   4   7
ATOM      7  C   UNL A   1      35.580  23.702  25.088  1.00  0.00     0.173 C 
BRANCH   7   8
ATOM      8  C   UNL A   1      37.026  23.218  24.903  1.00  0.00     0.015 C 
ATOM      9  C   UNL A   1      38.035  23.722  25.935  1.00  0.00     0.010 C 
ATOM     10  C   UNL A   1      37.085  21.686  24.845  1.00  0.00     0.010 C 
ENDBRANCH   7   8
BRANCH   7  11
ATOM     11  N   UNL A   1      34.851  23.068  26.222  1.00  0.00    -0.342 N 
ATOM     12  C   UNL A   1      34.025  22.026  26.502  1.00  0.00     0.242 C 
ATOM     13  H   UNL A   1      35.028  23.575  27.048  1.00  0.00     0.164 HD
ATOM     14  O   UNL A   1      33.679  21.980  27.693  1.00  0.00    -0.273 OA
BRANCH  12  15
ATOM     15  C   UNL A   1      33.411  21.004  25.482  1.00  0.00     0.168 C 
ATOM     16  C   UNL A   1      32.084  21.557  24.941  1.00  0.00     0.041 C 
BRANCH  15  17
ATOM     17  N   UNL A   1      33.171  19.652  25.969  1.00  0.00    -0.340 N 
ATOM     18  C   UNL A   1      32.614  18.607  25.277  1.00  0.00     0.275 C 
ATOM     19  H   UNL A   1      33.437  19.468  26.899  1.00  0.00     0.164 HD
ATOM     20  O   UNL A   1      32.228  17.617  25.902  1.00  0.00    -0.268 OA
BRANCH  18  21
ATOM     21  C   UNL A   1      32.534  18.652  23.740  1.00  0.00     0.360 C 
BRANCH  21  22
ATOM     22  N   UNL A   1      32.882  17.359  23.144  1.00  0.00    -0.350 N 
ATOM     23  H   UNL A   1      33.645  17.485  22.479  1.00  0.00     0.344 HD
ATOM     24  H   UNL A   1      32.069  16.977  22.660  1.00  0.00     0.344 HD
ATOM     25  H   UNL A   1      33.175  16.713  23.878  1.00  0.00     0.344 HD
ENDBRANCH  21  22
ENDBRANCH  18  21
ENDBRANCH  15  17
ENDBRANCH  12  15
ENDBRANCH   7  11
ENDBRANCH   4   7
ENDBRANCH   2   3
ENDBRANCH   1   2
BRANCH   1  26
ATOM     26  C   UNL A   1      31.212  26.587  25.550  1.00  0.00     0.002 C 
BRANCH  26  27
ATOM     27  C   UNL A   1      31.758  27.970  25.935  1.00  0.00     0.002 C 
BRANCH  27  28
ATOM     28  C   UNL A   1      32.392  28.071  27.326  1.00  0.00     0.021 C 
BRANCH  28  29
ATOM     29  C   UNL A   1      33.785  28.696  27.360  1.00  0.00     0.116 C 
BRANCH  29  30
ATOM     30  N   UNL A   1      33.763  30.065  27.848  1.00  0.00    -0.352 N 
ATOM     31  C   UNL A   1      34.717  30.787  28.515  1.00  0.00     0.251 C 
ATOM     32  H   UNL A   1      32.926  30.553  27.670  1.00  0.00     0.163 HD
ATOM     33  O   UNL A   1      34.426  31.874  29.004  1.00  0.00    -0.269 OA
BRANCH  31  34
ATOM     34  C   UNL A   1      36.091  30.259  28.669  1.00  0.00     0.039 A 
ATOM     35  C   UNL A   1      36.961  30.336  27.577  1.00  0.00     0.014 A 
ATOM     36  C   UNL A   1      36.512  29.658  29.859  1.00  0.00     0.014 A 
ATOM     37  C   UNL A   1      38.268  29.865  27.697  1.00  0.00     0.010 A 
ATOM     38  C   UNL A   1      37.837  29.248  29.999  1.00  0.00     0.010 A 
ATOM     39  C   UNL A   1      38.727  29.348  28.920  1.00  0.00    -0.014 A 
BRANCH  39  40
ATOM     40  C   UNL A   1      40.145  28.937  29.082  1.00  0.00     0.031 A 
ATOM     41  C   UNL A   1      41.162  29.889  29.646  1.00  0.00     0.074 A 
ATOM     42  C   UNL A   1      40.523  27.710  28.675  1.00  0.00     0.049 A 
ATOM     43  N   UNL A   1      42.443  29.706  29.844  1.00  0.00    -0.248 NA
ATOM     44  C   UNL A   1      40.684  31.230  30.013  1.00  0.00     0.031 C 
ATOM     45  C   UNL A   1      39.641  26.714  28.061  1.00  0.00     0.029 A 
ATOM     46  N   UNL A   1      41.747  27.091  28.711  1.00  0.00    -0.354 N 
ATOM     47  C   UNL A   1      42.925  30.905  30.352  1.00  0.00     0.074 A 
ATOM     48  C   UNL A   1      41.808  31.827  30.383  1.00  0.00     0.031 C 
ATOM     49  C   UNL A   1      40.346  25.602  27.805  1.00  0.00     0.029 A 
ATOM     50  C   UNL A   1      41.734  25.815  28.204  1.00  0.00     0.049 A 
ATOM     51  H   UNL A   1      42.558  27.522  29.067  1.00  0.00     0.167 HD
ATOM     52  C   UNL A   1      44.176  31.205  30.774  1.00  0.00     0.037 A 
ATOM     53  C   UNL A   1      42.727  24.917  28.076  1.00  0.00     0.037 A 
ATOM     54  C   UNL A   1      45.281  30.281  30.756  1.00  0.00     0.049 A 
ATOM     55  C   UNL A   1      44.106  25.274  28.554  1.00  0.00     0.074 A 
ATOM     56  C   UNL A   1      46.572  30.472  31.220  1.00  0.00     0.029 A 
ATOM     57  N   UNL A   1      45.227  28.994  30.244  1.00  0.00    -0.354 N 
ATOM     58  N   UNL A   1      44.528  26.386  29.102  1.00  0.00    -0.248 NA
ATOM     59  C   UNL A   1      45.144  24.245  28.401  1.00  0.00     0.031 C 
ATOM     60  C   UNL A   1      47.310  29.314  30.946  1.00  0.00     0.029 A 
ATOM     61  C   UNL A   1      46.467  28.386  30.357  1.00  0.00     0.049 A 
ATOM     62  H   UNL A   1      44.426  28.574  29.855  1.00  0.00     0.167 HD
ATOM     63  C   UNL A   1      45.874  26.187  29.378  1.00  0.00     0.074 A 
ATOM     64  C   UNL A   1      46.191  24.837  28.958  1.00  0.00     0.031 C 
ATOM     65  C   UNL A   1      46.769  27.045  29.927  1.00  0.00     0.037 A 
BRANCH  52  66
ATOM     66  C   UNL A   1      44.416  32.592  31.297  1.00  0.00     0.057 A 
ATOM     67  C   UNL A   1      44.247  32.910  32.651  1.00  0.00     0.134 A 
ATOM     68  C   UNL A   1      44.857  33.614  30.445  1.00  0.00     0.134 A 
ATOM     69  F   UNL A   1      43.818  31.981  33.518  1.00  0.00    -0.206 F 
ATOM     70  C   UNL A   1      44.482  34.199  33.135  1.00  0.00     0.040 A 
ATOM     71  C   UNL A   1      45.120  34.899  30.922  1.00  0.00     0.040 A 
ATOM     72  F   UNL A   1      45.046  33.377  29.138  1.00  0.00    -0.206 F 
ATOM     73  C   UNL A   1      44.926  35.195  32.269  1.00  0.00     0.006 A 
ENDBRANCH  52  66
BRANCH  53  74
ATOM     74  C   UNL A   1      42.448  23.580  27.493  1.00  0.00     0.057 A 
ATOM     75  C   UNL A   1      42.476  23.378  26.108  1.00  0.00     0.134 A 
ATOM     76  C   UNL A   1      42.143  22.478  28.301  1.00  0.00     0.134 A 
ATOM     77  F   UNL A   1      42.745  24.400  25.282  1.00  0.00    -0.206 F 
ATOM     78  C   UNL A   1      42.192  22.132  25.546  1.00  0.00     0.040 A 
ATOM     79  C   UNL A   1      41.882  21.222  27.754  1.00  0.00     0.040 A 
ATOM     80  F   UNL A   1      42.110  22.606  29.636  1.00  0.00    -0.206 F 
ATOM     81  C   UNL A   1      41.898  21.049  26.371  1.00  0.00     0.006 A 
ENDBRANCH  53  74
BRANCH  65  82
ATOM     82  C   UNL A   1      48.168  26.536  30.118  1.00  0.00     0.057 A 
ATOM     83  C   UNL A   1      48.566  25.895  31.299  1.00  0.00     0.134 A 
ATOM     84  C   UNL A   1      49.126  26.679  29.107  1.00  0.00     0.134 A 
ATOM     85  F   UNL A   1      47.700  25.741  32.313  1.00  0.00    -0.206 F 
ATOM     86  C   UNL A   1      49.873  25.442  31.478  1.00  0.00     0.040 A 
ATOM     87  C   UNL A   1      50.429  26.205  29.264  1.00  0.00     0.040 A 
ATOM     88  F   UNL A   1      48.809  27.276  27.948  1.00  0.00    -0.206 F 
ATOM     89  C   UNL A   1      50.808  25.592  30.456  1.00  0.00     0.006 A 
ENDBRANCH  65  82
ENDBRANCH  39  40
ENDBRANCH  31  34
ENDBRANCH  29  30
ENDBRANCH  28  29
ENDBRANCH  27  28
ENDBRANCH  26  27
ENDBRANCH   1  26
TORSDOF 19
ENDMDL
MODEL 3
REMARK VINA RESULT:      -9.7      3.831      9.179
REMARK SMILES CC(C)[C@H](NC(=O)[C@H](C)NC(=O)C[NH3+])C(=O)NCCCCCCNC(=O)c1ccc(-c2c3nc(c(-c4c(F)cccc4F)c4ccc([nH]4)c(-c4c(F)cccc4F)c4nc(c(-c5c(F)cccc5F)c5ccc2[nH]5)C=C4)C=C3)cc1
REMARK SMILES IDX 19 1 18 2 17 3 15 4 16 5 4 7 2 8 1 9 3 10 5 11 6 12 7 14
REMARK SMILES IDX 8 15 9 16 10 17 11 18 12 20 13 21 14 22 20 26 21 27 22 28
REMARK SMILES IDX 23 29 24 30 25 31 26 33 27 34 28 35 80 36 29 37 79 38 30 39
REMARK SMILES IDX 31 40 32 41 73 42 33 43 78 44 72 45 74 46 34 47 77 48 71 49
REMARK SMILES IDX 70 50 35 52 61 53 44 54 60 55 45 56 48 57 59 58 75 59 46 60
REMARK SMILES IDX 47 61 58 63 76 64 49 65 36 66 37 67 42 68 38 69 39 70 41 71
REMARK SMILES IDX 43 72 40 73 62 74 63 75 68 76 64 77 65 78 67 79 69 80 66 81
REMARK SMILES IDX 50 82 51 83 56 84 52 85 53 86 55 87 57 88 54 89
REMARK H PARENT 17 6 5 13 10 19 14 23 14 24 14 25 24 32 74 51 48 62
REMARK Flexibility Score: inf
ROOT
ATOM      1  C   UNL A   1      33.190  28.688  26.409  1.00  0.00     0.021 C 
ENDROOT
BRANCH   1   2
ATOM      2  C   UNL A   1      33.217  27.172  26.271  1.00  0.00     0.116 C 
BRANCH   2   3
ATOM      3  N   UNL A   1      33.618  26.720  24.970  1.00  0.00    -0.354 N 
ATOM      4  C   UNL A   1      32.869  26.144  23.993  1.00  0.00     0.242 C 
ATOM      5  O   UNL A   1      33.439  25.968  22.909  1.00  0.00    -0.273 OA
ATOM      6  H   UNL A   1      34.571  26.843  24.755  1.00  0.00     0.163 HD
BRANCH   4   7
ATOM      7  C   UNL A   1      31.334  25.861  24.114  1.00  0.00     0.173 C 
BRANCH   7   8
ATOM      8  C   UNL A   1      30.439  27.101  23.969  1.00  0.00     0.015 C 
ATOM      9  C   UNL A   1      30.783  28.040  22.812  1.00  0.00     0.010 C 
ATOM     10  C   UNL A   1      28.961  26.700  23.872  1.00  0.00     0.010 C 
ENDBRANCH   7   8
BRANCH   7  11
ATOM     11  N   UNL A   1      30.886  24.889  25.150  1.00  0.00    -0.342 N 
ATOM     12  C   UNL A   1      31.079  23.606  25.556  1.00  0.00     0.242 C 
ATOM     13  H   UNL A   1      30.228  25.322  25.742  1.00  0.00     0.164 HD
ATOM     14  O   UNL A   1      30.379  23.288  26.530  1.00  0.00    -0.273 OA
BRANCH  12  15
ATOM     15  C   UNL A   1      31.972  22.518  24.863  1.00  0.00     0.168 C 
ATOM     16  C   UNL A   1      31.767  22.582  23.341  1.00  0.00     0.041 C 
BRANCH  15  17
ATOM     17  N   UNL A   1      31.777  21.138  25.287  1.00  0.00    -0.340 N 
ATOM     18  C   UNL A   1      32.687  20.113  25.224  1.00  0.00     0.275 C 
ATOM     19  H   UNL A   1      30.893  20.916  25.658  1.00  0.00     0.164 HD
ATOM     20  O   UNL A   1      32.290  18.955  25.363  1.00  0.00    -0.268 OA
BRANCH  18  21
ATOM     21  C   UNL A   1      34.186  20.420  25.049  1.00  0.00     0.360 C 
BRANCH  21  22
ATOM     22  N   UNL A   1      34.985  19.192  24.994  1.00  0.00    -0.350 N 
ATOM     23  H   UNL A   1      35.323  18.964  25.928  1.00  0.00     0.344 HD
ATOM     24  H   UNL A   1      35.780  19.331  24.370  1.00  0.00     0.344 HD
ATOM     25  H   UNL A   1      34.408  18.426  24.645  1.00  0.00     0.344 HD
ENDBRANCH  21  22
ENDBRANCH  18  21
ENDBRANCH  15  17
ENDBRANCH  12  15
ENDBRANCH   7  11
ENDBRANCH   4   7
ENDBRANCH   2   3
ENDBRANCH   1   2
BRANCH   1  26
ATOM     26  C   UNL A   1      31.791  29.255  26.648  1.00  0.00     0.002 C 
BRANCH  26  27
ATOM     27  C   UNL A   1      31.416  30.454  25.764  1.00  0.00     0.002 C 
BRANCH  27  28
ATOM     28  C   UNL A   1      31.255  31.792  26.493  1.00  0.00     0.021 C 
BRANCH  28  29
ATOM     29  C   UNL A   1      32.562  32.476  26.891  1.00  0.00     0.116 C 
BRANCH  29  30
ATOM     30  N   UNL A   1      32.348  33.828  27.381  1.00  0.00    -0.352 N 
ATOM     31  C   UNL A   1      32.987  34.524  28.373  1.00  0.00     0.251 C 
ATOM     32  H   UNL A   1      31.629  34.323  26.926  1.00  0.00     0.163 HD
ATOM     33  O   UNL A   1      32.527  35.595  28.757  1.00  0.00    -0.269 OA
BRANCH  31  34
ATOM     34  C   UNL A   1      34.216  33.989  29.000  1.00  0.00     0.039 A 
ATOM     35  C   UNL A   1      34.086  33.137  30.101  1.00  0.00     0.014 A 
ATOM     36  C   UNL A   1      35.486  34.349  28.540  1.00  0.00     0.014 A 
ATOM     37  C   UNL A   1      35.225  32.601  30.702  1.00  0.00     0.010 A 
ATOM     38  C   UNL A   1      36.620  33.762  29.098  1.00  0.00     0.010 A 
ATOM     39  C   UNL A   1      36.500  32.882  30.184  1.00  0.00    -0.014 A 
BRANCH  39  40
ATOM     40  C   UNL A   1      37.708  32.236  30.756  1.00  0.00     0.031 A 
ATOM     41  C   UNL A   1      38.333  32.759  32.020  1.00  0.00     0.074 A 
ATOM     42  C   UNL A   1      38.269  31.200  30.104  1.00  0.00     0.049 A 
ATOM     43  N   UNL A   1      39.396  32.329  32.653  1.00  0.00    -0.248 NA
ATOM     44  C   UNL A   1      37.696  33.928  32.641  1.00  0.00     0.031 C 
ATOM     45  C   UNL A   1      37.790  30.637  28.840  1.00  0.00     0.029 A 
ATOM     46  N   UNL A   1      39.369  30.438  30.411  1.00  0.00    -0.354 N 
ATOM     47  C   UNL A   1      39.559  33.177  33.740  1.00  0.00     0.074 A 
ATOM     48  C   UNL A   1      38.516  34.178  33.653  1.00  0.00     0.031 C 
ATOM     49  C   UNL A   1      38.572  29.604  28.495  1.00  0.00     0.029 A 
ATOM     50  C   UNL A   1      39.626  29.450  29.493  1.00  0.00     0.049 A 
ATOM     51  H   UNL A   1      39.919  30.586  31.214  1.00  0.00     0.167 HD
ATOM     52  C   UNL A   1      40.478  33.116  34.733  1.00  0.00     0.037 A 
ATOM     53  C   UNL A   1      40.602  28.524  29.458  1.00  0.00     0.037 A 
ATOM     54  C   UNL A   1      41.505  32.110  34.826  1.00  0.00     0.049 A 
ATOM     55  C   UNL A   1      41.609  28.476  30.572  1.00  0.00     0.074 A 
ATOM     56  C   UNL A   1      42.445  31.926  35.826  1.00  0.00     0.029 A 
ATOM     57  N   UNL A   1      41.730  31.119  33.881  1.00  0.00    -0.354 N 
ATOM     58  N   UNL A   1      41.704  29.238  31.633  1.00  0.00    -0.248 NA
ATOM     59  C   UNL A   1      42.640  27.433  30.485  1.00  0.00     0.031 C 
ATOM     60  C   UNL A   1      43.267  30.852  35.463  1.00  0.00     0.029 A 
ATOM     61  C   UNL A   1      42.808  30.337  34.261  1.00  0.00     0.049 A 
ATOM     62  H   UNL A   1      41.201  30.992  33.060  1.00  0.00     0.167 HD
ATOM     63  C   UNL A   1      42.790  28.757  32.351  1.00  0.00     0.074 A 
ATOM     64  C   UNL A   1      43.306  27.621  31.614  1.00  0.00     0.031 C 
ATOM     65  C   UNL A   1      43.315  29.215  33.514  1.00  0.00     0.037 A 
BRANCH  52  66
ATOM     66  C   UNL A   1      40.412  34.166  35.804  1.00  0.00     0.057 A 
ATOM     67  C   UNL A   1      39.683  33.972  36.984  1.00  0.00     0.134 A 
ATOM     68  C   UNL A   1      41.115  35.371  35.671  1.00  0.00     0.134 A 
ATOM     69  F   UNL A   1      38.980  32.845  37.171  1.00  0.00    -0.206 F 
ATOM     70  C   UNL A   1      39.633  34.948  37.982  1.00  0.00     0.040 A 
ATOM     71  C   UNL A   1      41.093  36.343  36.673  1.00  0.00     0.040 A 
ATOM     72  F   UNL A   1      41.838  35.620  34.569  1.00  0.00    -0.206 F 
ATOM     73  C   UNL A   1      40.346  36.134  37.830  1.00  0.00     0.006 A 
ENDBRANCH  52  66
BRANCH  53  74
ATOM     74  C   UNL A   1      40.658  27.547  28.341  1.00  0.00     0.057 A 
ATOM     75  C   UNL A   1      39.955  26.339  28.404  1.00  0.00     0.134 A 
ATOM     76  C   UNL A   1      41.417  27.795  27.191  1.00  0.00     0.134 A 
ATOM     77  F   UNL A   1      39.224  26.039  29.487  1.00  0.00    -0.206 F 
ATOM     78  C   UNL A   1      40.019  25.402  27.371  1.00  0.00     0.040 A 
ATOM     79  C   UNL A   1      41.471  26.878  26.141  1.00  0.00     0.040 A 
ATOM     80  F   UNL A   1      42.107  28.938  27.067  1.00  0.00    -0.206 F 
ATOM     81  C   UNL A   1      40.776  25.673  26.234  1.00  0.00     0.006 A 
ENDBRANCH  53  74
BRANCH  65  82
ATOM     82  C   UNL A   1      44.497  28.472  34.064  1.00  0.00     0.057 A 
ATOM     83  C   UNL A   1      44.345  27.358  34.902  1.00  0.00     0.134 A 
ATOM     84  C   UNL A   1      45.803  28.867  33.745  1.00  0.00     0.134 A 
ATOM     85  F   UNL A   1      43.122  26.939  35.258  1.00  0.00    -0.206 F 
ATOM     86  C   UNL A   1      45.449  26.684  35.426  1.00  0.00     0.040 A 
ATOM     87  C   UNL A   1      46.914  28.183  34.241  1.00  0.00     0.040 A 
ATOM     88  F   UNL A   1      46.019  29.919  32.942  1.00  0.00    -0.206 F 
ATOM     89  C   UNL A   1      46.738  27.093  35.091  1.00  0.00     0.006 A 
ENDBRANCH  65  82
ENDBRANCH  39  40
ENDBRANCH  31  34
ENDBRANCH  29  30
ENDBRANCH  28  29
ENDBRANCH  27  28
ENDBRANCH  26  27
ENDBRANCH   1  26
TORSDOF 19
ENDMDL
