MODEL 1
REMARK VINA RESULT:     -11.5      0.000      0.000
REMARK SMILES CCS(=O)(=O)Nc1ccc(N2CC[NH+](C)CC2)cc1C(=O)NCCCCCCNC(=O)c1ccc(-c2c3nc(c(-c4c(F)cccc4F)c4ccc([nH]4)c(-c4c(F)cccc4F)c4nc(c(-c5c(F)cccc5F)c5ccc2[nH]5)C=C4)C=C3)cc1
REMARK SMILES IDX 25 1 24 2 23 3 22 4 20 5 21 6 19 8 7 9 8 10 9 11 18 12 10 13
REMARK SMILES IDX 6 14 3 16 4 17 5 18 2 19 1 20 11 21 12 22 17 23 13 24 16 25
REMARK SMILES IDX 14 26 15 27 26 29 27 30 28 31 29 32 30 33 31 35 32 36 33 37
REMARK SMILES IDX 85 38 34 39 84 40 35 41 36 42 37 43 78 44 38 45 83 46 77 47
REMARK SMILES IDX 79 48 39 49 82 50 76 51 75 52 40 54 66 55 49 56 65 57 50 58
REMARK SMILES IDX 53 59 64 60 80 61 51 62 52 63 63 65 81 66 54 67 41 68 42 69
REMARK SMILES IDX 47 70 43 71 44 72 46 73 48 74 45 75 67 76 68 77 73 78 69 79
REMARK SMILES IDX 70 80 72 81 74 82 71 83 55 84 56 85 61 86 57 87 58 88 60 89
REMARK SMILES IDX 62 90 59 91
REMARK H PARENT 22 7 6 15 14 28 29 34 79 53 53 64
REMARK Flexibility Score: inf
ROOT
ATOM      1  C   UNL A   1      34.632  32.559  27.777  1.00  0.00     0.002 C 
ENDROOT
BRANCH   1   2
ATOM      2  C   UNL A   1      34.882  31.079  28.113  1.00  0.00     0.021 C 
BRANCH   2   3
ATOM      3  C   UNL A   1      34.270  30.032  27.181  1.00  0.00     0.116 C 
BRANCH   3   4
ATOM      4  N   UNL A   1      33.221  29.246  27.799  1.00  0.00    -0.352 N 
ATOM      5  C   UNL A   1      32.194  28.512  27.263  1.00  0.00     0.253 C 
ATOM      6  O   UNL A   1      31.389  28.003  28.046  1.00  0.00    -0.269 OA
ATOM      7  H   UNL A   1      33.248  29.239  28.783  1.00  0.00     0.163 HD
BRANCH   5   8
ATOM      8  C   UNL A   1      31.965  28.333  25.800  1.00  0.00     0.066 A 
ATOM      9  C   UNL A   1      32.425  27.275  25.011  1.00  0.00     0.061 A 
ATOM     10  C   UNL A   1      32.266  27.354  23.623  1.00  0.00     0.030 A 
ATOM     11  C   UNL A   1      31.451  28.324  23.050  1.00  0.00     0.028 A 
ATOM     12  C   UNL A   1      31.083  29.275  25.196  1.00  0.00     0.042 A 
ATOM     13  C   UNL A   1      30.735  29.224  23.837  1.00  0.00     0.038 A 
BRANCH   9  14
ATOM     14  N   UNL A   1      33.007  26.051  25.453  1.00  0.00    -0.283 N 
ATOM     15  H   UNL A   1      33.984  26.023  25.568  1.00  0.00     0.180 HD
BRANCH  14  16
ATOM     16  S   UNL A   1      32.143  24.663  25.790  1.00  0.00     0.232 S 
ATOM     17  O   UNL A   1      31.549  24.179  24.567  1.00  0.00    -0.207 OA
ATOM     18  O   UNL A   1      31.281  25.077  26.880  1.00  0.00    -0.207 OA
BRANCH  16  19
ATOM     19  C   UNL A   1      33.221  23.382  26.429  1.00  0.00     0.156 C 
ATOM     20  C   UNL A   1      34.278  22.894  25.457  1.00  0.00     0.023 C 
ENDBRANCH  16  19
ENDBRANCH  14  16
ENDBRANCH   9  14
BRANCH  13  21
ATOM     21  N   UNL A   1      29.677  29.928  23.304  1.00  0.00    -0.360 N 
ATOM     22  C   UNL A   1      28.722  29.382  22.328  1.00  0.00     0.178 C 
ATOM     23  C   UNL A   1      29.311  31.249  23.852  1.00  0.00     0.178 C 
ATOM     24  C   UNL A   1      28.363  30.440  21.250  1.00  0.00     0.283 C 
ATOM     25  C   UNL A   1      28.974  32.242  22.722  1.00  0.00     0.283 C 
ATOM     26  N   UNL A   1      27.922  31.736  21.819  1.00  0.00    -0.334 N 
ATOM     27  C   UNL A   1      27.655  32.709  20.760  1.00  0.00     0.332 C 
ATOM     28  H   UNL A   1      27.056  31.595  22.339  1.00  0.00     0.347 HD
ENDBRANCH  13  21
ENDBRANCH   5   8
ENDBRANCH   3   4
ENDBRANCH   2   3
ENDBRANCH   1   2
BRANCH   1  29
ATOM     29  C   UNL A   1      34.504  33.572  28.918  1.00  0.00     0.002 C 
BRANCH  29  30
ATOM     30  C   UNL A   1      33.219  34.391  28.989  1.00  0.00     0.021 C 
BRANCH  30  31
ATOM     31  C   UNL A   1      33.423  35.846  29.376  1.00  0.00     0.116 C 
BRANCH  31  32
ATOM     32  N   UNL A   1      32.529  36.290  30.435  1.00  0.00    -0.352 N 
ATOM     33  C   UNL A   1      32.576  36.001  31.777  1.00  0.00     0.251 C 
ATOM     34  H   UNL A   1      31.791  36.877  30.152  1.00  0.00     0.163 HD
ATOM     35  O   UNL A   1      31.682  36.363  32.533  1.00  0.00    -0.269 OA
BRANCH  33  36
ATOM     36  C   UNL A   1      33.712  35.214  32.295  1.00  0.00     0.039 A 
ATOM     37  C   UNL A   1      33.483  33.921  32.772  1.00  0.00     0.014 A 
ATOM     38  C   UNL A   1      35.005  35.741  32.264  1.00  0.00     0.014 A 
ATOM     39  C   UNL A   1      34.566  33.132  33.161  1.00  0.00     0.010 A 
ATOM     40  C   UNL A   1      36.086  34.924  32.566  1.00  0.00     0.010 A 
ATOM     41  C   UNL A   1      35.877  33.615  33.027  1.00  0.00    -0.014 A 
BRANCH  41  42
ATOM     42  C   UNL A   1      37.057  32.798  33.404  1.00  0.00     0.031 A 
ATOM     43  C   UNL A   1      37.771  33.093  34.694  1.00  0.00     0.074 A 
ATOM     44  C   UNL A   1      37.529  31.859  32.561  1.00  0.00     0.049 A 
ATOM     45  N   UNL A   1      38.905  32.618  35.141  1.00  0.00    -0.248 NA
ATOM     46  C   UNL A   1      37.141  34.082  35.586  1.00  0.00     0.031 C 
ATOM     47  C   UNL A   1      36.940  31.501  31.268  1.00  0.00     0.029 A 
ATOM     48  N   UNL A   1      38.629  31.043  32.660  1.00  0.00    -0.354 N 
ATOM     49  C   UNL A   1      39.126  33.258  36.355  1.00  0.00     0.074 A 
ATOM     50  C   UNL A   1      38.049  34.203  36.543  1.00  0.00     0.031 C 
ATOM     51  C   UNL A   1      37.679  30.533  30.700  1.00  0.00     0.029 A 
ATOM     52  C   UNL A   1      38.818  30.236  31.563  1.00  0.00     0.049 A 
ATOM     53  H   UNL A   1      39.226  31.038  33.442  1.00  0.00     0.167 HD
ATOM     54  C   UNL A   1      40.121  33.052  37.248  1.00  0.00     0.037 A 
ATOM     55  C   UNL A   1      39.810  29.371  31.280  1.00  0.00     0.037 A 
ATOM     56  C   UNL A   1      41.176  32.092  37.068  1.00  0.00     0.049 A 
ATOM     57  C   UNL A   1      40.926  29.189  32.278  1.00  0.00     0.074 A 
ATOM     58  C   UNL A   1      42.221  31.790  37.923  1.00  0.00     0.029 A 
ATOM     59  N   UNL A   1      41.312  31.271  35.959  1.00  0.00    -0.354 N 
ATOM     60  N   UNL A   1      41.103  29.772  33.438  1.00  0.00    -0.248 NA
ATOM     61  C   UNL A   1      41.979  28.224  31.929  1.00  0.00     0.031 C 
ATOM     62  C   UNL A   1      43.013  30.814  37.313  1.00  0.00     0.029 A 
ATOM     63  C   UNL A   1      42.428  30.467  36.106  1.00  0.00     0.049 A 
ATOM     64  H   UNL A   1      40.705  31.261  35.184  1.00  0.00     0.167 HD
ATOM     65  C   UNL A   1      42.253  29.210  33.977  1.00  0.00     0.074 A 
ATOM     66  C   UNL A   1      42.731  28.237  33.019  1.00  0.00     0.031 C 
ATOM     67  C   UNL A   1      42.861  29.474  35.159  1.00  0.00     0.037 A 
BRANCH  54  68
ATOM     68  C   UNL A   1      40.102  33.860  38.512  1.00  0.00     0.057 A 
ATOM     69  C   UNL A   1      40.813  35.062  38.626  1.00  0.00     0.134 A 
ATOM     70  C   UNL A   1      39.322  33.466  39.607  1.00  0.00     0.134 A 
ATOM     71  F   UNL A   1      41.590  35.489  37.618  1.00  0.00    -0.206 F 
ATOM     72  C   UNL A   1      40.764  35.833  39.786  1.00  0.00     0.040 A 
ATOM     73  C   UNL A   1      39.241  34.245  40.762  1.00  0.00     0.040 A 
ATOM     74  F   UNL A   1      38.612  32.328  39.564  1.00  0.00    -0.206 F 
ATOM     75  C   UNL A   1      39.967  35.430  40.856  1.00  0.00     0.006 A 
ENDBRANCH  54  68
BRANCH  55  76
ATOM     76  C   UNL A   1      39.814  28.607  30.004  1.00  0.00     0.057 A 
ATOM     77  C   UNL A   1      39.184  27.361  29.903  1.00  0.00     0.134 A 
ATOM     78  C   UNL A   1      40.497  29.074  28.873  1.00  0.00     0.134 A 
ATOM     79  F   UNL A   1      38.528  26.850  30.954  1.00  0.00    -0.206 F 
ATOM     80  C   UNL A   1      39.270  26.588  28.744  1.00  0.00     0.040 A 
ATOM     81  C   UNL A   1      40.562  28.327  27.697  1.00  0.00     0.040 A 
ATOM     82  F   UNL A   1      41.115  30.265  28.897  1.00  0.00    -0.206 F 
ATOM     83  C   UNL A   1      39.962  27.070  27.635  1.00  0.00     0.006 A 
ENDBRANCH  55  76
BRANCH  67  84
ATOM     84  C   UNL A   1      44.058  28.647  35.525  1.00  0.00     0.057 A 
ATOM     85  C   UNL A   1      45.359  29.015  35.164  1.00  0.00     0.134 A 
ATOM     86  C   UNL A   1      43.904  27.497  36.313  1.00  0.00     0.134 A 
ATOM     87  F   UNL A   1      45.573  30.098  34.402  1.00  0.00    -0.206 F 
ATOM     88  C   UNL A   1      46.465  28.259  35.558  1.00  0.00     0.040 A 
ATOM     89  C   UNL A   1      45.003  26.751  36.738  1.00  0.00     0.040 A 
ATOM     90  F   UNL A   1      42.685  27.096  36.703  1.00  0.00    -0.206 F 
ATOM     91  C   UNL A   1      46.289  27.130  36.356  1.00  0.00     0.006 A 
ENDBRANCH  67  84
ENDBRANCH  41  42
ENDBRANCH  33  36
ENDBRANCH  31  32
ENDBRANCH  30  31
ENDBRANCH  29  30
ENDBRANCH   1  29
TORSDOF 17
ENDMDL
MODEL 2
REMARK VINA RESULT:     -11.4      6.185     11.054
REMARK SMILES CCS(=O)(=O)Nc1ccc(N2CC[NH+](C)CC2)cc1C(=O)NCCCCCCNC(=O)c1ccc(-c2c3nc(c(-c4c(F)cccc4F)c4ccc([nH]4)c(-c4c(F)cccc4F)c4nc(c(-c5c(F)cccc5F)c5ccc2[nH]5)C=C4)C=C3)cc1
REMARK SMILES IDX 25 1 24 2 23 3 22 4 20 5 21 6 19 8 7 9 8 10 9 11 18 12 10 13
REMARK SMILES IDX 6 14 3 16 4 17 5 18 2 19 1 20 11 21 12 22 17 23 13 24 16 25
REMARK SMILES IDX 14 26 15 27 26 29 27 30 28 31 29 32 30 33 31 35 32 36 33 37
REMARK SMILES IDX 85 38 34 39 84 40 35 41 36 42 37 43 78 44 38 45 83 46 77 47
REMARK SMILES IDX 79 48 39 49 82 50 76 51 75 52 40 54 66 55 49 56 65 57 50 58
REMARK SMILES IDX 53 59 64 60 80 61 51 62 52 63 63 65 81 66 54 67 41 68 42 69
REMARK SMILES IDX 47 70 43 71 44 72 46 73 48 74 45 75 67 76 68 77 73 78 69 79
REMARK SMILES IDX 70 80 72 81 74 82 71 83 55 84 56 85 61 86 57 87 58 88 60 89
REMARK SMILES IDX 62 90 59 91
REMARK H PARENT 22 7 6 15 14 28 29 34 79 53 53 64
REMARK Flexibility Score: inf
ROOT
ATOM      1  C   UNL A   1      36.591  21.798  24.641  1.00  0.00     0.002 C 
ENDROOT
BRANCH   1   2
ATOM      2  C   UNL A   1      36.397  22.852  25.745  1.00  0.00     0.021 C 
BRANCH   2   3
ATOM      3  C   UNL A   1      35.776  24.190  25.339  1.00  0.00     0.116 C 
BRANCH   3   4
ATOM      4  N   UNL A   1      34.467  24.421  25.916  1.00  0.00    -0.352 N 
ATOM      5  C   UNL A   1      33.219  23.976  25.560  1.00  0.00     0.253 C 
ATOM      6  O   UNL A   1      32.257  24.407  26.199  1.00  0.00    -0.269 OA
ATOM      7  H   UNL A   1      34.473  25.006  26.708  1.00  0.00     0.163 HD
BRANCH   5   8
ATOM      8  C   UNL A   1      32.954  23.045  24.425  1.00  0.00     0.066 A 
ATOM      9  C   UNL A   1      33.064  23.343  23.064  1.00  0.00     0.061 A 
ATOM     10  C   UNL A   1      32.609  22.403  22.132  1.00  0.00     0.030 A 
ATOM     11  C   UNL A   1      32.292  21.107  22.520  1.00  0.00     0.028 A 
ATOM     12  C   UNL A   1      32.688  21.694  24.789  1.00  0.00     0.042 A 
ATOM     13  C   UNL A   1      32.454  20.686  23.839  1.00  0.00     0.038 A 
BRANCH   9  14
ATOM     14  N   UNL A   1      33.654  24.498  22.472  1.00  0.00    -0.283 N 
ATOM     15  H   UNL A   1      34.637  24.540  22.429  1.00  0.00     0.180 HD
BRANCH  14  16
ATOM     16  S   UNL A   1      32.792  25.784  21.848  1.00  0.00     0.232 S 
ATOM     17  O   UNL A   1      31.431  25.700  22.318  1.00  0.00    -0.207 OA
ATOM     18  O   UNL A   1      33.057  25.688  20.426  1.00  0.00    -0.207 OA
BRANCH  16  19
ATOM     19  C   UNL A   1      33.479  27.341  22.408  1.00  0.00     0.156 C 
ATOM     20  C   UNL A   1      33.746  27.423  23.899  1.00  0.00     0.023 C 
ENDBRANCH  16  19
ENDBRANCH  14  16
ENDBRANCH   9  14
BRANCH  13  21
ATOM     21  N   UNL A   1      32.486  19.342  24.144  1.00  0.00    -0.360 N 
ATOM     22  C   UNL A   1      32.386  18.795  25.505  1.00  0.00     0.178 C 
ATOM     23  C   UNL A   1      32.418  18.335  23.067  1.00  0.00     0.178 C 
ATOM     24  C   UNL A   1      33.354  17.597  25.695  1.00  0.00     0.283 C 
ATOM     25  C   UNL A   1      33.410  17.182  23.325  1.00  0.00     0.283 C 
ATOM     26  N   UNL A   1      33.217  16.556  24.647  1.00  0.00    -0.334 N 
ATOM     27  C   UNL A   1      34.192  15.484  24.845  1.00  0.00     0.332 C 
ATOM     28  H   UNL A   1      32.286  16.145  24.705  1.00  0.00     0.347 HD
ENDBRANCH  13  21
ENDBRANCH   5   8
ENDBRANCH   3   4
ENDBRANCH   2   3
ENDBRANCH   1   2
BRANCH   1  29
ATOM     29  C   UNL A   1      36.427  20.316  24.987  1.00  0.00     0.002 C 
BRANCH  29  30
ATOM     30  C   UNL A   1      37.669  19.435  24.909  1.00  0.00     0.021 C 
BRANCH  30  31
ATOM     31  C   UNL A   1      38.886  20.003  25.617  1.00  0.00     0.116 C 
BRANCH  31  32
ATOM     32  N   UNL A   1      39.988  19.057  25.715  1.00  0.00    -0.352 N 
ATOM     33  C   UNL A   1      41.295  19.294  26.064  1.00  0.00     0.251 C 
ATOM     34  H   UNL A   1      39.767  18.121  25.505  1.00  0.00     0.163 HD
ATOM     35  O   UNL A   1      42.138  18.407  25.995  1.00  0.00    -0.269 OA
BRANCH  33  36
ATOM     36  C   UNL A   1      41.681  20.651  26.496  1.00  0.00     0.039 A 
ATOM     37  C   UNL A   1      41.854  20.910  27.857  1.00  0.00     0.014 A 
ATOM     38  C   UNL A   1      41.916  21.651  25.548  1.00  0.00     0.014 A 
ATOM     39  C   UNL A   1      42.324  22.159  28.265  1.00  0.00     0.010 A 
ATOM     40  C   UNL A   1      42.468  22.859  25.948  1.00  0.00     0.010 A 
ATOM     41  C   UNL A   1      42.668  23.129  27.312  1.00  0.00    -0.014 A 
BRANCH  41  42
ATOM     42  C   UNL A   1      43.198  24.459  27.702  1.00  0.00     0.031 A 
ATOM     43  C   UNL A   1      42.236  25.535  28.128  1.00  0.00     0.074 A 
ATOM     44  C   UNL A   1      44.514  24.723  27.597  1.00  0.00     0.049 A 
ATOM     45  N   UNL A   1      42.459  26.803  28.355  1.00  0.00    -0.248 NA
ATOM     46  C   UNL A   1      40.826  25.135  28.286  1.00  0.00     0.031 C 
ATOM     47  C   UNL A   1      45.542  23.771  27.168  1.00  0.00     0.029 A 
ATOM     48  N   UNL A   1      45.214  25.882  27.827  1.00  0.00    -0.354 N 
ATOM     49  C   UNL A   1      41.221  27.350  28.670  1.00  0.00     0.074 A 
ATOM     50  C   UNL A   1      40.241  26.296  28.538  1.00  0.00     0.031 C 
ATOM     51  C   UNL A   1      46.739  24.382  27.175  1.00  0.00     0.029 A 
ATOM     52  C   UNL A   1      46.558  25.778  27.562  1.00  0.00     0.049 A 
ATOM     53  H   UNL A   1      44.791  26.710  28.152  1.00  0.00     0.167 HD
ATOM     54  C   UNL A   1      40.932  28.611  29.066  1.00  0.00     0.037 A 
ATOM     55  C   UNL A   1      47.529  26.710  27.606  1.00  0.00     0.037 A 
ATOM     56  C   UNL A   1      41.914  29.649  29.220  1.00  0.00     0.049 A 
ATOM     57  C   UNL A   1      47.171  28.117  28.015  1.00  0.00     0.074 A 
ATOM     58  C   UNL A   1      41.728  30.956  29.636  1.00  0.00     0.029 A 
ATOM     59  N   UNL A   1      43.269  29.494  28.973  1.00  0.00    -0.354 N 
ATOM     60  N   UNL A   1      46.003  28.611  28.346  1.00  0.00    -0.248 NA
ATOM     61  C   UNL A   1      48.268  29.095  28.060  1.00  0.00     0.031 C 
ATOM     62  C   UNL A   1      42.967  31.603  29.603  1.00  0.00     0.029 A 
ATOM     63  C   UNL A   1      43.930  30.683  29.223  1.00  0.00     0.049 A 
ATOM     64  H   UNL A   1      43.697  28.662  28.667  1.00  0.00     0.167 HD
ATOM     65  C   UNL A   1      46.234  29.938  28.687  1.00  0.00     0.074 A 
ATOM     66  C   UNL A   1      47.652  30.172  28.526  1.00  0.00     0.031 C 
ATOM     67  C   UNL A   1      45.351  30.881  29.097  1.00  0.00     0.037 A 
BRANCH  54  68
ATOM     68  C   UNL A   1      39.501  28.931  29.385  1.00  0.00     0.057 A 
ATOM     69  C   UNL A   1      38.618  29.401  28.404  1.00  0.00     0.134 A 
ATOM     70  C   UNL A   1      38.985  28.716  30.669  1.00  0.00     0.134 A 
ATOM     71  F   UNL A   1      39.053  29.641  27.157  1.00  0.00    -0.206 F 
ATOM     72  C   UNL A   1      37.279  29.661  28.691  1.00  0.00     0.040 A 
ATOM     73  C   UNL A   1      37.639  28.944  30.961  1.00  0.00     0.040 A 
ATOM     74  F   UNL A   1      39.775  28.263  31.654  1.00  0.00    -0.206 F 
ATOM     75  C   UNL A   1      36.783  29.422  29.971  1.00  0.00     0.006 A 
ENDBRANCH  54  68
BRANCH  55  76
ATOM     76  C   UNL A   1      48.932  26.366  27.255  1.00  0.00     0.057 A 
ATOM     77  C   UNL A   1      49.381  26.417  25.929  1.00  0.00     0.134 A 
ATOM     78  C   UNL A   1      49.842  25.921  28.222  1.00  0.00     0.134 A 
ATOM     79  F   UNL A   1      48.555  26.818  24.952  1.00  0.00    -0.206 F 
ATOM     80  C   UNL A   1      50.663  25.995  25.572  1.00  0.00     0.040 A 
ATOM     81  C   UNL A   1      51.138  25.528  27.884  1.00  0.00     0.040 A 
ATOM     82  F   UNL A   1      49.482  25.856  29.513  1.00  0.00    -0.206 F 
ATOM     83  C   UNL A   1      51.546  25.549  26.552  1.00  0.00     0.006 A 
ENDBRANCH  55  76
BRANCH  67  84
ATOM     84  C   UNL A   1      45.897  32.225  29.481  1.00  0.00     0.057 A 
ATOM     85  C   UNL A   1      46.358  32.502  30.773  1.00  0.00     0.134 A 
ATOM     86  C   UNL A   1      46.023  33.234  28.516  1.00  0.00     0.134 A 
ATOM     87  F   UNL A   1      46.255  31.583  31.745  1.00  0.00    -0.206 F 
ATOM     88  C   UNL A   1      46.908  33.743  31.098  1.00  0.00     0.040 A 
ATOM     89  C   UNL A   1      46.599  34.467  28.822  1.00  0.00     0.040 A 
ATOM     90  F   UNL A   1      45.611  33.029  27.257  1.00  0.00    -0.206 F 
ATOM     91  C   UNL A   1      47.040  34.726  30.118  1.00  0.00     0.006 A 
ENDBRANCH  67  84
ENDBRANCH  41  42
ENDBRANCH  33  36
ENDBRANCH  31  32
ENDBRANCH  30  31
ENDBRANCH  29  30
ENDBRANCH   1  29
TORSDOF 17
ENDMDL
MODEL 3
REMARK VINA RESULT:     -11.4      1.892      6.584
REMARK SMILES CCS(=O)(=O)Nc1ccc(N2CC[NH+](C)CC2)cc1C(=O)NCCCCCCNC(=O)c1ccc(-c2c3nc(c(-c4c(F)cccc4F)c4ccc([nH]4)c(-c4c(F)cccc4F)c4nc(c(-c5c(F)cccc5F)c5ccc2[nH]5)C=C4)C=C3)cc1
REMARK SMILES IDX 25 1 24 2 23 3 22 4 20 5 21 6 19 8 7 9 8 10 9 11 18 12 10 13
REMARK SMILES IDX 6 14 3 16 4 17 5 18 2 19 1 20 11 21 12 22 17 23 13 24 16 25
REMARK SMILES IDX 14 26 15 27 26 29 27 30 28 31 29 32 30 33 31 35 32 36 33 37
REMARK SMILES IDX 85 38 34 39 84 40 35 41 36 42 37 43 78 44 38 45 83 46 77 47
REMARK SMILES IDX 79 48 39 49 82 50 76 51 75 52 40 54 66 55 49 56 65 57 50 58
REMARK SMILES IDX 53 59 64 60 80 61 51 62 52 63 63 65 81 66 54 67 41 68 42 69
REMARK SMILES IDX 47 70 43 71 44 72 46 73 48 74 45 75 67 76 68 77 73 78 69 79
REMARK SMILES IDX 70 80 72 81 74 82 71 83 55 84 56 85 61 86 57 87 58 88 60 89
REMARK SMILES IDX 62 90 59 91
REMARK H PARENT 22 7 6 15 14 28 29 34 79 53 53 64
REMARK Flexibility Score: inf
ROOT
ATOM      1  C   UNL A   1      32.252  29.516  26.652  1.00  0.00     0.002 C 
ENDROOT
BRANCH   1   2
ATOM      2  C   UNL A   1      33.487  28.867  26.003  1.00  0.00     0.021 C 
BRANCH   2   3
ATOM      3  C   UNL A   1      33.747  27.391  26.308  1.00  0.00     0.116 C 
BRANCH   3   4
ATOM      4  N   UNL A   1      33.933  26.577  25.123  1.00  0.00    -0.352 N 
ATOM      5  C   UNL A   1      33.035  26.011  24.254  1.00  0.00     0.253 C 
ATOM      6  O   UNL A   1      33.485  25.288  23.362  1.00  0.00    -0.269 OA
ATOM      7  H   UNL A   1      34.875  26.395  24.902  1.00  0.00     0.163 HD
BRANCH   5   8
ATOM      8  C   UNL A   1      31.556  26.177  24.349  1.00  0.00     0.066 A 
ATOM      9  C   UNL A   1      30.714  25.590  25.297  1.00  0.00     0.061 A 
ATOM     10  C   UNL A   1      29.330  25.715  25.135  1.00  0.00     0.030 A 
ATOM     11  C   UNL A   1      28.795  26.605  24.212  1.00  0.00     0.028 A 
ATOM     12  C   UNL A   1      30.987  27.132  23.458  1.00  0.00     0.042 A 
ATOM     13  C   UNL A   1      29.615  27.432  23.446  1.00  0.00     0.038 A 
BRANCH   9  14
ATOM     14  N   UNL A   1      31.092  24.901  26.487  1.00  0.00    -0.283 N 
ATOM     15  H   UNL A   1      31.359  25.442  27.265  1.00  0.00     0.180 HD
BRANCH  14  16
ATOM     16  S   UNL A   1      31.114  23.240  26.649  1.00  0.00     0.232 S 
ATOM     17  O   UNL A   1      30.996  22.645  25.340  1.00  0.00    -0.207 OA
ATOM     18  O   UNL A   1      30.076  22.999  27.632  1.00  0.00    -0.207 OA
BRANCH  16  19
ATOM     19  C   UNL A   1      32.659  22.692  27.372  1.00  0.00     0.156 C 
ATOM     20  C   UNL A   1      33.902  23.336  26.787  1.00  0.00     0.023 C 
ENDBRANCH  16  19
ENDBRANCH  14  16
ENDBRANCH   9  14
BRANCH  13  21
ATOM     21  N   UNL A   1      29.093  28.540  22.813  1.00  0.00    -0.360 N 
ATOM     22  C   UNL A   1      29.758  29.264  21.720  1.00  0.00     0.178 C 
ATOM     23  C   UNL A   1      27.699  28.954  23.068  1.00  0.00     0.178 C 
ATOM     24  C   UNL A   1      29.569  30.797  21.872  1.00  0.00     0.283 C 
ATOM     25  C   UNL A   1      27.595  30.486  23.213  1.00  0.00     0.283 C 
ATOM     26  N   UNL A   1      28.153  31.202  22.050  1.00  0.00    -0.334 N 
ATOM     27  C   UNL A   1      28.043  32.647  22.247  1.00  0.00     0.332 C 
ATOM     28  H   UNL A   1      27.629  30.962  21.209  1.00  0.00     0.347 HD
ENDBRANCH  13  21
ENDBRANCH   5   8
ENDBRANCH   3   4
ENDBRANCH   2   3
ENDBRANCH   1   2
BRANCH   1  29
ATOM     29  C   UNL A   1      31.435  30.533  25.850  1.00  0.00     0.002 C 
BRANCH  29  30
ATOM     30  C   UNL A   1      31.256  31.922  26.453  1.00  0.00     0.021 C 
BRANCH  30  31
ATOM     31  C   UNL A   1      32.549  32.580  26.904  1.00  0.00     0.116 C 
BRANCH  31  32
ATOM     32  N   UNL A   1      32.346  33.886  27.515  1.00  0.00    -0.352 N 
ATOM     33  C   UNL A   1      33.075  34.492  28.508  1.00  0.00     0.251 C 
ATOM     34  H   UNL A   1      31.584  34.405  27.170  1.00  0.00     0.163 HD
ATOM     35  O   UNL A   1      32.714  35.556  28.999  1.00  0.00    -0.269 OA
BRANCH  33  36
ATOM     36  C   UNL A   1      34.294  33.824  29.004  1.00  0.00     0.039 A 
ATOM     37  C   UNL A   1      35.544  34.342  28.657  1.00  0.00     0.014 A 
ATOM     38  C   UNL A   1      34.194  32.714  29.848  1.00  0.00     0.014 A 
ATOM     39  C   UNL A   1      36.697  33.782  29.211  1.00  0.00     0.010 A 
ATOM     40  C   UNL A   1      35.334  32.218  30.466  1.00  0.00     0.010 A 
ATOM     41  C   UNL A   1      36.598  32.741  30.145  1.00  0.00    -0.014 A 
BRANCH  41  42
ATOM     42  C   UNL A   1      37.796  32.136  30.777  1.00  0.00     0.031 A 
ATOM     43  C   UNL A   1      38.515  31.021  30.068  1.00  0.00     0.074 A 
ATOM     44  C   UNL A   1      38.186  32.528  32.006  1.00  0.00     0.049 A 
ATOM     45  N   UNL A   1      39.477  30.248  30.502  1.00  0.00    -0.248 NA
ATOM     46  C   UNL A   1      38.066  30.712  28.699  1.00  0.00     0.031 C 
ATOM     47  C   UNL A   1      37.552  33.579  32.806  1.00  0.00     0.029 A 
ATOM     48  N   UNL A   1      39.203  32.071  32.808  1.00  0.00    -0.354 N 
ATOM     49  C   UNL A   1      39.737  29.358  29.466  1.00  0.00     0.074 A 
ATOM     50  C   UNL A   1      38.789  29.640  28.412  1.00  0.00     0.031 C 
ATOM     51  C   UNL A   1      38.200  33.692  33.977  1.00  0.00     0.029 A 
ATOM     52  C   UNL A   1      39.262  32.692  34.032  1.00  0.00     0.049 A 
ATOM     53  H   UNL A   1      39.830  31.364  32.530  1.00  0.00     0.167 HD
ATOM     54  C   UNL A   1      40.702  28.414  29.388  1.00  0.00     0.037 A 
ATOM     55  C   UNL A   1      40.069  32.463  35.086  1.00  0.00     0.037 A 
ATOM     56  C   UNL A   1      41.658  28.155  30.429  1.00  0.00     0.049 A 
ATOM     57  C   UNL A   1      41.111  31.378  34.985  1.00  0.00     0.074 A 
ATOM     58  C   UNL A   1      42.690  27.233  30.442  1.00  0.00     0.029 A 
ATOM     59  N   UNL A   1      41.705  28.828  31.641  1.00  0.00    -0.354 N 
ATOM     60  N   UNL A   1      41.371  30.570  33.986  1.00  0.00    -0.248 NA
ATOM     61  C   UNL A   1      41.975  31.175  36.157  1.00  0.00     0.031 C 
ATOM     62  C   UNL A   1      43.338  27.321  31.677  1.00  0.00     0.029 A 
ATOM     63  C   UNL A   1      42.745  28.337  32.409  1.00  0.00     0.049 A 
ATOM     64  H   UNL A   1      41.091  29.548  31.912  1.00  0.00     0.167 HD
ATOM     65  C   UNL A   1      42.457  29.802  34.388  1.00  0.00     0.074 A 
ATOM     66  C   UNL A   1      42.809  30.242  35.720  1.00  0.00     0.031 C 
ATOM     67  C   UNL A   1      43.105  28.821  33.717  1.00  0.00     0.037 A 
BRANCH  54  68
ATOM     68  C   UNL A   1      40.788  27.607  28.126  1.00  0.00     0.057 A 
ATOM     69  C   UNL A   1      41.557  28.033  27.035  1.00  0.00     0.134 A 
ATOM     70  C   UNL A   1      40.144  26.368  28.018  1.00  0.00     0.134 A 
ATOM     71  F   UNL A   1      42.188  29.217  27.068  1.00  0.00    -0.206 F 
ATOM     72  C   UNL A   1      41.670  27.264  25.877  1.00  0.00     0.040 A 
ATOM     73  C   UNL A   1      40.274  25.576  26.876  1.00  0.00     0.040 A 
ATOM     74  F   UNL A   1      39.396  25.899  29.028  1.00  0.00    -0.206 F 
ATOM     75  C   UNL A   1      41.035  26.026  25.799  1.00  0.00     0.006 A 
ENDBRANCH  54  68
BRANCH  55  76
ATOM     76  C   UNL A   1      39.936  33.261  36.334  1.00  0.00     0.057 A 
ATOM     77  C   UNL A   1      39.042  32.885  37.343  1.00  0.00     0.134 A 
ATOM     78  C   UNL A   1      40.654  34.449  36.523  1.00  0.00     0.134 A 
ATOM     79  F   UNL A   1      38.311  31.768  37.216  1.00  0.00    -0.206 F 
ATOM     80  C   UNL A   1      38.831  33.682  38.471  1.00  0.00     0.040 A 
ATOM     81  C   UNL A   1      40.479  35.237  37.661  1.00  0.00     0.040 A 
ATOM     82  F   UNL A   1      41.536  34.863  35.601  1.00  0.00    -0.206 F 
ATOM     83  C   UNL A   1      39.551  34.863  38.632  1.00  0.00     0.006 A 
ENDBRANCH  55  76
BRANCH  67  84
ATOM     84  C   UNL A   1      44.311  28.211  34.369  1.00  0.00     0.057 A 
ATOM     85  C   UNL A   1      44.230  27.064  35.167  1.00  0.00     0.134 A 
ATOM     86  C   UNL A   1      45.585  28.749  34.134  1.00  0.00     0.134 A 
ATOM     87  F   UNL A   1      43.040  26.508  35.439  1.00  0.00    -0.206 F 
ATOM     88  C   UNL A   1      45.370  26.483  35.724  1.00  0.00     0.040 A 
ATOM     89  C   UNL A   1      46.734  28.159  34.660  1.00  0.00     0.040 A 
ATOM     90  F   UNL A   1      45.734  29.841  33.369  1.00  0.00    -0.206 F 
ATOM     91  C   UNL A   1      46.628  27.025  35.462  1.00  0.00     0.006 A 
ENDBRANCH  67  84
ENDBRANCH  41  42
ENDBRANCH  33  36
ENDBRANCH  31  32
ENDBRANCH  30  31
ENDBRANCH  29  30
ENDBRANCH   1  29
TORSDOF 17
ENDMDL
