MODEL 1
REMARK VINA RESULT:     -11.2      0.000      0.000
REMARK SMILES O=C(NCCCCCCNC(=O)c1ccc(-c2c3nc(c(-c4c(F)cccc4F)c4ccc([nH]4)c(-c4c(F)cccc4F)c4nc(c(-c5c(F)cccc5F)c5ccc2[nH]5)C=C4)C=C3)cc1)c1ccc(NC(=O)[C@H]2CCS(=O)(=O)C2)cc1
REMARK SMILES IDX 6 1 5 2 4 3 3 4 1 5 2 6 67 8 68 9 82 10 69 11 81 12 70 13
REMARK SMILES IDX 71 14 72 15 73 17 74 18 75 19 80 20 76 21 77 22 78 23 79 24
REMARK SMILES IDX 7 25 8 26 9 27 10 28 11 29 12 31 13 32 14 33 66 34 15 35
REMARK SMILES IDX 65 36 16 37 17 38 18 39 59 40 19 41 64 42 58 43 60 44 20 45
REMARK SMILES IDX 63 46 57 47 56 48 21 50 47 51 30 52 46 53 31 54 34 55 45 56
REMARK SMILES IDX 61 57 32 58 33 59 44 61 62 62 35 63 22 64 23 65 28 66 24 67
REMARK SMILES IDX 25 68 27 69 29 70 26 71 48 72 49 73 54 74 50 75 51 76 53 77
REMARK SMILES IDX 55 78 52 79 36 80 37 81 42 82 38 83 39 84 41 85 43 86 40 87
REMARK H PARENT 3 7 71 16 10 30 60 49 34 60
REMARK Flexibility Score: inf
ROOT
ATOM      1  C   UNL A   1      31.504  29.656  24.970  1.00  0.00     0.002 C 
ENDROOT
BRANCH   1   2
ATOM      2  C   UNL A   1      32.334  28.876  23.959  1.00  0.00     0.021 C 
BRANCH   2   3
ATOM      3  C   UNL A   1      31.533  28.266  22.825  1.00  0.00     0.116 C 
BRANCH   3   4
ATOM      4  N   UNL A   1      30.090  28.326  23.021  1.00  0.00    -0.352 N 
ATOM      5  O   UNL A   1      28.018  27.542  23.501  1.00  0.00    -0.269 OA
ATOM      6  C   UNL A   1      29.231  27.365  23.518  1.00  0.00     0.251 C 
ATOM      7  H   UNL A   1      29.665  29.176  22.761  1.00  0.00     0.163 HD
BRANCH   6   8
ATOM      8  C   UNL A   1      29.787  26.100  24.051  1.00  0.00     0.039 A 
ATOM      9  C   UNL A   1      29.919  25.938  25.424  1.00  0.00     0.016 A 
ATOM     10  C   UNL A   1      30.278  25.112  23.194  1.00  0.00     0.016 A 
ATOM     11  C   UNL A   1      30.742  24.942  25.910  1.00  0.00     0.027 A 
ATOM     12  C   UNL A   1      30.911  23.982  23.735  1.00  0.00     0.027 A 
ATOM     13  C   UNL A   1      31.111  23.882  25.118  1.00  0.00     0.041 A 
BRANCH  13  14
ATOM     14  N   UNL A   1      31.702  22.742  25.658  1.00  0.00    -0.326 N 
ATOM     15  C   UNL A   1      32.963  22.240  25.684  1.00  0.00     0.228 C 
ATOM     16  H   UNL A   1      31.057  22.168  26.130  1.00  0.00     0.169 HD
ATOM     17  O   UNL A   1      33.034  21.098  26.169  1.00  0.00    -0.274 OA
BRANCH  15  18
ATOM     18  C   UNL A   1      34.288  22.886  25.211  1.00  0.00     0.095 C 
ATOM     19  C   UNL A   1      35.392  23.454  26.118  1.00  0.00     0.030 C 
ATOM     20  C   UNL A   1      35.021  21.757  24.450  1.00  0.00     0.150 C 
ATOM     21  C   UNL A   1      36.665  23.631  25.300  1.00  0.00     0.138 C 
ATOM     22  S   UNL A   1      36.655  22.346  24.093  1.00  0.00     0.151 S 
ATOM     23  O   UNL A   1      36.652  22.964  22.781  1.00  0.00    -0.229 OA
ATOM     24  O   UNL A   1      37.619  21.344  24.484  1.00  0.00    -0.229 OA
ENDBRANCH  15  18
ENDBRANCH  13  14
ENDBRANCH   6   8
ENDBRANCH   3   4
ENDBRANCH   2   3
ENDBRANCH   1   2
BRANCH   1  25
ATOM     25  C   UNL A   1      31.556  29.125  26.406  1.00  0.00     0.002 C 
BRANCH  25  26
ATOM     26  C   UNL A   1      32.623  28.062  26.682  1.00  0.00     0.021 C 
BRANCH  26  27
ATOM     27  C   UNL A   1      33.997  28.607  27.052  1.00  0.00     0.116 C 
BRANCH  27  28
ATOM     28  N   UNL A   1      33.923  29.927  27.655  1.00  0.00    -0.352 N 
ATOM     29  C   UNL A   1      34.854  30.598  28.405  1.00  0.00     0.251 C 
ATOM     30  H   UNL A   1      33.080  30.412  27.502  1.00  0.00     0.163 HD
ATOM     31  O   UNL A   1      34.548  31.634  28.985  1.00  0.00    -0.269 OA
BRANCH  29  32
ATOM     32  C   UNL A   1      36.225  30.060  28.534  1.00  0.00     0.039 A 
ATOM     33  C   UNL A   1      37.090  30.152  27.440  1.00  0.00     0.014 A 
ATOM     34  C   UNL A   1      36.657  29.463  29.722  1.00  0.00     0.014 A 
ATOM     35  C   UNL A   1      38.406  29.700  27.559  1.00  0.00     0.010 A 
ATOM     36  C   UNL A   1      37.988  29.086  29.865  1.00  0.00     0.010 A 
ATOM     37  C   UNL A   1      38.877  29.196  28.784  1.00  0.00    -0.014 A 
BRANCH  37  38
ATOM     38  C   UNL A   1      40.294  28.786  28.951  1.00  0.00     0.031 A 
ATOM     39  C   UNL A   1      41.301  29.750  29.515  1.00  0.00     0.074 A 
ATOM     40  C   UNL A   1      40.686  27.565  28.539  1.00  0.00     0.049 A 
ATOM     41  N   UNL A   1      42.589  29.592  29.689  1.00  0.00    -0.248 NA
ATOM     42  C   UNL A   1      40.801  31.074  29.913  1.00  0.00     0.031 C 
ATOM     43  C   UNL A   1      39.813  26.554  27.938  1.00  0.00     0.029 A 
ATOM     44  N   UNL A   1      41.921  26.968  28.556  1.00  0.00    -0.354 N 
ATOM     45  C   UNL A   1      43.053  30.797  30.199  1.00  0.00     0.074 A 
ATOM     46  C   UNL A   1      41.920  31.695  30.256  1.00  0.00     0.031 C 
ATOM     47  C   UNL A   1      40.534  25.451  27.676  1.00  0.00     0.029 A 
ATOM     48  C   UNL A   1      41.925  25.692  28.047  1.00  0.00     0.049 A 
ATOM     49  H   UNL A   1      42.729  27.412  28.903  1.00  0.00     0.167 HD
ATOM     50  C   UNL A   1      44.306  31.122  30.602  1.00  0.00     0.037 A 
ATOM     51  C   UNL A   1      42.937  24.817  27.888  1.00  0.00     0.037 A 
ATOM     52  C   UNL A   1      45.426  30.218  30.562  1.00  0.00     0.049 A 
ATOM     53  C   UNL A   1      44.322  25.212  28.320  1.00  0.00     0.074 A 
ATOM     54  C   UNL A   1      46.718  30.428  31.011  1.00  0.00     0.029 A 
ATOM     55  N   UNL A   1      45.390  28.936  30.033  1.00  0.00    -0.354 N 
ATOM     56  N   UNL A   1      44.731  26.327  28.873  1.00  0.00    -0.248 NA
ATOM     57  C   UNL A   1      45.387  24.221  28.107  1.00  0.00     0.031 C 
ATOM     58  C   UNL A   1      47.479  29.298  30.696  1.00  0.00     0.029 A 
ATOM     59  C   UNL A   1      46.647  28.357  30.112  1.00  0.00     0.049 A 
ATOM     60  H   UNL A   1      44.590  28.501  29.658  1.00  0.00     0.167 HD
ATOM     61  C   UNL A   1      46.090  26.160  29.107  1.00  0.00     0.074 A 
ATOM     62  C   UNL A   1      46.433  24.831  28.647  1.00  0.00     0.031 C 
ATOM     63  C   UNL A   1      46.975  27.029  29.657  1.00  0.00     0.037 A 
BRANCH  50  64
ATOM     64  C   UNL A   1      44.533  32.516  31.112  1.00  0.00     0.057 A 
ATOM     65  C   UNL A   1      44.393  32.846  32.467  1.00  0.00     0.134 A 
ATOM     66  C   UNL A   1      44.930  33.538  30.239  1.00  0.00     0.134 A 
ATOM     67  F   UNL A   1      44.006  31.920  33.357  1.00  0.00    -0.206 F 
ATOM     68  C   UNL A   1      44.608  34.146  32.929  1.00  0.00     0.040 A 
ATOM     69  C   UNL A   1      45.180  34.834  30.695  1.00  0.00     0.040 A 
ATOM     70  F   UNL A   1      45.091  33.293  28.931  1.00  0.00    -0.206 F 
ATOM     71  C   UNL A   1      45.010  35.142  32.043  1.00  0.00     0.006 A 
ENDBRANCH  50  64
BRANCH  51  72
ATOM     72  C   UNL A   1      42.677  23.471  27.316  1.00  0.00     0.057 A 
ATOM     73  C   UNL A   1      42.786  23.241  25.939  1.00  0.00     0.134 A 
ATOM     74  C   UNL A   1      42.299  22.390  28.121  1.00  0.00     0.134 A 
ATOM     75  F   UNL A   1      43.127  24.240  25.113  1.00  0.00    -0.206 F 
ATOM     76  C   UNL A   1      42.506  21.992  25.380  1.00  0.00     0.040 A 
ATOM     77  C   UNL A   1      42.043  21.129  27.580  1.00  0.00     0.040 A 
ATOM     78  F   UNL A   1      42.185  22.541  29.449  1.00  0.00    -0.206 F 
ATOM     79  C   UNL A   1      42.137  20.930  26.204  1.00  0.00     0.006 A 
ENDBRANCH  51  72
BRANCH  63  80
ATOM     80  C   UNL A   1      48.389  26.555  29.831  1.00  0.00     0.057 A 
ATOM     81  C   UNL A   1      49.380  26.794  28.871  1.00  0.00     0.134 A 
ATOM     82  C   UNL A   1      48.773  25.881  30.999  1.00  0.00     0.134 A 
ATOM     83  F   UNL A   1      49.077  27.422  27.724  1.00  0.00    -0.206 F 
ATOM     84  C   UNL A   1      50.693  26.356  29.053  1.00  0.00     0.040 A 
ATOM     85  C   UNL A   1      50.088  25.467  31.206  1.00  0.00     0.040 A 
ATOM     86  F   UNL A   1      47.876  25.627  31.965  1.00  0.00    -0.206 F 
ATOM     87  C   UNL A   1      51.052  25.698  30.227  1.00  0.00     0.006 A 
ENDBRANCH  63  80
ENDBRANCH  37  38
ENDBRANCH  29  32
ENDBRANCH  27  28
ENDBRANCH  26  27
ENDBRANCH  25  26
ENDBRANCH   1  25
TORSDOF 15
ENDMDL
MODEL 2
REMARK VINA RESULT:     -11.1      5.575     10.492
REMARK SMILES O=C(NCCCCCCNC(=O)c1ccc(-c2c3nc(c(-c4c(F)cccc4F)c4ccc([nH]4)c(-c4c(F)cccc4F)c4nc(c(-c5c(F)cccc5F)c5ccc2[nH]5)C=C4)C=C3)cc1)c1ccc(NC(=O)[C@H]2CCS(=O)(=O)C2)cc1
REMARK SMILES IDX 6 1 5 2 4 3 3 4 1 5 2 6 67 8 68 9 82 10 69 11 81 12 70 13
REMARK SMILES IDX 71 14 72 15 73 17 74 18 75 19 80 20 76 21 77 22 78 23 79 24
REMARK SMILES IDX 7 25 8 26 9 27 10 28 11 29 12 31 13 32 14 33 66 34 15 35
REMARK SMILES IDX 65 36 16 37 17 38 18 39 59 40 19 41 64 42 58 43 60 44 20 45
REMARK SMILES IDX 63 46 57 47 56 48 21 50 47 51 30 52 46 53 31 54 34 55 45 56
REMARK SMILES IDX 61 57 32 58 33 59 44 61 62 62 35 63 22 64 23 65 28 66 24 67
REMARK SMILES IDX 25 68 27 69 29 70 26 71 48 72 49 73 54 74 50 75 51 76 53 77
REMARK SMILES IDX 55 78 52 79 36 80 37 81 42 82 38 83 39 84 41 85 43 86 40 87
REMARK H PARENT 3 7 71 16 10 30 60 49 34 60
REMARK Flexibility Score: inf
ROOT
ATOM      1  C   UNL A   1      42.894  35.184  29.918  1.00  0.00     0.002 C 
ENDROOT
BRANCH   1   2
ATOM      2  C   UNL A   1      41.540  34.493  30.015  1.00  0.00     0.021 C 
BRANCH   2   3
ATOM      3  C   UNL A   1      41.041  34.285  31.432  1.00  0.00     0.116 C 
BRANCH   3   4
ATOM      4  N   UNL A   1      41.082  32.898  31.877  1.00  0.00    -0.352 N 
ATOM      5  O   UNL A   1      40.256  30.854  32.403  1.00  0.00    -0.269 OA
ATOM      6  C   UNL A   1      40.080  31.947  31.876  1.00  0.00     0.251 C 
ATOM      7  H   UNL A   1      41.950  32.594  32.229  1.00  0.00     0.163 HD
BRANCH   6   8
ATOM      8  C   UNL A   1      38.775  32.266  31.253  1.00  0.00     0.039 A 
ATOM      9  C   UNL A   1      38.734  32.666  29.924  1.00  0.00     0.016 A 
ATOM     10  C   UNL A   1      37.600  32.274  32.009  1.00  0.00     0.016 A 
ATOM     11  C   UNL A   1      37.602  33.295  29.444  1.00  0.00     0.027 A 
ATOM     12  C   UNL A   1      36.402  32.702  31.415  1.00  0.00     0.027 A 
ATOM     13  C   UNL A   1      36.400  33.185  30.100  1.00  0.00     0.041 A 
BRANCH  13  14
ATOM     14  N   UNL A   1      35.205  33.571  29.498  1.00  0.00    -0.326 N 
ATOM     15  C   UNL A   1      34.083  34.205  29.924  1.00  0.00     0.228 C 
ATOM     16  H   UNL A   1      35.165  33.328  28.545  1.00  0.00     0.169 HD
ATOM     17  O   UNL A   1      33.174  34.230  29.076  1.00  0.00    -0.274 OA
BRANCH  15  18
ATOM     18  C   UNL A   1      33.794  34.888  31.282  1.00  0.00     0.095 C 
ATOM     19  C   UNL A   1      34.847  35.399  32.279  1.00  0.00     0.030 C 
ATOM     20  C   UNL A   1      33.022  36.175  30.914  1.00  0.00     0.150 C 
ATOM     21  C   UNL A   1      34.174  36.334  33.277  1.00  0.00     0.138 C 
ATOM     22  S   UNL A   1      32.874  37.136  32.397  1.00  0.00     0.151 S 
ATOM     23  O   UNL A   1      31.622  36.803  33.047  1.00  0.00    -0.229 OA
ATOM     24  O   UNL A   1      33.277  38.497  32.126  1.00  0.00    -0.229 OA
ENDBRANCH  15  18
ENDBRANCH  13  14
ENDBRANCH   6   8
ENDBRANCH   3   4
ENDBRANCH   2   3
ENDBRANCH   1   2
BRANCH   1  25
ATOM     25  C   UNL A   1      43.048  36.158  28.746  1.00  0.00     0.002 C 
BRANCH  25  26
ATOM     26  C   UNL A   1      44.111  37.246  28.923  1.00  0.00     0.021 C 
BRANCH  26  27
ATOM     27  C   UNL A   1      45.045  37.050  30.111  1.00  0.00     0.116 C 
BRANCH  27  28
ATOM     28  N   UNL A   1      46.443  37.039  29.719  1.00  0.00    -0.352 N 
ATOM     29  C   UNL A   1      47.246  35.982  29.375  1.00  0.00     0.251 C 
ATOM     30  H   UNL A   1      46.880  37.921  29.696  1.00  0.00     0.163 HD
ATOM     31  O   UNL A   1      48.455  36.142  29.247  1.00  0.00    -0.269 OA
BRANCH  29  32
ATOM     32  C   UNL A   1      46.656  34.640  29.180  1.00  0.00     0.039 A 
ATOM     33  C   UNL A   1      46.185  34.289  27.912  1.00  0.00     0.014 A 
ATOM     34  C   UNL A   1      46.562  33.733  30.240  1.00  0.00     0.014 A 
ATOM     35  C   UNL A   1      45.675  33.008  27.694  1.00  0.00     0.010 A 
ATOM     36  C   UNL A   1      46.128  32.433  30.002  1.00  0.00     0.010 A 
ATOM     37  C   UNL A   1      45.675  32.057  28.728  1.00  0.00    -0.014 A 
BRANCH  37  38
ATOM     38  C   UNL A   1      45.212  30.666  28.492  1.00  0.00     0.031 A 
ATOM     39  C   UNL A   1      46.176  29.615  28.017  1.00  0.00     0.074 A 
ATOM     40  C   UNL A   1      43.908  30.364  28.648  1.00  0.00     0.049 A 
ATOM     41  N   UNL A   1      45.949  28.363  27.709  1.00  0.00    -0.248 NA
ATOM     42  C   UNL A   1      47.576  30.031  27.841  1.00  0.00     0.031 C 
ATOM     43  C   UNL A   1      42.865  31.304  29.065  1.00  0.00     0.029 A 
ATOM     44  N   UNL A   1      43.235  29.182  28.469  1.00  0.00    -0.354 N 
ATOM     45  C   UNL A   1      47.169  27.849  27.289  1.00  0.00     0.074 A 
ATOM     46  C   UNL A   1      48.121  28.937  27.329  1.00  0.00     0.031 C 
ATOM     47  C   UNL A   1      41.692  30.654  29.142  1.00  0.00     0.029 A 
ATOM     48  C   UNL A   1      41.890  29.266  28.736  1.00  0.00     0.049 A 
ATOM     49  H   UNL A   1      43.675  28.350  28.176  1.00  0.00     0.167 HD
ATOM     50  C   UNL A   1      47.473  26.581  26.921  1.00  0.00     0.037 A 
ATOM     51  C   UNL A   1      40.922  28.332  28.656  1.00  0.00     0.037 A 
ATOM     52  C   UNL A   1      46.526  25.497  26.901  1.00  0.00     0.049 A 
ATOM     53  C   UNL A   1      41.283  26.939  28.220  1.00  0.00     0.074 A 
ATOM     54  C   UNL A   1      46.750  24.162  26.611  1.00  0.00     0.029 A 
ATOM     55  N   UNL A   1      45.172  25.624  27.173  1.00  0.00    -0.354 N 
ATOM     56  N   UNL A   1      42.455  26.448  27.901  1.00  0.00    -0.248 NA
ATOM     57  C   UNL A   1      40.182  25.968  28.137  1.00  0.00     0.031 C 
ATOM     58  C   UNL A   1      45.522  23.495  26.645  1.00  0.00     0.029 A 
ATOM     59  C   UNL A   1      44.542  24.398  27.022  1.00  0.00     0.049 A 
ATOM     60  H   UNL A   1      44.724  26.461  27.436  1.00  0.00     0.167 HD
ATOM     61  C   UNL A   1      42.241  25.106  27.614  1.00  0.00     0.074 A 
ATOM     62  C   UNL A   1      40.828  24.857  27.809  1.00  0.00     0.031 C 
ATOM     63  C   UNL A   1      43.135  24.162  27.226  1.00  0.00     0.037 A 
BRANCH  50  64
ATOM     64  C   UNL A   1      48.888  26.299  26.499  1.00  0.00     0.057 A 
ATOM     65  C   UNL A   1      49.818  25.705  27.363  1.00  0.00     0.134 A 
ATOM     66  C   UNL A   1      49.316  26.597  25.199  1.00  0.00     0.134 A 
ATOM     67  F   UNL A   1      49.479  25.403  28.625  1.00  0.00    -0.206 F 
ATOM     68  C   UNL A   1      51.129  25.447  26.959  1.00  0.00     0.040 A 
ATOM     69  C   UNL A   1      50.615  26.313  24.774  1.00  0.00     0.040 A 
ATOM     70  F   UNL A   1      48.477  27.158  24.316  1.00  0.00    -0.206 F 
ATOM     71  C   UNL A   1      51.529  25.745  25.658  1.00  0.00     0.006 A 
ENDBRANCH  50  64
BRANCH  51  72
ATOM     72  C   UNL A   1      39.523  28.674  29.019  1.00  0.00     0.057 A 
ATOM     73  C   UNL A   1      38.666  29.277  28.090  1.00  0.00     0.134 A 
ATOM     74  C   UNL A   1      39.013  28.424  30.298  1.00  0.00     0.134 A 
ATOM     75  F   UNL A   1      39.100  29.558  26.853  1.00  0.00    -0.206 F 
ATOM     76  C   UNL A   1      37.361  29.642  28.427  1.00  0.00     0.040 A 
ATOM     77  C   UNL A   1      37.702  28.758  30.641  1.00  0.00     0.040 A 
ATOM     78  F   UNL A   1      39.780  27.841  31.232  1.00  0.00    -0.206 F 
ATOM     79  C   UNL A   1      36.874  29.376  29.706  1.00  0.00     0.006 A 
ENDBRANCH  51  72
BRANCH  63  80
ATOM     80  C   UNL A   1      42.621  22.765  27.030  1.00  0.00     0.057 A 
ATOM     81  C   UNL A   1      42.439  22.208  25.758  1.00  0.00     0.134 A 
ATOM     82  C   UNL A   1      42.339  21.950  28.136  1.00  0.00     0.134 A 
ATOM     83  F   UNL A   1      42.677  22.938  24.657  1.00  0.00    -0.206 F 
ATOM     84  C   UNL A   1      41.971  20.904  25.591  1.00  0.00     0.040 A 
ATOM     85  C   UNL A   1      41.902  20.635  27.983  1.00  0.00     0.040 A 
ATOM     86  F   UNL A   1      42.500  22.416  29.384  1.00  0.00    -0.206 F 
ATOM     87  C   UNL A   1      41.709  20.110  26.707  1.00  0.00     0.006 A 
ENDBRANCH  63  80
ENDBRANCH  37  38
ENDBRANCH  29  32
ENDBRANCH  27  28
ENDBRANCH  26  27
ENDBRANCH  25  26
ENDBRANCH   1  25
TORSDOF 15
ENDMDL
MODEL 3
REMARK VINA RESULT:     -11.1      5.715     11.181
REMARK SMILES O=C(NCCCCCCNC(=O)c1ccc(-c2c3nc(c(-c4c(F)cccc4F)c4ccc([nH]4)c(-c4c(F)cccc4F)c4nc(c(-c5c(F)cccc5F)c5ccc2[nH]5)C=C4)C=C3)cc1)c1ccc(NC(=O)[C@H]2CCS(=O)(=O)C2)cc1
REMARK SMILES IDX 6 1 5 2 4 3 3 4 1 5 2 6 67 8 68 9 82 10 69 11 81 12 70 13
REMARK SMILES IDX 71 14 72 15 73 17 74 18 75 19 80 20 76 21 77 22 78 23 79 24
REMARK SMILES IDX 7 25 8 26 9 27 10 28 11 29 12 31 13 32 14 33 66 34 15 35
REMARK SMILES IDX 65 36 16 37 17 38 18 39 59 40 19 41 64 42 58 43 60 44 20 45
REMARK SMILES IDX 63 46 57 47 56 48 21 50 47 51 30 52 46 53 31 54 34 55 45 56
REMARK SMILES IDX 61 57 32 58 33 59 44 61 62 62 35 63 22 64 23 65 28 66 24 67
REMARK SMILES IDX 25 68 27 69 29 70 26 71 48 72 49 73 54 74 50 75 51 76 53 77
REMARK SMILES IDX 55 78 52 79 36 80 37 81 42 82 38 83 39 84 41 85 43 86 40 87
REMARK H PARENT 3 7 71 16 10 30 60 49 34 60
REMARK Flexibility Score: inf
ROOT
ATOM      1  C   UNL A   1      46.442  25.994  32.409  1.00  0.00     0.002 C 
ENDROOT
BRANCH   1   2
ATOM      2  C   UNL A   1      45.737  25.325  31.237  1.00  0.00     0.021 C 
BRANCH   2   3
ATOM      3  C   UNL A   1      46.336  25.642  29.880  1.00  0.00     0.116 C 
BRANCH   3   4
ATOM      4  N   UNL A   1      45.806  26.853  29.267  1.00  0.00    -0.352 N 
ATOM      5  O   UNL A   1      44.595  28.089  27.803  1.00  0.00    -0.269 OA
ATOM      6  C   UNL A   1      44.836  26.991  28.293  1.00  0.00     0.251 C 
ATOM      7  H   UNL A   1      46.196  27.696  29.595  1.00  0.00     0.163 HD
BRANCH   6   8
ATOM      8  C   UNL A   1      44.101  25.795  27.825  1.00  0.00     0.039 A 
ATOM      9  C   UNL A   1      43.273  25.113  28.709  1.00  0.00     0.016 A 
ATOM     10  C   UNL A   1      44.307  25.280  26.543  1.00  0.00     0.016 A 
ATOM     11  C   UNL A   1      42.873  23.827  28.402  1.00  0.00     0.027 A 
ATOM     12  C   UNL A   1      43.688  24.074  26.176  1.00  0.00     0.027 A 
ATOM     13  C   UNL A   1      42.930  23.358  27.112  1.00  0.00     0.041 A 
BRANCH  13  14
ATOM     14  N   UNL A   1      42.283  22.184  26.736  1.00  0.00    -0.326 N 
ATOM     15  C   UNL A   1      42.590  21.143  25.921  1.00  0.00     0.228 C 
ATOM     16  H   UNL A   1      41.400  22.085  27.160  1.00  0.00     0.169 HD
ATOM     17  O   UNL A   1      41.650  20.346  25.756  1.00  0.00    -0.274 OA
BRANCH  15  18
ATOM     18  C   UNL A   1      43.919  20.821  25.195  1.00  0.00     0.095 C 
ATOM     19  C   UNL A   1      45.331  21.144  25.710  1.00  0.00     0.030 C 
ATOM     20  C   UNL A   1      43.941  19.279  25.090  1.00  0.00     0.150 C 
ATOM     21  C   UNL A   1      46.347  20.334  24.914  1.00  0.00     0.138 C 
ATOM     22  S   UNL A   1      45.547  18.820  24.495  1.00  0.00     0.151 S 
ATOM     23  O   UNL A   1      45.499  18.724  23.049  1.00  0.00    -0.229 OA
ATOM     24  O   UNL A   1      46.084  17.772  25.331  1.00  0.00    -0.229 OA
ENDBRANCH  15  18
ENDBRANCH  13  14
ENDBRANCH   6   8
ENDBRANCH   3   4
ENDBRANCH   2   3
ENDBRANCH   1   2
BRANCH   1  25
ATOM     25  C   UNL A   1      47.947  25.725  32.506  1.00  0.00     0.002 C 
BRANCH  25  26
ATOM     26  C   UNL A   1      48.503  25.571  33.925  1.00  0.00     0.021 C 
BRANCH  26  27
ATOM     27  C   UNL A   1      47.552  24.925  34.925  1.00  0.00     0.116 C 
BRANCH  27  28
ATOM     28  N   UNL A   1      47.625  25.546  36.236  1.00  0.00    -0.352 N 
ATOM     29  C   UNL A   1      46.969  26.650  36.717  1.00  0.00     0.251 C 
ATOM     30  H   UNL A   1      48.234  25.110  36.874  1.00  0.00     0.163 HD
ATOM     31  O   UNL A   1      47.293  27.138  37.795  1.00  0.00    -0.269 OA
BRANCH  29  32
ATOM     32  C   UNL A   1      45.885  27.269  35.925  1.00  0.00     0.039 A 
ATOM     33  C   UNL A   1      44.602  26.721  35.997  1.00  0.00     0.014 A 
ATOM     34  C   UNL A   1      46.131  28.378  35.110  1.00  0.00     0.014 A 
ATOM     35  C   UNL A   1      43.553  27.323  35.299  1.00  0.00     0.010 A 
ATOM     36  C   UNL A   1      45.071  29.023  34.480  1.00  0.00     0.010 A 
ATOM     37  C   UNL A   1      43.771  28.501  34.564  1.00  0.00    -0.014 A 
BRANCH  37  38
ATOM     38  C   UNL A   1      42.652  29.199  33.883  1.00  0.00     0.031 A 
ATOM     39  C   UNL A   1      41.912  30.307  34.580  1.00  0.00     0.074 A 
ATOM     40  C   UNL A   1      42.263  28.795  32.658  1.00  0.00     0.049 A 
ATOM     41  N   UNL A   1      40.879  30.998  34.168  1.00  0.00    -0.248 NA
ATOM     42  C   UNL A   1      42.377  30.669  35.927  1.00  0.00     0.031 C 
ATOM     43  C   UNL A   1      42.873  27.705  31.892  1.00  0.00     0.029 A 
ATOM     44  N   UNL A   1      41.257  29.248  31.843  1.00  0.00    -0.354 N 
ATOM     45  C   UNL A   1      40.563  31.862  35.208  1.00  0.00     0.074 A 
ATOM     46  C   UNL A   1      41.478  31.572  36.291  1.00  0.00     0.031 C 
ATOM     47  C   UNL A   1      42.251  27.599  30.707  1.00  0.00     0.029 A 
ATOM     48  C   UNL A   1      41.171  28.578  30.646  1.00  0.00     0.049 A 
ATOM     49  H   UNL A   1      40.654  29.986  32.091  1.00  0.00     0.167 HD
ATOM     50  C   UNL A   1      39.610  32.824  35.252  1.00  0.00     0.037 A 
ATOM     51  C   UNL A   1      40.313  28.729  29.619  1.00  0.00     0.037 A 
ATOM     52  C   UNL A   1      38.715  33.123  34.164  1.00  0.00     0.049 A 
ATOM     53  C   UNL A   1      39.247  29.787  29.704  1.00  0.00     0.074 A 
ATOM     54  C   UNL A   1      37.761  34.123  34.084  1.00  0.00     0.029 A 
ATOM     55  N   UNL A   1      38.655  32.417  32.972  1.00  0.00    -0.354 N 
ATOM     56  N   UNL A   1      39.010  30.649  30.662  1.00  0.00    -0.248 NA
ATOM     57  C   UNL A   1      38.332  29.895  28.559  1.00  0.00     0.031 C 
ATOM     58  C   UNL A   1      37.082  33.983  32.870  1.00  0.00     0.029 A 
ATOM     59  C   UNL A   1      37.656  32.938  32.164  1.00  0.00     0.049 A 
ATOM     60  H   UNL A   1      39.236  31.659  32.733  1.00  0.00     0.167 HD
ATOM     61  C   UNL A   1      37.944  31.423  30.222  1.00  0.00     0.074 A 
ATOM     62  C   UNL A   1      37.589  30.937  28.906  1.00  0.00     0.031 C 
ATOM     63  C   UNL A   1      37.316  32.449  30.851  1.00  0.00     0.037 A 
BRANCH  50  64
ATOM     64  C   UNL A   1      39.478  33.618  36.521  1.00  0.00     0.057 A 
ATOM     65  C   UNL A   1      40.178  34.814  36.727  1.00  0.00     0.134 A 
ATOM     66  C   UNL A   1      38.614  33.194  37.540  1.00  0.00     0.134 A 
ATOM     67  F   UNL A   1      41.031  35.273  35.799  1.00  0.00    -0.206 F 
ATOM     68  C   UNL A   1      40.047  35.543  37.911  1.00  0.00     0.040 A 
ATOM     69  C   UNL A   1      38.450  33.931  38.714  1.00  0.00     0.040 A 
ATOM     70  F   UNL A   1      37.907  32.062  37.407  1.00  0.00    -0.206 F 
ATOM     71  C   UNL A   1      39.175  35.105  38.905  1.00  0.00     0.006 A 
ENDBRANCH  50  64
BRANCH  51  72
ATOM     72  C   UNL A   1      40.438  27.876  28.410  1.00  0.00     0.057 A 
ATOM     73  C   UNL A   1      39.840  26.611  28.356  1.00  0.00     0.134 A 
ATOM     74  C   UNL A   1      41.167  28.291  27.289  1.00  0.00     0.134 A 
ATOM     75  F   UNL A   1      39.143  26.149  29.405  1.00  0.00    -0.206 F 
ATOM     76  C   UNL A   1      39.982  25.780  27.244  1.00  0.00     0.040 A 
ATOM     77  C   UNL A   1      41.293  27.482  26.158  1.00  0.00     0.040 A 
ATOM     78  F   UNL A   1      41.757  29.495  27.272  1.00  0.00    -0.206 F 
ATOM     79  C   UNL A   1      40.707  26.218  26.137  1.00  0.00     0.006 A 
ENDBRANCH  51  72
BRANCH  63  80
ATOM     80  C   UNL A   1      36.211  33.141  30.107  1.00  0.00     0.057 A 
ATOM     81  C   UNL A   1      36.463  34.049  29.072  1.00  0.00     0.134 A 
ATOM     82  C   UNL A   1      34.870  32.862  30.406  1.00  0.00     0.134 A 
ATOM     83  F   UNL A   1      37.724  34.371  28.743  1.00  0.00    -0.206 F 
ATOM     84  C   UNL A   1      35.425  34.677  28.381  1.00  0.00     0.040 A 
ATOM     85  C   UNL A   1      33.824  33.457  29.702  1.00  0.00     0.040 A 
ATOM     86  F   UNL A   1      34.556  31.993  31.379  1.00  0.00    -0.206 F 
ATOM     87  C   UNL A   1      34.100  34.374  28.690  1.00  0.00     0.006 A 
ENDBRANCH  63  80
ENDBRANCH  37  38
ENDBRANCH  29  32
ENDBRANCH  27  28
ENDBRANCH  26  27
ENDBRANCH  25  26
ENDBRANCH   1  25
TORSDOF 15
ENDMDL
