MODEL 1
REMARK VINA RESULT:     -12.7      0.000      0.000
REMARK SMILES O=C(NCCCCCCNC(=O)c1cc(S(=O)(=O)ON2C(=O)c3cccc4cccc(c34)C2=O)ccc1Br)c1ccc(-c2c3nc(c(-c4c(F)cccc4F)c4ccc([nH]4)c(-c4c(F)cccc4F)c4nc(c(-c5c(F)cccc5F)c5ccc2[nH]5)C=C4)C=C3)cc1
REMARK SMILES IDX 7 1 6 2 5 3 4 4 3 5 1 6 2 7 39 9 40 10 92 11 41 12 91 13
REMARK SMILES IDX 42 14 43 15 44 16 85 17 45 18 90 19 84 20 86 21 46 22 89 23
REMARK SMILES IDX 83 24 82 25 47 27 73 28 56 29 72 30 57 31 60 32 71 33 87 34
REMARK SMILES IDX 58 35 59 36 70 38 88 39 61 40 48 41 49 42 54 43 50 44 51 45
REMARK SMILES IDX 53 46 55 47 52 48 74 49 75 50 80 51 76 52 77 53 79 54 81 55
REMARK SMILES IDX 78 56 62 57 63 58 68 59 64 60 65 61 67 62 69 63 66 64 8 65
REMARK SMILES IDX 9 66 10 67 11 68 12 70 13 71 14 72 37 73 15 74 36 75 38 76
REMARK SMILES IDX 35 77 16 78 17 79 18 80 19 81 20 82 21 83 33 84 22 85 23 86
REMARK SMILES IDX 31 87 34 88 24 89 32 90 30 91 25 92 27 93 29 94 26 95 28 96
REMARK H PARENT 3 8 86 26 60 37 10 69
REMARK Flexibility Score: inf
ROOT
ATOM      1  C   UNL A   1      38.060  23.689  26.138  1.00  0.00     0.002 C 
ENDROOT
BRANCH   1   2
ATOM      2  C   UNL A   1      38.518  22.230  26.047  1.00  0.00     0.002 C 
BRANCH   2   3
ATOM      3  C   UNL A   1      39.936  21.946  26.543  1.00  0.00     0.021 C 
BRANCH   3   4
ATOM      4  C   UNL A   1      40.709  23.165  27.027  1.00  0.00     0.116 C 
BRANCH   4   5
ATOM      5  N   UNL A   1      41.469  23.806  25.968  1.00  0.00    -0.352 N 
ATOM      6  O   UNL A   1      42.357  25.532  24.816  1.00  0.00    -0.269 OA
ATOM      7  C   UNL A   1      41.835  25.124  25.848  1.00  0.00     0.251 C 
ATOM      8  H   UNL A   1      41.763  23.215  25.238  1.00  0.00     0.163 HD
BRANCH   7   9
ATOM      9  C   UNL A   1      41.581  26.062  26.966  1.00  0.00     0.039 A 
ATOM     10  C   UNL A   1      40.628  25.765  27.944  1.00  0.00     0.014 A 
ATOM     11  C   UNL A   1      42.331  27.238  27.048  1.00  0.00     0.014 A 
ATOM     12  C   UNL A   1      40.352  26.691  28.944  1.00  0.00     0.010 A 
ATOM     13  C   UNL A   1      42.105  28.134  28.098  1.00  0.00     0.010 A 
ATOM     14  C   UNL A   1      41.107  27.870  29.048  1.00  0.00    -0.014 A 
BRANCH  14  15
ATOM     15  C   UNL A   1      40.919  28.747  30.230  1.00  0.00     0.031 A 
ATOM     16  C   UNL A   1      41.782  28.616  31.453  1.00  0.00     0.074 A 
ATOM     17  C   UNL A   1      39.945  29.676  30.181  1.00  0.00     0.049 A 
ATOM     18  N   UNL A   1      41.739  29.307  32.563  1.00  0.00    -0.248 NA
ATOM     19  C   UNL A   1      42.820  27.574  31.433  1.00  0.00     0.031 C 
ATOM     20  C   UNL A   1      39.029  29.875  29.053  1.00  0.00     0.029 A 
ATOM     21  N   UNL A   1      39.563  30.630  31.088  1.00  0.00    -0.354 N 
ATOM     22  C   UNL A   1      42.729  28.778  33.381  1.00  0.00     0.074 A 
ATOM     23  C   UNL A   1      43.349  27.696  32.645  1.00  0.00     0.031 C 
ATOM     24  C   UNL A   1      38.214  30.905  29.323  1.00  0.00     0.029 A 
ATOM     25  C   UNL A   1      38.508  31.398  30.662  1.00  0.00     0.049 A 
ATOM     26  H   UNL A   1      40.002  30.752  31.961  1.00  0.00     0.167 HD
ATOM     27  C   UNL A   1      43.084  29.167  34.629  1.00  0.00     0.037 A 
ATOM     28  C   UNL A   1      37.830  32.378  31.288  1.00  0.00     0.037 A 
ATOM     29  C   UNL A   1      42.474  30.259  35.346  1.00  0.00     0.049 A 
ATOM     30  C   UNL A   1      38.239  32.769  32.677  1.00  0.00     0.074 A 
ATOM     31  C   UNL A   1      42.814  30.771  36.586  1.00  0.00     0.029 A 
ATOM     32  N   UNL A   1      41.393  30.999  34.891  1.00  0.00    -0.354 N 
ATOM     33  N   UNL A   1      39.218  32.301  33.411  1.00  0.00    -0.248 NA
ATOM     34  C   UNL A   1      37.444  33.819  33.329  1.00  0.00     0.031 C 
ATOM     35  C   UNL A   1      41.909  31.789  36.904  1.00  0.00     0.029 A 
ATOM     36  C   UNL A   1      41.032  31.941  35.842  1.00  0.00     0.049 A 
ATOM     37  H   UNL A   1      40.949  30.875  34.021  1.00  0.00     0.167 HD
ATOM     38  C   UNL A   1      39.162  33.001  34.607  1.00  0.00     0.074 A 
ATOM     39  C   UNL A   1      38.073  33.948  34.488  1.00  0.00     0.031 C 
ATOM     40  C   UNL A   1      39.940  32.868  35.709  1.00  0.00     0.037 A 
BRANCH  27  41
ATOM     41  C   UNL A   1      44.179  28.410  35.321  1.00  0.00     0.057 A 
ATOM     42  C   UNL A   1      45.523  28.782  35.205  1.00  0.00     0.134 A 
ATOM     43  C   UNL A   1      43.872  27.355  36.191  1.00  0.00     0.134 A 
ATOM     44  F   UNL A   1      45.885  29.780  34.383  1.00  0.00    -0.206 F 
ATOM     45  C   UNL A   1      46.525  28.131  35.928  1.00  0.00     0.040 A 
ATOM     46  C   UNL A   1      44.862  26.708  36.933  1.00  0.00     0.040 A 
ATOM     47  F   UNL A   1      42.602  26.954  36.354  1.00  0.00    -0.206 F 
ATOM     48  C   UNL A   1      46.193  27.097  36.803  1.00  0.00     0.006 A 
ENDBRANCH  27  41
BRANCH  28  49
ATOM     49  C   UNL A   1      36.680  33.031  30.618  1.00  0.00     0.057 A 
ATOM     50  C   UNL A   1      36.867  33.933  29.565  1.00  0.00     0.134 A 
ATOM     51  C   UNL A   1      35.364  32.773  31.021  1.00  0.00     0.134 A 
ATOM     52  F   UNL A   1      38.105  34.233  29.146  1.00  0.00    -0.206 F 
ATOM     53  C   UNL A   1      35.789  34.571  28.951  1.00  0.00     0.040 A 
ATOM     54  C   UNL A   1      34.275  33.381  30.397  1.00  0.00     0.040 A 
ATOM     55  F   UNL A   1      35.118  31.911  32.019  1.00  0.00    -0.206 F 
ATOM     56  C   UNL A   1      34.488  34.290  29.363  1.00  0.00     0.006 A 
ENDBRANCH  28  49
BRANCH  40  57
ATOM     57  C   UNL A   1      39.635  33.775  36.863  1.00  0.00     0.057 A 
ATOM     58  C   UNL A   1      38.827  33.358  37.929  1.00  0.00     0.134 A 
ATOM     59  C   UNL A   1      40.169  35.067  36.919  1.00  0.00     0.134 A 
ATOM     60  F   UNL A   1      38.272  32.137  37.925  1.00  0.00    -0.206 F 
ATOM     61  C   UNL A   1      38.540  34.207  38.999  1.00  0.00     0.040 A 
ATOM     62  C   UNL A   1      39.910  35.916  37.996  1.00  0.00     0.040 A 
ATOM     63  F   UNL A   1      40.956  35.524  35.933  1.00  0.00    -0.206 F 
ATOM     64  C   UNL A   1      39.087  35.488  39.036  1.00  0.00     0.006 A 
ENDBRANCH  40  57
ENDBRANCH  14  15
ENDBRANCH   7   9
ENDBRANCH   4   5
ENDBRANCH   3   4
ENDBRANCH   2   3
ENDBRANCH   1   2
BRANCH   1  65
ATOM     65  C   UNL A   1      36.545  23.922  26.108  1.00  0.00     0.021 C 
BRANCH  65  66
ATOM     66  C   UNL A   1      35.688  22.662  26.029  1.00  0.00     0.116 C 
BRANCH  66  67
ATOM     67  N   UNL A   1      34.834  22.492  27.190  1.00  0.00    -0.352 N 
ATOM     68  C   UNL A   1      33.466  22.492  27.256  1.00  0.00     0.252 C 
ATOM     69  H   UNL A   1      35.302  22.357  28.046  1.00  0.00     0.163 HD
ATOM     70  O   UNL A   1      32.885  22.359  28.328  1.00  0.00    -0.269 OA
BRANCH  68  71
ATOM     71  C   UNL A   1      32.679  22.733  26.034  1.00  0.00     0.055 A 
ATOM     72  C   UNL A   1      32.062  23.985  25.923  1.00  0.00     0.038 A 
ATOM     73  C   UNL A   1      32.511  21.773  25.029  1.00  0.00     0.030 A 
ATOM     74  C   UNL A   1      31.323  24.286  24.776  1.00  0.00     0.097 A 
ATOM     75  C   UNL A   1      31.784  22.096  23.877  1.00  0.00     0.018 A 
ATOM     76  Br  UNL A   1      33.189  20.006  25.168  1.00  0.00    -0.050 Br
ATOM     77  C   UNL A   1      31.193  23.356  23.743  1.00  0.00     0.024 A 
BRANCH  74  78
ATOM     78  S   UNL A   1      30.536  25.874  24.681  1.00  0.00     0.318 S 
ATOM     79  O   UNL A   1      29.358  25.701  23.849  1.00  0.00    -0.192 OA
ATOM     80  O   UNL A   1      30.408  26.343  26.043  1.00  0.00    -0.192 OA
BRANCH  78  81
ATOM     81  O   UNL A   1      31.603  26.831  23.886  1.00  0.00    -0.134 OA
BRANCH  81  82
ATOM     82  N   UNL A   1      32.046  27.897  24.697  1.00  0.00    -0.127 N 
ATOM     83  C   UNL A   1      31.309  29.059  24.590  1.00  0.00     0.286 C 
ATOM     84  C   UNL A   1      33.286  27.724  25.279  1.00  0.00     0.286 C 
ATOM     85  O   UNL A   1      30.402  29.243  23.786  1.00  0.00    -0.266 OA
ATOM     86  C   UNL A   1      31.717  30.132  25.527  1.00  0.00     0.051 A 
ATOM     87  C   UNL A   1      33.710  28.833  26.168  1.00  0.00     0.051 A 
ATOM     88  O   UNL A   1      34.020  26.759  25.089  1.00  0.00    -0.266 OA
ATOM     89  C   UNL A   1      30.917  31.271  25.660  1.00  0.00     0.014 A 
ATOM     90  C   UNL A   1      32.895  29.975  26.279  1.00  0.00     0.007 A 
ATOM     91  C   UNL A   1      34.894  28.715  26.904  1.00  0.00     0.014 A 
ATOM     92  C   UNL A   1      31.285  32.268  26.557  1.00  0.00     0.001 A 
ATOM     93  C   UNL A   1      33.274  31.001  27.174  1.00  0.00    -0.017 A 
ATOM     94  C   UNL A   1      35.268  29.735  27.774  1.00  0.00     0.001 A 
ATOM     95  C   UNL A   1      32.456  32.135  27.307  1.00  0.00     0.009 A 
ATOM     96  C   UNL A   1      34.460  30.865  27.913  1.00  0.00     0.009 A 
ENDBRANCH  81  82
ENDBRANCH  78  81
ENDBRANCH  74  78
ENDBRANCH  68  71
ENDBRANCH  66  67
ENDBRANCH  65  66
ENDBRANCH   1  65
TORSDOF 16
ENDMDL
MODEL 2
REMARK VINA RESULT:     -12.6      0.597      5.838
REMARK SMILES O=C(NCCCCCCNC(=O)c1cc(S(=O)(=O)ON2C(=O)c3cccc4cccc(c34)C2=O)ccc1Br)c1ccc(-c2c3nc(c(-c4c(F)cccc4F)c4ccc([nH]4)c(-c4c(F)cccc4F)c4nc(c(-c5c(F)cccc5F)c5ccc2[nH]5)C=C4)C=C3)cc1
REMARK SMILES IDX 7 1 6 2 5 3 4 4 3 5 1 6 2 7 39 9 40 10 92 11 41 12 91 13
REMARK SMILES IDX 42 14 43 15 44 16 85 17 45 18 90 19 84 20 86 21 46 22 89 23
REMARK SMILES IDX 83 24 82 25 47 27 73 28 56 29 72 30 57 31 60 32 71 33 87 34
REMARK SMILES IDX 58 35 59 36 70 38 88 39 61 40 48 41 49 42 54 43 50 44 51 45
REMARK SMILES IDX 53 46 55 47 52 48 74 49 75 50 80 51 76 52 77 53 79 54 81 55
REMARK SMILES IDX 78 56 62 57 63 58 68 59 64 60 65 61 67 62 69 63 66 64 8 65
REMARK SMILES IDX 9 66 10 67 11 68 12 70 13 71 14 72 37 73 15 74 36 75 38 76
REMARK SMILES IDX 35 77 16 78 17 79 18 80 19 81 20 82 21 83 33 84 22 85 23 86
REMARK SMILES IDX 31 87 34 88 24 89 32 90 30 91 25 92 27 93 29 94 26 95 28 96
REMARK H PARENT 3 8 86 26 60 37 10 69
REMARK Flexibility Score: inf
ROOT
ATOM      1  C   UNL A   1      37.738  21.463  25.377  1.00  0.00     0.002 C 
ENDROOT
BRANCH   1   2
ATOM      2  C   UNL A   1      39.159  21.789  25.850  1.00  0.00     0.002 C 
BRANCH   2   3
ATOM      3  C   UNL A   1      39.271  22.874  26.920  1.00  0.00     0.021 C 
BRANCH   3   4
ATOM      4  C   UNL A   1      40.688  23.345  27.220  1.00  0.00     0.116 C 
BRANCH   4   5
ATOM      5  N   UNL A   1      41.274  24.096  26.124  1.00  0.00    -0.352 N 
ATOM      6  O   UNL A   1      41.886  25.942  24.977  1.00  0.00    -0.269 OA
ATOM      7  C   UNL A   1      41.513  25.446  26.035  1.00  0.00     0.251 C 
ATOM      8  H   UNL A   1      41.537  23.565  25.338  1.00  0.00     0.163 HD
BRANCH   7   9
ATOM      9  C   UNL A   1      41.301  26.308  27.219  1.00  0.00     0.039 A 
ATOM     10  C   UNL A   1      42.209  27.323  27.535  1.00  0.00     0.014 A 
ATOM     11  C   UNL A   1      40.161  26.116  28.005  1.00  0.00     0.014 A 
ATOM     12  C   UNL A   1      42.033  28.075  28.691  1.00  0.00     0.010 A 
ATOM     13  C   UNL A   1      39.944  26.923  29.125  1.00  0.00     0.010 A 
ATOM     14  C   UNL A   1      40.885  27.903  29.482  1.00  0.00    -0.014 A 
BRANCH  14  15
ATOM     15  C   UNL A   1      40.629  28.843  30.600  1.00  0.00     0.031 A 
ATOM     16  C   UNL A   1      39.540  29.874  30.529  1.00  0.00     0.074 A 
ATOM     17  C   UNL A   1      41.406  28.749  31.696  1.00  0.00     0.049 A 
ATOM     18  N   UNL A   1      39.196  30.766  31.423  1.00  0.00    -0.248 NA
ATOM     19  C   UNL A   1      38.737  29.919  29.297  1.00  0.00     0.031 C 
ATOM     20  C   UNL A   1      42.512  27.800  31.865  1.00  0.00     0.029 A 
ATOM     21  N   UNL A   1      41.388  29.446  32.877  1.00  0.00    -0.354 N 
ATOM     22  C   UNL A   1      38.151  31.488  30.861  1.00  0.00     0.074 A 
ATOM     23  C   UNL A   1      37.925  30.941  29.540  1.00  0.00     0.031 C 
ATOM     24  C   UNL A   1      43.045  27.954  33.085  1.00  0.00     0.029 A 
ATOM     25  C   UNL A   1      42.360  29.049  33.762  1.00  0.00     0.049 A 
ATOM     26  H   UNL A   1      40.741  30.162  33.071  1.00  0.00     0.167 HD
ATOM     27  C   UNL A   1      37.448  32.509  31.406  1.00  0.00     0.037 A 
ATOM     28  C   UNL A   1      42.685  29.528  34.976  1.00  0.00     0.037 A 
ATOM     29  C   UNL A   1      37.668  33.034  32.730  1.00  0.00     0.049 A 
ATOM     30  C   UNL A   1      41.898  30.673  35.539  1.00  0.00     0.074 A 
ATOM     31  C   UNL A   1      36.960  34.022  33.393  1.00  0.00     0.029 A 
ATOM     32  N   UNL A   1      38.676  32.622  33.588  1.00  0.00    -0.354 N 
ATOM     33  N   UNL A   1      40.873  31.303  35.020  1.00  0.00    -0.248 NA
ATOM     34  C   UNL A   1      42.317  31.181  36.852  1.00  0.00     0.031 C 
ATOM     35  C   UNL A   1      37.568  34.241  34.633  1.00  0.00     0.029 A 
ATOM     36  C   UNL A   1      38.629  33.360  34.760  1.00  0.00     0.049 A 
ATOM     37  H   UNL A   1      39.328  31.910  33.393  1.00  0.00     0.167 HD
ATOM     38  C   UNL A   1      40.519  32.275  35.944  1.00  0.00     0.074 A 
ATOM     39  C   UNL A   1      41.420  32.132  37.068  1.00  0.00     0.031 C 
ATOM     40  C   UNL A   1      39.540  33.209  35.865  1.00  0.00     0.037 A 
BRANCH  27  41
ATOM     41  C   UNL A   1      36.373  33.148  30.576  1.00  0.00     0.057 A 
ATOM     42  C   UNL A   1      35.017  33.010  30.890  1.00  0.00     0.134 A 
ATOM     43  C   UNL A   1      36.708  33.992  29.508  1.00  0.00     0.134 A 
ATOM     44  F   UNL A   1      34.629  32.212  31.897  1.00  0.00    -0.206 F 
ATOM     45  C   UNL A   1      34.029  33.687  30.170  1.00  0.00     0.040 A 
ATOM     46  C   UNL A   1      35.732  34.688  28.793  1.00  0.00     0.040 A 
ATOM     47  F   UNL A   1      37.991  34.175  29.161  1.00  0.00    -0.206 F 
ATOM     48  C   UNL A   1      34.387  34.536  29.124  1.00  0.00     0.006 A 
ENDBRANCH  27  41
BRANCH  28  49
ATOM     49  C   UNL A   1      43.827  28.946  35.723  1.00  0.00     0.057 A 
ATOM     50  C   UNL A   1      45.128  29.433  35.559  1.00  0.00     0.134 A 
ATOM     51  C   UNL A   1      43.643  27.882  36.615  1.00  0.00     0.134 A 
ATOM     52  F   UNL A   1      45.369  30.439  34.707  1.00  0.00    -0.206 F 
ATOM     53  C   UNL A   1      46.208  28.869  36.239  1.00  0.00     0.040 A 
ATOM     54  C   UNL A   1      44.709  27.328  37.323  1.00  0.00     0.040 A 
ATOM     55  F   UNL A   1      42.418  27.376  36.822  1.00  0.00    -0.206 F 
ATOM     56  C   UNL A   1      45.998  27.817  37.129  1.00  0.00     0.006 A 
ENDBRANCH  28  49
BRANCH  40  57
ATOM     57  C   UNL A   1      39.397  34.137  37.033  1.00  0.00     0.057 A 
ATOM     58  C   UNL A   1      38.666  33.776  38.171  1.00  0.00     0.134 A 
ATOM     59  C   UNL A   1      40.011  35.395  37.027  1.00  0.00     0.134 A 
ATOM     60  F   UNL A   1      38.040  32.591  38.229  1.00  0.00    -0.206 F 
ATOM     61  C   UNL A   1      38.530  34.645  39.255  1.00  0.00     0.040 A 
ATOM     62  C   UNL A   1      39.903  36.263  38.115  1.00  0.00     0.040 A 
ATOM     63  F   UNL A   1      40.731  35.799  35.969  1.00  0.00    -0.206 F 
ATOM     64  C   UNL A   1      39.154  35.890  39.230  1.00  0.00     0.006 A 
ENDBRANCH  40  57
ENDBRANCH  14  15
ENDBRANCH   7   9
ENDBRANCH   4   5
ENDBRANCH   3   4
ENDBRANCH   2   3
ENDBRANCH   1   2
BRANCH   1  65
ATOM     65  C   UNL A   1      37.018  22.567  24.593  1.00  0.00     0.021 C 
BRANCH  65  66
ATOM     66  C   UNL A   1      36.152  23.506  25.428  1.00  0.00     0.116 C 
BRANCH  66  67
ATOM     67  N   UNL A   1      35.552  22.845  26.572  1.00  0.00    -0.352 N 
ATOM     68  C   UNL A   1      34.262  22.412  26.733  1.00  0.00     0.252 C 
ATOM     69  H   UNL A   1      36.153  22.687  27.335  1.00  0.00     0.163 HD
ATOM     70  O   UNL A   1      33.897  21.889  27.780  1.00  0.00    -0.269 OA
BRANCH  68  71
ATOM     71  C   UNL A   1      33.277  22.647  25.663  1.00  0.00     0.055 A 
ATOM     72  C   UNL A   1      32.593  23.868  25.699  1.00  0.00     0.038 A 
ATOM     73  C   UNL A   1      32.993  21.710  24.663  1.00  0.00     0.030 A 
ATOM     74  C   UNL A   1      31.664  24.163  24.698  1.00  0.00     0.097 A 
ATOM     75  C   UNL A   1      32.075  22.028  23.655  1.00  0.00     0.018 A 
ATOM     76  Br  UNL A   1      33.767  19.977  24.625  1.00  0.00    -0.050 Br
ATOM     77  C   UNL A   1      31.411  23.258  23.665  1.00  0.00     0.024 A 
BRANCH  74  78
ATOM     78  S   UNL A   1      30.799  25.711  24.789  1.00  0.00     0.318 S 
ATOM     79  O   UNL A   1      29.539  25.520  24.091  1.00  0.00    -0.192 OA
ATOM     80  O   UNL A   1      30.812  26.099  26.182  1.00  0.00    -0.192 OA
BRANCH  78  81
ATOM     81  O   UNL A   1      31.717  26.763  23.933  1.00  0.00    -0.134 OA
BRANCH  81  82
ATOM     82  N   UNL A   1      32.115  27.863  24.722  1.00  0.00    -0.127 N 
ATOM     83  C   UNL A   1      31.329  28.990  24.596  1.00  0.00     0.286 C 
ATOM     84  C   UNL A   1      33.363  27.754  25.304  1.00  0.00     0.286 C 
ATOM     85  O   UNL A   1      30.413  29.120  23.791  1.00  0.00    -0.266 OA
ATOM     86  C   UNL A   1      31.692  30.097  25.511  1.00  0.00     0.051 A 
ATOM     87  C   UNL A   1      33.740  28.897  26.171  1.00  0.00     0.051 A 
ATOM     88  O   UNL A   1      34.137  26.819  25.130  1.00  0.00    -0.266 OA
ATOM     89  C   UNL A   1      30.844  31.203  25.624  1.00  0.00     0.014 A 
ATOM     90  C   UNL A   1      32.877  30.005  26.263  1.00  0.00     0.007 A 
ATOM     91  C   UNL A   1      34.930  28.844  26.905  1.00  0.00     0.014 A 
ATOM     92  C   UNL A   1      31.171  32.232  26.501  1.00  0.00     0.001 A 
ATOM     93  C   UNL A   1      33.214  31.063  27.136  1.00  0.00    -0.017 A 
ATOM     94  C   UNL A   1      35.262  29.895  27.755  1.00  0.00     0.001 A 
ATOM     95  C   UNL A   1      32.348  32.164  27.250  1.00  0.00     0.009 A 
ATOM     96  C   UNL A   1      34.406  30.993  27.874  1.00  0.00     0.009 A 
ENDBRANCH  81  82
ENDBRANCH  78  81
ENDBRANCH  74  78
ENDBRANCH  68  71
ENDBRANCH  66  67
ENDBRANCH  65  66
ENDBRANCH   1  65
TORSDOF 16
ENDMDL
MODEL 3
REMARK VINA RESULT:     -12.4      2.659      8.393
REMARK SMILES O=C(NCCCCCCNC(=O)c1cc(S(=O)(=O)ON2C(=O)c3cccc4cccc(c34)C2=O)ccc1Br)c1ccc(-c2c3nc(c(-c4c(F)cccc4F)c4ccc([nH]4)c(-c4c(F)cccc4F)c4nc(c(-c5c(F)cccc5F)c5ccc2[nH]5)C=C4)C=C3)cc1
REMARK SMILES IDX 7 1 6 2 5 3 4 4 3 5 1 6 2 7 39 9 40 10 92 11 41 12 91 13
REMARK SMILES IDX 42 14 43 15 44 16 85 17 45 18 90 19 84 20 86 21 46 22 89 23
REMARK SMILES IDX 83 24 82 25 47 27 73 28 56 29 72 30 57 31 60 32 71 33 87 34
REMARK SMILES IDX 58 35 59 36 70 38 88 39 61 40 48 41 49 42 54 43 50 44 51 45
REMARK SMILES IDX 53 46 55 47 52 48 74 49 75 50 80 51 76 52 77 53 79 54 81 55
REMARK SMILES IDX 78 56 62 57 63 58 68 59 64 60 65 61 67 62 69 63 66 64 8 65
REMARK SMILES IDX 9 66 10 67 11 68 12 70 13 71 14 72 37 73 15 74 36 75 38 76
REMARK SMILES IDX 35 77 16 78 17 79 18 80 19 81 20 82 21 83 33 84 22 85 23 86
REMARK SMILES IDX 31 87 34 88 24 89 32 90 30 91 25 92 27 93 29 94 26 95 28 96
REMARK H PARENT 3 8 86 26 60 37 10 69
REMARK Flexibility Score: inf
ROOT
ATOM      1  C   UNL A   1      34.487  29.573  27.774  1.00  0.00     0.002 C 
ENDROOT
BRANCH   1   2
ATOM      2  C   UNL A   1      34.580  31.102  27.799  1.00  0.00     0.002 C 
BRANCH   2   3
ATOM      3  C   UNL A   1      33.255  31.847  27.961  1.00  0.00     0.021 C 
BRANCH   3   4
ATOM      4  C   UNL A   1      33.176  33.190  27.247  1.00  0.00     0.116 C 
BRANCH   4   5
ATOM      5  N   UNL A   1      32.759  34.269  28.126  1.00  0.00    -0.352 N 
ATOM      6  O   UNL A   1      32.734  35.502  30.017  1.00  0.00    -0.269 OA
ATOM      7  C   UNL A   1      33.296  34.655  29.330  1.00  0.00     0.251 C 
ATOM      8  H   UNL A   1      31.989  34.797  27.815  1.00  0.00     0.163 HD
BRANCH   7   9
ATOM      9  C   UNL A   1      34.551  34.032  29.808  1.00  0.00     0.039 A 
ATOM     10  C   UNL A   1      34.539  33.134  30.879  1.00  0.00     0.014 A 
ATOM     11  C   UNL A   1      35.749  34.331  29.154  1.00  0.00     0.014 A 
ATOM     12  C   UNL A   1      35.736  32.615  31.360  1.00  0.00     0.010 A 
ATOM     13  C   UNL A   1      36.944  33.749  29.592  1.00  0.00     0.010 A 
ATOM     14  C   UNL A   1      36.946  32.894  30.705  1.00  0.00    -0.014 A 
BRANCH  14  15
ATOM     15  C   UNL A   1      38.177  32.181  31.124  1.00  0.00     0.031 A 
ATOM     16  C   UNL A   1      38.665  30.961  30.397  1.00  0.00     0.074 A 
ATOM     17  C   UNL A   1      38.855  32.659  32.185  1.00  0.00     0.049 A 
ATOM     18  N   UNL A   1      39.722  30.228  30.645  1.00  0.00    -0.248 NA
ATOM     19  C   UNL A   1      37.868  30.496  29.252  1.00  0.00     0.031 C 
ATOM     20  C   UNL A   1      38.458  33.824  32.983  1.00  0.00     0.029 A 
ATOM     21  N   UNL A   1      40.020  32.239  32.774  1.00  0.00    -0.354 N 
ATOM     22  C   UNL A   1      39.710  29.210  29.701  1.00  0.00     0.074 A 
ATOM     23  C   UNL A   1      38.532  29.407  28.883  1.00  0.00     0.031 C 
ATOM     24  C   UNL A   1      39.376  34.042  33.934  1.00  0.00     0.029 A 
ATOM     25  C   UNL A   1      40.393  33.001  33.853  1.00  0.00     0.049 A 
ATOM     26  H   UNL A   1      40.538  31.465  32.454  1.00  0.00     0.167 HD
ATOM     27  C   UNL A   1      40.606  28.207  29.537  1.00  0.00     0.037 A 
ATOM     28  C   UNL A   1      41.426  32.865  34.704  1.00  0.00     0.037 A 
ATOM     29  C   UNL A   1      41.787  28.030  30.345  1.00  0.00     0.049 A 
ATOM     30  C   UNL A   1      42.387  31.731  34.504  1.00  0.00     0.074 A 
ATOM     31  C   UNL A   1      42.788  27.084  30.209  1.00  0.00     0.029 A 
ATOM     32  N   UNL A   1      42.119  28.808  31.443  1.00  0.00    -0.354 N 
ATOM     33  N   UNL A   1      42.396  30.813  33.568  1.00  0.00    -0.248 NA
ATOM     34  C   UNL A   1      43.476  31.607  35.481  1.00  0.00     0.031 C 
ATOM     35  C   UNL A   1      43.702  27.259  31.253  1.00  0.00     0.029 A 
ATOM     36  C   UNL A   1      43.293  28.341  32.014  1.00  0.00     0.049 A 
ATOM     37  H   UNL A   1      41.599  29.578  31.768  1.00  0.00     0.167 HD
ATOM     38  C   UNL A   1      43.492  30.008  33.839  1.00  0.00     0.074 A 
ATOM     39  C   UNL A   1      44.142  30.564  35.008  1.00  0.00     0.031 C 
ATOM     40  C   UNL A   1      43.919  28.902  33.182  1.00  0.00     0.037 A 
BRANCH  27  41
ATOM     41  C   UNL A   1      40.353  27.204  28.450  1.00  0.00     0.057 A 
ATOM     42  C   UNL A   1      40.989  27.286  27.206  1.00  0.00     0.134 A 
ATOM     43  C   UNL A   1      39.536  26.090  28.687  1.00  0.00     0.134 A 
ATOM     44  F   UNL A   1      41.778  28.330  26.913  1.00  0.00    -0.206 F 
ATOM     45  C   UNL A   1      40.821  26.296  26.235  1.00  0.00     0.040 A 
ATOM     46  C   UNL A   1      39.376  25.085  27.732  1.00  0.00     0.040 A 
ATOM     47  F   UNL A   1      38.904  25.947  29.862  1.00  0.00    -0.206 F 
ATOM     48  C   UNL A   1      40.020  25.187  26.501  1.00  0.00     0.006 A 
ENDBRANCH  27  41
BRANCH  28  49
ATOM     49  C   UNL A   1      41.585  33.809  35.837  1.00  0.00     0.057 A 
ATOM     50  C   UNL A   1      40.943  33.591  37.061  1.00  0.00     0.134 A 
ATOM     51  C   UNL A   1      42.378  34.957  35.719  1.00  0.00     0.134 A 
ATOM     52  F   UNL A   1      40.157  32.518  37.229  1.00  0.00    -0.206 F 
ATOM     53  C   UNL A   1      41.068  34.491  38.119  1.00  0.00     0.040 A 
ATOM     54  C   UNL A   1      42.535  35.850  36.778  1.00  0.00     0.040 A 
ATOM     55  F   UNL A   1      43.025  35.218  34.573  1.00  0.00    -0.206 F 
ATOM     56  C   UNL A   1      41.870  35.622  37.981  1.00  0.00     0.006 A 
ENDBRANCH  28  49
BRANCH  40  57
ATOM     57  C   UNL A   1      45.149  28.233  33.717  1.00  0.00     0.057 A 
ATOM     58  C   UNL A   1      46.432  28.624  33.311  1.00  0.00     0.134 A 
ATOM     59  C   UNL A   1      45.052  27.202  34.659  1.00  0.00     0.134 A 
ATOM     60  F   UNL A   1      46.589  29.594  32.398  1.00  0.00    -0.206 F 
ATOM     61  C   UNL A   1      47.574  27.995  33.807  1.00  0.00     0.040 A 
ATOM     62  C   UNL A   1      46.188  26.583  35.180  1.00  0.00     0.040 A 
ATOM     63  F   UNL A   1      43.852  26.785  35.093  1.00  0.00    -0.206 F 
ATOM     64  C   UNL A   1      47.454  26.975  34.748  1.00  0.00     0.006 A 
ENDBRANCH  40  57
ENDBRANCH  14  15
ENDBRANCH   7   9
ENDBRANCH   4   5
ENDBRANCH   3   4
ENDBRANCH   2   3
ENDBRANCH   1   2
BRANCH   1  65
ATOM     65  C   UNL A   1      34.403  28.926  26.386  1.00  0.00     0.021 C 
BRANCH  65  66
ATOM     66  C   UNL A   1      33.084  29.128  25.646  1.00  0.00     0.116 C 
BRANCH  66  67
ATOM     67  N   UNL A   1      33.272  29.432  24.239  1.00  0.00    -0.352 N 
ATOM     68  C   UNL A   1      32.580  28.951  23.159  1.00  0.00     0.252 C 
ATOM     69  H   UNL A   1      33.993  30.069  24.034  1.00  0.00     0.163 HD
ATOM     70  O   UNL A   1      32.878  29.287  22.018  1.00  0.00    -0.269 OA
BRANCH  68  71
ATOM     71  C   UNL A   1      31.513  27.955  23.362  1.00  0.00     0.055 A 
ATOM     72  C   UNL A   1      31.899  26.610  23.333  1.00  0.00     0.038 A 
ATOM     73  C   UNL A   1      30.169  28.299  23.549  1.00  0.00     0.030 A 
ATOM     74  C   UNL A   1      30.938  25.617  23.546  1.00  0.00     0.097 A 
ATOM     75  C   UNL A   1      29.222  27.294  23.780  1.00  0.00     0.018 A 
ATOM     76  Br  UNL A   1      29.541  30.088  23.457  1.00  0.00    -0.050 Br
ATOM     77  C   UNL A   1      29.604  25.949  23.786  1.00  0.00     0.024 A 
BRANCH  74  78
ATOM     78  S   UNL A   1      31.460  23.921  23.478  1.00  0.00     0.318 S 
ATOM     79  O   UNL A   1      30.284  23.143  23.128  1.00  0.00    -0.192 OA
ATOM     80  O   UNL A   1      32.634  23.893  22.634  1.00  0.00    -0.192 OA
BRANCH  78  81
ATOM     81  O   UNL A   1      31.897  23.549  25.013  1.00  0.00    -0.134 OA
BRANCH  81  82
ATOM     82  N   UNL A   1      33.068  22.763  25.041  1.00  0.00    -0.127 N 
ATOM     83  C   UNL A   1      32.858  21.398  25.035  1.00  0.00     0.286 C 
ATOM     84  C   UNL A   1      34.233  23.445  25.327  1.00  0.00     0.286 C 
ATOM     85  O   UNL A   1      31.760  20.857  25.117  1.00  0.00    -0.266 OA
ATOM     86  C   UNL A   1      34.095  20.588  24.953  1.00  0.00     0.051 A 
ATOM     87  C   UNL A   1      35.459  22.610  25.301  1.00  0.00     0.051 A 
ATOM     88  O   UNL A   1      34.295  24.638  25.608  1.00  0.00    -0.266 OA
ATOM     89  C   UNL A   1      34.002  19.211  24.729  1.00  0.00     0.014 A 
ATOM     90  C   UNL A   1      35.342  21.224  25.084  1.00  0.00     0.007 A 
ATOM     91  C   UNL A   1      36.711  23.214  25.461  1.00  0.00     0.014 A 
ATOM     92  C   UNL A   1      35.163  18.451  24.627  1.00  0.00     0.001 A 
ATOM     93  C   UNL A   1      36.517  20.444  25.000  1.00  0.00    -0.017 A 
ATOM     94  C   UNL A   1      37.864  22.438  25.389  1.00  0.00     0.001 A 
ATOM     95  C   UNL A   1      36.412  19.063  24.763  1.00  0.00     0.009 A 
ATOM     96  C   UNL A   1      37.768  21.065  25.153  1.00  0.00     0.009 A 
ENDBRANCH  81  82
ENDBRANCH  78  81
ENDBRANCH  74  78
ENDBRANCH  68  71
ENDBRANCH  66  67
ENDBRANCH  65  66
ENDBRANCH   1  65
TORSDOF 16
ENDMDL
