MODEL 1
REMARK VINA RESULT:     -13.2      0.000      0.000
REMARK SMILES CC(=O)Nc1cnc(N2CC=C(c3ccccc3C)CC2)c(C(=O)NCCCCCCNC(=O)c2ccc(-c3c4nc(c(-c5c(F)cccc5F)c5ccc([nH]5)c(-c5c(F)cccc5F)c5nc(c(-c6c(F)cccc6F)c6ccc3[nH]6)C=C5)C=C4)cc2)c1
REMARK SMILES IDX 28 1 27 2 26 3 25 4 23 5 24 6 22 8 5 9 6 10 89 11 7 12 8 13
REMARK SMILES IDX 4 14 1 15 2 16 3 17 9 19 10 20 21 21 11 22 20 23 12 24 13 25
REMARK SMILES IDX 14 26 18 27 15 28 17 29 19 30 16 31 29 32 30 33 31 34 32 35
REMARK SMILES IDX 33 36 34 38 35 39 36 40 88 41 37 42 87 43 38 44 39 45 40 46
REMARK SMILES IDX 81 47 41 48 86 49 80 50 82 51 42 52 85 53 79 54 78 55 43 57
REMARK SMILES IDX 69 58 52 59 68 60 53 61 56 62 67 63 83 64 54 65 55 66 66 68
REMARK SMILES IDX 84 69 57 70 44 71 45 72 50 73 46 74 47 75 49 76 51 77 48 78
REMARK SMILES IDX 70 79 71 80 76 81 72 82 73 83 75 84 77 85 74 86 58 87 59 88
REMARK SMILES IDX 64 89 60 90 61 91 63 92 65 93 62 94
REMARK H PARENT 25 7 4 18 32 37 82 56 56 67
REMARK Flexibility Score: inf
ROOT
ATOM      1  C   UNL A   1      32.364  29.517  26.548  1.00  0.00     0.002 C 
ENDROOT
BRANCH   1   2
ATOM      2  C   UNL A   1      31.496  28.501  27.308  1.00  0.00     0.021 C 
BRANCH   2   3
ATOM      3  C   UNL A   1      31.799  27.039  26.983  1.00  0.00     0.116 C 
BRANCH   3   4
ATOM      4  N   UNL A   1      30.705  26.389  26.301  1.00  0.00    -0.352 N 
ATOM      5  C   UNL A   1      30.230  26.348  25.015  1.00  0.00     0.255 C 
ATOM      6  O   UNL A   1      29.580  25.323  24.798  1.00  0.00    -0.269 OA
ATOM      7  H   UNL A   1      30.164  25.838  26.913  1.00  0.00     0.163 HD
BRANCH   5   8
ATOM      8  C   UNL A   1      30.468  27.369  23.933  1.00  0.00     0.084 A 
ATOM      9  C   UNL A   1      29.785  29.375  22.710  1.00  0.00     0.060 A 
ATOM     10  C   UNL A   1      31.034  29.389  22.129  1.00  0.00     0.139 A 
ATOM     11  C   UNL A   1      29.492  28.312  23.563  1.00  0.00     0.045 A 
ATOM     12  N   UNL A   1      31.982  28.473  22.397  1.00  0.00    -0.236 NA
ATOM     13  C   UNL A   1      31.717  27.464  23.275  1.00  0.00     0.141 A 
BRANCH   9  14
ATOM     14  N   UNL A   1      28.870  30.394  22.394  1.00  0.00    -0.325 N 
ATOM     15  C   UNL A   1      29.338  31.937  24.290  1.00  0.00     0.114 C 
ATOM     16  C   UNL A   1      28.509  31.500  23.110  1.00  0.00     0.221 C 
ATOM     17  O   UNL A   1      27.543  32.170  22.741  1.00  0.00    -0.275 OA
ATOM     18  H   UNL A   1      28.422  30.295  21.524  1.00  0.00     0.169 HD
ENDBRANCH   9  14
BRANCH  13  19
ATOM     19  N   UNL A   1      32.762  26.583  23.381  1.00  0.00    -0.352 N 
ATOM     20  C   UNL A   1      32.793  25.483  22.434  1.00  0.00     0.146 C 
ATOM     21  C   UNL A   1      33.951  26.870  24.171  1.00  0.00     0.123 C 
ATOM     22  C   UNL A   1      33.673  24.368  22.926  1.00  0.00    -0.002 C 
ATOM     23  C   UNL A   1      34.356  25.619  24.960  1.00  0.00     0.057 C 
ATOM     24  C   UNL A   1      34.384  24.401  24.071  1.00  0.00    -0.041 C 
BRANCH  24  25
ATOM     25  C   UNL A   1      35.229  23.257  24.460  1.00  0.00    -0.020 A 
ATOM     26  C   UNL A   1      36.361  22.975  23.672  1.00  0.00     0.008 A 
ATOM     27  C   UNL A   1      34.952  22.441  25.576  1.00  0.00    -0.044 A 
ATOM     28  C   UNL A   1      37.207  21.910  23.980  1.00  0.00     0.001 A 
ATOM     29  C   UNL A   1      35.825  21.383  25.882  1.00  0.00     0.004 A 
ATOM     30  C   UNL A   1      33.764  22.669  26.469  1.00  0.00     0.045 C 
ATOM     31  C   UNL A   1      36.940  21.115  25.088  1.00  0.00     0.000 A 
ENDBRANCH  24  25
ENDBRANCH  13  19
ENDBRANCH   5   8
ENDBRANCH   3   4
ENDBRANCH   2   3
ENDBRANCH   1   2
BRANCH   1  32
ATOM     32  C   UNL A   1      32.180  31.001  26.922  1.00  0.00     0.002 C 
BRANCH  32  33
ATOM     33  C   UNL A   1      33.442  31.762  27.348  1.00  0.00     0.021 C 
BRANCH  33  34
ATOM     34  C   UNL A   1      34.476  30.894  28.053  1.00  0.00     0.116 C 
BRANCH  34  35
ATOM     35  N   UNL A   1      35.173  31.573  29.139  1.00  0.00    -0.352 N 
ATOM     36  C   UNL A   1      36.314  31.170  29.814  1.00  0.00     0.251 C 
ATOM     37  H   UNL A   1      34.782  32.428  29.430  1.00  0.00     0.163 HD
ATOM     38  O   UNL A   1      36.799  31.867  30.692  1.00  0.00    -0.269 OA
BRANCH  36  39
ATOM     39  C   UNL A   1      37.008  29.943  29.358  1.00  0.00     0.039 A 
ATOM     40  C   UNL A   1      37.278  28.959  30.312  1.00  0.00     0.014 A 
ATOM     41  C   UNL A   1      37.591  29.883  28.093  1.00  0.00     0.014 A 
ATOM     42  C   UNL A   1      38.329  28.072  30.092  1.00  0.00     0.010 A 
ATOM     43  C   UNL A   1      38.683  29.055  27.904  1.00  0.00     0.010 A 
ATOM     44  C   UNL A   1      39.099  28.207  28.934  1.00  0.00    -0.014 A 
BRANCH  44  45
ATOM     45  C   UNL A   1      40.424  27.609  28.806  1.00  0.00     0.031 A 
ATOM     46  C   UNL A   1      40.595  26.187  28.456  1.00  0.00     0.074 A 
ATOM     47  C   UNL A   1      41.533  28.350  29.028  1.00  0.00     0.049 A 
ATOM     48  N   UNL A   1      41.582  25.468  28.881  1.00  0.00    -0.248 NA
ATOM     49  C   UNL A   1      39.654  25.458  27.616  1.00  0.00     0.031 C 
ATOM     50  C   UNL A   1      42.920  27.963  28.779  1.00  0.00     0.029 A 
ATOM     51  N   UNL A   1      41.632  29.537  29.760  1.00  0.00    -0.354 N 
ATOM     52  C   UNL A   1      41.558  24.291  28.181  1.00  0.00     0.074 A 
ATOM     53  C   UNL A   1      40.304  24.299  27.456  1.00  0.00     0.031 C 
ATOM     54  C   UNL A   1      43.719  28.687  29.575  1.00  0.00     0.029 A 
ATOM     55  C   UNL A   1      42.871  29.487  30.437  1.00  0.00     0.049 A 
ATOM     56  H   UNL A   1      40.967  30.264  29.797  1.00  0.00     0.167 HD
ATOM     57  C   UNL A   1      42.646  23.474  28.171  1.00  0.00     0.037 A 
ATOM     58  C   UNL A   1      42.934  29.543  31.798  1.00  0.00     0.037 A 
ATOM     59  C   UNL A   1      43.761  23.993  28.953  1.00  0.00     0.049 A 
ATOM     60  C   UNL A   1      43.553  28.326  32.453  1.00  0.00     0.074 A 
ATOM     61  C   UNL A   1      44.929  24.667  28.639  1.00  0.00     0.029 A 
ATOM     62  N   UNL A   1      43.627  24.092  30.325  1.00  0.00    -0.354 N 
ATOM     63  N   UNL A   1      43.992  27.282  31.806  1.00  0.00    -0.248 NA
ATOM     64  C   UNL A   1      43.615  28.145  33.905  1.00  0.00     0.031 C 
ATOM     65  C   UNL A   1      45.503  25.159  29.844  1.00  0.00     0.029 A 
ATOM     66  C   UNL A   1      44.680  24.787  30.889  1.00  0.00     0.049 A 
ATOM     67  H   UNL A   1      42.875  23.714  30.837  1.00  0.00     0.167 HD
ATOM     68  C   UNL A   1      44.299  26.292  32.704  1.00  0.00     0.074 A 
ATOM     69  C   UNL A   1      44.060  26.882  34.006  1.00  0.00     0.031 C 
ATOM     70  C   UNL A   1      44.673  25.038  32.319  1.00  0.00     0.037 A 
BRANCH  57  71
ATOM     71  C   UNL A   1      42.734  22.311  27.227  1.00  0.00     0.057 A 
ATOM     72  C   UNL A   1      41.927  21.173  27.383  1.00  0.00     0.134 A 
ATOM     73  C   UNL A   1      43.648  22.259  26.160  1.00  0.00     0.134 A 
ATOM     74  F   UNL A   1      40.970  21.112  28.318  1.00  0.00    -0.206 F 
ATOM     75  C   UNL A   1      42.086  20.026  26.598  1.00  0.00     0.040 A 
ATOM     76  C   UNL A   1      43.853  21.100  25.401  1.00  0.00     0.040 A 
ATOM     77  F   UNL A   1      44.380  23.333  25.825  1.00  0.00    -0.206 F 
ATOM     78  C   UNL A   1      43.076  19.973  25.627  1.00  0.00     0.006 A 
ENDBRANCH  57  71
BRANCH  58  79
ATOM     79  C   UNL A   1      41.845  30.367  32.383  1.00  0.00     0.057 A 
ATOM     80  C   UNL A   1      41.973  31.769  32.350  1.00  0.00     0.134 A 
ATOM     81  C   UNL A   1      40.567  29.847  32.599  1.00  0.00     0.134 A 
ATOM     82  F   UNL A   1      43.176  32.332  32.146  1.00  0.00    -0.206 F 
ATOM     83  C   UNL A   1      40.861  32.610  32.389  1.00  0.00     0.040 A 
ATOM     84  C   UNL A   1      39.448  30.683  32.666  1.00  0.00     0.040 A 
ATOM     85  F   UNL A   1      40.362  28.524  32.628  1.00  0.00    -0.206 F 
ATOM     86  C   UNL A   1      39.588  32.062  32.513  1.00  0.00     0.006 A 
ENDBRANCH  58  79
BRANCH  70  87
ATOM     87  C   UNL A   1      45.052  23.946  33.276  1.00  0.00     0.057 A 
ATOM     88  C   UNL A   1      44.147  22.958  33.692  1.00  0.00     0.134 A 
ATOM     89  C   UNL A   1      46.309  23.926  33.912  1.00  0.00     0.134 A 
ATOM     90  F   UNL A   1      42.896  22.921  33.210  1.00  0.00    -0.206 F 
ATOM     91  C   UNL A   1      44.485  21.987  34.643  1.00  0.00     0.040 A 
ATOM     92  C   UNL A   1      46.643  22.991  34.896  1.00  0.00     0.040 A 
ATOM     93  F   UNL A   1      47.272  24.803  33.594  1.00  0.00    -0.206 F 
ATOM     94  C   UNL A   1      45.733  22.008  35.256  1.00  0.00     0.006 A 
ENDBRANCH  70  87
ENDBRANCH  44  45
ENDBRANCH  36  39
ENDBRANCH  34  35
ENDBRANCH  33  34
ENDBRANCH  32  33
ENDBRANCH   1  32
TORSDOF 16
ENDMDL
MODEL 2
REMARK VINA RESULT:     -12.9      4.164      9.352
REMARK SMILES CC(=O)Nc1cnc(N2CC=C(c3ccccc3C)CC2)c(C(=O)NCCCCCCNC(=O)c2ccc(-c3c4nc(c(-c5c(F)cccc5F)c5ccc([nH]5)c(-c5c(F)cccc5F)c5nc(c(-c6c(F)cccc6F)c6ccc3[nH]6)C=C5)C=C4)cc2)c1
REMARK SMILES IDX 28 1 27 2 26 3 25 4 23 5 24 6 22 8 5 9 6 10 89 11 7 12 8 13
REMARK SMILES IDX 4 14 1 15 2 16 3 17 9 19 10 20 21 21 11 22 20 23 12 24 13 25
REMARK SMILES IDX 14 26 18 27 15 28 17 29 19 30 16 31 29 32 30 33 31 34 32 35
REMARK SMILES IDX 33 36 34 38 35 39 36 40 88 41 37 42 87 43 38 44 39 45 40 46
REMARK SMILES IDX 81 47 41 48 86 49 80 50 82 51 42 52 85 53 79 54 78 55 43 57
REMARK SMILES IDX 69 58 52 59 68 60 53 61 56 62 67 63 83 64 54 65 55 66 66 68
REMARK SMILES IDX 84 69 57 70 44 71 45 72 50 73 46 74 47 75 49 76 51 77 48 78
REMARK SMILES IDX 70 79 71 80 76 81 72 82 73 83 75 84 77 85 74 86 58 87 59 88
REMARK SMILES IDX 64 89 60 90 61 91 63 92 65 93 62 94
REMARK H PARENT 25 7 4 18 32 37 82 56 56 67
REMARK Flexibility Score: inf
ROOT
ATOM      1  C   UNL A   1      39.063  23.541  26.850  1.00  0.00     0.002 C 
ENDROOT
BRANCH   1   2
ATOM      2  C   UNL A   1      37.877  23.726  25.891  1.00  0.00     0.021 C 
BRANCH   2   3
ATOM      3  C   UNL A   1      37.024  22.474  25.686  1.00  0.00     0.116 C 
BRANCH   3   4
ATOM      4  N   UNL A   1      35.857  22.459  26.536  1.00  0.00    -0.352 N 
ATOM      5  C   UNL A   1      34.661  21.787  26.556  1.00  0.00     0.255 C 
ATOM      6  O   UNL A   1      34.182  21.739  27.691  1.00  0.00    -0.269 OA
ATOM      7  H   UNL A   1      35.941  23.088  27.290  1.00  0.00     0.163 HD
BRANCH   5   8
ATOM      8  C   UNL A   1      33.978  21.128  25.387  1.00  0.00     0.084 A 
ATOM      9  C   UNL A   1      33.433  19.126  24.089  1.00  0.00     0.060 A 
ATOM     10  C   UNL A   1      32.512  19.882  23.399  1.00  0.00     0.139 A 
ATOM     11  C   UNL A   1      34.212  19.786  25.040  1.00  0.00     0.045 A 
ATOM     12  N   UNL A   1      32.294  21.187  23.645  1.00  0.00    -0.236 NA
ATOM     13  C   UNL A   1      33.015  21.820  24.614  1.00  0.00     0.141 A 
BRANCH   9  14
ATOM     14  N   UNL A   1      33.567  17.761  23.786  1.00  0.00    -0.325 N 
ATOM     15  C   UNL A   1      32.480  16.804  25.810  1.00  0.00     0.114 C 
ATOM     16  C   UNL A   1      33.296  16.662  24.551  1.00  0.00     0.221 C 
ATOM     17  O   UNL A   1      33.665  15.552  24.166  1.00  0.00    -0.275 OA
ATOM     18  H   UNL A   1      33.908  17.567  22.883  1.00  0.00     0.169 HD
ENDBRANCH   9  14
BRANCH  13  19
ATOM     19  N   UNL A   1      32.720  23.157  24.688  1.00  0.00    -0.352 N 
ATOM     20  C   UNL A   1      33.438  24.040  23.786  1.00  0.00     0.146 C 
ATOM     21  C   UNL A   1      31.546  23.662  25.387  1.00  0.00     0.123 C 
ATOM     22  C   UNL A   1      33.386  25.464  24.265  1.00  0.00    -0.002 C 
ATOM     23  C   UNL A   1      31.929  24.905  26.197  1.00  0.00     0.057 C 
ATOM     24  C   UNL A   1      32.718  25.880  25.360  1.00  0.00    -0.041 C 
BRANCH  24  25
ATOM     25  C   UNL A   1      32.718  27.305  25.739  1.00  0.00    -0.020 A 
ATOM     26  C   UNL A   1      33.728  27.755  26.611  1.00  0.00     0.008 A 
ATOM     27  C   UNL A   1      31.758  28.225  25.271  1.00  0.00    -0.044 A 
ATOM     28  C   UNL A   1      33.792  29.089  27.012  1.00  0.00     0.001 A 
ATOM     29  C   UNL A   1      31.848  29.570  25.672  1.00  0.00     0.004 A 
ATOM     30  C   UNL A   1      30.645  27.829  24.340  1.00  0.00     0.045 C 
ATOM     31  C   UNL A   1      32.852  29.998  26.540  1.00  0.00     0.000 A 
ENDBRANCH  24  25
ENDBRANCH  13  19
ENDBRANCH   5   8
ENDBRANCH   3   4
ENDBRANCH   2   3
ENDBRANCH   1   2
BRANCH   1  32
ATOM     32  C   UNL A   1      39.887  22.247  26.692  1.00  0.00     0.002 C 
BRANCH  32  33
ATOM     33  C   UNL A   1      41.239  22.380  25.980  1.00  0.00     0.021 C 
BRANCH  33  34
ATOM     34  C   UNL A   1      42.274  21.355  26.426  1.00  0.00     0.116 C 
BRANCH  34  35
ATOM     35  N   UNL A   1      43.122  20.867  25.346  1.00  0.00    -0.352 N 
ATOM     36  C   UNL A   1      44.251  21.460  24.802  1.00  0.00     0.251 C 
ATOM     37  H   UNL A   1      42.861  20.004  24.952  1.00  0.00     0.163 HD
ATOM     38  O   UNL A   1      44.878  20.910  23.910  1.00  0.00    -0.269 OA
BRANCH  36  39
ATOM     39  C   UNL A   1      44.756  22.710  25.417  1.00  0.00     0.039 A 
ATOM     40  C   UNL A   1      45.325  22.621  26.691  1.00  0.00     0.014 A 
ATOM     41  C   UNL A   1      44.448  23.951  24.864  1.00  0.00     0.014 A 
ATOM     42  C   UNL A   1      45.337  23.749  27.508  1.00  0.00     0.010 A 
ATOM     43  C   UNL A   1      44.387  25.054  25.698  1.00  0.00     0.010 A 
ATOM     44  C   UNL A   1      44.758  24.931  27.040  1.00  0.00    -0.014 A 
BRANCH  44  45
ATOM     45  C   UNL A   1      44.371  26.016  27.937  1.00  0.00     0.031 A 
ATOM     46  C   UNL A   1      43.005  26.570  27.925  1.00  0.00     0.074 A 
ATOM     47  C   UNL A   1      45.271  26.552  28.790  1.00  0.00     0.049 A 
ATOM     48  N   UNL A   1      42.742  27.808  28.193  1.00  0.00    -0.248 NA
ATOM     49  C   UNL A   1      41.829  25.779  27.591  1.00  0.00     0.031 C 
ATOM     50  C   UNL A   1      45.012  27.511  29.862  1.00  0.00     0.029 A 
ATOM     51  N   UNL A   1      46.666  26.508  28.695  1.00  0.00    -0.354 N 
ATOM     52  C   UNL A   1      41.383  27.916  28.325  1.00  0.00     0.074 A 
ATOM     53  C   UNL A   1      40.851  26.646  27.874  1.00  0.00     0.031 C 
ATOM     54  C   UNL A   1      46.142  28.185  30.121  1.00  0.00     0.029 A 
ATOM     55  C   UNL A   1      47.136  27.759  29.155  1.00  0.00     0.049 A 
ATOM     56  H   UNL A   1      47.211  25.755  28.371  1.00  0.00     0.167 HD
ATOM     57  C   UNL A   1      40.834  29.010  28.918  1.00  0.00     0.037 A 
ATOM     58  C   UNL A   1      47.874  28.575  28.349  1.00  0.00     0.037 A 
ATOM     59  C   UNL A   1      41.826  29.980  29.364  1.00  0.00     0.049 A 
ATOM     60  C   UNL A   1      47.248  29.927  28.076  1.00  0.00     0.074 A 
ATOM     61  C   UNL A   1      42.410  30.272  30.585  1.00  0.00     0.029 A 
ATOM     62  N   UNL A   1      42.578  30.651  28.417  1.00  0.00    -0.354 N 
ATOM     63  N   UNL A   1      46.095  30.316  28.544  1.00  0.00    -0.248 NA
ATOM     64  C   UNL A   1      47.829  30.903  27.151  1.00  0.00     0.031 C 
ATOM     65  C   UNL A   1      43.514  31.140  30.361  1.00  0.00     0.029 A 
ATOM     66  C   UNL A   1      43.602  31.372  29.001  1.00  0.00     0.049 A 
ATOM     67  H   UNL A   1      42.405  30.620  27.449  1.00  0.00     0.167 HD
ATOM     68  C   UNL A   1      45.741  31.499  27.947  1.00  0.00     0.074 A 
ATOM     69  C   UNL A   1      46.863  31.835  27.093  1.00  0.00     0.031 C 
ATOM     70  C   UNL A   1      44.531  32.092  28.149  1.00  0.00     0.037 A 
BRANCH  57  71
ATOM     71  C   UNL A   1      39.381  29.043  29.291  1.00  0.00     0.057 A 
ATOM     72  C   UNL A   1      38.396  29.447  28.376  1.00  0.00     0.134 A 
ATOM     73  C   UNL A   1      38.913  28.720  30.576  1.00  0.00     0.134 A 
ATOM     74  F   UNL A   1      38.691  29.724  27.100  1.00  0.00    -0.206 F 
ATOM     75  C   UNL A   1      37.055  29.614  28.741  1.00  0.00     0.040 A 
ATOM     76  C   UNL A   1      37.585  28.930  30.968  1.00  0.00     0.040 A 
ATOM     77  F   UNL A   1      39.734  28.194  31.498  1.00  0.00    -0.206 F 
ATOM     78  C   UNL A   1      36.652  29.390  30.050  1.00  0.00     0.006 A 
ENDBRANCH  57  71
BRANCH  58  79
ATOM     79  C   UNL A   1      48.717  27.815  27.390  1.00  0.00     0.057 A 
ATOM     80  C   UNL A   1      49.960  27.323  27.834  1.00  0.00     0.134 A 
ATOM     81  C   UNL A   1      48.180  27.245  26.233  1.00  0.00     0.134 A 
ATOM     82  F   UNL A   1      50.529  27.830  28.939  1.00  0.00    -0.206 F 
ATOM     83  C   UNL A   1      50.571  26.222  27.234  1.00  0.00     0.040 A 
ATOM     84  C   UNL A   1      48.798  26.157  25.610  1.00  0.00     0.040 A 
ATOM     85  F   UNL A   1      46.994  27.648  25.758  1.00  0.00    -0.206 F 
ATOM     86  C   UNL A   1      49.969  25.614  26.137  1.00  0.00     0.006 A 
ENDBRANCH  58  79
BRANCH  70  87
ATOM     87  C   UNL A   1      44.130  33.405  27.541  1.00  0.00     0.057 A 
ATOM     88  C   UNL A   1      43.918  34.560  28.309  1.00  0.00     0.134 A 
ATOM     89  C   UNL A   1      43.819  33.520  26.172  1.00  0.00     0.134 A 
ATOM     90  F   UNL A   1      44.111  34.550  29.637  1.00  0.00    -0.206 F 
ATOM     91  C   UNL A   1      43.472  35.761  27.745  1.00  0.00     0.040 A 
ATOM     92  C   UNL A   1      43.328  34.700  25.605  1.00  0.00     0.040 A 
ATOM     93  F   UNL A   1      43.993  32.497  25.323  1.00  0.00    -0.206 F 
ATOM     94  C   UNL A   1      43.165  35.831  26.391  1.00  0.00     0.006 A 
ENDBRANCH  70  87
ENDBRANCH  44  45
ENDBRANCH  36  39
ENDBRANCH  34  35
ENDBRANCH  33  34
ENDBRANCH  32  33
ENDBRANCH   1  32
TORSDOF 16
ENDMDL
MODEL 3
REMARK VINA RESULT:     -12.9      3.871      9.755
REMARK SMILES CC(=O)Nc1cnc(N2CC=C(c3ccccc3C)CC2)c(C(=O)NCCCCCCNC(=O)c2ccc(-c3c4nc(c(-c5c(F)cccc5F)c5ccc([nH]5)c(-c5c(F)cccc5F)c5nc(c(-c6c(F)cccc6F)c6ccc3[nH]6)C=C5)C=C4)cc2)c1
REMARK SMILES IDX 28 1 27 2 26 3 25 4 23 5 24 6 22 8 5 9 6 10 89 11 7 12 8 13
REMARK SMILES IDX 4 14 1 15 2 16 3 17 9 19 10 20 21 21 11 22 20 23 12 24 13 25
REMARK SMILES IDX 14 26 18 27 15 28 17 29 19 30 16 31 29 32 30 33 31 34 32 35
REMARK SMILES IDX 33 36 34 38 35 39 36 40 88 41 37 42 87 43 38 44 39 45 40 46
REMARK SMILES IDX 81 47 41 48 86 49 80 50 82 51 42 52 85 53 79 54 78 55 43 57
REMARK SMILES IDX 69 58 52 59 68 60 53 61 56 62 67 63 83 64 54 65 55 66 66 68
REMARK SMILES IDX 84 69 57 70 44 71 45 72 50 73 46 74 47 75 49 76 51 77 48 78
REMARK SMILES IDX 70 79 71 80 76 81 72 82 73 83 75 84 77 85 74 86 58 87 59 88
REMARK SMILES IDX 64 89 60 90 61 91 63 92 65 93 62 94
REMARK H PARENT 25 7 4 18 32 37 82 56 56 67
REMARK Flexibility Score: inf
ROOT
ATOM      1  C   UNL A   1      37.333  22.682  24.171  1.00  0.00     0.002 C 
ENDROOT
BRANCH   1   2
ATOM      2  C   UNL A   1      35.886  23.201  24.160  1.00  0.00     0.021 C 
BRANCH   2   3
ATOM      3  C   UNL A   1      35.512  24.062  25.366  1.00  0.00     0.116 C 
BRANCH   3   4
ATOM      4  N   UNL A   1      34.845  23.302  26.398  1.00  0.00    -0.352 N 
ATOM      5  C   UNL A   1      34.234  22.076  26.480  1.00  0.00     0.255 C 
ATOM      6  O   UNL A   1      34.225  21.645  27.635  1.00  0.00    -0.269 OA
ATOM      7  H   UNL A   1      34.825  23.784  27.256  1.00  0.00     0.163 HD
BRANCH   5   8
ATOM      8  C   UNL A   1      33.660  21.277  25.339  1.00  0.00     0.084 A 
ATOM      9  C   UNL A   1      33.434  19.170  24.116  1.00  0.00     0.060 A 
ATOM     10  C   UNL A   1      32.404  19.747  23.407  1.00  0.00     0.139 A 
ATOM     11  C   UNL A   1      34.102  19.977  25.037  1.00  0.00     0.045 A 
ATOM     12  N   UNL A   1      31.984  21.009  23.610  1.00  0.00    -0.236 NA
ATOM     13  C   UNL A   1      32.599  21.781  24.551  1.00  0.00     0.141 A 
BRANCH   9  14
ATOM     14  N   UNL A   1      33.780  17.833  23.859  1.00  0.00    -0.325 N 
ATOM     15  C   UNL A   1      32.409  16.731  25.619  1.00  0.00     0.114 C 
ATOM     16  C   UNL A   1      33.480  16.699  24.560  1.00  0.00     0.221 C 
ATOM     17  O   UNL A   1      34.043  15.642  24.270  1.00  0.00    -0.275 OA
ATOM     18  H   UNL A   1      34.321  17.692  23.049  1.00  0.00     0.169 HD
ENDBRANCH   9  14
BRANCH  13  19
ATOM     19  N   UNL A   1      32.097  23.057  24.580  1.00  0.00    -0.352 N 
ATOM     20  C   UNL A   1      32.314  23.876  23.401  1.00  0.00     0.146 C 
ATOM     21  C   UNL A   1      31.133  23.496  25.580  1.00  0.00     0.123 C 
ATOM     22  C   UNL A   1      32.150  25.337  23.719  1.00  0.00    -0.002 C 
ATOM     23  C   UNL A   1      31.513  24.895  26.078  1.00  0.00     0.057 C 
ATOM     24  C   UNL A   1      31.798  25.825  24.925  1.00  0.00    -0.041 C 
BRANCH  24  25
ATOM     25  C   UNL A   1      31.652  27.278  25.131  1.00  0.00    -0.020 A 
ATOM     26  C   UNL A   1      32.243  27.844  26.276  1.00  0.00     0.008 A 
ATOM     27  C   UNL A   1      30.949  28.113  24.239  1.00  0.00    -0.044 A 
ATOM     28  C   UNL A   1      32.148  29.211  26.535  1.00  0.00     0.001 A 
ATOM     29  C   UNL A   1      30.877  29.491  24.506  1.00  0.00     0.004 A 
ATOM     30  C   UNL A   1      30.286  27.590  22.995  1.00  0.00     0.045 C 
ATOM     31  C   UNL A   1      31.465  30.036  25.648  1.00  0.00     0.000 A 
ENDBRANCH  24  25
ENDBRANCH  13  19
ENDBRANCH   5   8
ENDBRANCH   3   4
ENDBRANCH   2   3
ENDBRANCH   1   2
BRANCH   1  32
ATOM     32  C   UNL A   1      37.631  21.481  25.090  1.00  0.00     0.002 C 
BRANCH  32  33
ATOM     33  C   UNL A   1      38.999  21.471  25.782  1.00  0.00     0.021 C 
BRANCH  33  34
ATOM     34  C   UNL A   1      39.352  22.783  26.470  1.00  0.00     0.116 C 
BRANCH  34  35
ATOM     35  N   UNL A   1      40.772  23.108  26.427  1.00  0.00    -0.352 N 
ATOM     36  C   UNL A   1      41.380  24.341  26.610  1.00  0.00     0.251 C 
ATOM     37  H   UNL A   1      41.379  22.355  26.244  1.00  0.00     0.163 HD
ATOM     38  O   UNL A   1      42.595  24.450  26.570  1.00  0.00    -0.269 OA
BRANCH  36  39
ATOM     39  C   UNL A   1      40.531  25.496  26.989  1.00  0.00     0.039 A 
ATOM     40  C   UNL A   1      40.765  26.710  26.339  1.00  0.00     0.014 A 
ATOM     41  C   UNL A   1      39.715  25.441  28.116  1.00  0.00     0.014 A 
ATOM     42  C   UNL A   1      40.401  27.897  26.970  1.00  0.00     0.010 A 
ATOM     43  C   UNL A   1      39.421  26.618  28.782  1.00  0.00     0.010 A 
ATOM     44  C   UNL A   1      39.834  27.841  28.246  1.00  0.00    -0.014 A 
BRANCH  44  45
ATOM     45  C   UNL A   1      39.791  29.001  29.130  1.00  0.00     0.031 A 
ATOM     46  C   UNL A   1      38.735  30.022  29.005  1.00  0.00     0.074 A 
ATOM     47  C   UNL A   1      40.739  29.175  30.078  1.00  0.00     0.049 A 
ATOM     48  N   UNL A   1      38.924  31.272  29.279  1.00  0.00    -0.248 NA
ATOM     49  C   UNL A   1      37.388  29.718  28.542  1.00  0.00     0.031 C 
ATOM     50  C   UNL A   1      40.750  30.172  31.145  1.00  0.00     0.029 A 
ATOM     51  N   UNL A   1      42.021  28.616  30.113  1.00  0.00    -0.354 N 
ATOM     52  C   UNL A   1      37.695  31.876  29.287  1.00  0.00     0.074 A 
ATOM     53  C   UNL A   1      36.777  30.889  28.755  1.00  0.00     0.031 C 
ATOM     54  C   UNL A   1      42.019  30.382  31.526  1.00  0.00     0.029 A 
ATOM     55  C   UNL A   1      42.873  29.608  30.646  1.00  0.00     0.049 A 
ATOM     56  H   UNL A   1      42.278  27.711  29.821  1.00  0.00     0.167 HD
ATOM     57  C   UNL A   1      37.534  33.103  29.854  1.00  0.00     0.037 A 
ATOM     58  C   UNL A   1      43.934  30.085  29.934  1.00  0.00     0.037 A 
ATOM     59  C   UNL A   1      38.766  33.641  30.416  1.00  0.00     0.049 A 
ATOM     60  C   UNL A   1      43.883  31.569  29.639  1.00  0.00     0.074 A 
ATOM     61  C   UNL A   1      39.296  33.709  31.693  1.00  0.00     0.029 A 
ATOM     62  N   UNL A   1      39.801  33.975  29.561  1.00  0.00    -0.354 N 
ATOM     63  N   UNL A   1      42.915  32.363  30.008  1.00  0.00    -0.248 NA
ATOM     64  C   UNL A   1      44.869  32.251  28.798  1.00  0.00     0.031 C 
ATOM     65  C   UNL A   1      40.659  34.104  31.596  1.00  0.00     0.029 A 
ATOM     66  C   UNL A   1      40.957  34.272  30.257  1.00  0.00     0.049 A 
ATOM     67  H   UNL A   1      39.723  34.000  28.580  1.00  0.00     0.167 HD
ATOM     68  C   UNL A   1      43.083  33.586  29.411  1.00  0.00     0.074 A 
ATOM     69  C   UNL A   1      44.327  33.474  28.675  1.00  0.00     0.031 C 
ATOM     70  C   UNL A   1      42.164  34.588  29.514  1.00  0.00     0.037 A 
BRANCH  57  71
ATOM     71  C   UNL A   1      36.168  33.675  30.090  1.00  0.00     0.057 A 
ATOM     72  C   UNL A   1      35.367  34.129  29.029  1.00  0.00     0.134 A 
ATOM     73  C   UNL A   1      35.616  33.837  31.372  1.00  0.00     0.134 A 
ATOM     74  F   UNL A   1      35.740  33.980  27.752  1.00  0.00    -0.206 F 
ATOM     75  C   UNL A   1      34.150  34.788  29.236  1.00  0.00     0.040 A 
ATOM     76  C   UNL A   1      34.426  34.539  31.596  1.00  0.00     0.040 A 
ATOM     77  F   UNL A   1      36.223  33.324  32.454  1.00  0.00    -0.206 F 
ATOM     78  C   UNL A   1      33.692  35.027  30.524  1.00  0.00     0.006 A 
ENDBRANCH  57  71
BRANCH  58  79
ATOM     79  C   UNL A   1      44.525  29.056  29.039  1.00  0.00     0.057 A 
ATOM     80  C   UNL A   1      45.366  28.079  29.605  1.00  0.00     0.134 A 
ATOM     81  C   UNL A   1      43.988  28.786  27.778  1.00  0.00     0.134 A 
ATOM     82  F   UNL A   1      45.914  28.279  30.814  1.00  0.00    -0.206 F 
ATOM     83  C   UNL A   1      45.552  26.833  29.005  1.00  0.00     0.040 A 
ATOM     84  C   UNL A   1      44.189  27.550  27.157  1.00  0.00     0.040 A 
ATOM     85  F   UNL A   1      43.166  29.660  27.182  1.00  0.00    -0.206 F 
ATOM     86  C   UNL A   1      44.932  26.554  27.791  1.00  0.00     0.006 A 
ENDBRANCH  58  79
BRANCH  70  87
ATOM     87  C   UNL A   1      42.338  35.949  28.906  1.00  0.00     0.057 A 
ATOM     88  C   UNL A   1      41.899  36.258  27.610  1.00  0.00     0.134 A 
ATOM     89  C   UNL A   1      43.068  36.962  29.559  1.00  0.00     0.134 A 
ATOM     90  F   UNL A   1      41.256  35.348  26.863  1.00  0.00    -0.206 F 
ATOM     91  C   UNL A   1      42.131  37.507  27.020  1.00  0.00     0.040 A 
ATOM     92  C   UNL A   1      43.346  38.196  28.963  1.00  0.00     0.040 A 
ATOM     93  F   UNL A   1      43.528  36.803  30.808  1.00  0.00    -0.206 F 
ATOM     94  C   UNL A   1      42.866  38.477  27.693  1.00  0.00     0.006 A 
ENDBRANCH  70  87
ENDBRANCH  44  45
ENDBRANCH  36  39
ENDBRANCH  34  35
ENDBRANCH  33  34
ENDBRANCH  32  33
ENDBRANCH   1  32
TORSDOF 16
ENDMDL
