MODEL 1
REMARK VINA RESULT:     -13.0      0.000      0.000
REMARK SMILES Cc1ccc(-c2cc(C(=O)NCCCCCCNC(=O)c3ccc(-c4c5nc(c(-c6c(F)cccc6F)c6ccc([nH]6)c(-c6c(F)cccc6F)c6nc(c(-c7c(F)cccc7F)c7ccc4[nH]7)C=C6)C=C5)cc3)c3cc(C)ccc3n2)c(C)c1
REMARK SMILES IDX 15 1 14 2 13 3 12 4 11 5 9 6 10 7 8 9 6 10 7 11 82 12 81 13
REMARK SMILES IDX 75 14 80 15 76 16 79 17 77 18 78 19 5 20 1 21 2 22 3 23
REMARK SMILES IDX 85 24 4 25 83 26 84 27 16 28 17 29 18 30 19 31 20 33 21 34
REMARK SMILES IDX 22 35 74 36 23 37 73 38 24 39 25 40 26 41 67 42 27 43 72 44
REMARK SMILES IDX 66 45 68 46 28 47 71 48 65 49 64 50 29 52 55 53 38 54 54 55
REMARK SMILES IDX 39 56 42 57 53 58 69 59 40 60 41 61 52 63 70 64 43 65 30 66
REMARK SMILES IDX 31 67 36 68 32 69 33 70 35 71 37 72 34 73 56 74 57 75 62 76
REMARK SMILES IDX 58 77 59 78 61 79 63 80 60 81 44 82 45 83 50 84 46 85 47 86
REMARK SMILES IDX 49 87 51 88 48 89
REMARK H PARENT 11 8 18 32 68 51 42 62
REMARK Flexibility Score: inf
ROOT
ATOM      1  C   UNL A   1      31.586  30.817  25.934  1.00  0.00     0.002 C 
ENDROOT
BRANCH   1   2
ATOM      2  C   UNL A   1      31.779  29.524  26.737  1.00  0.00     0.002 C 
BRANCH   2   3
ATOM      3  C   UNL A   1      33.188  29.181  27.231  1.00  0.00     0.021 C 
BRANCH   3   4
ATOM      4  C   UNL A   1      33.975  28.163  26.418  1.00  0.00     0.116 C 
BRANCH   4   5
ATOM      5  N   UNL A   1      34.334  28.527  25.063  1.00  0.00    -0.352 N 
ATOM      6  C   UNL A   1      33.685  28.282  23.866  1.00  0.00     0.252 C 
ATOM      7  O   UNL A   1      34.155  28.791  22.848  1.00  0.00    -0.269 OA
ATOM      8  H   UNL A   1      35.176  29.030  24.980  1.00  0.00     0.163 HD
BRANCH   6   9
ATOM      9  C   UNL A   1      32.520  27.348  23.721  1.00  0.00     0.051 A 
ATOM     10  C   UNL A   1      31.748  25.097  24.031  1.00  0.00     0.072 A 
ATOM     11  C   UNL A   1      32.794  26.005  24.018  1.00  0.00     0.043 A 
ATOM     12  N   UNL A   1      30.461  25.486  23.902  1.00  0.00    -0.248 NA
ATOM     13  C   UNL A   1      30.196  26.759  23.589  1.00  0.00     0.072 A 
ATOM     14  C   UNL A   1      31.203  27.710  23.354  1.00  0.00     0.013 A 
ATOM     15  C   UNL A   1      28.868  27.152  23.501  1.00  0.00     0.029 A 
ATOM     16  C   UNL A   1      30.819  28.944  22.786  1.00  0.00     0.014 A 
ATOM     17  C   UNL A   1      28.506  28.457  23.168  1.00  0.00     0.005 A 
ATOM     18  C   UNL A   1      29.486  29.365  22.783  1.00  0.00    -0.050 A 
ATOM     19  C   UNL A   1      29.153  30.804  22.530  1.00  0.00     0.044 C 
BRANCH  10  20
ATOM     20  C   UNL A   1      31.960  23.644  24.108  1.00  0.00     0.003 A 
ATOM     21  C   UNL A   1      32.639  19.363  24.277  1.00  0.00     0.044 C 
ATOM     22  C   UNL A   1      32.400  20.841  24.201  1.00  0.00    -0.051 A 
ATOM     23  C   UNL A   1      32.339  21.507  22.976  1.00  0.00     0.004 A 
ATOM     24  C   UNL A   1      32.236  21.577  25.379  1.00  0.00     0.007 A 
ATOM     25  C   UNL A   1      32.123  22.890  22.930  1.00  0.00     0.011 A 
ATOM     26  C   UNL A   1      32.007  22.965  25.349  1.00  0.00    -0.041 A 
ATOM     27  C   UNL A   1      31.851  23.666  26.674  1.00  0.00     0.045 C 
ENDBRANCH  10  20
ENDBRANCH   6   9
ENDBRANCH   4   5
ENDBRANCH   3   4
ENDBRANCH   2   3
ENDBRANCH   1   2
BRANCH   1  28
ATOM     28  C   UNL A   1      31.350  32.114  26.711  1.00  0.00     0.021 C 
BRANCH  28  29
ATOM     29  C   UNL A   1      32.584  32.815  27.266  1.00  0.00     0.116 C 
BRANCH  29  30
ATOM     30  N   UNL A   1      32.340  34.201  27.624  1.00  0.00    -0.352 N 
ATOM     31  C   UNL A   1      32.973  34.998  28.545  1.00  0.00     0.251 C 
ATOM     32  H   UNL A   1      31.608  34.637  27.131  1.00  0.00     0.163 HD
ATOM     33  O   UNL A   1      32.528  36.118  28.794  1.00  0.00    -0.269 OA
BRANCH  31  34
ATOM     34  C   UNL A   1      34.171  34.514  29.268  1.00  0.00     0.039 A 
ATOM     35  C   UNL A   1      34.002  33.921  30.524  1.00  0.00     0.014 A 
ATOM     36  C   UNL A   1      35.453  34.651  28.729  1.00  0.00     0.014 A 
ATOM     37  C   UNL A   1      35.106  33.401  31.203  1.00  0.00     0.010 A 
ATOM     38  C   UNL A   1      36.544  34.071  29.376  1.00  0.00     0.010 A 
ATOM     39  C   UNL A   1      36.381  33.432  30.616  1.00  0.00    -0.014 A 
BRANCH  39  40
ATOM     40  C   UNL A   1      37.548  32.784  31.271  1.00  0.00     0.031 A 
ATOM     41  C   UNL A   1      38.191  31.571  30.656  1.00  0.00     0.074 A 
ATOM     42  C   UNL A   1      37.990  33.252  32.455  1.00  0.00     0.049 A 
ATOM     43  N   UNL A   1      39.149  30.814  31.128  1.00  0.00    -0.248 NA
ATOM     44  C   UNL A   1      37.676  31.140  29.346  1.00  0.00     0.031 C 
ATOM     45  C   UNL A   1      37.433  34.401  33.173  1.00  0.00     0.029 A 
ATOM     46  N   UNL A   1      39.000  32.809  33.275  1.00  0.00    -0.354 N 
ATOM     47  C   UNL A   1      39.353  29.823  30.176  1.00  0.00     0.074 A 
ATOM     48  C   UNL A   1      38.378  30.038  29.128  1.00  0.00     0.031 C 
ATOM     49  C   UNL A   1      38.113  34.577  34.317  1.00  0.00     0.029 A 
ATOM     50  C   UNL A   1      39.121  33.530  34.440  1.00  0.00     0.049 A 
ATOM     51  H   UNL A   1      39.583  32.049  33.049  1.00  0.00     0.167 HD
ATOM     52  C   UNL A   1      40.284  28.840  30.163  1.00  0.00     0.037 A 
ATOM     53  C   UNL A   1      39.935  33.352  35.499  1.00  0.00     0.037 A 
ATOM     54  C   UNL A   1      41.257  28.630  31.203  1.00  0.00     0.049 A 
ATOM     55  C   UNL A   1      40.924  32.217  35.481  1.00  0.00     0.074 A 
ATOM     56  C   UNL A   1      42.258  27.675  31.267  1.00  0.00     0.029 A 
ATOM     57  N   UNL A   1      41.350  29.383  32.363  1.00  0.00    -0.354 N 
ATOM     58  N   UNL A   1      41.140  31.322  34.549  1.00  0.00    -0.248 NA
ATOM     59  C   UNL A   1      41.785  32.070  36.665  1.00  0.00     0.031 C 
ATOM     60  C   UNL A   1      42.925  27.822  32.487  1.00  0.00     0.029 A 
ATOM     61  C   UNL A   1      42.376  28.901  33.158  1.00  0.00     0.049 A 
ATOM     62  H   UNL A   1      40.772  30.149  32.588  1.00  0.00     0.167 HD
ATOM     63  C   UNL A   1      42.176  30.525  35.019  1.00  0.00     0.074 A 
ATOM     64  C   UNL A   1      42.560  31.055  36.310  1.00  0.00     0.031 C 
ATOM     65  C   UNL A   1      42.756  29.449  34.436  1.00  0.00     0.037 A 
BRANCH  52  66
ATOM     66  C   UNL A   1      40.310  27.921  28.975  1.00  0.00     0.057 A 
ATOM     67  C   UNL A   1      41.080  28.211  27.841  1.00  0.00     0.134 A 
ATOM     68  C   UNL A   1      39.607  26.709  28.986  1.00  0.00     0.134 A 
ATOM     69  F   UNL A   1      41.770  29.359  27.763  1.00  0.00    -0.206 F 
ATOM     70  C   UNL A   1      41.134  27.339  26.752  1.00  0.00     0.040 A 
ATOM     71  C   UNL A   1      39.676  25.816  27.915  1.00  0.00     0.040 A 
ATOM     72  F   UNL A   1      38.857  26.365  30.043  1.00  0.00    -0.206 F 
ATOM     73  C   UNL A   1      40.437  26.133  26.791  1.00  0.00     0.006 A 
ENDBRANCH  52  66
BRANCH  53  74
ATOM     74  C   UNL A   1      39.846  34.255  36.676  1.00  0.00     0.057 A 
ATOM     75  C   UNL A   1      39.056  33.929  37.785  1.00  0.00     0.134 A 
ATOM     76  C   UNL A   1      40.512  35.487  36.703  1.00  0.00     0.134 A 
ATOM     77  F   UNL A   1      38.377  32.773  37.812  1.00  0.00    -0.206 F 
ATOM     78  C   UNL A   1      38.905  34.806  38.860  1.00  0.00     0.040 A 
ATOM     79  C   UNL A   1      40.396  36.360  37.786  1.00  0.00     0.040 A 
ATOM     80  F   UNL A   1      41.293  35.859  35.677  1.00  0.00    -0.206 F 
ATOM     81  C   UNL A   1      39.579  36.025  38.863  1.00  0.00     0.006 A 
ENDBRANCH  53  74
BRANCH  65  82
ATOM     82  C   UNL A   1      43.889  28.792  35.170  1.00  0.00     0.057 A 
ATOM     83  C   UNL A   1      43.681  27.715  36.041  1.00  0.00     0.134 A 
ATOM     84  C   UNL A   1      45.211  29.210  34.963  1.00  0.00     0.134 A 
ATOM     85  F   UNL A   1      42.438  27.274  36.293  1.00  0.00    -0.206 F 
ATOM     86  C   UNL A   1      44.743  27.090  36.695  1.00  0.00     0.040 A 
ATOM     87  C   UNL A   1      46.284  28.574  35.589  1.00  0.00     0.040 A 
ATOM     88  F   UNL A   1      45.480  30.230  34.135  1.00  0.00    -0.206 F 
ATOM     89  C   UNL A   1      46.051  27.514  36.462  1.00  0.00     0.006 A 
ENDBRANCH  65  82
ENDBRANCH  39  40
ENDBRANCH  31  34
ENDBRANCH  29  30
ENDBRANCH  28  29
ENDBRANCH   1  28
TORSDOF 14
ENDMDL
MODEL 2
REMARK VINA RESULT:     -13.0      2.514      7.753
REMARK SMILES Cc1ccc(-c2cc(C(=O)NCCCCCCNC(=O)c3ccc(-c4c5nc(c(-c6c(F)cccc6F)c6ccc([nH]6)c(-c6c(F)cccc6F)c6nc(c(-c7c(F)cccc7F)c7ccc4[nH]7)C=C6)C=C5)cc3)c3cc(C)ccc3n2)c(C)c1
REMARK SMILES IDX 15 1 14 2 13 3 12 4 11 5 9 6 10 7 8 9 6 10 7 11 82 12 81 13
REMARK SMILES IDX 75 14 80 15 76 16 79 17 77 18 78 19 5 20 1 21 2 22 3 23
REMARK SMILES IDX 85 24 4 25 83 26 84 27 16 28 17 29 18 30 19 31 20 33 21 34
REMARK SMILES IDX 22 35 74 36 23 37 73 38 24 39 25 40 26 41 67 42 27 43 72 44
REMARK SMILES IDX 66 45 68 46 28 47 71 48 65 49 64 50 29 52 55 53 38 54 54 55
REMARK SMILES IDX 39 56 42 57 53 58 69 59 40 60 41 61 52 63 70 64 43 65 30 66
REMARK SMILES IDX 31 67 36 68 32 69 33 70 35 71 37 72 34 73 56 74 57 75 62 76
REMARK SMILES IDX 58 77 59 78 61 79 63 80 60 81 44 82 45 83 50 84 46 85 47 86
REMARK SMILES IDX 49 87 51 88 48 89
REMARK H PARENT 11 8 18 32 68 51 42 62
REMARK Flexibility Score: inf
ROOT
ATOM      1  C   UNL A   1      35.745  23.077  25.733  1.00  0.00     0.002 C 
ENDROOT
BRANCH   1   2
ATOM      2  C   UNL A   1      35.124  21.742  25.303  1.00  0.00     0.002 C 
BRANCH   2   3
ATOM      3  C   UNL A   1      34.089  21.093  26.227  1.00  0.00     0.021 C 
BRANCH   3   4
ATOM      4  C   UNL A   1      33.754  21.831  27.514  1.00  0.00     0.116 C 
BRANCH   4   5
ATOM      5  N   UNL A   1      32.371  22.208  27.725  1.00  0.00    -0.352 N 
ATOM      6  C   UNL A   1      31.581  23.130  27.062  1.00  0.00     0.252 C 
ATOM      7  O   UNL A   1      30.392  23.193  27.375  1.00  0.00    -0.269 OA
ATOM      8  H   UNL A   1      31.921  21.731  28.459  1.00  0.00     0.163 HD
BRANCH   6   9
ATOM      9  C   UNL A   1      32.109  24.127  26.073  1.00  0.00     0.051 A 
ATOM     10  C   UNL A   1      33.065  26.311  25.795  1.00  0.00     0.072 A 
ATOM     11  C   UNL A   1      32.454  25.374  26.613  1.00  0.00     0.043 A 
ATOM     12  N   UNL A   1      33.460  26.014  24.538  1.00  0.00    -0.248 NA
ATOM     13  C   UNL A   1      33.107  24.837  24.008  1.00  0.00     0.072 A 
ATOM     14  C   UNL A   1      32.311  23.903  24.691  1.00  0.00     0.013 A 
ATOM     15  C   UNL A   1      33.557  24.530  22.731  1.00  0.00     0.029 A 
ATOM     16  C   UNL A   1      31.792  22.819  23.950  1.00  0.00     0.014 A 
ATOM     17  C   UNL A   1      33.224  23.331  22.102  1.00  0.00     0.005 A 
ATOM     18  C   UNL A   1      32.314  22.469  22.702  1.00  0.00    -0.050 A 
ATOM     19  C   UNL A   1      32.019  21.121  22.116  1.00  0.00     0.044 C 
BRANCH  10  20
ATOM     20  C   UNL A   1      33.259  27.711  26.199  1.00  0.00     0.003 A 
ATOM     21  C   UNL A   1      33.910  31.837  27.372  1.00  0.00     0.044 C 
ATOM     22  C   UNL A   1      33.696  30.405  26.979  1.00  0.00    -0.051 A 
ATOM     23  C   UNL A   1      34.592  29.404  27.359  1.00  0.00     0.004 A 
ATOM     24  C   UNL A   1      32.580  30.057  26.213  1.00  0.00     0.007 A 
ATOM     25  C   UNL A   1      34.377  28.076  26.973  1.00  0.00     0.011 A 
ATOM     26  C   UNL A   1      32.343  28.725  25.827  1.00  0.00    -0.041 A 
ATOM     27  C   UNL A   1      31.115  28.456  24.995  1.00  0.00     0.045 C 
ENDBRANCH  10  20
ENDBRANCH   6   9
ENDBRANCH   4   5
ENDBRANCH   3   4
ENDBRANCH   2   3
ENDBRANCH   1   2
BRANCH   1  28
ATOM     28  C   UNL A   1      37.174  23.382  25.277  1.00  0.00     0.021 C 
BRANCH  28  29
ATOM     29  C   UNL A   1      38.071  24.108  26.272  1.00  0.00     0.116 C 
BRANCH  29  30
ATOM     30  N   UNL A   1      39.486  23.895  26.025  1.00  0.00    -0.352 N 
ATOM     31  C   UNL A   1      40.574  24.612  26.457  1.00  0.00     0.251 C 
ATOM     32  H   UNL A   1      39.699  23.115  25.463  1.00  0.00     0.163 HD
ATOM     33  O   UNL A   1      41.694  24.341  26.027  1.00  0.00    -0.269 OA
BRANCH  31  34
ATOM     34  C   UNL A   1      40.411  25.733  27.411  1.00  0.00     0.039 A 
ATOM     35  C   UNL A   1      39.568  25.558  28.513  1.00  0.00     0.014 A 
ATOM     36  C   UNL A   1      41.068  26.951  27.222  1.00  0.00     0.014 A 
ATOM     37  C   UNL A   1      39.442  26.575  29.462  1.00  0.00     0.010 A 
ATOM     38  C   UNL A   1      40.995  27.939  28.205  1.00  0.00     0.010 A 
ATOM     39  C   UNL A   1      40.189  27.758  29.340  1.00  0.00    -0.014 A 
BRANCH  39  40
ATOM     40  C   UNL A   1      40.155  28.804  30.395  1.00  0.00     0.031 A 
ATOM     41  C   UNL A   1      41.053  28.702  31.599  1.00  0.00     0.074 A 
ATOM     42  C   UNL A   1      39.269  29.816  30.302  1.00  0.00     0.049 A 
ATOM     43  N   UNL A   1      41.096  29.460  32.665  1.00  0.00    -0.248 NA
ATOM     44  C   UNL A   1      42.017  27.590  31.613  1.00  0.00     0.031 C 
ATOM     45  C   UNL A   1      38.321  30.011  29.203  1.00  0.00     0.029 A 
ATOM     46  N   UNL A   1      39.008  30.862  31.153  1.00  0.00    -0.354 N 
ATOM     47  C   UNL A   1      42.088  28.921  33.473  1.00  0.00     0.074 A 
ATOM     48  C   UNL A   1      42.581  27.736  32.803  1.00  0.00     0.031 C 
ATOM     49  C   UNL A   1      37.591  31.112  29.442  1.00  0.00     0.029 A 
ATOM     50  C   UNL A   1      37.983  31.675  30.729  1.00  0.00     0.049 A 
ATOM     51  H   UNL A   1      39.508  31.017  31.986  1.00  0.00     0.167 HD
ATOM     52  C   UNL A   1      42.565  29.384  34.653  1.00  0.00     0.037 A 
ATOM     53  C   UNL A   1      37.408  32.740  31.322  1.00  0.00     0.037 A 
ATOM     54  C   UNL A   1      42.078  30.565  35.317  1.00  0.00     0.049 A 
ATOM     55  C   UNL A   1      37.921  33.200  32.660  1.00  0.00     0.074 A 
ATOM     56  C   UNL A   1      42.515  31.129  36.504  1.00  0.00     0.029 A 
ATOM     57  N   UNL A   1      41.044  31.363  34.853  1.00  0.00    -0.354 N 
ATOM     58  N   UNL A   1      38.897  32.711  33.385  1.00  0.00    -0.248 NA
ATOM     59  C   UNL A   1      37.254  34.365  33.261  1.00  0.00     0.031 C 
ATOM     60  C   UNL A   1      41.713  32.241  36.781  1.00  0.00     0.029 A 
ATOM     61  C   UNL A   1      40.814  32.401  35.741  1.00  0.00     0.049 A 
ATOM     62  H   UNL A   1      40.547  31.215  34.016  1.00  0.00     0.167 HD
ATOM     63  C   UNL A   1      38.978  33.522  34.510  1.00  0.00     0.074 A 
ATOM     64  C   UNL A   1      37.967  34.546  34.363  1.00  0.00     0.031 C 
ATOM     65  C   UNL A   1      39.812  33.424  35.573  1.00  0.00     0.037 A 
BRANCH  52  66
ATOM     66  C   UNL A   1      43.685  28.621  35.300  1.00  0.00     0.057 A 
ATOM     67  C   UNL A   1      43.437  27.594  36.220  1.00  0.00     0.134 A 
ATOM     68  C   UNL A   1      45.020  28.873  34.958  1.00  0.00     0.134 A 
ATOM     69  F   UNL A   1      42.182  27.307  36.597  1.00  0.00    -0.206 F 
ATOM     70  C   UNL A   1      44.477  26.859  36.793  1.00  0.00     0.040 A 
ATOM     71  C   UNL A   1      46.067  28.126  35.503  1.00  0.00     0.040 A 
ATOM     72  F   UNL A   1      45.329  29.837  34.077  1.00  0.00    -0.206 F 
ATOM     73  C   UNL A   1      45.796  27.119  36.427  1.00  0.00     0.006 A 
ENDBRANCH  52  66
BRANCH  53  74
ATOM     74  C   UNL A   1      36.270  33.439  30.670  1.00  0.00     0.057 A 
ATOM     75  C   UNL A   1      34.958  33.282  31.134  1.00  0.00     0.134 A 
ATOM     76  C   UNL A   1      36.459  34.247  29.542  1.00  0.00     0.134 A 
ATOM     77  F   UNL A   1      34.707  32.505  32.198  1.00  0.00    -0.206 F 
ATOM     78  C   UNL A   1      33.874  33.872  30.481  1.00  0.00     0.040 A 
ATOM     79  C   UNL A   1      35.388  34.870  28.898  1.00  0.00     0.040 A 
ATOM     80  F   UNL A   1      37.691  34.448  29.050  1.00  0.00    -0.206 F 
ATOM     81  C   UNL A   1      34.089  34.671  29.361  1.00  0.00     0.006 A 
ENDBRANCH  53  74
BRANCH  65  82
ATOM     82  C   UNL A   1      39.694  34.469  36.644  1.00  0.00     0.057 A 
ATOM     83  C   UNL A   1      38.935  34.260  37.802  1.00  0.00     0.134 A 
ATOM     84  C   UNL A   1      40.389  35.682  36.537  1.00  0.00     0.134 A 
ATOM     85  F   UNL A   1      38.234  33.126  37.960  1.00  0.00    -0.206 F 
ATOM     86  C   UNL A   1      38.855  35.226  38.806  1.00  0.00     0.040 A 
ATOM     87  C   UNL A   1      40.340  36.643  37.547  1.00  0.00     0.040 A 
ATOM     88  F   UNL A   1      41.141  35.942  35.457  1.00  0.00    -0.206 F 
ATOM     89  C   UNL A   1      39.567  36.418  38.684  1.00  0.00     0.006 A 
ENDBRANCH  65  82
ENDBRANCH  39  40
ENDBRANCH  31  34
ENDBRANCH  29  30
ENDBRANCH  28  29
ENDBRANCH   1  28
TORSDOF 14
ENDMDL
MODEL 3
REMARK VINA RESULT:     -12.9      3.035      7.798
REMARK SMILES Cc1ccc(-c2cc(C(=O)NCCCCCCNC(=O)c3ccc(-c4c5nc(c(-c6c(F)cccc6F)c6ccc([nH]6)c(-c6c(F)cccc6F)c6nc(c(-c7c(F)cccc7F)c7ccc4[nH]7)C=C6)C=C5)cc3)c3cc(C)ccc3n2)c(C)c1
REMARK SMILES IDX 15 1 14 2 13 3 12 4 11 5 9 6 10 7 8 9 6 10 7 11 82 12 81 13
REMARK SMILES IDX 75 14 80 15 76 16 79 17 77 18 78 19 5 20 1 21 2 22 3 23
REMARK SMILES IDX 85 24 4 25 83 26 84 27 16 28 17 29 18 30 19 31 20 33 21 34
REMARK SMILES IDX 22 35 74 36 23 37 73 38 24 39 25 40 26 41 67 42 27 43 72 44
REMARK SMILES IDX 66 45 68 46 28 47 71 48 65 49 64 50 29 52 55 53 38 54 54 55
REMARK SMILES IDX 39 56 42 57 53 58 69 59 40 60 41 61 52 63 70 64 43 65 30 66
REMARK SMILES IDX 31 67 36 68 32 69 33 70 35 71 37 72 34 73 56 74 57 75 62 76
REMARK SMILES IDX 58 77 59 78 61 79 63 80 60 81 44 82 45 83 50 84 46 85 47 86
REMARK SMILES IDX 49 87 51 88 48 89
REMARK H PARENT 11 8 18 32 68 51 42 62
REMARK Flexibility Score: inf
ROOT
ATOM      1  C   UNL A   1      35.511  22.030  24.222  1.00  0.00     0.002 C 
ENDROOT
BRANCH   1   2
ATOM      2  C   UNL A   1      35.395  21.153  25.475  1.00  0.00     0.002 C 
BRANCH   2   3
ATOM      3  C   UNL A   1      34.029  21.040  26.158  1.00  0.00     0.021 C 
BRANCH   3   4
ATOM      4  C   UNL A   1      33.767  21.972  27.333  1.00  0.00     0.116 C 
BRANCH   4   5
ATOM      5  N   UNL A   1      32.385  22.244  27.671  1.00  0.00    -0.352 N 
ATOM      6  C   UNL A   1      31.466  23.091  27.077  1.00  0.00     0.252 C 
ATOM      7  O   UNL A   1      30.310  23.066  27.501  1.00  0.00    -0.269 OA
ATOM      8  H   UNL A   1      32.044  21.746  28.448  1.00  0.00     0.163 HD
BRANCH   6   9
ATOM      9  C   UNL A   1      31.818  24.108  26.032  1.00  0.00     0.051 A 
ATOM     10  C   UNL A   1      32.424  26.397  25.636  1.00  0.00     0.072 A 
ATOM     11  C   UNL A   1      31.978  25.417  26.508  1.00  0.00     0.043 A 
ATOM     12  N   UNL A   1      32.839  26.104  24.384  1.00  0.00    -0.248 NA
ATOM     13  C   UNL A   1      32.661  24.863  23.915  1.00  0.00     0.072 A 
ATOM     14  C   UNL A   1      32.029  23.852  24.658  1.00  0.00     0.013 A 
ATOM     15  C   UNL A   1      33.131  24.569  22.643  1.00  0.00     0.029 A 
ATOM     16  C   UNL A   1      31.669  22.668  23.978  1.00  0.00     0.014 A 
ATOM     17  C   UNL A   1      32.974  23.304  22.074  1.00  0.00     0.005 A 
ATOM     18  C   UNL A   1      32.217  22.343  22.734  1.00  0.00    -0.050 A 
ATOM     19  C   UNL A   1      32.122  20.940  22.215  1.00  0.00     0.044 C 
BRANCH  10  20
ATOM     20  C   UNL A   1      32.409  27.828  25.973  1.00  0.00     0.003 A 
ATOM     21  C   UNL A   1      32.443  32.049  26.971  1.00  0.00     0.044 C 
ATOM     22  C   UNL A   1      32.439  30.586  26.642  1.00  0.00    -0.051 A 
ATOM     23  C   UNL A   1      33.249  29.682  27.331  1.00  0.00     0.004 A 
ATOM     24  C   UNL A   1      31.610  30.109  25.622  1.00  0.00     0.007 A 
ATOM     25  C   UNL A   1      33.235  28.322  26.999  1.00  0.00     0.011 A 
ATOM     26  C   UNL A   1      31.577  28.744  25.285  1.00  0.00    -0.041 A 
ATOM     27  C   UNL A   1      30.655  28.333  24.165  1.00  0.00     0.045 C 
ENDBRANCH  10  20
ENDBRANCH   6   9
ENDBRANCH   4   5
ENDBRANCH   3   4
ENDBRANCH   2   3
ENDBRANCH   1   2
BRANCH   1  28
ATOM     28  C   UNL A   1      36.479  23.215  24.264  1.00  0.00     0.021 C 
BRANCH  28  29
ATOM     29  C   UNL A   1      37.212  23.454  25.579  1.00  0.00     0.116 C 
BRANCH  29  30
ATOM     30  N   UNL A   1      38.448  22.699  25.688  1.00  0.00    -0.352 N 
ATOM     31  C   UNL A   1      39.664  23.069  26.205  1.00  0.00     0.251 C 
ATOM     32  H   UNL A   1      38.407  21.779  25.339  1.00  0.00     0.163 HD
ATOM     33  O   UNL A   1      40.633  22.319  26.086  1.00  0.00    -0.269 OA
BRANCH  31  34
ATOM     34  C   UNL A   1      39.835  24.377  26.877  1.00  0.00     0.039 A 
ATOM     35  C   UNL A   1      39.325  24.538  28.170  1.00  0.00     0.014 A 
ATOM     36  C   UNL A   1      40.476  25.444  26.243  1.00  0.00     0.014 A 
ATOM     37  C   UNL A   1      39.524  25.741  28.853  1.00  0.00     0.010 A 
ATOM     38  C   UNL A   1      40.733  26.619  26.950  1.00  0.00     0.010 A 
ATOM     39  C   UNL A   1      40.268  26.777  28.266  1.00  0.00    -0.014 A 
BRANCH  39  40
ATOM     40  C   UNL A   1      40.586  28.019  29.017  1.00  0.00     0.031 A 
ATOM     41  C   UNL A   1      41.904  28.163  29.729  1.00  0.00     0.074 A 
ATOM     42  C   UNL A   1      39.661  28.995  29.112  1.00  0.00     0.049 A 
ATOM     43  N   UNL A   1      42.319  29.125  30.514  1.00  0.00    -0.248 NA
ATOM     44  C   UNL A   1      42.875  27.072  29.551  1.00  0.00     0.031 C 
ATOM     45  C   UNL A   1      38.332  28.964  28.496  1.00  0.00     0.029 A 
ATOM     46  N   UNL A   1      39.688  30.197  29.777  1.00  0.00    -0.354 N 
ATOM     47  C   UNL A   1      43.596  28.759  30.918  1.00  0.00     0.074 A 
ATOM     48  C   UNL A   1      43.864  27.458  30.344  1.00  0.00     0.031 C 
ATOM     49  C   UNL A   1      37.678  30.095  28.803  1.00  0.00     0.029 A 
ATOM     50  C   UNL A   1      38.517  30.911  29.674  1.00  0.00     0.049 A 
ATOM     51  H   UNL A   1      40.472  30.517  30.278  1.00  0.00     0.167 HD
ATOM     52  C   UNL A   1      44.476  29.454  31.678  1.00  0.00     0.037 A 
ATOM     53  C   UNL A   1      38.152  32.079  30.238  1.00  0.00     0.037 A 
ATOM     54  C   UNL A   1      44.211  30.750  32.246  1.00  0.00     0.049 A 
ATOM     55  C   UNL A   1      39.130  32.803  31.123  1.00  0.00     0.074 A 
ATOM     56  C   UNL A   1      45.049  31.545  33.009  1.00  0.00     0.029 A 
ATOM     57  N   UNL A   1      43.016  31.441  32.115  1.00  0.00    -0.354 N 
ATOM     58  N   UNL A   1      40.354  32.469  31.452  1.00  0.00    -0.248 NA
ATOM     59  C   UNL A   1      38.676  34.072  31.714  1.00  0.00     0.031 C 
ATOM     60  C   UNL A   1      44.345  32.695  33.378  1.00  0.00     0.029 A 
ATOM     61  C   UNL A   1      43.088  32.642  32.801  1.00  0.00     0.049 A 
ATOM     62  H   UNL A   1      42.233  31.126  31.608  1.00  0.00     0.167 HD
ATOM     63  C   UNL A   1      40.824  33.495  32.262  1.00  0.00     0.074 A 
ATOM     64  C   UNL A   1      39.762  34.473  32.359  1.00  0.00     0.031 C 
ATOM     65  C   UNL A   1      42.026  33.614  32.876  1.00  0.00     0.037 A 
BRANCH  52  66
ATOM     66  C   UNL A   1      45.821  28.834  31.929  1.00  0.00     0.057 A 
ATOM     67  C   UNL A   1      46.903  29.057  31.067  1.00  0.00     0.134 A 
ATOM     68  C   UNL A   1      46.055  28.057  33.071  1.00  0.00     0.134 A 
ATOM     69  F   UNL A   1      46.744  29.785  29.951  1.00  0.00    -0.206 F 
ATOM     70  C   UNL A   1      48.163  28.512  31.320  1.00  0.00     0.040 A 
ATOM     71  C   UNL A   1      47.318  27.530  33.349  1.00  0.00     0.040 A 
ATOM     72  F   UNL A   1      45.066  27.811  33.943  1.00  0.00    -0.206 F 
ATOM     73  C   UNL A   1      48.375  27.754  32.469  1.00  0.00     0.006 A 
ENDBRANCH  52  66
BRANCH  53  74
ATOM     74  C   UNL A   1      36.794  32.635  30.003  1.00  0.00     0.057 A 
ATOM     75  C   UNL A   1      36.539  33.507  28.937  1.00  0.00     0.134 A 
ATOM     76  C   UNL A   1      35.727  32.343  30.862  1.00  0.00     0.134 A 
ATOM     77  F   UNL A   1      37.524  33.841  28.090  1.00  0.00    -0.206 F 
ATOM     78  C   UNL A   1      35.286  34.095  28.755  1.00  0.00     0.040 A 
ATOM     79  C   UNL A   1      34.460  32.899  30.673  1.00  0.00     0.040 A 
ATOM     80  F   UNL A   1      35.898  31.508  31.898  1.00  0.00    -0.206 F 
ATOM     81  C   UNL A   1      34.242  33.788  29.623  1.00  0.00     0.006 A 
ENDBRANCH  53  74
BRANCH  65  82
ATOM     82  C   UNL A   1      42.274  34.860  33.676  1.00  0.00     0.057 A 
ATOM     83  C   UNL A   1      41.914  34.956  35.026  1.00  0.00     0.134 A 
ATOM     84  C   UNL A   1      42.924  35.960  33.101  1.00  0.00     0.134 A 
ATOM     85  F   UNL A   1      41.276  33.943  35.634  1.00  0.00    -0.206 F 
ATOM     86  C   UNL A   1      42.176  36.106  35.771  1.00  0.00     0.040 A 
ATOM     87  C   UNL A   1      43.217  37.105  33.843  1.00  0.00     0.040 A 
ATOM     88  F   UNL A   1      43.303  35.930  31.814  1.00  0.00    -0.206 F 
ATOM     89  C   UNL A   1      42.838  37.182  35.181  1.00  0.00     0.006 A 
ENDBRANCH  65  82
ENDBRANCH  39  40
ENDBRANCH  31  34
ENDBRANCH  29  30
ENDBRANCH  28  29
ENDBRANCH   1  28
TORSDOF 14
ENDMDL
