MODEL 1
REMARK VINA RESULT:     -11.3      0.000      0.000
REMARK SMILES CC(C)CN(C)c1cc2c(cc1Cl)C=C(C(=O)NCCCCCCNC(=O)c1ccc(-c3c4nc(c(-c5c(F)cccc5F)c5ccc([nH]5)c(-c5c(F)cccc5F)c5nc(c(-c6c(F)cccc6F)c6ccc3[nH]6)C=C5)C=C4)cc1)[C@@H](C(F)(F)F)O2
REMARK SMILES IDX 21 1 20 2 19 3 18 4 16 5 17 6 15 8 7 9 8 10 12 11 9 12 11 13
REMARK SMILES IDX 13 14 10 15 87 16 14 17 82 18 5 19 6 20 4 21 2 22 1 23 3 24
REMARK SMILES IDX 83 25 84 26 85 27 86 28 22 29 23 30 24 31 25 32 26 33 27 35
REMARK SMILES IDX 28 36 29 37 81 38 30 39 80 40 31 41 32 42 33 43 74 44 34 45
REMARK SMILES IDX 79 46 73 47 75 48 35 49 78 50 72 51 71 52 36 54 62 55 45 56
REMARK SMILES IDX 61 57 46 58 49 59 60 60 76 61 47 62 48 63 59 65 77 66 50 67
REMARK SMILES IDX 37 68 38 69 43 70 39 71 40 72 42 73 44 74 41 75 63 76 64 77
REMARK SMILES IDX 69 78 65 79 66 80 68 81 70 82 67 83 51 84 52 85 57 86 53 87
REMARK SMILES IDX 54 88 56 89 58 90 55 91
REMARK H PARENT 18 7 25 34 75 53 49 64
REMARK Flexibility Score: inf
ROOT
ATOM      1  C   UNL A   1      31.187  29.906  25.105  1.00  0.00     0.002 C 
ENDROOT
BRANCH   1   2
ATOM      2  C   UNL A   1      30.458  29.957  23.760  1.00  0.00     0.021 C 
BRANCH   2   3
ATOM      3  C   UNL A   1      30.381  28.610  23.047  1.00  0.00     0.116 C 
BRANCH   3   4
ATOM      4  N   UNL A   1      29.258  27.826  23.525  1.00  0.00    -0.352 N 
ATOM      5  C   UNL A   1      29.043  26.557  23.941  1.00  0.00     0.251 C 
ATOM      6  O   UNL A   1      27.891  26.317  24.317  1.00  0.00    -0.270 OA
ATOM      7  H   UNL A   1      28.431  28.359  23.552  1.00  0.00     0.163 HD
BRANCH   5   8
ATOM      8  C   UNL A   1      30.066  25.476  23.967  1.00  0.00     0.067 C 
ATOM      9  C   UNL A   1      33.120  21.744  25.465  1.00  0.00     0.059 A 
ATOM     10  C   UNL A   1      32.381  22.007  24.301  1.00  0.00     0.074 A 
ATOM     11  C   UNL A   1      33.119  22.729  26.478  1.00  0.00     0.065 A 
ATOM     12  C   UNL A   1      31.618  23.165  24.194  1.00  0.00     0.130 A 
ATOM     13  C   UNL A   1      32.280  23.847  26.401  1.00  0.00     0.034 A 
ATOM     14  Cl  UNL A   1      34.142  22.611  27.870  1.00  0.00    -0.082 Cl
ATOM     15  C   UNL A   1      31.503  24.049  25.266  1.00  0.00     0.019 A 
ATOM     16  O   UNL A   1      30.962  23.373  23.011  1.00  0.00    -0.475 OA
ATOM     17  C   UNL A   1      30.530  25.132  25.182  1.00  0.00     0.025 C 
ATOM     18  C   UNL A   1      30.601  24.762  22.758  1.00  0.00     0.314 C 
BRANCH   9  19
ATOM     19  N   UNL A   1      33.767  20.508  25.623  1.00  0.00    -0.373 N 
ATOM     20  C   UNL A   1      35.105  20.426  25.041  1.00  0.00     0.143 C 
BRANCH  19  21
ATOM     21  C   UNL A   1      32.908  19.312  25.471  1.00  0.00     0.119 C 
BRANCH  21  22
ATOM     22  C   UNL A   1      33.511  18.260  24.515  1.00  0.00     0.002 C 
ATOM     23  C   UNL A   1      33.611  16.871  25.158  1.00  0.00     0.009 C 
ATOM     24  C   UNL A   1      32.681  18.141  23.234  1.00  0.00     0.009 C 
ENDBRANCH  21  22
ENDBRANCH  19  21
ENDBRANCH   9  19
BRANCH  18  25
ATOM     25  C   UNL A   1      31.780  25.531  22.122  1.00  0.00     0.429 C 
ATOM     26  F   UNL A   1      31.340  26.360  21.144  1.00  0.00    -0.167 F 
ATOM     27  F   UNL A   1      32.424  26.312  23.024  1.00  0.00    -0.167 F 
ATOM     28  F   UNL A   1      32.713  24.719  21.577  1.00  0.00    -0.167 F 
ENDBRANCH  18  25
ENDBRANCH   5   8
ENDBRANCH   3   4
ENDBRANCH   2   3
ENDBRANCH   1   2
BRANCH   1  29
ATOM     29  C   UNL A   1      32.252  28.808  25.232  1.00  0.00     0.002 C 
BRANCH  29  30
ATOM     30  C   UNL A   1      32.430  28.227  26.636  1.00  0.00     0.021 C 
BRANCH  30  31
ATOM     31  C   UNL A   1      33.731  28.616  27.324  1.00  0.00     0.116 C 
BRANCH  31  32
ATOM     32  N   UNL A   1      33.728  29.996  27.785  1.00  0.00    -0.352 N 
ATOM     33  C   UNL A   1      34.737  30.706  28.389  1.00  0.00     0.251 C 
ATOM     34  H   UNL A   1      32.887  30.488  27.646  1.00  0.00     0.163 HD
ATOM     35  O   UNL A   1      34.522  31.817  28.863  1.00  0.00    -0.269 OA
BRANCH  33  36
ATOM     36  C   UNL A   1      36.081  30.103  28.493  1.00  0.00     0.039 A 
ATOM     37  C   UNL A   1      36.491  29.496  29.682  1.00  0.00     0.014 A 
ATOM     38  C   UNL A   1      36.954  30.189  27.406  1.00  0.00     0.014 A 
ATOM     39  C   UNL A   1      37.822  29.133  29.843  1.00  0.00     0.010 A 
ATOM     40  C   UNL A   1      38.269  29.739  27.541  1.00  0.00     0.010 A 
ATOM     41  C   UNL A   1      38.728  29.257  28.777  1.00  0.00    -0.014 A 
BRANCH  41  42
ATOM     42  C   UNL A   1      40.151  28.888  28.986  1.00  0.00     0.031 A 
ATOM     43  C   UNL A   1      41.095  29.826  29.686  1.00  0.00     0.074 A 
ATOM     44  C   UNL A   1      40.581  27.679  28.582  1.00  0.00     0.049 A 
ATOM     45  N   UNL A   1      42.364  29.662  29.970  1.00  0.00    -0.248 NA
ATOM     46  C   UNL A   1      40.549  31.121  30.117  1.00  0.00     0.031 C 
ATOM     47  C   UNL A   1      39.760  26.680  27.893  1.00  0.00     0.029 A 
ATOM     48  N   UNL A   1      41.805  27.075  28.707  1.00  0.00    -0.354 N 
ATOM     49  C   UNL A   1      42.771  30.837  30.590  1.00  0.00     0.074 A 
ATOM     50  C   UNL A   1      41.623  31.719  30.611  1.00  0.00     0.031 C 
ATOM     51  C   UNL A   1      40.490  25.574  27.695  1.00  0.00     0.029 A 
ATOM     52  C   UNL A   1      41.844  25.806  28.185  1.00  0.00     0.049 A 
ATOM     53  H   UNL A   1      42.580  27.510  29.130  1.00  0.00     0.167 HD
ATOM     54  C   UNL A   1      43.986  31.150  31.103  1.00  0.00     0.037 A 
ATOM     55  C   UNL A   1      42.862  24.932  28.093  1.00  0.00     0.037 A 
ATOM     56  C   UNL A   1      45.123  30.265  31.089  1.00  0.00     0.049 A 
ATOM     57  C   UNL A   1      44.207  25.315  28.633  1.00  0.00     0.074 A 
ATOM     58  C   UNL A   1      46.386  30.473  31.617  1.00  0.00     0.029 A 
ATOM     59  N   UNL A   1      45.137  29.005  30.510  1.00  0.00    -0.354 N 
ATOM     60  N   UNL A   1      44.570  26.418  29.242  1.00  0.00    -0.248 NA
ATOM     61  C   UNL A   1      45.287  24.334  28.467  1.00  0.00     0.031 C 
ATOM     62  C   UNL A   1      47.177  29.358  31.312  1.00  0.00     0.029 A 
ATOM     63  C   UNL A   1      46.394  28.435  30.640  1.00  0.00     0.049 A 
ATOM     64  H   UNL A   1      44.366  28.577  30.070  1.00  0.00     0.167 HD
ATOM     65  C   UNL A   1      45.917  26.262  29.540  1.00  0.00     0.074 A 
ATOM     66  C   UNL A   1      46.299  24.946  29.066  1.00  0.00     0.031 C 
ATOM     67  C   UNL A   1      46.762  27.130  30.148  1.00  0.00     0.037 A 
BRANCH  54  68
ATOM     68  C   UNL A   1      44.147  32.524  31.691  1.00  0.00     0.057 A 
ATOM     69  C   UNL A   1      44.566  33.595  30.892  1.00  0.00     0.134 A 
ATOM     70  C   UNL A   1      43.886  32.791  33.043  1.00  0.00     0.134 A 
ATOM     71  F   UNL A   1      44.841  33.410  29.593  1.00  0.00    -0.206 F 
ATOM     72  C   UNL A   1      44.704  34.884  31.410  1.00  0.00     0.040 A 
ATOM     73  C   UNL A   1      43.995  34.082  33.566  1.00  0.00     0.040 A 
ATOM     74  F   UNL A   1      43.470  31.813  33.861  1.00  0.00    -0.206 F 
ATOM     75  C   UNL A   1      44.407  35.133  32.749  1.00  0.00     0.006 A 
ENDBRANCH  54  68
BRANCH  55  76
ATOM     76  C   UNL A   1      42.638  23.616  27.447  1.00  0.00     0.057 A 
ATOM     77  C   UNL A   1      42.730  23.463  26.058  1.00  0.00     0.134 A 
ATOM     78  C   UNL A   1      42.300  22.487  28.202  1.00  0.00     0.134 A 
ATOM     79  F   UNL A   1      43.041  24.511  25.282  1.00  0.00    -0.206 F 
ATOM     80  C   UNL A   1      42.476  22.240  25.439  1.00  0.00     0.040 A 
ATOM     81  C   UNL A   1      42.069  21.250  27.598  1.00  0.00     0.040 A 
ATOM     82  F   UNL A   1      42.213  22.568  29.537  1.00  0.00    -0.206 F 
ATOM     83  C   UNL A   1      42.149  21.127  26.211  1.00  0.00     0.006 A 
ENDBRANCH  55  76
BRANCH  67  84
ATOM     84  C   UNL A   1      48.178  26.673  30.340  1.00  0.00     0.057 A 
ATOM     85  C   UNL A   1      49.165  26.992  29.399  1.00  0.00     0.134 A 
ATOM     86  C   UNL A   1      48.565  25.912  31.450  1.00  0.00     0.134 A 
ATOM     87  F   UNL A   1      48.861  27.714  28.310  1.00  0.00    -0.206 F 
ATOM     88  C   UNL A   1      50.487  26.573  29.557  1.00  0.00     0.040 A 
ATOM     89  C   UNL A   1      49.888  25.509  31.634  1.00  0.00     0.040 A 
ATOM     90  F   UNL A   1      47.670  25.587  32.397  1.00  0.00    -0.206 F 
ATOM     91  C   UNL A   1      50.852  25.836  30.682  1.00  0.00     0.006 A 
ENDBRANCH  67  84
ENDBRANCH  41  42
ENDBRANCH  33  36
ENDBRANCH  31  32
ENDBRANCH  30  31
ENDBRANCH  29  30
ENDBRANCH   1  29
TORSDOF 17
ENDMDL
MODEL 2
REMARK VINA RESULT:     -11.2      4.058      8.985
REMARK SMILES CC(C)CN(C)c1cc2c(cc1Cl)C=C(C(=O)NCCCCCCNC(=O)c1ccc(-c3c4nc(c(-c5c(F)cccc5F)c5ccc([nH]5)c(-c5c(F)cccc5F)c5nc(c(-c6c(F)cccc6F)c6ccc3[nH]6)C=C5)C=C4)cc1)[C@@H](C(F)(F)F)O2
REMARK SMILES IDX 21 1 20 2 19 3 18 4 16 5 17 6 15 8 7 9 8 10 12 11 9 12 11 13
REMARK SMILES IDX 13 14 10 15 87 16 14 17 82 18 5 19 6 20 4 21 2 22 1 23 3 24
REMARK SMILES IDX 83 25 84 26 85 27 86 28 22 29 23 30 24 31 25 32 26 33 27 35
REMARK SMILES IDX 28 36 29 37 81 38 30 39 80 40 31 41 32 42 33 43 74 44 34 45
REMARK SMILES IDX 79 46 73 47 75 48 35 49 78 50 72 51 71 52 36 54 62 55 45 56
REMARK SMILES IDX 61 57 46 58 49 59 60 60 76 61 47 62 48 63 59 65 77 66 50 67
REMARK SMILES IDX 37 68 38 69 43 70 39 71 40 72 42 73 44 74 41 75 63 76 64 77
REMARK SMILES IDX 69 78 65 79 66 80 68 81 70 82 67 83 51 84 52 85 57 86 53 87
REMARK SMILES IDX 54 88 56 89 58 90 55 91
REMARK H PARENT 18 7 25 34 75 53 49 64
REMARK Flexibility Score: inf
ROOT
ATOM      1  C   UNL A   1      37.031  22.217  24.973  1.00  0.00     0.002 C 
ENDROOT
BRANCH   1   2
ATOM      2  C   UNL A   1      36.311  21.136  25.785  1.00  0.00     0.021 C 
BRANCH   2   3
ATOM      3  C   UNL A   1      35.842  19.947  24.952  1.00  0.00     0.116 C 
BRANCH   3   4
ATOM      4  N   UNL A   1      34.416  19.727  25.105  1.00  0.00    -0.352 N 
ATOM      5  C   UNL A   1      33.285  20.461  24.998  1.00  0.00     0.251 C 
ATOM      6  O   UNL A   1      32.235  19.834  25.178  1.00  0.00    -0.270 OA
ATOM      7  H   UNL A   1      34.219  18.795  25.353  1.00  0.00     0.163 HD
BRANCH   5   8
ATOM      8  C   UNL A   1      33.230  21.917  24.696  1.00  0.00     0.067 C 
ATOM      9  C   UNL A   1      32.979  26.941  25.140  1.00  0.00     0.059 A 
ATOM     10  C   UNL A   1      33.674  26.058  24.300  1.00  0.00     0.074 A 
ATOM     11  C   UNL A   1      32.065  26.384  26.063  1.00  0.00     0.065 A 
ATOM     12  C   UNL A   1      33.517  24.682  24.433  1.00  0.00     0.130 A 
ATOM     13  C   UNL A   1      31.980  24.999  26.252  1.00  0.00     0.034 A 
ATOM     14  Cl  UNL A   1      31.009  27.371  27.015  1.00  0.00    -0.082 Cl
ATOM     15  C   UNL A   1      32.733  24.146  25.453  1.00  0.00     0.019 A 
ATOM     16  O   UNL A   1      34.194  23.889  23.547  1.00  0.00    -0.475 OA
ATOM     17  C   UNL A   1      32.768  22.707  25.683  1.00  0.00     0.025 C 
ATOM     18  C   UNL A   1      33.643  22.548  23.396  1.00  0.00     0.314 C 
BRANCH   9  19
ATOM     19  N   UNL A   1      33.253  28.317  25.098  1.00  0.00    -0.373 N 
ATOM     20  C   UNL A   1      33.184  28.926  23.771  1.00  0.00     0.143 C 
BRANCH  19  21
ATOM     21  C   UNL A   1      34.352  28.778  25.977  1.00  0.00     0.119 C 
BRANCH  21  22
ATOM     22  C   UNL A   1      33.853  29.639  27.157  1.00  0.00     0.002 C 
ATOM     23  C   UNL A   1      34.914  30.631  27.650  1.00  0.00     0.009 C 
ATOM     24  C   UNL A   1      32.597  30.424  26.772  1.00  0.00     0.009 C 
ENDBRANCH  21  22
ENDBRANCH  19  21
ENDBRANCH   9  19
BRANCH  18  25
ATOM     25  C   UNL A   1      32.490  22.537  22.369  1.00  0.00     0.429 C 
ATOM     26  F   UNL A   1      31.331  22.941  22.945  1.00  0.00    -0.167 F 
ATOM     27  F   UNL A   1      32.719  23.388  21.338  1.00  0.00    -0.167 F 
ATOM     28  F   UNL A   1      32.272  21.320  21.826  1.00  0.00    -0.167 F 
ENDBRANCH  18  25
ENDBRANCH   5   8
ENDBRANCH   3   4
ENDBRANCH   2   3
ENDBRANCH   1   2
BRANCH   1  29
ATOM     29  C   UNL A   1      36.871  23.649  25.502  1.00  0.00     0.002 C 
BRANCH  29  30
ATOM     30  C   UNL A   1      38.167  24.336  25.933  1.00  0.00     0.021 C 
BRANCH  30  31
ATOM     31  C   UNL A   1      39.108  23.462  26.751  1.00  0.00     0.116 C 
BRANCH  31  32
ATOM     32  N   UNL A   1      40.487  23.549  26.297  1.00  0.00    -0.352 N 
ATOM     33  C   UNL A   1      41.403  24.551  26.507  1.00  0.00     0.251 C 
ATOM     34  H   UNL A   1      40.808  22.785  25.766  1.00  0.00     0.163 HD
ATOM     35  O   UNL A   1      42.480  24.546  25.920  1.00  0.00    -0.269 OA
BRANCH  33  36
ATOM     36  C   UNL A   1      41.063  25.658  27.423  1.00  0.00     0.039 A 
ATOM     37  C   UNL A   1      41.667  26.908  27.274  1.00  0.00     0.014 A 
ATOM     38  C   UNL A   1      40.167  25.426  28.470  1.00  0.00     0.014 A 
ATOM     39  C   UNL A   1      41.512  27.868  28.265  1.00  0.00     0.010 A 
ATOM     40  C   UNL A   1      39.942  26.426  29.418  1.00  0.00     0.010 A 
ATOM     41  C   UNL A   1      40.653  27.636  29.353  1.00  0.00    -0.014 A 
BRANCH  41  42
ATOM     42  C   UNL A   1      40.527  28.668  30.413  1.00  0.00     0.031 A 
ATOM     43  C   UNL A   1      39.457  29.721  30.341  1.00  0.00     0.074 A 
ATOM     44  C   UNL A   1      41.358  28.623  31.471  1.00  0.00     0.049 A 
ATOM     45  N   UNL A   1      39.190  30.687  31.185  1.00  0.00    -0.248 NA
ATOM     46  C   UNL A   1      38.575  29.694  29.166  1.00  0.00     0.031 C 
ATOM     47  C   UNL A   1      42.435  27.649  31.657  1.00  0.00     0.029 A 
ATOM     48  N   UNL A   1      41.415  29.402  32.598  1.00  0.00    -0.354 N 
ATOM     49  C   UNL A   1      38.128  31.393  30.633  1.00  0.00     0.074 A 
ATOM     50  C   UNL A   1      37.821  30.765  29.365  1.00  0.00     0.031 C 
ATOM     51  C   UNL A   1      43.019  27.861  32.844  1.00  0.00     0.029 A 
ATOM     52  C   UNL A   1      42.399  29.020  33.476  1.00  0.00     0.049 A 
ATOM     53  H   UNL A   1      40.809  30.160  32.761  1.00  0.00     0.167 HD
ATOM     54  C   UNL A   1      37.464  32.461  31.138  1.00  0.00     0.037 A 
ATOM     55  C   UNL A   1      42.776  29.556  34.651  1.00  0.00     0.037 A 
ATOM     56  C   UNL A   1      37.765  33.077  32.406  1.00  0.00     0.049 A 
ATOM     57  C   UNL A   1      42.050  30.761  35.172  1.00  0.00     0.074 A 
ATOM     58  C   UNL A   1      37.127  34.138  33.025  1.00  0.00     0.029 A 
ATOM     59  N   UNL A   1      38.800  32.692  33.245  1.00  0.00    -0.354 N 
ATOM     60  N   UNL A   1      41.030  31.400  34.654  1.00  0.00    -0.248 NA
ATOM     61  C   UNL A   1      42.533  31.322  36.440  1.00  0.00     0.031 C 
ATOM     62  C   UNL A   1      37.807  34.425  34.215  1.00  0.00     0.029 A 
ATOM     63  C   UNL A   1      38.838  33.511  34.362  1.00  0.00     0.049 A 
ATOM     64  H   UNL A   1      39.419  31.944  33.073  1.00  0.00     0.167 HD
ATOM     65  C   UNL A   1      40.743  32.435  35.533  1.00  0.00     0.074 A 
ATOM     66  C   UNL A   1      41.682  32.320  36.632  1.00  0.00     0.031 C 
ATOM     67  C   UNL A   1      39.790  33.394  35.439  1.00  0.00     0.037 A 
BRANCH  54  68
ATOM     68  C   UNL A   1      36.365  33.046  30.296  1.00  0.00     0.057 A 
ATOM     69  C   UNL A   1      35.022  32.808  30.613  1.00  0.00     0.134 A 
ATOM     70  C   UNL A   1      36.630  33.846  29.176  1.00  0.00     0.134 A 
ATOM     71  F   UNL A   1      34.695  32.045  31.666  1.00  0.00    -0.206 F 
ATOM     72  C   UNL A   1      33.984  33.357  29.858  1.00  0.00     0.040 A 
ATOM     73  C   UNL A   1      35.600  34.423  28.429  1.00  0.00     0.040 A 
ATOM     74  F   UNL A   1      37.894  34.124  28.823  1.00  0.00    -0.206 F 
ATOM     75  C   UNL A   1      34.271  34.177  28.769  1.00  0.00     0.006 A 
ENDBRANCH  54  68
BRANCH  55  76
ATOM     76  C   UNL A   1      43.907  28.956  35.398  1.00  0.00     0.057 A 
ATOM     77  C   UNL A   1      43.690  27.998  36.397  1.00  0.00     0.134 A 
ATOM     78  C   UNL A   1      45.228  29.345  35.150  1.00  0.00     0.134 A 
ATOM     79  F   UNL A   1      42.446  27.592  36.687  1.00  0.00    -0.206 F 
ATOM     80  C   UNL A   1      44.744  27.462  37.136  1.00  0.00     0.040 A 
ATOM     81  C   UNL A   1      46.295  28.797  35.864  1.00  0.00     0.040 A 
ATOM     82  F   UNL A   1      45.498  30.246  34.194  1.00  0.00    -0.206 F 
ATOM     83  C   UNL A   1      46.053  27.859  36.866  1.00  0.00     0.006 A 
ENDBRANCH  55  76
BRANCH  67  84
ATOM     84  C   UNL A   1      39.716  34.386  36.563  1.00  0.00     0.057 A 
ATOM     85  C   UNL A   1      38.994  34.094  37.727  1.00  0.00     0.134 A 
ATOM     86  C   UNL A   1      40.354  35.631  36.492  1.00  0.00     0.134 A 
ATOM     87  F   UNL A   1      38.356  32.921  37.857  1.00  0.00    -0.206 F 
ATOM     88  C   UNL A   1      38.911  35.005  38.781  1.00  0.00     0.040 A 
ATOM     89  C   UNL A   1      40.301  36.539  37.550  1.00  0.00     0.040 A 
ATOM     90  F   UNL A   1      41.077  35.964  35.411  1.00  0.00    -0.206 F 
ATOM     91  C   UNL A   1      39.573  36.229  38.697  1.00  0.00     0.006 A 
ENDBRANCH  67  84
ENDBRANCH  41  42
ENDBRANCH  33  36
ENDBRANCH  31  32
ENDBRANCH  30  31
ENDBRANCH  29  30
ENDBRANCH   1  29
TORSDOF 17
ENDMDL
MODEL 3
REMARK VINA RESULT:     -11.2      0.631      5.986
REMARK SMILES CC(C)CN(C)c1cc2c(cc1Cl)C=C(C(=O)NCCCCCCNC(=O)c1ccc(-c3c4nc(c(-c5c(F)cccc5F)c5ccc([nH]5)c(-c5c(F)cccc5F)c5nc(c(-c6c(F)cccc6F)c6ccc3[nH]6)C=C5)C=C4)cc1)[C@@H](C(F)(F)F)O2
REMARK SMILES IDX 21 1 20 2 19 3 18 4 16 5 17 6 15 8 7 9 8 10 12 11 9 12 11 13
REMARK SMILES IDX 13 14 10 15 87 16 14 17 82 18 5 19 6 20 4 21 2 22 1 23 3 24
REMARK SMILES IDX 83 25 84 26 85 27 86 28 22 29 23 30 24 31 25 32 26 33 27 35
REMARK SMILES IDX 28 36 29 37 81 38 30 39 80 40 31 41 32 42 33 43 74 44 34 45
REMARK SMILES IDX 79 46 73 47 75 48 35 49 78 50 72 51 71 52 36 54 62 55 45 56
REMARK SMILES IDX 61 57 46 58 49 59 60 60 76 61 47 62 48 63 59 65 77 66 50 67
REMARK SMILES IDX 37 68 38 69 43 70 39 71 40 72 42 73 44 74 41 75 63 76 64 77
REMARK SMILES IDX 69 78 65 79 66 80 68 81 70 82 67 83 51 84 52 85 57 86 53 87
REMARK SMILES IDX 54 88 56 89 58 90 55 91
REMARK H PARENT 18 7 25 34 75 53 49 64
REMARK Flexibility Score: inf
ROOT
ATOM      1  C   UNL A   1      31.608  30.249  25.305  1.00  0.00     0.002 C 
ENDROOT
BRANCH   1   2
ATOM      2  C   UNL A   1      30.507  30.068  24.256  1.00  0.00     0.021 C 
BRANCH   2   3
ATOM      3  C   UNL A   1      30.617  28.769  23.462  1.00  0.00     0.116 C 
BRANCH   3   4
ATOM      4  N   UNL A   1      29.452  27.929  23.663  1.00  0.00    -0.352 N 
ATOM      5  C   UNL A   1      29.203  26.619  23.885  1.00  0.00     0.251 C 
ATOM      6  O   UNL A   1      28.013  26.331  24.048  1.00  0.00    -0.270 OA
ATOM      7  H   UNL A   1      28.619  28.454  23.629  1.00  0.00     0.163 HD
BRANCH   5   8
ATOM      8  C   UNL A   1      30.233  25.545  23.935  1.00  0.00     0.067 C 
ATOM      9  C   UNL A   1      33.207  21.766  25.475  1.00  0.00     0.059 A 
ATOM     10  C   UNL A   1      32.554  22.081  24.273  1.00  0.00     0.074 A 
ATOM     11  C   UNL A   1      33.120  22.700  26.532  1.00  0.00     0.065 A 
ATOM     12  C   UNL A   1      31.789  23.237  24.166  1.00  0.00     0.130 A 
ATOM     13  C   UNL A   1      32.277  23.814  26.446  1.00  0.00     0.034 A 
ATOM     14  Cl  UNL A   1      34.037  22.521  27.989  1.00  0.00    -0.082 Cl
ATOM     15  C   UNL A   1      31.584  24.067  25.268  1.00  0.00     0.019 A 
ATOM     16  O   UNL A   1      31.220  23.497  22.948  1.00  0.00    -0.475 OA
ATOM     17  C   UNL A   1      30.609  25.145  25.163  1.00  0.00     0.025 C 
ATOM     18  C   UNL A   1      30.865  24.895  22.736  1.00  0.00     0.314 C 
BRANCH   9  19
ATOM     19  N   UNL A   1      33.854  20.528  25.622  1.00  0.00    -0.373 N 
ATOM     20  C   UNL A   1      35.220  20.474  25.105  1.00  0.00     0.143 C 
BRANCH  19  21
ATOM     21  C   UNL A   1      33.012  19.334  25.383  1.00  0.00     0.119 C 
BRANCH  21  22
ATOM     22  C   UNL A   1      33.534  18.455  24.226  1.00  0.00     0.002 C 
ATOM     23  C   UNL A   1      33.845  17.021  24.672  1.00  0.00     0.009 C 
ATOM     24  C   UNL A   1      32.520  18.397  23.080  1.00  0.00     0.009 C 
ENDBRANCH  21  22
ENDBRANCH  19  21
ENDBRANCH   9  19
BRANCH  18  25
ATOM     25  C   UNL A   1      32.079  25.702  22.229  1.00  0.00     0.429 C 
ATOM     26  F   UNL A   1      32.990  24.883  21.646  1.00  0.00    -0.167 F 
ATOM     27  F   UNL A   1      31.729  26.613  21.287  1.00  0.00    -0.167 F 
ATOM     28  F   UNL A   1      32.713  26.383  23.209  1.00  0.00    -0.167 F 
ENDBRANCH  18  25
ENDBRANCH   5   8
ENDBRANCH   3   4
ENDBRANCH   2   3
ENDBRANCH   1   2
BRANCH   1  29
ATOM     29  C   UNL A   1      32.716  29.187  25.283  1.00  0.00     0.002 C 
BRANCH  29  30
ATOM     30  C   UNL A   1      32.807  28.309  26.532  1.00  0.00     0.021 C 
BRANCH  30  31
ATOM     31  C   UNL A   1      34.025  28.574  27.407  1.00  0.00     0.116 C 
BRANCH  31  32
ATOM     32  N   UNL A   1      34.026  29.914  27.972  1.00  0.00    -0.352 N 
ATOM     33  C   UNL A   1      35.045  30.584  28.604  1.00  0.00     0.251 C 
ATOM     34  H   UNL A   1      33.179  30.409  27.891  1.00  0.00     0.163 HD
ATOM     35  O   UNL A   1      34.835  31.654  29.166  1.00  0.00    -0.269 OA
BRANCH  33  36
ATOM     36  C   UNL A   1      36.394  29.984  28.630  1.00  0.00     0.039 A 
ATOM     37  C   UNL A   1      36.854  29.331  29.776  1.00  0.00     0.014 A 
ATOM     38  C   UNL A   1      37.223  30.119  27.512  1.00  0.00     0.014 A 
ATOM     39  C   UNL A   1      38.192  28.970  29.868  1.00  0.00     0.010 A 
ATOM     40  C   UNL A   1      38.544  29.671  27.576  1.00  0.00     0.010 A 
ATOM     41  C   UNL A   1      39.054  29.141  28.773  1.00  0.00    -0.014 A 
BRANCH  41  42
ATOM     42  C   UNL A   1      40.486  28.773  28.909  1.00  0.00     0.031 A 
ATOM     43  C   UNL A   1      40.982  27.428  28.456  1.00  0.00     0.074 A 
ATOM     44  C   UNL A   1      41.351  29.677  29.404  1.00  0.00     0.049 A 
ATOM     45  N   UNL A   1      42.199  26.944  28.483  1.00  0.00    -0.248 NA
ATOM     46  C   UNL A   1      39.982  26.500  27.907  1.00  0.00     0.031 C 
ATOM     47  C   UNL A   1      40.991  31.016  29.876  1.00  0.00     0.029 A 
ATOM     48  N   UNL A   1      42.709  29.617  29.574  1.00  0.00    -0.354 N 
ATOM     49  C   UNL A   1      42.107  25.652  27.979  1.00  0.00     0.074 A 
ATOM     50  C   UNL A   1      40.710  25.416  27.685  1.00  0.00     0.031 C 
ATOM     51  C   UNL A   1      42.105  31.665  30.243  1.00  0.00     0.029 A 
ATOM     52  C   UNL A   1      43.246  30.771  30.090  1.00  0.00     0.049 A 
ATOM     53  H   UNL A   1      43.246  28.824  29.349  1.00  0.00     0.167 HD
ATOM     54  C   UNL A   1      43.096  24.749  27.771  1.00  0.00     0.037 A 
ATOM     55  C   UNL A   1      44.515  31.069  30.422  1.00  0.00     0.037 A 
ATOM     56  C   UNL A   1      44.488  24.992  28.055  1.00  0.00     0.049 A 
ATOM     57  C   UNL A   1      45.587  30.041  30.219  1.00  0.00     0.074 A 
ATOM     58  C   UNL A   1      45.572  24.157  27.844  1.00  0.00     0.029 A 
ATOM     59  N   UNL A   1      44.988  26.157  28.620  1.00  0.00    -0.354 N 
ATOM     60  N   UNL A   1      45.490  28.835  29.714  1.00  0.00    -0.248 NA
ATOM     61  C   UNL A   1      46.944  30.413  30.637  1.00  0.00     0.031 C 
ATOM     62  C   UNL A   1      46.720  24.798  28.328  1.00  0.00     0.029 A 
ATOM     63  C   UNL A   1      46.358  26.051  28.794  1.00  0.00     0.049 A 
ATOM     64  H   UNL A   1      44.447  26.943  28.863  1.00  0.00     0.167 HD
ATOM     65  C   UNL A   1      46.773  28.305  29.747  1.00  0.00     0.074 A 
ATOM     66  C   UNL A   1      47.634  29.333  30.297  1.00  0.00     0.031 C 
ATOM     67  C   UNL A   1      47.199  27.078  29.359  1.00  0.00     0.037 A 
BRANCH  54  68
ATOM     68  C   UNL A   1      42.694  23.403  27.239  1.00  0.00     0.057 A 
ATOM     69  C   UNL A   1      42.287  22.385  28.111  1.00  0.00     0.134 A 
ATOM     70  C   UNL A   1      42.700  23.110  25.867  1.00  0.00     0.134 A 
ATOM     71  F   UNL A   1      42.265  22.592  29.436  1.00  0.00    -0.206 F 
ATOM     72  C   UNL A   1      41.890  21.133  27.641  1.00  0.00     0.040 A 
ATOM     73  C   UNL A   1      42.278  21.870  25.382  1.00  0.00     0.040 A 
ATOM     74  F   UNL A   1      43.066  24.043  24.976  1.00  0.00    -0.206 F 
ATOM     75  C   UNL A   1      41.873  20.876  26.271  1.00  0.00     0.006 A 
ENDBRANCH  54  68
BRANCH  55  76
ATOM     76  C   UNL A   1      44.826  32.402  30.995  1.00  0.00     0.057 A 
ATOM     77  C   UNL A   1      45.219  33.469  30.178  1.00  0.00     0.134 A 
ATOM     78  C   UNL A   1      44.762  32.630  32.374  1.00  0.00     0.134 A 
ATOM     79  F   UNL A   1      45.308  33.308  28.850  1.00  0.00    -0.206 F 
ATOM     80  C   UNL A   1      45.558  34.712  30.713  1.00  0.00     0.040 A 
ATOM     81  C   UNL A   1      45.072  33.877  32.920  1.00  0.00     0.040 A 
ATOM     82  F   UNL A   1      44.375  31.651  33.204  1.00  0.00    -0.206 F 
ATOM     83  C   UNL A   1      45.479  34.919  32.089  1.00  0.00     0.006 A 
ENDBRANCH  55  76
BRANCH  67  84
ATOM     84  C   UNL A   1      48.664  26.793  29.510  1.00  0.00     0.057 A 
ATOM     85  C   UNL A   1      49.552  27.034  28.454  1.00  0.00     0.134 A 
ATOM     86  C   UNL A   1      49.197  26.274  30.698  1.00  0.00     0.134 A 
ATOM     87  F   UNL A   1      49.106  27.525  27.288  1.00  0.00    -0.206 F 
ATOM     88  C   UNL A   1      50.918  26.771  28.574  1.00  0.00     0.040 A 
ATOM     89  C   UNL A   1      50.564  26.033  30.840  1.00  0.00     0.040 A 
ATOM     90  F   UNL A   1      48.402  26.038  31.753  1.00  0.00    -0.206 F 
ATOM     91  C   UNL A   1      51.428  26.276  29.773  1.00  0.00     0.006 A 
ENDBRANCH  67  84
ENDBRANCH  41  42
ENDBRANCH  33  36
ENDBRANCH  31  32
ENDBRANCH  30  31
ENDBRANCH  29  30
ENDBRANCH   1  29
TORSDOF 17
ENDMDL
