MODEL 1
REMARK VINA RESULT:     -13.0      0.000      0.000
REMARK SMILES C[C@H]1[C@H](C)CC[C@@]2(C(=O)NCCCCCCNC(=O)c3ccc(-c4c5nc(c(-c6c(F)cccc6F)c6ccc([nH]6)c(-c6c(F)cccc6F)c6nc(c(-c7c(F)cccc7F)c7ccc4[nH]7)C=C6)C=C5)cc3)CC[C@@]3(C)C(=CC[C@@H]4[C@@]5(C)CC[C@H](O)C(C)(C)[C@@H]5CC[C@]43C)[C@H]12
REMARK SMILES IDX 14 1 13 2 12 3 11 4 10 5 8 6 9 7 7 9 1 10 2 11 3 12 96 13
REMARK SMILES IDX 4 14 5 15 78 16 6 17 74 18 76 19 79 20 75 21 77 22 94 23
REMARK SMILES IDX 80 24 81 25 93 26 95 27 82 28 92 29 83 30 84 31 91 32 85 33
REMARK SMILES IDX 88 34 86 35 89 36 90 37 87 38 15 40 16 41 17 42 18 43 19 45
REMARK SMILES IDX 20 46 21 47 73 48 22 49 72 50 23 51 24 52 25 53 66 54 26 55
REMARK SMILES IDX 71 56 65 57 67 58 27 59 70 60 64 61 63 62 28 64 54 65 37 66
REMARK SMILES IDX 53 67 38 68 41 69 52 70 68 71 39 72 40 73 51 75 69 76 42 77
REMARK SMILES IDX 29 78 30 79 35 80 31 81 32 82 34 83 36 84 33 85 55 86 56 87
REMARK SMILES IDX 61 88 57 89 58 90 60 91 62 92 59 93 43 94 44 95 49 96 45 97
REMARK SMILES IDX 46 98 48 99 50 100 47 101
REMARK H PARENT 10 8 87 39 17 44 67 63 41 74
REMARK Flexibility Score: inf
ROOT
ATOM      1  C   UNL A   1      34.369  31.935  27.641  1.00  0.00     0.002 C 
ENDROOT
BRANCH   1   2
ATOM      2  C   UNL A   1      34.057  30.495  28.062  1.00  0.00     0.002 C 
BRANCH   2   3
ATOM      3  C   UNL A   1      34.956  29.350  27.571  1.00  0.00     0.021 C 
BRANCH   3   4
ATOM      4  C   UNL A   1      34.416  28.414  26.485  1.00  0.00     0.116 C 
BRANCH   4   5
ATOM      5  N   UNL A   1      34.042  29.068  25.245  1.00  0.00    -0.356 N 
ATOM      6  C   UNL A   1      32.859  29.072  24.553  1.00  0.00     0.226 C 
ATOM      7  O   UNL A   1      32.999  29.035  23.323  1.00  0.00    -0.274 OA
ATOM      8  H   UNL A   1      34.759  29.600  24.831  1.00  0.00     0.163 HD
BRANCH   6   9
ATOM      9  C   UNL A   1      31.421  29.195  25.195  1.00  0.00     0.056 C 
ATOM     10  C   UNL A   1      28.791  29.038  22.250  1.00  0.00     0.008 C 
ATOM     11  C   UNL A   1      29.889  29.636  23.148  1.00  0.00    -0.003 C 
ATOM     12  C   UNL A   1      29.442  30.991  23.789  1.00  0.00    -0.011 C 
ATOM     13  C   UNL A   1      30.305  28.638  24.265  1.00  0.00     0.034 C 
ATOM     14  C   UNL A   1      29.176  32.119  22.778  1.00  0.00     0.008 C 
ATOM     15  C   UNL A   1      30.424  31.583  24.817  1.00  0.00     0.005 C 
ATOM     16  C   UNL A   1      30.748  27.199  23.926  1.00  0.00    -0.063 C 
ATOM     17  C   UNL A   1      31.160  30.618  25.718  1.00  0.00     0.018 C 
ATOM     18  C   UNL A   1      31.358  28.304  26.497  1.00  0.00     0.018 C 
ATOM     19  C   UNL A   1      30.636  26.175  25.095  1.00  0.00    -0.006 C 
ATOM     20  C   UNL A   1      31.465  26.933  22.813  1.00  0.00    -0.027 C 
ATOM     21  C   UNL A   1      31.391  26.780  26.328  1.00  0.00     0.013 C 
ATOM     22  C   UNL A   1      29.145  25.994  25.485  1.00  0.00     0.017 C 
ATOM     23  C   UNL A   1      31.277  24.731  24.696  1.00  0.00    -0.020 C 
ATOM     24  C   UNL A   1      32.404  25.759  22.679  1.00  0.00     0.032 C 
ATOM     25  C   UNL A   1      32.668  25.059  24.041  1.00  0.00     0.006 C 
ATOM     26  C   UNL A   1      31.425  23.793  25.925  1.00  0.00     0.008 C 
ATOM     27  C   UNL A   1      30.346  23.965  23.704  1.00  0.00     0.012 C 
ATOM     28  C   UNL A   1      33.819  23.968  24.066  1.00  0.00    -0.025 C 
ATOM     29  C   UNL A   1      32.353  22.603  25.674  1.00  0.00     0.005 C 
ATOM     30  C   UNL A   1      33.771  23.134  22.772  1.00  0.00     0.012 C 
ATOM     31  C   UNL A   1      35.192  24.717  24.123  1.00  0.00     0.010 C 
ATOM     32  C   UNL A   1      33.767  23.123  25.395  1.00  0.00     0.003 C 
ATOM     33  C   UNL A   1      36.401  23.797  24.289  1.00  0.00     0.033 C 
ATOM     34  C   UNL A   1      34.925  22.070  25.585  1.00  0.00    -0.006 C 
ATOM     35  C   UNL A   1      36.284  22.828  25.470  1.00  0.00     0.120 C 
ATOM     36  C   UNL A   1      34.844  20.854  24.638  1.00  0.00     0.014 C 
ATOM     37  C   UNL A   1      34.870  21.465  27.019  1.00  0.00     0.014 C 
BRANCH  35  38
ATOM     38  O   UNL A   1      37.384  21.917  25.428  1.00  0.00    -0.393 OA
ATOM     39  H   UNL A   1      37.664  21.706  26.332  1.00  0.00     0.210 HD
ENDBRANCH  35  38
ENDBRANCH   6   9
ENDBRANCH   4   5
ENDBRANCH   3   4
ENDBRANCH   2   3
ENDBRANCH   1   2
BRANCH   1  40
ATOM     40  C   UNL A   1      33.242  32.964  27.681  1.00  0.00     0.021 C 
BRANCH  40  41
ATOM     41  C   UNL A   1      33.599  34.405  28.006  1.00  0.00     0.116 C 
BRANCH  41  42
ATOM     42  N   UNL A   1      33.134  34.863  29.298  1.00  0.00    -0.352 N 
ATOM     43  C   UNL A   1      33.648  34.604  30.551  1.00  0.00     0.251 C 
ATOM     44  H   UNL A   1      32.338  35.442  29.279  1.00  0.00     0.163 HD
ATOM     45  O   UNL A   1      33.085  35.039  31.543  1.00  0.00    -0.269 OA
BRANCH  43  46
ATOM     46  C   UNL A   1      34.860  33.759  30.703  1.00  0.00     0.039 A 
ATOM     47  C   UNL A   1      36.049  34.189  30.107  1.00  0.00     0.014 A 
ATOM     48  C   UNL A   1      34.839  32.560  31.421  1.00  0.00     0.014 A 
ATOM     49  C   UNL A   1      37.225  33.454  30.284  1.00  0.00     0.010 A 
ATOM     50  C   UNL A   1      36.027  31.876  31.672  1.00  0.00     0.010 A 
ATOM     51  C   UNL A   1      37.232  32.309  31.097  1.00  0.00    -0.014 A 
BRANCH  51  52
ATOM     52  C   UNL A   1      38.485  31.544  31.338  1.00  0.00     0.031 A 
ATOM     53  C   UNL A   1      39.436  31.974  32.424  1.00  0.00     0.074 A 
ATOM     54  C   UNL A   1      38.794  30.495  30.551  1.00  0.00     0.049 A 
ATOM     55  N   UNL A   1      40.598  31.470  32.756  1.00  0.00    -0.248 NA
ATOM     56  C   UNL A   1      39.041  33.143  33.227  1.00  0.00     0.031 C 
ATOM     57  C   UNL A   1      37.982  30.005  29.435  1.00  0.00     0.029 A 
ATOM     58  N   UNL A   1      39.878  29.652  30.566  1.00  0.00    -0.354 N 
ATOM     59  C   UNL A   1      41.075  32.266  33.790  1.00  0.00     0.074 A 
ATOM     60  C   UNL A   1      40.108  33.322  33.991  1.00  0.00     0.031 C 
ATOM     61  C   UNL A   1      38.581  28.933  28.892  1.00  0.00     0.029 A 
ATOM     62  C   UNL A   1      39.835  28.681  29.593  1.00  0.00     0.049 A 
ATOM     63  H   UNL A   1      40.615  29.733  31.213  1.00  0.00     0.167 HD
ATOM     64  C   UNL A   1      42.202  32.116  34.525  1.00  0.00     0.037 A 
ATOM     65  C   UNL A   1      40.711  27.701  29.297  1.00  0.00     0.037 A 
ATOM     66  C   UNL A   1      43.150  31.048  34.342  1.00  0.00     0.049 A 
ATOM     67  C   UNL A   1      41.961  27.560  30.124  1.00  0.00     0.074 A 
ATOM     68  C   UNL A   1      44.292  30.775  35.072  1.00  0.00     0.029 A 
ATOM     69  N   UNL A   1      43.065  30.079  33.354  1.00  0.00    -0.354 N 
ATOM     70  N   UNL A   1      42.364  28.280  31.144  1.00  0.00    -0.248 NA
ATOM     71  C   UNL A   1      42.874  26.467  29.763  1.00  0.00     0.031 C 
ATOM     72  C   UNL A   1      44.925  29.669  34.497  1.00  0.00     0.029 A 
ATOM     73  C   UNL A   1      44.147  29.219  33.441  1.00  0.00     0.049 A 
ATOM     74  H   UNL A   1      42.342  30.011  32.689  1.00  0.00     0.167 HD
ATOM     75  C   UNL A   1      43.558  27.710  31.564  1.00  0.00     0.074 A 
ATOM     76  C   UNL A   1      43.807  26.575  30.699  1.00  0.00     0.031 C 
ATOM     77  C   UNL A   1      44.376  28.090  32.577  1.00  0.00     0.037 A 
BRANCH  64  78
ATOM     78  C   UNL A   1      42.468  33.130  35.601  1.00  0.00     0.057 A 
ATOM     79  C   UNL A   1      41.969  32.979  36.902  1.00  0.00     0.134 A 
ATOM     80  C   UNL A   1      43.260  34.257  35.343  1.00  0.00     0.134 A 
ATOM     81  F   UNL A   1      41.193  31.930  37.214  1.00  0.00    -0.206 F 
ATOM     82  C   UNL A   1      42.221  33.925  37.898  1.00  0.00     0.040 A 
ATOM     83  C   UNL A   1      43.545  35.194  36.338  1.00  0.00     0.040 A 
ATOM     84  F   UNL A   1      43.777  34.461  34.122  1.00  0.00    -0.206 F 
ATOM     85  C   UNL A   1      43.018  35.033  37.618  1.00  0.00     0.006 A 
ENDBRANCH  64  78
BRANCH  65  86
ATOM     86  C   UNL A   1      40.432  26.760  28.181  1.00  0.00     0.057 A 
ATOM     87  C   UNL A   1      39.520  25.709  28.333  1.00  0.00     0.134 A 
ATOM     88  C   UNL A   1      41.078  26.879  26.945  1.00  0.00     0.134 A 
ATOM     89  F   UNL A   1      38.883  25.531  29.500  1.00  0.00    -0.206 F 
ATOM     90  C   UNL A   1      39.276  24.797  27.304  1.00  0.00     0.040 A 
ATOM     91  C   UNL A   1      40.822  25.990  25.898  1.00  0.00     0.040 A 
ATOM     92  F   UNL A   1      41.958  27.868  26.732  1.00  0.00    -0.206 F 
ATOM     93  C   UNL A   1      39.926  24.940  26.080  1.00  0.00     0.006 A 
ENDBRANCH  65  86
BRANCH  77  94
ATOM     94  C   UNL A   1      45.596  27.252  32.828  1.00  0.00     0.057 A 
ATOM     95  C   UNL A   1      45.563  26.128  33.664  1.00  0.00     0.134 A 
ATOM     96  C   UNL A   1      46.808  27.551  32.194  1.00  0.00     0.134 A 
ATOM     97  F   UNL A   1      44.437  25.794  34.312  1.00  0.00    -0.206 F 
ATOM     98  C   UNL A   1      46.700  25.346  33.877  1.00  0.00     0.040 A 
ATOM     99  C   UNL A   1      47.943  26.760  32.376  1.00  0.00     0.040 A 
ATOM    100  F   UNL A   1      46.904  28.608  31.373  1.00  0.00    -0.206 F 
ATOM    101  C   UNL A   1      47.892  25.657  33.226  1.00  0.00     0.006 A 
ENDBRANCH  77  94
ENDBRANCH  51  52
ENDBRANCH  43  46
ENDBRANCH  41  42
ENDBRANCH  40  41
ENDBRANCH   1  40
TORSDOF 14
ENDMDL
MODEL 2
REMARK VINA RESULT:     -12.9      3.143      8.946
REMARK SMILES C[C@H]1[C@H](C)CC[C@@]2(C(=O)NCCCCCCNC(=O)c3ccc(-c4c5nc(c(-c6c(F)cccc6F)c6ccc([nH]6)c(-c6c(F)cccc6F)c6nc(c(-c7c(F)cccc7F)c7ccc4[nH]7)C=C6)C=C5)cc3)CC[C@@]3(C)C(=CC[C@@H]4[C@@]5(C)CC[C@H](O)C(C)(C)[C@@H]5CC[C@]43C)[C@H]12
REMARK SMILES IDX 14 1 13 2 12 3 11 4 10 5 8 6 9 7 7 9 1 10 2 11 3 12 96 13
REMARK SMILES IDX 4 14 5 15 78 16 6 17 74 18 76 19 79 20 75 21 77 22 94 23
REMARK SMILES IDX 80 24 81 25 93 26 95 27 82 28 92 29 83 30 84 31 91 32 85 33
REMARK SMILES IDX 88 34 86 35 89 36 90 37 87 38 15 40 16 41 17 42 18 43 19 45
REMARK SMILES IDX 20 46 21 47 73 48 22 49 72 50 23 51 24 52 25 53 66 54 26 55
REMARK SMILES IDX 71 56 65 57 67 58 27 59 70 60 64 61 63 62 28 64 54 65 37 66
REMARK SMILES IDX 53 67 38 68 41 69 52 70 68 71 39 72 40 73 51 75 69 76 42 77
REMARK SMILES IDX 29 78 30 79 35 80 31 81 32 82 34 83 36 84 33 85 55 86 56 87
REMARK SMILES IDX 61 88 57 89 58 90 60 91 62 92 59 93 43 94 44 95 49 96 45 97
REMARK SMILES IDX 46 98 48 99 50 100 47 101
REMARK H PARENT 10 8 87 39 17 44 67 63 41 74
REMARK Flexibility Score: inf
ROOT
ATOM      1  C   UNL A   1      39.312  21.978  26.504  1.00  0.00     0.002 C 
ENDROOT
BRANCH   1   2
ATOM      2  C   UNL A   1      38.775  23.177  25.714  1.00  0.00     0.002 C 
BRANCH   2   3
ATOM      3  C   UNL A   1      37.786  24.143  26.383  1.00  0.00     0.021 C 
BRANCH   3   4
ATOM      4  C   UNL A   1      36.288  23.942  26.132  1.00  0.00     0.116 C 
BRANCH   4   5
ATOM      5  N   UNL A   1      35.727  22.739  26.719  1.00  0.00    -0.356 N 
ATOM      6  C   UNL A   1      34.958  21.746  26.170  1.00  0.00     0.226 C 
ATOM      7  O   UNL A   1      34.073  21.323  26.927  1.00  0.00    -0.274 OA
ATOM      8  H   UNL A   1      35.934  22.614  27.673  1.00  0.00     0.163 HD
BRANCH   6   9
ATOM      9  C   UNL A   1      35.176  21.097  24.748  1.00  0.00     0.056 C 
ATOM     10  C   UNL A   1      32.093  18.729  24.039  1.00  0.00     0.008 C 
ATOM     11  C   UNL A   1      33.412  19.195  24.680  1.00  0.00    -0.003 C 
ATOM     12  C   UNL A   1      34.560  18.154  24.474  1.00  0.00    -0.011 C 
ATOM     13  C   UNL A   1      33.850  20.577  24.121  1.00  0.00     0.034 C 
ATOM     14  C   UNL A   1      34.316  16.792  25.147  1.00  0.00     0.008 C 
ATOM     15  C   UNL A   1      35.950  18.608  24.957  1.00  0.00     0.005 C 
ATOM     16  C   UNL A   1      32.894  21.789  24.147  1.00  0.00    -0.063 C 
ATOM     17  C   UNL A   1      36.314  20.064  24.770  1.00  0.00     0.018 C 
ATOM     18  C   UNL A   1      35.699  22.203  23.750  1.00  0.00     0.018 C 
ATOM     19  C   UNL A   1      33.226  22.922  23.130  1.00  0.00    -0.006 C 
ATOM     20  C   UNL A   1      32.041  21.984  25.176  1.00  0.00    -0.027 C 
ATOM     21  C   UNL A   1      34.729  23.316  23.334  1.00  0.00     0.013 C 
ATOM     22  C   UNL A   1      33.063  22.384  21.683  1.00  0.00     0.017 C 
ATOM     23  C   UNL A   1      32.269  24.223  23.341  1.00  0.00    -0.020 C 
ATOM     24  C   UNL A   1      31.519  23.339  25.588  1.00  0.00     0.032 C 
ATOM     25  C   UNL A   1      32.278  24.500  24.889  1.00  0.00     0.006 C 
ATOM     26  C   UNL A   1      32.762  25.454  22.533  1.00  0.00     0.008 C 
ATOM     27  C   UNL A   1      30.824  23.941  22.822  1.00  0.00     0.012 C 
ATOM     28  C   UNL A   1      31.981  25.964  25.422  1.00  0.00    -0.025 C 
ATOM     29  C   UNL A   1      32.135  26.773  22.989  1.00  0.00     0.005 C 
ATOM     30  C   UNL A   1      30.480  26.108  25.733  1.00  0.00     0.012 C 
ATOM     31  C   UNL A   1      32.785  26.167  26.749  1.00  0.00     0.010 C 
ATOM     32  C   UNL A   1      32.555  27.051  24.436  1.00  0.00     0.003 C 
ATOM     33  C   UNL A   1      32.708  27.583  27.318  1.00  0.00     0.033 C 
ATOM     34  C   UNL A   1      32.411  28.549  24.906  1.00  0.00    -0.006 C 
ATOM     35  C   UNL A   1      33.080  28.676  26.311  1.00  0.00     0.120 C 
ATOM     36  C   UNL A   1      30.965  29.088  24.888  1.00  0.00     0.014 C 
ATOM     37  C   UNL A   1      33.201  29.490  23.948  1.00  0.00     0.014 C 
BRANCH  35  38
ATOM     38  O   UNL A   1      32.816  29.951  26.897  1.00  0.00    -0.393 OA
ATOM     39  H   UNL A   1      32.932  29.895  27.859  1.00  0.00     0.210 HD
ENDBRANCH  35  38
ENDBRANCH   6   9
ENDBRANCH   4   5
ENDBRANCH   3   4
ENDBRANCH   2   3
ENDBRANCH   1   2
BRANCH   1  40
ATOM     40  C   UNL A   1      39.691  20.714  25.737  1.00  0.00     0.021 C 
BRANCH  40  41
ATOM     41  C   UNL A   1      40.423  19.614  26.488  1.00  0.00     0.116 C 
BRANCH  41  42
ATOM     42  N   UNL A   1      41.722  19.277  25.945  1.00  0.00    -0.352 N 
ATOM     43  C   UNL A   1      42.858  20.053  25.860  1.00  0.00     0.251 C 
ATOM     44  H   UNL A   1      41.805  18.365  25.585  1.00  0.00     0.163 HD
ATOM     45  O   UNL A   1      43.858  19.613  25.315  1.00  0.00    -0.269 OA
BRANCH  43  46
ATOM     46  C   UNL A   1      42.859  21.441  26.388  1.00  0.00     0.039 A 
ATOM     47  C   UNL A   1      42.756  21.627  27.770  1.00  0.00     0.014 A 
ATOM     48  C   UNL A   1      42.961  22.552  25.546  1.00  0.00     0.014 A 
ATOM     49  C   UNL A   1      42.818  22.915  28.309  1.00  0.00     0.010 A 
ATOM     50  C   UNL A   1      43.113  23.827  26.088  1.00  0.00     0.010 A 
ATOM     51  C   UNL A   1      43.033  24.024  27.476  1.00  0.00    -0.014 A 
BRANCH  51  52
ATOM     52  C   UNL A   1      43.154  25.397  28.037  1.00  0.00     0.031 A 
ATOM     53  C   UNL A   1      44.499  25.921  28.467  1.00  0.00     0.074 A 
ATOM     54  C   UNL A   1      42.051  26.153  28.208  1.00  0.00     0.049 A 
ATOM     55  N   UNL A   1      44.802  27.067  29.023  1.00  0.00    -0.248 NA
ATOM     56  C   UNL A   1      45.652  25.029  28.270  1.00  0.00     0.031 C 
ATOM     57  C   UNL A   1      40.684  25.744  27.876  1.00  0.00     0.029 A 
ATOM     58  N   UNL A   1      41.905  27.424  28.707  1.00  0.00    -0.354 N 
ATOM     59  C   UNL A   1      46.171  27.026  29.254  1.00  0.00     0.074 A 
ATOM     60  C   UNL A   1      46.631  25.720  28.836  1.00  0.00     0.031 C 
ATOM     61  C   UNL A   1      39.844  26.754  28.154  1.00  0.00     0.029 A 
ATOM     62  C   UNL A   1      40.602  27.865  28.718  1.00  0.00     0.049 A 
ATOM     63  H   UNL A   1      42.660  27.968  29.026  1.00  0.00     0.167 HD
ATOM     64  C   UNL A   1      46.979  27.996  29.744  1.00  0.00     0.037 A 
ATOM     65  C   UNL A   1      40.079  29.033  29.139  1.00  0.00     0.037 A 
ATOM     66  C   UNL A   1      46.524  29.304  30.134  1.00  0.00     0.049 A 
ATOM     67  C   UNL A   1      40.997  30.092  29.687  1.00  0.00     0.074 A 
ATOM     68  C   UNL A   1      47.271  30.376  30.588  1.00  0.00     0.029 A 
ATOM     69  N   UNL A   1      45.200  29.716  30.119  1.00  0.00    -0.354 N 
ATOM     70  N   UNL A   1      42.300  30.063  29.836  1.00  0.00    -0.248 NA
ATOM     71  C   UNL A   1      40.372  31.350  30.122  1.00  0.00     0.031 C 
ATOM     72  C   UNL A   1      46.394  31.422  30.893  1.00  0.00     0.029 A 
ATOM     73  C   UNL A   1      45.106  31.020  30.578  1.00  0.00     0.049 A 
ATOM     74  H   UNL A   1      44.440  29.164  29.826  1.00  0.00     0.167 HD
ATOM     75  C   UNL A   1      42.653  31.304  30.349  1.00  0.00     0.074 A 
ATOM     76  C   UNL A   1      41.429  32.068  30.473  1.00  0.00     0.031 C 
ATOM     77  C   UNL A   1      43.881  31.769  30.688  1.00  0.00     0.037 A 
BRANCH  64  78
ATOM     78  C   UNL A   1      48.441  27.677  29.880  1.00  0.00     0.057 A 
ATOM     79  C   UNL A   1      48.974  27.129  31.054  1.00  0.00     0.134 A 
ATOM     80  C   UNL A   1      49.322  27.891  28.812  1.00  0.00     0.134 A 
ATOM     81  F   UNL A   1      48.189  26.910  32.119  1.00  0.00    -0.206 F 
ATOM     82  C   UNL A   1      50.334  26.834  31.173  1.00  0.00     0.040 A 
ATOM     83  C   UNL A   1      50.678  27.571  28.907  1.00  0.00     0.040 A 
ATOM     84  F   UNL A   1      48.879  28.406  27.655  1.00  0.00    -0.206 F 
ATOM     85  C   UNL A   1      51.189  27.049  30.094  1.00  0.00     0.006 A 
ENDBRANCH  64  78
BRANCH  65  86
ATOM     86  C   UNL A   1      38.616  29.275  29.041  1.00  0.00     0.057 A 
ATOM     87  C   UNL A   1      38.024  29.645  27.828  1.00  0.00     0.134 A 
ATOM     88  C   UNL A   1      37.779  29.159  30.157  1.00  0.00     0.134 A 
ATOM     89  F   UNL A   1      38.777  29.792  26.727  1.00  0.00    -0.206 F 
ATOM     90  C   UNL A   1      36.657  29.911  27.732  1.00  0.00     0.040 A 
ATOM     91  C   UNL A   1      36.405  29.394  30.068  1.00  0.00     0.040 A 
ATOM     92  F   UNL A   1      38.282  28.801  31.348  1.00  0.00    -0.206 F 
ATOM     93  C   UNL A   1      35.843  29.781  28.855  1.00  0.00     0.006 A 
ENDBRANCH  65  86
BRANCH  77  94
ATOM     94  C   UNL A   1      43.968  33.182  31.188  1.00  0.00     0.057 A 
ATOM     95  C   UNL A   1      43.914  33.490  32.553  1.00  0.00     0.134 A 
ATOM     96  C   UNL A   1      44.147  34.244  30.292  1.00  0.00     0.134 A 
ATOM     97  F   UNL A   1      43.732  32.521  33.462  1.00  0.00    -0.206 F 
ATOM     98  C   UNL A   1      44.013  34.806  33.007  1.00  0.00     0.040 A 
ATOM     99  C   UNL A   1      44.277  35.560  30.736  1.00  0.00     0.040 A 
ATOM    100  F   UNL A   1      44.216  34.017  28.971  1.00  0.00    -0.206 F 
ATOM    101  C   UNL A   1      44.202  35.845  32.097  1.00  0.00     0.006 A 
ENDBRANCH  77  94
ENDBRANCH  51  52
ENDBRANCH  43  46
ENDBRANCH  41  42
ENDBRANCH  40  41
ENDBRANCH   1  40
TORSDOF 14
ENDMDL
MODEL 3
REMARK VINA RESULT:     -12.7      1.602      5.995
REMARK SMILES C[C@H]1[C@H](C)CC[C@@]2(C(=O)NCCCCCCNC(=O)c3ccc(-c4c5nc(c(-c6c(F)cccc6F)c6ccc([nH]6)c(-c6c(F)cccc6F)c6nc(c(-c7c(F)cccc7F)c7ccc4[nH]7)C=C6)C=C5)cc3)CC[C@@]3(C)C(=CC[C@@H]4[C@@]5(C)CC[C@H](O)C(C)(C)[C@@H]5CC[C@]43C)[C@H]12
REMARK SMILES IDX 14 1 13 2 12 3 11 4 10 5 8 6 9 7 7 9 1 10 2 11 3 12 96 13
REMARK SMILES IDX 4 14 5 15 78 16 6 17 74 18 76 19 79 20 75 21 77 22 94 23
REMARK SMILES IDX 80 24 81 25 93 26 95 27 82 28 92 29 83 30 84 31 91 32 85 33
REMARK SMILES IDX 88 34 86 35 89 36 90 37 87 38 15 40 16 41 17 42 18 43 19 45
REMARK SMILES IDX 20 46 21 47 73 48 22 49 72 50 23 51 24 52 25 53 66 54 26 55
REMARK SMILES IDX 71 56 65 57 67 58 27 59 70 60 64 61 63 62 28 64 54 65 37 66
REMARK SMILES IDX 53 67 38 68 41 69 52 70 68 71 39 72 40 73 51 75 69 76 42 77
REMARK SMILES IDX 29 78 30 79 35 80 31 81 32 82 34 83 36 84 33 85 55 86 56 87
REMARK SMILES IDX 61 88 57 89 58 90 60 91 62 92 59 93 43 94 44 95 49 96 45 97
REMARK SMILES IDX 46 98 48 99 50 100 47 101
REMARK H PARENT 10 8 87 39 17 44 67 63 41 74
REMARK Flexibility Score: inf
ROOT
ATOM      1  C   UNL A   1      34.408  31.535  28.367  1.00  0.00     0.002 C 
ENDROOT
BRANCH   1   2
ATOM      2  C   UNL A   1      34.994  30.539  27.361  1.00  0.00     0.002 C 
BRANCH   2   3
ATOM      3  C   UNL A   1      34.769  29.034  27.565  1.00  0.00     0.021 C 
BRANCH   3   4
ATOM      4  C   UNL A   1      34.315  28.195  26.366  1.00  0.00     0.116 C 
BRANCH   4   5
ATOM      5  N   UNL A   1      33.976  28.958  25.180  1.00  0.00    -0.356 N 
ATOM      6  C   UNL A   1      32.801  29.062  24.483  1.00  0.00     0.226 C 
ATOM      7  O   UNL A   1      32.951  29.117  23.255  1.00  0.00    -0.274 OA
ATOM      8  H   UNL A   1      34.716  29.494  24.813  1.00  0.00     0.163 HD
BRANCH   6   9
ATOM      9  C   UNL A   1      31.363  29.188  25.123  1.00  0.00     0.056 C 
ATOM     10  C   UNL A   1      28.735  29.046  22.176  1.00  0.00     0.008 C 
ATOM     11  C   UNL A   1      29.833  29.639  23.077  1.00  0.00    -0.003 C 
ATOM     12  C   UNL A   1      29.390  30.993  23.721  1.00  0.00    -0.011 C 
ATOM     13  C   UNL A   1      30.246  28.637  24.191  1.00  0.00     0.034 C 
ATOM     14  C   UNL A   1      29.128  32.125  22.712  1.00  0.00     0.008 C 
ATOM     15  C   UNL A   1      30.373  31.579  24.751  1.00  0.00     0.005 C 
ATOM     16  C   UNL A   1      30.685  27.197  23.849  1.00  0.00    -0.063 C 
ATOM     17  C   UNL A   1      31.105  30.610  25.651  1.00  0.00     0.018 C 
ATOM     18  C   UNL A   1      31.296  28.293  26.423  1.00  0.00     0.018 C 
ATOM     19  C   UNL A   1      30.569  26.170  25.015  1.00  0.00    -0.006 C 
ATOM     20  C   UNL A   1      31.401  26.932  22.736  1.00  0.00    -0.027 C 
ATOM     21  C   UNL A   1      31.323  26.770  26.251  1.00  0.00     0.013 C 
ATOM     22  C   UNL A   1      29.077  25.993  25.403  1.00  0.00     0.017 C 
ATOM     23  C   UNL A   1      31.205  24.726  24.614  1.00  0.00    -0.020 C 
ATOM     24  C   UNL A   1      32.337  25.755  22.600  1.00  0.00     0.032 C 
ATOM     25  C   UNL A   1      32.598  25.051  23.960  1.00  0.00     0.006 C 
ATOM     26  C   UNL A   1      31.349  23.784  25.840  1.00  0.00     0.008 C 
ATOM     27  C   UNL A   1      30.273  23.965  23.618  1.00  0.00     0.012 C 
ATOM     28  C   UNL A   1      33.745  23.957  23.983  1.00  0.00    -0.025 C 
ATOM     29  C   UNL A   1      32.274  22.592  25.587  1.00  0.00     0.005 C 
ATOM     30  C   UNL A   1      33.696  23.126  22.688  1.00  0.00     0.012 C 
ATOM     31  C   UNL A   1      35.121  24.701  24.044  1.00  0.00     0.010 C 
ATOM     32  C   UNL A   1      33.689  23.108  25.310  1.00  0.00     0.003 C 
ATOM     33  C   UNL A   1      36.326  23.776  24.208  1.00  0.00     0.033 C 
ATOM     34  C   UNL A   1      34.844  22.051  25.498  1.00  0.00    -0.006 C 
ATOM     35  C   UNL A   1      36.206  22.805  25.386  1.00  0.00     0.120 C 
ATOM     36  C   UNL A   1      34.760  20.837  24.549  1.00  0.00     0.014 C 
ATOM     37  C   UNL A   1      34.786  21.442  26.931  1.00  0.00     0.014 C 
BRANCH  35  38
ATOM     38  O   UNL A   1      37.303  21.891  25.343  1.00  0.00    -0.393 OA
ATOM     39  H   UNL A   1      38.067  22.322  24.928  1.00  0.00     0.210 HD
ENDBRANCH  35  38
ENDBRANCH   6   9
ENDBRANCH   4   5
ENDBRANCH   3   4
ENDBRANCH   2   3
ENDBRANCH   1   2
BRANCH   1  40
ATOM     40  C   UNL A   1      33.101  32.240  28.014  1.00  0.00     0.021 C 
BRANCH  40  41
ATOM     41  C   UNL A   1      33.180  33.561  27.267  1.00  0.00     0.116 C 
BRANCH  41  42
ATOM     42  N   UNL A   1      32.663  34.698  27.999  1.00  0.00    -0.352 N 
ATOM     43  C   UNL A   1      33.105  35.245  29.184  1.00  0.00     0.251 C 
ATOM     44  H   UNL A   1      31.884  35.143  27.593  1.00  0.00     0.163 HD
ATOM     45  O   UNL A   1      32.505  36.183  29.686  1.00  0.00    -0.269 OA
BRANCH  43  46
ATOM     46  C   UNL A   1      34.285  34.671  29.880  1.00  0.00     0.039 A 
ATOM     47  C   UNL A   1      34.083  33.996  31.087  1.00  0.00     0.014 A 
ATOM     48  C   UNL A   1      35.578  34.787  29.361  1.00  0.00     0.014 A 
ATOM     49  C   UNL A   1      35.160  33.387  31.737  1.00  0.00     0.010 A 
ATOM     50  C   UNL A   1      36.635  34.105  29.961  1.00  0.00     0.010 A 
ATOM     51  C   UNL A   1      36.440  33.406  31.162  1.00  0.00    -0.014 A 
BRANCH  51  52
ATOM     52  C   UNL A   1      37.587  32.719  31.814  1.00  0.00     0.031 A 
ATOM     53  C   UNL A   1      38.258  31.556  31.131  1.00  0.00     0.074 A 
ATOM     54  C   UNL A   1      37.994  33.105  33.039  1.00  0.00     0.049 A 
ATOM     55  N   UNL A   1      39.237  30.798  31.557  1.00  0.00    -0.248 NA
ATOM     56  C   UNL A   1      37.743  31.178  29.806  1.00  0.00     0.031 C 
ATOM     57  C   UNL A   1      37.398  34.186  33.828  1.00  0.00     0.029 A 
ATOM     58  N   UNL A   1      39.004  32.630  33.839  1.00  0.00    -0.354 N 
ATOM     59  C   UNL A   1      39.443  29.850  30.562  1.00  0.00     0.074 A 
ATOM     60  C   UNL A   1      38.448  30.089  29.540  1.00  0.00     0.031 C 
ATOM     61  C   UNL A   1      38.070  34.309  34.984  1.00  0.00     0.029 A 
ATOM     62  C   UNL A   1      39.118  33.295  35.038  1.00  0.00     0.049 A 
ATOM     63  H   UNL A   1      39.592  31.885  33.580  1.00  0.00     0.167 HD
ATOM     64  C   UNL A   1      40.391  28.886  30.492  1.00  0.00     0.037 A 
ATOM     65  C   UNL A   1      39.969  33.106  36.065  1.00  0.00     0.037 A 
ATOM     66  C   UNL A   1      41.397  28.668  31.498  1.00  0.00     0.049 A 
ATOM     67  C   UNL A   1      41.008  32.022  35.965  1.00  0.00     0.074 A 
ATOM     68  C   UNL A   1      42.437  27.755  31.493  1.00  0.00     0.029 A 
ATOM     69  N   UNL A   1      41.486  29.370  32.690  1.00  0.00    -0.354 N 
ATOM     70  N   UNL A   1      41.233  31.178  34.988  1.00  0.00    -0.248 NA
ATOM     71  C   UNL A   1      41.915  31.868  37.112  1.00  0.00     0.031 C 
ATOM     72  C   UNL A   1      43.126  27.872  32.704  1.00  0.00     0.029 A 
ATOM     73  C   UNL A   1      42.549  28.895  33.439  1.00  0.00     0.049 A 
ATOM     74  H   UNL A   1      40.882  30.098  32.963  1.00  0.00     0.167 HD
ATOM     75  C   UNL A   1      42.324  30.416  35.385  1.00  0.00     0.074 A 
ATOM     76  C   UNL A   1      42.724  30.908  36.687  1.00  0.00     0.031 C 
ATOM     77  C   UNL A   1      42.940  29.400  34.731  1.00  0.00     0.037 A 
BRANCH  64  78
ATOM     78  C   UNL A   1      40.386  27.997  29.281  1.00  0.00     0.057 A 
ATOM     79  C   UNL A   1      39.576  26.855  29.202  1.00  0.00     0.134 A 
ATOM     80  C   UNL A   1      41.177  28.302  28.165  1.00  0.00     0.134 A 
ATOM     81  F   UNL A   1      38.803  26.498  30.238  1.00  0.00    -0.206 F 
ATOM     82  C   UNL A   1      39.575  26.034  28.073  1.00  0.00     0.040 A 
ATOM     83  C   UNL A   1      41.163  27.506  27.018  1.00  0.00     0.040 A 
ATOM     84  F   UNL A   1      41.972  29.384  28.168  1.00  0.00    -0.206 F 
ATOM     85  C   UNL A   1      40.366  26.364  26.973  1.00  0.00     0.006 A 
ENDBRANCH  64  78
BRANCH  65  86
ATOM     86  C   UNL A   1      39.891  33.973  37.269  1.00  0.00     0.057 A 
ATOM     87  C   UNL A   1      40.653  35.143  37.368  1.00  0.00     0.134 A 
ATOM     88  C   UNL A   1      39.068  33.647  38.354  1.00  0.00     0.134 A 
ATOM     89  F   UNL A   1      41.476  35.499  36.370  1.00  0.00    -0.206 F 
ATOM     90  C   UNL A   1      40.617  35.946  38.510  1.00  0.00     0.040 A 
ATOM     91  C   UNL A   1      39.001  34.457  39.490  1.00  0.00     0.040 A 
ATOM     92  F   UNL A   1      38.306  32.544  38.320  1.00  0.00    -0.206 F 
ATOM     93  C   UNL A   1      39.784  35.605  39.573  1.00  0.00     0.006 A 
ENDBRANCH  65  86
BRANCH  77  94
ATOM     94  C   UNL A   1      44.134  28.778  35.394  1.00  0.00     0.057 A 
ATOM     95  C   UNL A   1      45.436  29.242  35.162  1.00  0.00     0.134 A 
ATOM     96  C   UNL A   1      43.974  27.728  36.306  1.00  0.00     0.134 A 
ATOM     97  F   UNL A   1      45.659  30.236  34.290  1.00  0.00    -0.206 F 
ATOM     98  C   UNL A   1      46.537  28.666  35.797  1.00  0.00     0.040 A 
ATOM     99  C   UNL A   1      45.065  27.165  36.970  1.00  0.00     0.040 A 
ATOM    100  F   UNL A   1      42.753  27.244  36.581  1.00  0.00    -0.206 F 
ATOM    101  C   UNL A   1      46.352  27.629  36.711  1.00  0.00     0.006 A 
ENDBRANCH  77  94
ENDBRANCH  51  52
ENDBRANCH  43  46
ENDBRANCH  41  42
ENDBRANCH  40  41
ENDBRANCH   1  40
TORSDOF 14
ENDMDL
