MODEL 1
REMARK VINA RESULT:     -12.4      0.000      0.000
REMARK SMILES C[C@H](NC(=O)c1cccc(NC(=O)c2ccccc2C(=O)NCCCCCCNC(=O)c2ccc(-c3c4nc(c(-c5c(F)cccc5F)c5ccc([nH]5)c(-c5c(F)cccc5F)c5nc(c(-c6c(F)cccc6F)c6ccc3[nH]6)C=C5)C=C4)cc2)c1)c1ccccc1
REMARK SMILES IDX 24 1 23 2 22 3 20 4 21 5 19 7 14 8 15 9 16 10 18 11 17 12
REMARK SMILES IDX 12 13 11 14 13 16 10 17 6 18 7 19 86 20 8 21 9 22 4 23 3 24
REMARK SMILES IDX 5 26 2 27 1 28 87 29 88 30 92 31 89 32 91 33 90 34 25 35
REMARK SMILES IDX 26 36 27 37 28 38 29 39 30 40 31 42 32 43 33 44 85 45 34 46
REMARK SMILES IDX 84 47 35 48 36 49 37 50 78 51 38 52 83 53 77 54 79 55 39 56
REMARK SMILES IDX 82 57 76 58 75 59 40 61 66 62 49 63 65 64 50 65 53 66 64 67
REMARK SMILES IDX 80 68 51 69 52 70 63 72 81 73 54 74 41 75 42 76 47 77 43 78
REMARK SMILES IDX 44 79 46 80 48 81 45 82 67 83 68 84 73 85 69 86 70 87 72 88
REMARK SMILES IDX 74 89 71 90 55 91 56 92 61 93 57 94 58 95 60 96 62 97 59 98
REMARK H PARENT 22 6 11 15 3 25 29 41 79 60 53 71
REMARK Flexibility Score: inf
ROOT
ATOM      1  C   UNL A   1      36.861  24.060  26.272  1.00  0.00     0.021 C 
ENDROOT
BRANCH   1   2
ATOM      2  C   UNL A   1      35.415  24.025  25.792  1.00  0.00     0.116 C 
BRANCH   2   3
ATOM      3  N   UNL A   1      35.249  24.101  24.359  1.00  0.00    -0.352 N 
ATOM      4  C   UNL A   1      34.680  23.197  23.496  1.00  0.00     0.252 C 
ATOM      5  O   UNL A   1      34.669  23.476  22.295  1.00  0.00    -0.269 OA
ATOM      6  H   UNL A   1      35.594  24.922  23.939  1.00  0.00     0.163 HD
BRANCH   4   7
ATOM      7  C   UNL A   1      34.170  21.864  23.927  1.00  0.00     0.052 A 
ATOM      8  C   UNL A   1      32.939  21.275  23.597  1.00  0.00     0.052 A 
ATOM      9  C   UNL A   1      32.578  20.041  24.176  1.00  0.00     0.014 A 
ATOM     10  C   UNL A   1      33.475  19.331  24.971  1.00  0.00     0.001 A 
ATOM     11  C   UNL A   1      35.083  21.103  24.690  1.00  0.00     0.014 A 
ATOM     12  C   UNL A   1      34.745  19.845  25.195  1.00  0.00     0.001 A 
BRANCH   8  13
ATOM     13  C   UNL A   1      31.935  21.803  22.649  1.00  0.00     0.256 C 
ATOM     14  N   UNL A   1      31.144  22.904  22.894  1.00  0.00    -0.322 N 
ATOM     15  H   UNL A   1      30.480  23.083  22.190  1.00  0.00     0.170 HD
ATOM     16  O   UNL A   1      31.777  21.185  21.592  1.00  0.00    -0.269 OA
BRANCH  14  17
ATOM     17  C   UNL A   1      31.106  23.819  23.959  1.00  0.00     0.042 A 
ATOM     18  C   UNL A   1      31.146  26.148  24.636  1.00  0.00     0.041 A 
ATOM     19  C   UNL A   1      30.712  25.783  25.912  1.00  0.00     0.014 A 
ATOM     20  C   UNL A   1      31.400  25.161  23.675  1.00  0.00     0.040 A 
ATOM     21  C   UNL A   1      30.548  24.439  26.231  1.00  0.00     0.003 A 
ATOM     22  C   UNL A   1      30.767  23.461  25.263  1.00  0.00     0.026 A 
BRANCH  18  23
ATOM     23  C   UNL A   1      31.509  27.564  24.452  1.00  0.00     0.251 C 
ATOM     24  N   UNL A   1      30.710  28.494  23.851  1.00  0.00    -0.346 N 
ATOM     25  H   UNL A   1      31.035  29.411  24.009  1.00  0.00     0.164 HD
ATOM     26  O   UNL A   1      32.584  27.930  24.930  1.00  0.00    -0.269 OA
BRANCH  24  27
ATOM     27  C   UNL A   1      29.505  28.481  23.043  1.00  0.00     0.109 C 
ATOM     28  C   UNL A   1      28.404  27.556  23.488  1.00  0.00     0.036 C 
BRANCH  27  29
ATOM     29  C   UNL A   1      28.917  29.832  22.690  1.00  0.00    -0.026 A 
ATOM     30  C   UNL A   1      28.436  30.115  21.404  1.00  0.00     0.006 A 
ATOM     31  C   UNL A   1      29.039  30.888  23.612  1.00  0.00     0.006 A 
ATOM     32  C   UNL A   1      28.134  31.429  21.036  1.00  0.00     0.000 A 
ATOM     33  C   UNL A   1      28.728  32.197  23.244  1.00  0.00     0.000 A 
ATOM     34  C   UNL A   1      28.287  32.469  21.953  1.00  0.00     0.000 A 
ENDBRANCH  27  29
ENDBRANCH  24  27
ENDBRANCH  18  23
ENDBRANCH  14  17
ENDBRANCH   8  13
ENDBRANCH   4   7
ENDBRANCH   2   3
ENDBRANCH   1   2
BRANCH   1  35
ATOM     35  C   UNL A   1      37.857  23.290  25.402  1.00  0.00     0.002 C 
BRANCH  35  36
ATOM     36  C   UNL A   1      38.637  22.175  26.101  1.00  0.00     0.002 C 
BRANCH  36  37
ATOM     37  C   UNL A   1      38.859  20.872  25.360  1.00  0.00     0.021 C 
BRANCH  37  38
ATOM     38  C   UNL A   1      39.342  19.735  26.231  1.00  0.00     0.116 C 
BRANCH  38  39
ATOM     39  N   UNL A   1      40.606  19.162  25.791  1.00  0.00    -0.352 N 
ATOM     40  C   UNL A   1      41.862  19.718  25.787  1.00  0.00     0.251 C 
ATOM     41  H   UNL A   1      40.553  18.242  25.445  1.00  0.00     0.163 HD
ATOM     42  O   UNL A   1      42.800  19.125  25.274  1.00  0.00    -0.269 OA
BRANCH  40  43
ATOM     43  C   UNL A   1      42.063  21.057  26.382  1.00  0.00     0.039 A 
ATOM     44  C   UNL A   1      42.006  21.198  27.769  1.00  0.00     0.014 A 
ATOM     45  C   UNL A   1      42.328  22.165  25.573  1.00  0.00     0.014 A 
ATOM     46  C   UNL A   1      42.259  22.445  28.341  1.00  0.00     0.010 A 
ATOM     47  C   UNL A   1      42.712  23.366  26.148  1.00  0.00     0.010 A 
ATOM     48  C   UNL A   1      42.638  23.532  27.535  1.00  0.00    -0.014 A 
BRANCH  48  49
ATOM     49  C   UNL A   1      42.884  24.872  28.119  1.00  0.00     0.031 A 
ATOM     50  C   UNL A   1      44.284  25.255  28.532  1.00  0.00     0.074 A 
ATOM     51  C   UNL A   1      41.856  25.720  28.309  1.00  0.00     0.049 A 
ATOM     52  N   UNL A   1      44.709  26.367  29.072  1.00  0.00    -0.248 NA
ATOM     53  C   UNL A   1      45.340  24.243  28.349  1.00  0.00     0.031 C 
ATOM     54  C   UNL A   1      40.449  25.431  28.018  1.00  0.00     0.029 A 
ATOM     55  N   UNL A   1      41.836  27.002  28.794  1.00  0.00    -0.354 N 
ATOM     56  C   UNL A   1      46.064  26.176  29.312  1.00  0.00     0.074 A 
ATOM     57  C   UNL A   1      46.382  24.823  28.924  1.00  0.00     0.031 C 
ATOM     58  C   UNL A   1      39.711  26.518  28.294  1.00  0.00     0.029 A 
ATOM     59  C   UNL A   1      40.583  27.567  28.812  1.00  0.00     0.049 A 
ATOM     60  H   UNL A   1      42.644  27.476  29.100  1.00  0.00     0.167 HD
ATOM     61  C   UNL A   1      46.973  27.060  29.782  1.00  0.00     0.037 A 
ATOM     62  C   UNL A   1      40.190  28.794  29.200  1.00  0.00     0.037 A 
ATOM     63  C   UNL A   1      46.662  28.425  30.112  1.00  0.00     0.049 A 
ATOM     64  C   UNL A   1      41.233  29.770  29.677  1.00  0.00     0.074 A 
ATOM     65  C   UNL A   1      47.522  29.430  30.512  1.00  0.00     0.029 A 
ATOM     66  N   UNL A   1      45.390  28.972  30.076  1.00  0.00    -0.354 N 
ATOM     67  N   UNL A   1      42.528  29.605  29.803  1.00  0.00    -0.248 NA
ATOM     68  C   UNL A   1      40.760  31.110  30.047  1.00  0.00     0.031 C 
ATOM     69  C   UNL A   1      46.763  30.575  30.768  1.00  0.00     0.029 A 
ATOM     70  C   UNL A   1      45.438  30.299  30.468  1.00  0.00     0.049 A 
ATOM     71  H   UNL A   1      44.574  28.490  29.810  1.00  0.00     0.167 HD
ATOM     72  C   UNL A   1      43.027  30.830  30.230  1.00  0.00     0.074 A 
ATOM     73  C   UNL A   1      41.898  31.732  30.316  1.00  0.00     0.031 C 
ATOM     74  C   UNL A   1      44.302  31.180  30.530  1.00  0.00     0.037 A 
BRANCH  61  75
ATOM     75  C   UNL A   1      48.389  26.594  29.955  1.00  0.00     0.057 A 
ATOM     76  C   UNL A   1      49.352  26.758  28.951  1.00  0.00     0.134 A 
ATOM     77  C   UNL A   1      48.809  26.032  31.167  1.00  0.00     0.134 A 
ATOM     78  F   UNL A   1      49.014  27.273  27.760  1.00  0.00    -0.206 F 
ATOM     79  C   UNL A   1      50.680  26.369  29.143  1.00  0.00     0.040 A 
ATOM     80  C   UNL A   1      50.138  25.664  31.380  1.00  0.00     0.040 A 
ATOM     81  F   UNL A   1      47.937  25.845  32.170  1.00  0.00    -0.206 F 
ATOM     82  C   UNL A   1      51.078  25.831  30.366  1.00  0.00     0.006 A 
ENDBRANCH  61  75
BRANCH  62  83
ATOM     83  C   UNL A   1      38.758  29.188  29.140  1.00  0.00     0.057 A 
ATOM     84  C   UNL A   1      37.938  29.124  30.274  1.00  0.00     0.134 A 
ATOM     85  C   UNL A   1      38.160  29.581  27.937  1.00  0.00     0.134 A 
ATOM     86  F   UNL A   1      38.446  28.743  31.455  1.00  0.00    -0.206 F 
ATOM     87  C   UNL A   1      36.569  29.388  30.204  1.00  0.00     0.040 A 
ATOM     88  C   UNL A   1      36.799  29.880  27.859  1.00  0.00     0.040 A 
ATOM     89  F   UNL A   1      38.891  29.677  26.816  1.00  0.00    -0.206 F 
ATOM     90  C   UNL A   1      35.996  29.767  28.992  1.00  0.00     0.006 A 
ENDBRANCH  62  83
BRANCH  74  91
ATOM     91  C   UNL A   1      44.542  32.609  30.922  1.00  0.00     0.057 A 
ATOM     92  C   UNL A   1      44.513  33.028  32.258  1.00  0.00     0.134 A 
ATOM     93  C   UNL A   1      44.816  33.576  29.946  1.00  0.00     0.134 A 
ATOM     94  F   UNL A   1      44.249  32.154  33.241  1.00  0.00    -0.206 F 
ATOM     95  C   UNL A   1      44.700  34.367  32.605  1.00  0.00     0.040 A 
ATOM     96  C   UNL A   1      45.041  34.910  30.284  1.00  0.00     0.040 A 
ATOM     97  F   UNL A   1      44.875  33.238  28.649  1.00  0.00    -0.206 F 
ATOM     98  C   UNL A   1      44.969  35.311  31.616  1.00  0.00     0.006 A 
ENDBRANCH  74  91
ENDBRANCH  48  49
ENDBRANCH  40  43
ENDBRANCH  38  39
ENDBRANCH  37  38
ENDBRANCH  36  37
ENDBRANCH  35  36
ENDBRANCH   1  35
TORSDOF 18
ENDMDL
MODEL 2
REMARK VINA RESULT:     -12.3      2.269      3.345
REMARK SMILES C[C@H](NC(=O)c1cccc(NC(=O)c2ccccc2C(=O)NCCCCCCNC(=O)c2ccc(-c3c4nc(c(-c5c(F)cccc5F)c5ccc([nH]5)c(-c5c(F)cccc5F)c5nc(c(-c6c(F)cccc6F)c6ccc3[nH]6)C=C5)C=C4)cc2)c1)c1ccccc1
REMARK SMILES IDX 24 1 23 2 22 3 20 4 21 5 19 7 14 8 15 9 16 10 18 11 17 12
REMARK SMILES IDX 12 13 11 14 13 16 10 17 6 18 7 19 86 20 8 21 9 22 4 23 3 24
REMARK SMILES IDX 5 26 2 27 1 28 87 29 88 30 92 31 89 32 91 33 90 34 25 35
REMARK SMILES IDX 26 36 27 37 28 38 29 39 30 40 31 42 32 43 33 44 85 45 34 46
REMARK SMILES IDX 84 47 35 48 36 49 37 50 78 51 38 52 83 53 77 54 79 55 39 56
REMARK SMILES IDX 82 57 76 58 75 59 40 61 66 62 49 63 65 64 50 65 53 66 64 67
REMARK SMILES IDX 80 68 51 69 52 70 63 72 81 73 54 74 41 75 42 76 47 77 43 78
REMARK SMILES IDX 44 79 46 80 48 81 45 82 67 83 68 84 73 85 69 86 70 87 72 88
REMARK SMILES IDX 74 89 71 90 55 91 56 92 61 93 57 94 58 95 60 96 62 97 59 98
REMARK H PARENT 22 6 11 15 3 25 29 41 79 60 53 71
REMARK Flexibility Score: inf
ROOT
ATOM      1  C   UNL A   1      38.550  20.879  25.532  1.00  0.00     0.021 C 
ENDROOT
BRANCH   1   2
ATOM      2  C   UNL A   1      37.271  21.564  25.063  1.00  0.00     0.116 C 
BRANCH   2   3
ATOM      3  N   UNL A   1      36.499  22.189  26.112  1.00  0.00    -0.352 N 
ATOM      4  C   UNL A   1      35.137  22.278  26.259  1.00  0.00     0.252 C 
ATOM      5  O   UNL A   1      34.702  22.886  27.239  1.00  0.00    -0.269 OA
ATOM      6  H   UNL A   1      37.027  22.614  26.826  1.00  0.00     0.163 HD
BRANCH   4   7
ATOM      7  C   UNL A   1      34.169  21.764  25.247  1.00  0.00     0.052 A 
ATOM      8  C   UNL A   1      33.856  22.333  24.002  1.00  0.00     0.052 A 
ATOM      9  C   UNL A   1      32.839  21.761  23.210  1.00  0.00     0.014 A 
ATOM     10  C   UNL A   1      32.226  20.566  23.581  1.00  0.00     0.001 A 
ATOM     11  C   UNL A   1      33.575  20.526  25.577  1.00  0.00     0.014 A 
ATOM     12  C   UNL A   1      32.624  19.928  24.747  1.00  0.00     0.001 A 
BRANCH   8  13
ATOM     13  C   UNL A   1      34.511  23.501  23.376  1.00  0.00     0.256 C 
ATOM     14  N   UNL A   1      34.082  24.801  23.526  1.00  0.00    -0.322 N 
ATOM     15  H   UNL A   1      34.587  25.453  22.989  1.00  0.00     0.170 HD
ATOM     16  O   UNL A   1      35.480  23.278  22.644  1.00  0.00    -0.269 OA
BRANCH  14  17
ATOM     17  C   UNL A   1      33.057  25.373  24.299  1.00  0.00     0.042 A 
ATOM     18  C   UNL A   1      30.764  26.160  24.365  1.00  0.00     0.041 A 
ATOM     19  C   UNL A   1      30.817  26.191  25.761  1.00  0.00     0.014 A 
ATOM     20  C   UNL A   1      31.903  25.807  23.630  1.00  0.00     0.040 A 
ATOM     21  C   UNL A   1      32.005  25.887  26.416  1.00  0.00     0.003 A 
ATOM     22  C   UNL A   1      33.127  25.502  25.685  1.00  0.00     0.026 A 
BRANCH  18  23
ATOM     23  C   UNL A   1      29.545  26.709  23.747  1.00  0.00     0.251 C 
ATOM     24  N   UNL A   1      29.523  27.787  22.909  1.00  0.00    -0.346 N 
ATOM     25  H   UNL A   1      28.659  27.870  22.443  1.00  0.00     0.164 HD
ATOM     26  O   UNL A   1      28.491  26.110  23.964  1.00  0.00    -0.269 OA
BRANCH  24  27
ATOM     27  C   UNL A   1      30.445  28.842  22.526  1.00  0.00     0.109 C 
ATOM     28  C   UNL A   1      29.845  30.054  21.867  1.00  0.00     0.036 C 
BRANCH  27  29
ATOM     29  C   UNL A   1      31.441  29.279  23.579  1.00  0.00    -0.026 A 
ATOM     30  C   UNL A   1      32.809  28.993  23.467  1.00  0.00     0.006 A 
ATOM     31  C   UNL A   1      30.960  29.808  24.792  1.00  0.00     0.006 A 
ATOM     32  C   UNL A   1      33.662  29.184  24.558  1.00  0.00     0.000 A 
ATOM     33  C   UNL A   1      31.816  30.004  25.876  1.00  0.00     0.000 A 
ATOM     34  C   UNL A   1      33.164  29.681  25.762  1.00  0.00     0.000 A 
ENDBRANCH  27  29
ENDBRANCH  24  27
ENDBRANCH  18  23
ENDBRANCH  14  17
ENDBRANCH   8  13
ENDBRANCH   4   7
ENDBRANCH   2   3
ENDBRANCH   1   2
BRANCH   1  35
ATOM     35  C   UNL A   1      39.601  21.806  26.145  1.00  0.00     0.002 C 
BRANCH  35  36
ATOM     36  C   UNL A   1      40.982  21.192  26.381  1.00  0.00     0.002 C 
BRANCH  36  37
ATOM     37  C   UNL A   1      41.199  19.736  26.024  1.00  0.00     0.021 C 
BRANCH  37  38
ATOM     38  C   UNL A   1      42.577  19.212  26.356  1.00  0.00     0.116 C 
BRANCH  38  39
ATOM     39  N   UNL A   1      43.386  18.919  25.182  1.00  0.00    -0.352 N 
ATOM     40  C   UNL A   1      44.212  19.748  24.463  1.00  0.00     0.251 C 
ATOM     41  H   UNL A   1      43.335  17.991  24.856  1.00  0.00     0.163 HD
ATOM     42  O   UNL A   1      44.734  19.356  23.429  1.00  0.00    -0.269 OA
BRANCH  40  43
ATOM     43  C   UNL A   1      44.437  21.132  24.933  1.00  0.00     0.039 A 
ATOM     44  C   UNL A   1      43.840  22.188  24.244  1.00  0.00     0.014 A 
ATOM     45  C   UNL A   1      45.218  21.383  26.064  1.00  0.00     0.014 A 
ATOM     46  C   UNL A   1      43.994  23.491  24.720  1.00  0.00     0.010 A 
ATOM     47  C   UNL A   1      45.255  22.656  26.611  1.00  0.00     0.010 A 
ATOM     48  C   UNL A   1      44.683  23.730  25.921  1.00  0.00    -0.014 A 
BRANCH  48  49
ATOM     49  C   UNL A   1      44.882  25.107  26.431  1.00  0.00     0.031 A 
ATOM     50  C   UNL A   1      46.265  25.710  26.421  1.00  0.00     0.074 A 
ATOM     51  C   UNL A   1      43.837  25.795  26.930  1.00  0.00     0.049 A 
ATOM     52  N   UNL A   1      46.655  26.888  26.833  1.00  0.00    -0.248 NA
ATOM     53  C   UNL A   1      47.364  24.864  25.918  1.00  0.00     0.031 C 
ATOM     54  C   UNL A   1      42.469  25.288  27.060  1.00  0.00     0.029 A 
ATOM     55  N   UNL A   1      43.765  27.072  27.423  1.00  0.00    -0.354 N 
ATOM     56  C   UNL A   1      48.034  26.911  26.660  1.00  0.00     0.074 A 
ATOM     57  C   UNL A   1      48.426  25.611  26.172  1.00  0.00     0.031 C 
ATOM     58  C   UNL A   1      41.686  26.258  27.561  1.00  0.00     0.029 A 
ATOM     59  C   UNL A   1      42.501  27.440  27.819  1.00  0.00     0.049 A 
ATOM     60  H   UNL A   1      44.545  27.671  27.486  1.00  0.00     0.167 HD
ATOM     61  C   UNL A   1      48.893  27.935  26.859  1.00  0.00     0.037 A 
ATOM     62  C   UNL A   1      42.056  28.604  28.328  1.00  0.00     0.037 A 
ATOM     63  C   UNL A   1      48.488  29.245  27.291  1.00  0.00     0.049 A 
ATOM     64  C   UNL A   1      43.031  29.739  28.495  1.00  0.00     0.074 A 
ATOM     65  C   UNL A   1      49.263  30.381  27.438  1.00  0.00     0.029 A 
ATOM     66  N   UNL A   1      47.193  29.592  27.639  1.00  0.00    -0.354 N 
ATOM     67  N   UNL A   1      44.315  29.777  28.231  1.00  0.00    -0.248 NA
ATOM     68  C   UNL A   1      42.488  31.002  29.012  1.00  0.00     0.031 C 
ATOM     69  C   UNL A   1      48.446  31.403  27.927  1.00  0.00     0.029 A 
ATOM     70  C   UNL A   1      47.151  30.921  28.024  1.00  0.00     0.049 A 
ATOM     71  H   UNL A   1      46.419  28.985  27.617  1.00  0.00     0.167 HD
ATOM     72  C   UNL A   1      44.724  31.074  28.515  1.00  0.00     0.074 A 
ATOM     73  C   UNL A   1      43.546  31.796  28.946  1.00  0.00     0.031 C 
ATOM     74  C   UNL A   1      45.962  31.621  28.433  1.00  0.00     0.037 A 
BRANCH  61  75
ATOM     75  C   UNL A   1      50.352  27.694  26.599  1.00  0.00     0.057 A 
ATOM     76  C   UNL A   1      50.936  27.950  25.351  1.00  0.00     0.134 A 
ATOM     77  C   UNL A   1      51.195  27.261  27.630  1.00  0.00     0.134 A 
ATOM     78  F   UNL A   1      50.183  28.349  24.316  1.00  0.00    -0.206 F 
ATOM     79  C   UNL A   1      52.305  27.772  25.136  1.00  0.00     0.040 A 
ATOM     80  C   UNL A   1      52.567  27.107  27.435  1.00  0.00     0.040 A 
ATOM     81  F   UNL A   1      50.700  26.997  28.850  1.00  0.00    -0.206 F 
ATOM     82  C   UNL A   1      53.126  27.361  26.185  1.00  0.00     0.006 A 
ENDBRANCH  61  75
BRANCH  62  83
ATOM     83  C   UNL A   1      40.627  28.775  28.698  1.00  0.00     0.057 A 
ATOM     84  C   UNL A   1      39.663  29.115  27.741  1.00  0.00     0.134 A 
ATOM     85  C   UNL A   1      40.200  28.661  30.027  1.00  0.00     0.134 A 
ATOM     86  F   UNL A   1      40.010  29.253  26.453  1.00  0.00    -0.206 F 
ATOM     87  C   UNL A   1      38.340  29.384  28.097  1.00  0.00     0.040 A 
ATOM     88  C   UNL A   1      38.874  28.895  30.392  1.00  0.00     0.040 A 
ATOM     89  F   UNL A   1      41.069  28.325  30.992  1.00  0.00    -0.206 F 
ATOM     90  C   UNL A   1      37.943  29.274  29.427  1.00  0.00     0.006 A 
ENDBRANCH  62  83
BRANCH  74  91
ATOM     91  C   UNL A   1      46.085  33.081  28.764  1.00  0.00     0.057 A 
ATOM     92  C   UNL A   1      45.943  34.079  27.791  1.00  0.00     0.134 A 
ATOM     93  C   UNL A   1      46.342  33.490  30.079  1.00  0.00     0.134 A 
ATOM     94  F   UNL A   1      45.705  33.754  26.512  1.00  0.00    -0.206 F 
ATOM     95  C   UNL A   1      46.099  35.429  28.107  1.00  0.00     0.040 A 
ATOM     96  C   UNL A   1      46.463  34.839  30.412  1.00  0.00     0.040 A 
ATOM     97  F   UNL A   1      46.472  32.586  31.062  1.00  0.00    -0.206 F 
ATOM     98  C   UNL A   1      46.355  35.812  29.422  1.00  0.00     0.006 A 
ENDBRANCH  74  91
ENDBRANCH  48  49
ENDBRANCH  40  43
ENDBRANCH  38  39
ENDBRANCH  37  38
ENDBRANCH  36  37
ENDBRANCH  35  36
ENDBRANCH   1  35
TORSDOF 18
ENDMDL
MODEL 3
REMARK VINA RESULT:     -12.3      4.914     10.192
REMARK SMILES C[C@H](NC(=O)c1cccc(NC(=O)c2ccccc2C(=O)NCCCCCCNC(=O)c2ccc(-c3c4nc(c(-c5c(F)cccc5F)c5ccc([nH]5)c(-c5c(F)cccc5F)c5nc(c(-c6c(F)cccc6F)c6ccc3[nH]6)C=C5)C=C4)cc2)c1)c1ccccc1
REMARK SMILES IDX 24 1 23 2 22 3 20 4 21 5 19 7 14 8 15 9 16 10 18 11 17 12
REMARK SMILES IDX 12 13 11 14 13 16 10 17 6 18 7 19 86 20 8 21 9 22 4 23 3 24
REMARK SMILES IDX 5 26 2 27 1 28 87 29 88 30 92 31 89 32 91 33 90 34 25 35
REMARK SMILES IDX 26 36 27 37 28 38 29 39 30 40 31 42 32 43 33 44 85 45 34 46
REMARK SMILES IDX 84 47 35 48 36 49 37 50 78 51 38 52 83 53 77 54 79 55 39 56
REMARK SMILES IDX 82 57 76 58 75 59 40 61 66 62 49 63 65 64 50 65 53 66 64 67
REMARK SMILES IDX 80 68 51 69 52 70 63 72 81 73 54 74 41 75 42 76 47 77 43 78
REMARK SMILES IDX 44 79 46 80 48 81 45 82 67 83 68 84 73 85 69 86 70 87 72 88
REMARK SMILES IDX 74 89 71 90 55 91 56 92 61 93 57 94 58 95 60 96 62 97 59 98
REMARK H PARENT 22 6 11 15 3 25 29 41 79 60 53 71
REMARK Flexibility Score: inf
ROOT
ATOM      1  C   UNL A   1      34.209  31.026  27.969  1.00  0.00     0.021 C 
ENDROOT
BRANCH   1   2
ATOM      2  C   UNL A   1      33.203  30.548  26.929  1.00  0.00     0.116 C 
BRANCH   2   3
ATOM      3  N   UNL A   1      32.515  29.323  27.268  1.00  0.00    -0.352 N 
ATOM      4  C   UNL A   1      31.803  28.469  26.463  1.00  0.00     0.252 C 
ATOM      5  O   UNL A   1      31.282  27.484  26.988  1.00  0.00    -0.269 OA
ATOM      6  H   UNL A   1      32.563  29.063  28.217  1.00  0.00     0.163 HD
BRANCH   4   7
ATOM      7  C   UNL A   1      31.552  28.728  25.016  1.00  0.00     0.052 A 
ATOM      8  C   UNL A   1      32.445  28.537  23.949  1.00  0.00     0.052 A 
ATOM      9  C   UNL A   1      32.069  28.929  22.647  1.00  0.00     0.014 A 
ATOM     10  C   UNL A   1      30.779  29.383  22.377  1.00  0.00     0.001 A 
ATOM     11  C   UNL A   1      30.235  29.138  24.711  1.00  0.00     0.014 A 
ATOM     12  C   UNL A   1      29.850  29.449  23.405  1.00  0.00     0.001 A 
BRANCH   8  13
ATOM     13  C   UNL A   1      33.787  27.923  24.021  1.00  0.00     0.256 C 
ATOM     14  N   UNL A   1      34.013  26.570  24.151  1.00  0.00    -0.322 N 
ATOM     15  H   UNL A   1      34.962  26.331  24.252  1.00  0.00     0.170 HD
ATOM     16  O   UNL A   1      34.758  28.685  24.002  1.00  0.00    -0.269 OA
BRANCH  14  17
ATOM     17  C   UNL A   1      33.143  25.466  24.168  1.00  0.00     0.042 A 
ATOM     18  C   UNL A   1      31.967  23.830  25.518  1.00  0.00     0.041 A 
ATOM     19  C   UNL A   1      31.180  23.489  24.416  1.00  0.00     0.014 A 
ATOM     20  C   UNL A   1      32.990  24.778  25.380  1.00  0.00     0.040 A 
ATOM     21  C   UNL A   1      31.424  24.080  23.180  1.00  0.00     0.003 A 
ATOM     22  C   UNL A   1      32.418  25.048  23.053  1.00  0.00     0.026 A 
BRANCH  18  23
ATOM     23  C   UNL A   1      31.794  23.002  26.724  1.00  0.00     0.251 C 
ATOM     24  N   UNL A   1      32.535  21.890  27.010  1.00  0.00    -0.346 N 
ATOM     25  H   UNL A   1      32.414  21.601  27.943  1.00  0.00     0.164 HD
ATOM     26  O   UNL A   1      30.962  23.383  27.548  1.00  0.00    -0.269 OA
BRANCH  24  27
ATOM     27  C   UNL A   1      33.457  21.027  26.293  1.00  0.00     0.109 C 
ATOM     28  C   UNL A   1      32.850  20.056  25.317  1.00  0.00     0.036 C 
BRANCH  27  29
ATOM     29  C   UNL A   1      34.653  21.703  25.656  1.00  0.00    -0.026 A 
ATOM     30  C   UNL A   1      35.585  22.426  26.415  1.00  0.00     0.006 A 
ATOM     31  C   UNL A   1      34.725  21.777  24.253  1.00  0.00     0.006 A 
ATOM     32  C   UNL A   1      36.529  23.241  25.785  1.00  0.00     0.000 A 
ATOM     33  C   UNL A   1      35.674  22.585  23.627  1.00  0.00     0.000 A 
ATOM     34  C   UNL A   1      36.568  23.326  24.393  1.00  0.00     0.000 A 
ENDBRANCH  27  29
ENDBRANCH  24  27
ENDBRANCH  18  23
ENDBRANCH  14  17
ENDBRANCH   8  13
ENDBRANCH   4   7
ENDBRANCH   2   3
ENDBRANCH   1   2
BRANCH   1  35
ATOM     35  C   UNL A   1      34.653  32.483  27.826  1.00  0.00     0.002 C 
BRANCH  35  36
ATOM     36  C   UNL A   1      34.245  33.424  28.961  1.00  0.00     0.002 C 
BRANCH  36  37
ATOM     37  C   UNL A   1      33.162  34.450  28.698  1.00  0.00     0.021 C 
BRANCH  37  38
ATOM     38  C   UNL A   1      33.422  35.803  29.319  1.00  0.00     0.116 C 
BRANCH  38  39
ATOM     39  N   UNL A   1      32.510  36.129  30.406  1.00  0.00    -0.352 N 
ATOM     40  C   UNL A   1      32.586  35.799  31.737  1.00  0.00     0.251 C 
ATOM     41  H   UNL A   1      31.723  36.663  30.150  1.00  0.00     0.163 HD
ATOM     42  O   UNL A   1      31.664  36.068  32.494  1.00  0.00    -0.269 OA
BRANCH  40  43
ATOM     43  C   UNL A   1      33.781  35.088  32.240  1.00  0.00     0.039 A 
ATOM     44  C   UNL A   1      33.641  33.787  32.725  1.00  0.00     0.014 A 
ATOM     45  C   UNL A   1      35.038  35.697  32.213  1.00  0.00     0.014 A 
ATOM     46  C   UNL A   1      34.774  33.086  33.140  1.00  0.00     0.010 A 
ATOM     47  C   UNL A   1      36.173  34.954  32.496  1.00  0.00     0.010 A 
ATOM     48  C   UNL A   1      36.051  33.657  33.005  1.00  0.00    -0.014 A 
BRANCH  48  49
ATOM     49  C   UNL A   1      37.264  32.941  33.465  1.00  0.00     0.031 A 
ATOM     50  C   UNL A   1      37.885  31.889  32.580  1.00  0.00     0.074 A 
ATOM     51  C   UNL A   1      37.781  33.208  34.680  1.00  0.00     0.049 A 
ATOM     52  N   UNL A   1      38.935  31.141  32.799  1.00  0.00    -0.248 NA
ATOM     53  C   UNL A   1      37.218  31.612  31.294  1.00  0.00     0.031 C 
ATOM     54  C   UNL A   1      37.223  34.151  35.653  1.00  0.00     0.029 A 
ATOM     55  N   UNL A   1      38.895  32.710  35.303  1.00  0.00    -0.354 N 
ATOM     56  C   UNL A   1      39.035  30.299  31.698  1.00  0.00     0.074 A 
ATOM     57  C   UNL A   1      37.907  30.576  30.843  1.00  0.00     0.031 C 
ATOM     58  C   UNL A   1      38.019  34.189  36.734  1.00  0.00     0.029 A 
ATOM     59  C   UNL A   1      39.121  33.253  36.546  1.00  0.00     0.049 A 
ATOM     60  H   UNL A   1      39.479  32.027  34.900  1.00  0.00     0.167 HD
ATOM     61  C   UNL A   1      40.001  29.398  31.408  1.00  0.00     0.037 A 
ATOM     62  C   UNL A   1      40.112  33.020  37.426  1.00  0.00     0.037 A 
ATOM     63  C   UNL A   1      41.153  29.168  32.236  1.00  0.00     0.049 A 
ATOM     64  C   UNL A   1      41.196  32.043  37.054  1.00  0.00     0.074 A 
ATOM     65  C   UNL A   1      42.236  28.344  31.994  1.00  0.00     0.029 A 
ATOM     66  N   UNL A   1      41.370  29.770  33.465  1.00  0.00    -0.354 N 
ATOM     67  N   UNL A   1      41.330  31.328  35.962  1.00  0.00    -0.248 NA
ATOM     68  C   UNL A   1      42.278  31.857  38.029  1.00  0.00     0.031 C 
ATOM     69  C   UNL A   1      43.086  28.407  33.101  1.00  0.00     0.029 A 
ATOM     70  C   UNL A   1      42.562  29.317  34.005  1.00  0.00     0.049 A 
ATOM     71  H   UNL A   1      40.768  30.421  33.891  1.00  0.00     0.167 HD
ATOM     72  C   UNL A   1      42.527  30.637  36.105  1.00  0.00     0.074 A 
ATOM     73  C   UNL A   1      43.091  31.040  37.376  1.00  0.00     0.031 C 
ATOM     74  C   UNL A   1      43.109  29.746  35.265  1.00  0.00     0.037 A 
BRANCH  61  75
ATOM     75  C   UNL A   1      39.868  28.603  30.141  1.00  0.00     0.057 A 
ATOM     76  C   UNL A   1      40.493  28.996  28.950  1.00  0.00     0.134 A 
ATOM     77  C   UNL A   1      39.159  27.396  30.131  1.00  0.00     0.134 A 
ATOM     78  F   UNL A   1      41.173  30.150  28.886  1.00  0.00    -0.206 F 
ATOM     79  C   UNL A   1      40.406  28.221  27.791  1.00  0.00     0.040 A 
ATOM     80  C   UNL A   1      39.088  26.600  28.988  1.00  0.00     0.040 A 
ATOM     81  F   UNL A   1      38.535  26.963  31.238  1.00  0.00    -0.206 F 
ATOM     82  C   UNL A   1      39.712  27.012  27.813  1.00  0.00     0.006 A 
ENDBRANCH  61  75
BRANCH  62  83
ATOM     83  C   UNL A   1      40.150  33.727  38.733  1.00  0.00     0.057 A 
ATOM     84  C   UNL A   1      39.342  33.323  39.803  1.00  0.00     0.134 A 
ATOM     85  C   UNL A   1      40.949  34.861  38.925  1.00  0.00     0.134 A 
ATOM     86  F   UNL A   1      38.543  32.252  39.679  1.00  0.00    -0.206 F 
ATOM     87  C   UNL A   1      39.290  34.045  40.996  1.00  0.00     0.040 A 
ATOM     88  C   UNL A   1      40.932  35.574  40.125  1.00  0.00     0.040 A 
ATOM     89  F   UNL A   1      41.757  35.295  37.946  1.00  0.00    -0.206 F 
ATOM     90  C   UNL A   1      40.088  35.176  41.159  1.00  0.00     0.006 A 
ENDBRANCH  62  83
BRANCH  74  91
ATOM     91  C   UNL A   1      44.444  29.195  35.675  1.00  0.00     0.057 A 
ATOM     92  C   UNL A   1      44.564  28.049  36.471  1.00  0.00     0.134 A 
ATOM     93  C   UNL A   1      45.627  29.820  35.257  1.00  0.00     0.134 A 
ATOM     94  F   UNL A   1      43.471  27.409  36.912  1.00  0.00    -0.206 F 
ATOM     95  C   UNL A   1      45.811  27.571  36.875  1.00  0.00     0.040 A 
ATOM     96  C   UNL A   1      46.879  29.329  35.625  1.00  0.00     0.040 A 
ATOM     97  F   UNL A   1      45.583  30.912  34.478  1.00  0.00    -0.206 F 
ATOM     98  C   UNL A   1      46.974  28.210  36.448  1.00  0.00     0.006 A 
ENDBRANCH  74  91
ENDBRANCH  48  49
ENDBRANCH  40  43
ENDBRANCH  38  39
ENDBRANCH  37  38
ENDBRANCH  36  37
ENDBRANCH  35  36
ENDBRANCH   1  35
TORSDOF 18
ENDMDL
