MODEL 1
REMARK VINA RESULT:     -10.7      0.000      0.000
REMARK SMILES CCOc1cc2c(cc1OCC)[C@@H](C(=O)NCCCCCCNC(=O)c1ccc(-c3c4nc(c(-c5c(F)cccc5F)c5ccc([nH]5)c(-c5c(F)cccc5F)c5nc(c(-c6c(F)cccc6F)c6ccc3[nH]6)C=C5)C=C4)cc1)[C@H](c1ccc(F)cc1Cl)N(C)C2=O
REMARK SMILES IDX 19 1 18 2 17 3 16 4 14 5 15 6 13 8 4 9 5 10 9 11 6 12 8 13
REMARK SMILES IDX 7 14 91 15 89 16 92 17 80 18 90 19 3 20 2 21 1 22 10 23
REMARK SMILES IDX 11 24 12 25 81 26 82 27 87 28 83 29 86 30 88 31 84 32 85 33
REMARK SMILES IDX 20 34 21 35 22 36 23 37 24 38 25 40 26 41 27 42 79 43 28 44
REMARK SMILES IDX 78 45 29 46 30 47 31 48 72 49 32 50 77 51 71 52 73 53 33 54
REMARK SMILES IDX 76 55 70 56 69 57 34 59 60 60 43 61 59 62 44 63 47 64 58 65
REMARK SMILES IDX 74 66 45 67 46 68 57 70 75 71 48 72 35 73 36 74 41 75 37 76
REMARK SMILES IDX 38 77 40 78 42 79 39 80 61 81 62 82 67 83 63 84 64 85 66 86
REMARK SMILES IDX 68 87 65 88 49 89 50 90 55 91 51 92 52 93 54 94 56 95 53 96
REMARK H PARENT 16 7 23 39 73 58 47 69
REMARK Flexibility Score: inf
ROOT
ATOM      1  C   UNL A   1      32.626  31.073  27.196  1.00  0.00     0.002 C 
ENDROOT
BRANCH   1   2
ATOM      2  C   UNL A   1      33.124  29.775  26.558  1.00  0.00     0.021 C 
BRANCH   2   3
ATOM      3  C   UNL A   1      32.425  29.430  25.240  1.00  0.00     0.116 C 
BRANCH   3   4
ATOM      4  N   UNL A   1      33.382  28.981  24.243  1.00  0.00    -0.355 N 
ATOM      5  C   UNL A   1      33.876  27.778  23.871  1.00  0.00     0.230 C 
ATOM      6  O   UNL A   1      34.794  27.823  23.037  1.00  0.00    -0.274 OA
ATOM      7  H   UNL A   1      33.758  29.724  23.718  1.00  0.00     0.163 HD
BRANCH   5   8
ATOM      8  C   UNL A   1      33.449  26.408  24.389  1.00  0.00     0.136 C 
ATOM      9  C   UNL A   1      36.076  23.002  24.232  1.00  0.00     0.161 A 
ATOM     10  C   UNL A   1      35.069  23.178  23.273  1.00  0.00     0.064 A 
ATOM     11  C   UNL A   1      36.244  23.943  25.257  1.00  0.00     0.161 A 
ATOM     12  C   UNL A   1      34.261  24.310  23.292  1.00  0.00     0.048 A 
ATOM     13  C   UNL A   1      35.430  25.086  25.258  1.00  0.00     0.056 A 
ATOM     14  C   UNL A   1      34.433  25.272  24.289  1.00  0.00    -0.016 A 
ATOM     15  C   UNL A   1      33.246  24.520  22.221  1.00  0.00     0.254 C 
ATOM     16  N   UNL A   1      32.215  25.412  22.510  1.00  0.00    -0.333 N 
ATOM     17  O   UNL A   1      33.391  23.958  21.137  1.00  0.00    -0.269 OA
ATOM     18  C   UNL A   1      32.052  25.944  23.864  1.00  0.00     0.134 C 
ATOM     19  C   UNL A   1      31.220  25.754  21.504  1.00  0.00     0.147 C 
BRANCH   9  20
ATOM     20  O   UNL A   1      36.788  21.834  24.189  1.00  0.00    -0.490 OA
BRANCH  20  21
ATOM     21  C   UNL A   1      36.321  20.856  25.128  1.00  0.00     0.226 C 
ATOM     22  C   UNL A   1      34.855  20.514  24.910  1.00  0.00     0.049 C 
ENDBRANCH  20  21
ENDBRANCH   9  20
BRANCH  11  23
ATOM     23  O   UNL A   1      37.089  23.922  26.331  1.00  0.00    -0.490 OA
BRANCH  23  24
ATOM     24  C   UNL A   1      38.491  24.098  26.166  1.00  0.00     0.226 C 
ATOM     25  C   UNL A   1      39.284  22.935  26.737  1.00  0.00     0.049 C 
ENDBRANCH  23  24
ENDBRANCH  11  23
BRANCH  18  26
ATOM     26  C   UNL A   1      31.360  24.980  24.873  1.00  0.00    -0.005 A 
ATOM     27  C   UNL A   1      31.376  23.605  24.516  1.00  0.00     0.010 A 
ATOM     28  C   UNL A   1      30.679  25.305  26.072  1.00  0.00     0.049 A 
ATOM     29  C   UNL A   1      30.656  22.642  25.227  1.00  0.00     0.040 A 
ATOM     30  C   UNL A   1      29.958  24.332  26.780  1.00  0.00     0.060 A 
ATOM     31  Cl  UNL A   1      30.654  26.848  26.848  1.00  0.00    -0.084 Cl
ATOM     32  C   UNL A   1      29.934  23.020  26.343  1.00  0.00     0.124 A 
ATOM     33  F   UNL A   1      29.221  22.110  27.017  1.00  0.00    -0.207 F 
ENDBRANCH  18  26
ENDBRANCH   5   8
ENDBRANCH   3   4
ENDBRANCH   2   3
ENDBRANCH   1   2
BRANCH   1  34
ATOM     34  C   UNL A   1      33.706  31.875  27.930  1.00  0.00     0.002 C 
BRANCH  34  35
ATOM     35  C   UNL A   1      35.139  31.362  27.758  1.00  0.00     0.021 C 
BRANCH  35  36
ATOM     36  C   UNL A   1      36.125  31.835  28.823  1.00  0.00     0.116 C 
BRANCH  36  37
ATOM     37  N   UNL A   1      35.915  31.156  30.094  1.00  0.00    -0.352 N 
ATOM     38  C   UNL A   1      36.637  30.154  30.688  1.00  0.00     0.251 C 
ATOM     39  H   UNL A   1      35.133  31.466  30.607  1.00  0.00     0.163 HD
ATOM     40  O   UNL A   1      36.165  29.532  31.635  1.00  0.00    -0.269 OA
BRANCH  38  41
ATOM     41  C   UNL A   1      37.988  29.820  30.192  1.00  0.00     0.039 A 
ATOM     42  C   UNL A   1      39.016  29.595  31.114  1.00  0.00     0.014 A 
ATOM     43  C   UNL A   1      38.253  29.773  28.821  1.00  0.00     0.014 A 
ATOM     44  C   UNL A   1      40.296  29.272  30.658  1.00  0.00     0.010 A 
ATOM     45  C   UNL A   1      39.509  29.380  28.370  1.00  0.00     0.010 A 
ATOM     46  C   UNL A   1      40.545  29.137  29.284  1.00  0.00    -0.014 A 
BRANCH  46  47
ATOM     47  C   UNL A   1      41.887  28.758  28.775  1.00  0.00     0.031 A 
ATOM     48  C   UNL A   1      42.149  27.346  28.325  1.00  0.00     0.074 A 
ATOM     49  C   UNL A   1      42.886  29.662  28.783  1.00  0.00     0.049 A 
ATOM     50  N   UNL A   1      43.271  26.796  27.936  1.00  0.00    -0.248 NA
ATOM     51  C   UNL A   1      41.002  26.425  28.339  1.00  0.00     0.031 C 
ATOM     52  C   UNL A   1      42.767  31.049  29.234  1.00  0.00     0.029 A 
ATOM     53  N   UNL A   1      44.203  29.543  28.418  1.00  0.00    -0.354 N 
ATOM     54  C   UNL A   1      42.968  25.464  27.679  1.00  0.00     0.074 A 
ATOM     55  C   UNL A   1      41.571  25.277  28.004  1.00  0.00     0.031 C 
ATOM     56  C   UNL A   1      43.956  31.658  29.101  1.00  0.00     0.029 A 
ATOM     57  C   UNL A   1      44.931  30.694  28.598  1.00  0.00     0.049 A 
ATOM     58  H   UNL A   1      44.589  28.711  28.059  1.00  0.00     0.167 HD
ATOM     59  C   UNL A   1      43.777  24.492  27.195  1.00  0.00     0.037 A 
ATOM     60  C   UNL A   1      46.238  30.939  28.394  1.00  0.00     0.037 A 
ATOM     61  C   UNL A   1      45.161  24.688  26.854  1.00  0.00     0.049 A 
ATOM     62  C   UNL A   1      47.118  29.838  27.870  1.00  0.00     0.074 A 
ATOM     63  C   UNL A   1      46.051  23.782  26.305  1.00  0.00     0.029 A 
ATOM     64  N   UNL A   1      45.857  25.876  27.033  1.00  0.00    -0.354 N 
ATOM     65  N   UNL A   1      46.806  28.601  27.570  1.00  0.00    -0.248 NA
ATOM     66  C   UNL A   1      48.533  30.169  27.651  1.00  0.00     0.031 C 
ATOM     67  C   UNL A   1      47.299  24.406  26.197  1.00  0.00     0.029 A 
ATOM     68  C   UNL A   1      47.172  25.718  26.625  1.00  0.00     0.049 A 
ATOM     69  H   UNL A   1      45.473  26.707  27.395  1.00  0.00     0.167 HD
ATOM     70  C   UNL A   1      47.973  28.017  27.096  1.00  0.00     0.074 A 
ATOM     71  C   UNL A   1      48.998  29.039  27.139  1.00  0.00     0.031 C 
ATOM     72  C   UNL A   1      48.177  26.749  26.660  1.00  0.00     0.037 A 
BRANCH  59  73
ATOM     73  C   UNL A   1      43.182  23.125  27.006  1.00  0.00     0.057 A 
ATOM     74  C   UNL A   1      42.885  22.616  25.736  1.00  0.00     0.134 A 
ATOM     75  C   UNL A   1      42.934  22.295  28.107  1.00  0.00     0.134 A 
ATOM     76  F   UNL A   1      43.087  23.363  24.639  1.00  0.00    -0.206 F 
ATOM     77  C   UNL A   1      42.335  21.344  25.568  1.00  0.00     0.040 A 
ATOM     78  C   UNL A   1      42.413  21.009  27.950  1.00  0.00     0.040 A 
ATOM     79  F   UNL A   1      43.203  22.715  29.353  1.00  0.00    -0.206 F 
ATOM     80  C   UNL A   1      42.105  20.533  26.678  1.00  0.00     0.006 A 
ENDBRANCH  59  73
BRANCH  60  81
ATOM     81  C   UNL A   1      46.793  32.290  28.666  1.00  0.00     0.057 A 
ATOM     82  C   UNL A   1      46.699  33.314  27.717  1.00  0.00     0.134 A 
ATOM     83  C   UNL A   1      47.437  32.589  29.873  1.00  0.00     0.134 A 
ATOM     84  F   UNL A   1      46.109  33.085  26.534  1.00  0.00    -0.206 F 
ATOM     85  C   UNL A   1      47.244  34.578  27.946  1.00  0.00     0.040 A 
ATOM     86  C   UNL A   1      47.962  33.857  30.127  1.00  0.00     0.040 A 
ATOM     87  F   UNL A   1      47.553  31.655  30.829  1.00  0.00    -0.206 F 
ATOM     88  C   UNL A   1      47.874  34.853  29.158  1.00  0.00     0.006 A 
ENDBRANCH  60  81
BRANCH  72  89
ATOM     89  C   UNL A   1      49.546  26.408  26.148  1.00  0.00     0.057 A 
ATOM     90  C   UNL A   1      49.962  26.747  24.854  1.00  0.00     0.134 A 
ATOM     91  C   UNL A   1      50.476  25.772  26.981  1.00  0.00     0.134 A 
ATOM     92  F   UNL A   1      49.116  27.346  24.002  1.00  0.00    -0.206 F 
ATOM     93  C   UNL A   1      51.248  26.447  24.400  1.00  0.00     0.040 A 
ATOM     94  C   UNL A   1      51.772  25.493  26.549  1.00  0.00     0.040 A 
ATOM     95  F   UNL A   1      50.144  25.428  28.235  1.00  0.00    -0.206 F 
ATOM     96  C   UNL A   1      52.160  25.825  25.252  1.00  0.00     0.006 A 
ENDBRANCH  72  89
ENDBRANCH  46  47
ENDBRANCH  38  41
ENDBRANCH  36  37
ENDBRANCH  35  36
ENDBRANCH  34  35
ENDBRANCH   1  34
TORSDOF 18
ENDMDL
MODEL 2
REMARK VINA RESULT:     -10.4      4.752     11.244
REMARK SMILES CCOc1cc2c(cc1OCC)[C@@H](C(=O)NCCCCCCNC(=O)c1ccc(-c3c4nc(c(-c5c(F)cccc5F)c5ccc([nH]5)c(-c5c(F)cccc5F)c5nc(c(-c6c(F)cccc6F)c6ccc3[nH]6)C=C5)C=C4)cc1)[C@H](c1ccc(F)cc1Cl)N(C)C2=O
REMARK SMILES IDX 19 1 18 2 17 3 16 4 14 5 15 6 13 8 4 9 5 10 9 11 6 12 8 13
REMARK SMILES IDX 7 14 91 15 89 16 92 17 80 18 90 19 3 20 2 21 1 22 10 23
REMARK SMILES IDX 11 24 12 25 81 26 82 27 87 28 83 29 86 30 88 31 84 32 85 33
REMARK SMILES IDX 20 34 21 35 22 36 23 37 24 38 25 40 26 41 27 42 79 43 28 44
REMARK SMILES IDX 78 45 29 46 30 47 31 48 72 49 32 50 77 51 71 52 73 53 33 54
REMARK SMILES IDX 76 55 70 56 69 57 34 59 60 60 43 61 59 62 44 63 47 64 58 65
REMARK SMILES IDX 74 66 45 67 46 68 57 70 75 71 48 72 35 73 36 74 41 75 37 76
REMARK SMILES IDX 38 77 40 78 42 79 39 80 61 81 62 82 67 83 63 84 64 85 66 86
REMARK SMILES IDX 68 87 65 88 49 89 50 90 55 91 51 92 52 93 54 94 56 95 53 96
REMARK H PARENT 16 7 23 39 73 58 47 69
REMARK Flexibility Score: inf
ROOT
ATOM      1  C   UNL A   1      38.053  33.303  31.132  1.00  0.00     0.002 C 
ENDROOT
BRANCH   1   2
ATOM      2  C   UNL A   1      37.166  32.787  32.267  1.00  0.00     0.021 C 
BRANCH   2   3
ATOM      3  C   UNL A   1      36.723  33.877  33.247  1.00  0.00     0.116 C 
BRANCH   3   4
ATOM      4  N   UNL A   1      36.711  33.379  34.612  1.00  0.00    -0.355 N 
ATOM      5  C   UNL A   1      37.658  33.138  35.546  1.00  0.00     0.230 C 
ATOM      6  O   UNL A   1      37.249  32.584  36.578  1.00  0.00    -0.274 OA
ATOM      7  H   UNL A   1      35.803  33.168  34.929  1.00  0.00     0.163 HD
BRANCH   5   8
ATOM      8  C   UNL A   1      39.150  33.443  35.443  1.00  0.00     0.136 C 
ATOM      9  C   UNL A   1      42.120  30.332  35.615  1.00  0.00     0.161 A 
ATOM     10  C   UNL A   1      41.831  31.113  36.742  1.00  0.00     0.064 A 
ATOM     11  C   UNL A   1      41.436  30.553  34.411  1.00  0.00     0.161 A 
ATOM     12  C   UNL A   1      40.829  32.078  36.700  1.00  0.00     0.048 A 
ATOM     13  C   UNL A   1      40.419  31.521  34.385  1.00  0.00     0.056 A 
ATOM     14  C   UNL A   1      40.118  32.291  35.517  1.00  0.00    -0.016 A 
ATOM     15  C   UNL A   1      40.483  32.847  37.928  1.00  0.00     0.254 C 
ATOM     16  N   UNL A   1      39.800  34.047  37.736  1.00  0.00    -0.333 N 
ATOM     17  O   UNL A   1      40.753  32.374  39.030  1.00  0.00    -0.269 OA
ATOM     18  C   UNL A   1      39.624  34.593  36.390  1.00  0.00     0.134 C 
ATOM     19  C   UNL A   1      39.339  34.833  38.871  1.00  0.00     0.147 C 
BRANCH   9  20
ATOM     20  O   UNL A   1      43.161  29.449  35.711  1.00  0.00    -0.490 OA
BRANCH  20  21
ATOM     21  C   UNL A   1      42.849  28.296  36.505  1.00  0.00     0.226 C 
ATOM     22  C   UNL A   1      43.637  27.073  36.064  1.00  0.00     0.049 C 
ENDBRANCH  20  21
ENDBRANCH   9  20
BRANCH  11  23
ATOM     23  O   UNL A   1      41.619  29.978  33.185  1.00  0.00    -0.490 OA
BRANCH  23  24
ATOM     24  C   UNL A   1      41.382  28.590  32.982  1.00  0.00     0.226 C 
ATOM     25  C   UNL A   1      39.919  28.296  32.697  1.00  0.00     0.049 C 
ENDBRANCH  23  24
ENDBRANCH  11  23
BRANCH  18  26
ATOM     26  C   UNL A   1      40.868  35.328  35.807  1.00  0.00    -0.005 A 
ATOM     27  C   UNL A   1      41.739  35.911  36.766  1.00  0.00     0.010 A 
ATOM     28  C   UNL A   1      41.212  35.530  34.448  1.00  0.00     0.049 A 
ATOM     29  C   UNL A   1      42.801  36.743  36.401  1.00  0.00     0.040 A 
ATOM     30  C   UNL A   1      42.280  36.366  34.089  1.00  0.00     0.060 A 
ATOM     31  Cl  UNL A   1      40.456  34.792  33.082  1.00  0.00    -0.084 Cl
ATOM     32  C   UNL A   1      43.047  36.980  35.062  1.00  0.00     0.124 A 
ATOM     33  F   UNL A   1      44.046  37.795  34.702  1.00  0.00    -0.207 F 
ENDBRANCH  18  26
ENDBRANCH   5   8
ENDBRANCH   3   4
ENDBRANCH   2   3
ENDBRANCH   1   2
BRANCH   1  34
ATOM     34  C   UNL A   1      37.473  33.095  29.729  1.00  0.00     0.002 C 
BRANCH  34  35
ATOM     35  C   UNL A   1      35.948  33.196  29.624  1.00  0.00     0.021 C 
BRANCH  35  36
ATOM     36  C   UNL A   1      35.383  32.977  28.223  1.00  0.00     0.116 C 
BRANCH  36  37
ATOM     37  N   UNL A   1      34.502  31.818  28.171  1.00  0.00    -0.352 N 
ATOM     38  C   UNL A   1      34.804  30.487  28.049  1.00  0.00     0.251 C 
ATOM     39  H   UNL A   1      33.541  32.023  28.234  1.00  0.00     0.163 HD
ATOM     40  O   UNL A   1      33.925  29.679  27.764  1.00  0.00    -0.269 OA
BRANCH  38  41
ATOM     41  C   UNL A   1      36.189  30.018  28.261  1.00  0.00     0.039 A 
ATOM     42  C   UNL A   1      37.094  30.063  27.196  1.00  0.00     0.014 A 
ATOM     43  C   UNL A   1      36.583  29.493  29.494  1.00  0.00     0.014 A 
ATOM     44  C   UNL A   1      38.408  29.629  27.384  1.00  0.00     0.010 A 
ATOM     45  C   UNL A   1      37.909  29.130  29.701  1.00  0.00     0.010 A 
ATOM     46  C   UNL A   1      38.832  29.183  28.646  1.00  0.00    -0.014 A 
BRANCH  46  47
ATOM     47  C   UNL A   1      40.232  28.752  28.884  1.00  0.00     0.031 A 
ATOM     48  C   UNL A   1      41.229  29.720  29.463  1.00  0.00     0.074 A 
ATOM     49  C   UNL A   1      40.624  27.518  28.514  1.00  0.00     0.049 A 
ATOM     50  N   UNL A   1      42.513  29.566  29.660  1.00  0.00    -0.248 NA
ATOM     51  C   UNL A   1      40.717  31.044  29.848  1.00  0.00     0.031 C 
ATOM     52  C   UNL A   1      39.762  26.505  27.904  1.00  0.00     0.029 A 
ATOM     53  N   UNL A   1      41.854  26.912  28.581  1.00  0.00    -0.354 N 
ATOM     54  C   UNL A   1      42.963  30.777  30.172  1.00  0.00     0.074 A 
ATOM     55  C   UNL A   1      41.826  31.670  30.208  1.00  0.00     0.031 C 
ATOM     56  C   UNL A   1      40.483  25.397  27.670  1.00  0.00     0.029 A 
ATOM     57  C   UNL A   1      41.867  25.636  28.071  1.00  0.00     0.049 A 
ATOM     58  H   UNL A   1      42.650  27.350  28.959  1.00  0.00     0.167 HD
ATOM     59  C   UNL A   1      44.207  31.106  30.596  1.00  0.00     0.037 A 
ATOM     60  C   UNL A   1      42.882  24.764  27.932  1.00  0.00     0.037 A 
ATOM     61  C   UNL A   1      45.330  30.206  30.577  1.00  0.00     0.049 A 
ATOM     62  C   UNL A   1      44.258  25.159  28.395  1.00  0.00     0.074 A 
ATOM     63  C   UNL A   1      46.618  30.425  31.033  1.00  0.00     0.029 A 
ATOM     64  N   UNL A   1      45.299  28.915  30.071  1.00  0.00    -0.354 N 
ATOM     65  N   UNL A   1      44.657  26.284  28.937  1.00  0.00    -0.248 NA
ATOM     66  C   UNL A   1      45.324  24.161  28.233  1.00  0.00     0.031 C 
ATOM     67  C   UNL A   1      47.379  29.284  30.760  1.00  0.00     0.029 A 
ATOM     68  C   UNL A   1      46.550  28.333  30.185  1.00  0.00     0.049 A 
ATOM     69  H   UNL A   1      44.504  28.477  29.689  1.00  0.00     0.167 HD
ATOM     70  C   UNL A   1      46.008  26.117  29.211  1.00  0.00     0.074 A 
ATOM     71  C   UNL A   1      46.358  24.779  28.785  1.00  0.00     0.031 C 
ATOM     72  C   UNL A   1      46.880  26.993  29.770  1.00  0.00     0.037 A 
BRANCH  59  73
ATOM     73  C   UNL A   1      44.417  32.500  31.113  1.00  0.00     0.057 A 
ATOM     74  C   UNL A   1      44.411  32.790  32.484  1.00  0.00     0.134 A 
ATOM     75  C   UNL A   1      44.660  33.562  30.232  1.00  0.00     0.134 A 
ATOM     76  F   UNL A   1      44.173  31.822  33.382  1.00  0.00    -0.206 F 
ATOM     77  C   UNL A   1      44.610  34.088  32.958  1.00  0.00     0.040 A 
ATOM     78  C   UNL A   1      44.892  34.858  30.696  1.00  0.00     0.040 A 
ATOM     79  F   UNL A   1      44.689  33.356  28.907  1.00  0.00    -0.206 F 
ATOM     80  C   UNL A   1      44.859  35.125  32.063  1.00  0.00     0.006 A 
ENDBRANCH  59  73
BRANCH  60  81
ATOM     81  C   UNL A   1      42.636  23.422  27.345  1.00  0.00     0.057 A 
ATOM     82  C   UNL A   1      42.760  23.203  25.969  1.00  0.00     0.134 A 
ATOM     83  C   UNL A   1      42.262  22.331  28.140  1.00  0.00     0.134 A 
ATOM     84  F   UNL A   1      43.097  24.212  25.152  1.00  0.00    -0.206 F 
ATOM     85  C   UNL A   1      42.500  21.955  25.399  1.00  0.00     0.040 A 
ATOM     86  C   UNL A   1      42.026  21.072  27.588  1.00  0.00     0.040 A 
ATOM     87  F   UNL A   1      42.134  22.473  29.467  1.00  0.00    -0.206 F 
ATOM     88  C   UNL A   1      42.136  20.883  26.212  1.00  0.00     0.006 A 
ENDBRANCH  60  81
BRANCH  72  89
ATOM     89  C   UNL A   1      48.285  26.516  29.999  1.00  0.00     0.057 A 
ATOM     90  C   UNL A   1      49.306  26.737  29.067  1.00  0.00     0.134 A 
ATOM     91  C   UNL A   1      48.627  25.869  31.193  1.00  0.00     0.134 A 
ATOM     92  F   UNL A   1      49.042  27.340  27.898  1.00  0.00    -0.206 F 
ATOM     93  C   UNL A   1      50.614  26.311  29.305  1.00  0.00     0.040 A 
ATOM     94  C   UNL A   1      49.935  25.464  31.455  1.00  0.00     0.040 A 
ATOM     95  F   UNL A   1      47.697  25.634  32.132  1.00  0.00    -0.206 F 
ATOM     96  C   UNL A   1      50.933  25.679  30.507  1.00  0.00     0.006 A 
ENDBRANCH  72  89
ENDBRANCH  46  47
ENDBRANCH  38  41
ENDBRANCH  36  37
ENDBRANCH  35  36
ENDBRANCH  34  35
ENDBRANCH   1  34
TORSDOF 18
ENDMDL
MODEL 3
REMARK VINA RESULT:     -10.4      0.407      5.945
REMARK SMILES CCOc1cc2c(cc1OCC)[C@@H](C(=O)NCCCCCCNC(=O)c1ccc(-c3c4nc(c(-c5c(F)cccc5F)c5ccc([nH]5)c(-c5c(F)cccc5F)c5nc(c(-c6c(F)cccc6F)c6ccc3[nH]6)C=C5)C=C4)cc1)[C@H](c1ccc(F)cc1Cl)N(C)C2=O
REMARK SMILES IDX 19 1 18 2 17 3 16 4 14 5 15 6 13 8 4 9 5 10 9 11 6 12 8 13
REMARK SMILES IDX 7 14 91 15 89 16 92 17 80 18 90 19 3 20 2 21 1 22 10 23
REMARK SMILES IDX 11 24 12 25 81 26 82 27 87 28 83 29 86 30 88 31 84 32 85 33
REMARK SMILES IDX 20 34 21 35 22 36 23 37 24 38 25 40 26 41 27 42 79 43 28 44
REMARK SMILES IDX 78 45 29 46 30 47 31 48 72 49 32 50 77 51 71 52 73 53 33 54
REMARK SMILES IDX 76 55 70 56 69 57 34 59 60 60 43 61 59 62 44 63 47 64 58 65
REMARK SMILES IDX 74 66 45 67 46 68 57 70 75 71 48 72 35 73 36 74 41 75 37 76
REMARK SMILES IDX 38 77 40 78 42 79 39 80 61 81 62 82 67 83 63 84 64 85 66 86
REMARK SMILES IDX 68 87 65 88 49 89 50 90 55 91 51 92 52 93 54 94 56 95 53 96
REMARK H PARENT 16 7 23 39 73 58 47 69
REMARK Flexibility Score: inf
ROOT
ATOM      1  C   UNL A   1      32.639  31.114  27.156  1.00  0.00     0.002 C 
ENDROOT
BRANCH   1   2
ATOM      2  C   UNL A   1      33.207  29.844  26.520  1.00  0.00     0.021 C 
BRANCH   2   3
ATOM      3  C   UNL A   1      32.469  29.407  25.251  1.00  0.00     0.116 C 
BRANCH   3   4
ATOM      4  N   UNL A   1      33.403  28.956  24.233  1.00  0.00    -0.355 N 
ATOM      5  C   UNL A   1      33.878  27.751  23.844  1.00  0.00     0.230 C 
ATOM      6  O   UNL A   1      34.780  27.792  22.993  1.00  0.00    -0.274 OA
ATOM      7  H   UNL A   1      33.775  29.698  23.705  1.00  0.00     0.163 HD
BRANCH   5   8
ATOM      8  C   UNL A   1      33.448  26.381  24.363  1.00  0.00     0.136 C 
ATOM      9  C   UNL A   1      36.076  22.975  24.230  1.00  0.00     0.161 A 
ATOM     10  C   UNL A   1      35.076  23.149  23.264  1.00  0.00     0.064 A 
ATOM     11  C   UNL A   1      36.237  23.919  25.255  1.00  0.00     0.161 A 
ATOM     12  C   UNL A   1      34.267  24.281  23.275  1.00  0.00     0.048 A 
ATOM     13  C   UNL A   1      35.422  25.062  25.248  1.00  0.00     0.056 A 
ATOM     14  C   UNL A   1      34.432  25.245  24.272  1.00  0.00    -0.016 A 
ATOM     15  C   UNL A   1      33.260  24.488  22.197  1.00  0.00     0.254 C 
ATOM     16  N   UNL A   1      32.226  25.381  22.477  1.00  0.00    -0.333 N 
ATOM     17  O   UNL A   1      33.412  23.925  21.116  1.00  0.00    -0.269 OA
ATOM     18  C   UNL A   1      32.054  25.916  23.829  1.00  0.00     0.134 C 
ATOM     19  C   UNL A   1      31.238  25.720  21.464  1.00  0.00     0.147 C 
BRANCH   9  20
ATOM     20  O   UNL A   1      36.789  21.807  24.195  1.00  0.00    -0.490 OA
BRANCH  20  21
ATOM     21  C   UNL A   1      36.343  20.847  25.164  1.00  0.00     0.226 C 
ATOM     22  C   UNL A   1      34.868  20.520  25.000  1.00  0.00     0.049 C 
ENDBRANCH  20  21
ENDBRANCH   9  20
BRANCH  11  23
ATOM     23  O   UNL A   1      37.074  23.900  26.335  1.00  0.00    -0.490 OA
BRANCH  23  24
ATOM     24  C   UNL A   1      38.471  24.126  26.185  1.00  0.00     0.226 C 
ATOM     25  C   UNL A   1      39.297  22.960  26.698  1.00  0.00     0.049 C 
ENDBRANCH  23  24
ENDBRANCH  11  23
BRANCH  18  26
ATOM     26  C   UNL A   1      31.355  24.954  24.836  1.00  0.00    -0.005 A 
ATOM     27  C   UNL A   1      31.338  23.584  24.461  1.00  0.00     0.010 A 
ATOM     28  C   UNL A   1      30.696  25.278  26.047  1.00  0.00     0.049 A 
ATOM     29  C   UNL A   1      30.608  22.626  25.170  1.00  0.00     0.040 A 
ATOM     30  C   UNL A   1      29.965  24.311  26.753  1.00  0.00     0.060 A 
ATOM     31  Cl  UNL A   1      30.714  26.811  26.841  1.00  0.00    -0.084 Cl
ATOM     32  C   UNL A   1      29.909  23.006  26.300  1.00  0.00     0.124 A 
ATOM     33  F   UNL A   1      29.186  22.102  26.972  1.00  0.00    -0.207 F 
ENDBRANCH  18  26
ENDBRANCH   5   8
ENDBRANCH   3   4
ENDBRANCH   2   3
ENDBRANCH   1   2
BRANCH   1  34
ATOM     34  C   UNL A   1      33.675  31.980  27.880  1.00  0.00     0.002 C 
BRANCH  34  35
ATOM     35  C   UNL A   1      35.124  31.489  27.790  1.00  0.00     0.021 C 
BRANCH  35  36
ATOM     36  C   UNL A   1      36.084  32.125  28.792  1.00  0.00     0.116 C 
BRANCH  36  37
ATOM     37  N   UNL A   1      35.836  31.657  30.149  1.00  0.00    -0.352 N 
ATOM     38  C   UNL A   1      36.498  30.712  30.890  1.00  0.00     0.251 C 
ATOM     39  H   UNL A   1      35.077  32.086  30.605  1.00  0.00     0.163 HD
ATOM     40  O   UNL A   1      35.991  30.268  31.915  1.00  0.00    -0.269 OA
BRANCH  38  41
ATOM     41  C   UNL A   1      37.825  30.226  30.457  1.00  0.00     0.039 A 
ATOM     42  C   UNL A   1      38.027  29.905  29.111  1.00  0.00     0.014 A 
ATOM     43  C   UNL A   1      38.854  30.043  31.384  1.00  0.00     0.014 A 
ATOM     44  C   UNL A   1      39.278  29.450  28.688  1.00  0.00     0.010 A 
ATOM     45  C   UNL A   1      40.118  29.660  30.950  1.00  0.00     0.010 A 
ATOM     46  C   UNL A   1      40.340  29.349  29.600  1.00  0.00    -0.014 A 
BRANCH  46  47
ATOM     47  C   UNL A   1      41.689  28.905  29.169  1.00  0.00     0.031 A 
ATOM     48  C   UNL A   1      42.825  29.891  29.120  1.00  0.00     0.074 A 
ATOM     49  C   UNL A   1      41.876  27.637  28.757  1.00  0.00     0.049 A 
ATOM     50  N   UNL A   1      44.048  29.723  28.687  1.00  0.00    -0.248 NA
ATOM     51  C   UNL A   1      42.538  31.253  29.595  1.00  0.00     0.031 C 
ATOM     52  C   UNL A   1      40.844  26.599  28.720  1.00  0.00     0.029 A 
ATOM     53  N   UNL A   1      42.996  27.009  28.273  1.00  0.00    -0.354 N 
ATOM     54  C   UNL A   1      44.668  30.959  28.821  1.00  0.00     0.074 A 
ATOM     55  C   UNL A   1      43.674  31.880  29.327  1.00  0.00     0.031 C 
ATOM     56  C   UNL A   1      41.383  25.460  28.257  1.00  0.00     0.029 A 
ATOM     57  C   UNL A   1      42.785  25.697  27.924  1.00  0.00     0.049 A 
ATOM     58  H   UNL A   1      43.869  27.456  28.187  1.00  0.00     0.167 HD
ATOM     59  C   UNL A   1      45.957  31.292  28.568  1.00  0.00     0.037 A 
ATOM     60  C   UNL A   1      43.623  24.793  27.384  1.00  0.00     0.037 A 
ATOM     61  C   UNL A   1      46.948  30.367  28.084  1.00  0.00     0.049 A 
ATOM     62  C   UNL A   1      45.045  25.191  27.097  1.00  0.00     0.074 A 
ATOM     63  C   UNL A   1      48.293  30.590  27.846  1.00  0.00     0.029 A 
ATOM     64  N   UNL A   1      46.699  29.040  27.760  1.00  0.00    -0.354 N 
ATOM     65  N   UNL A   1      45.636  26.345  27.288  1.00  0.00    -0.248 NA
ATOM     66  C   UNL A   1      45.919  24.158  26.523  1.00  0.00     0.031 C 
ATOM     67  C   UNL A   1      48.848  29.413  27.333  1.00  0.00     0.029 A 
ATOM     68  C   UNL A   1      47.861  28.440  27.305  1.00  0.00     0.049 A 
ATOM     69  H   UNL A   1      45.826  28.593  27.843  1.00  0.00     0.167 HD
ATOM     70  C   UNL A   1      46.955  26.168  26.892  1.00  0.00     0.074 A 
ATOM     71  C   UNL A   1      47.080  24.792  26.459  1.00  0.00     0.031 C 
ATOM     72  C   UNL A   1      47.973  27.064  26.891  1.00  0.00     0.037 A 
BRANCH  59  73
ATOM     73  C   UNL A   1      46.366  32.717  28.807  1.00  0.00     0.057 A 
ATOM     74  C   UNL A   1      46.855  33.148  30.047  1.00  0.00     0.134 A 
ATOM     75  C   UNL A   1      46.301  33.663  27.776  1.00  0.00     0.134 A 
ATOM     76  F   UNL A   1      46.934  32.296  31.081  1.00  0.00    -0.206 F 
ATOM     77  C   UNL A   1      47.237  34.474  30.262  1.00  0.00     0.040 A 
ATOM     78  C   UNL A   1      46.709  34.984  27.970  1.00  0.00     0.040 A 
ATOM     79  F   UNL A   1      45.850  33.318  26.561  1.00  0.00    -0.206 F 
ATOM     80  C   UNL A   1      47.171  35.394  29.219  1.00  0.00     0.006 A 
ENDBRANCH  59  73
BRANCH  60  81
ATOM     81  C   UNL A   1      43.147  23.416  27.097  1.00  0.00     0.057 A 
ATOM     82  C   UNL A   1      42.939  22.494  28.129  1.00  0.00     0.134 A 
ATOM     83  C   UNL A   1      42.899  22.983  25.789  1.00  0.00     0.134 A 
ATOM     84  F   UNL A   1      43.177  22.842  29.403  1.00  0.00    -0.206 F 
ATOM     85  C   UNL A   1      42.523  21.187  27.872  1.00  0.00     0.040 A 
ATOM     86  C   UNL A   1      42.456  21.688  25.519  1.00  0.00     0.040 A 
ATOM     87  F   UNL A   1      43.071  23.820  24.755  1.00  0.00    -0.206 F 
ATOM     88  C   UNL A   1      42.276  20.783  26.562  1.00  0.00     0.006 A 
ENDBRANCH  60  81
BRANCH  72  89
ATOM     89  C   UNL A   1      49.323  26.574  26.455  1.00  0.00     0.057 A 
ATOM     90  C   UNL A   1      50.173  25.868  27.316  1.00  0.00     0.134 A 
ATOM     91  C   UNL A   1      49.756  26.771  25.137  1.00  0.00     0.134 A 
ATOM     92  F   UNL A   1      49.822  25.656  28.594  1.00  0.00    -0.206 F 
ATOM     93  C   UNL A   1      51.414  25.394  26.888  1.00  0.00     0.040 A 
ATOM     94  C   UNL A   1      50.981  26.278  24.690  1.00  0.00     0.040 A 
ATOM     95  F   UNL A   1      48.986  27.432  24.259  1.00  0.00    -0.206 F 
ATOM     96  C   UNL A   1      51.818  25.592  25.569  1.00  0.00     0.006 A 
ENDBRANCH  72  89
ENDBRANCH  46  47
ENDBRANCH  38  41
ENDBRANCH  36  37
ENDBRANCH  35  36
ENDBRANCH  34  35
ENDBRANCH   1  34
TORSDOF 18
ENDMDL
