MODEL 1
REMARK VINA RESULT:     -12.0      0.000      0.000
REMARK SMILES CC(C)c1cc2c(cc1Cl)C=C(C(=O)NCCCCCCNC(=O)c1ccc(-c3c4nc(c(-c5c(F)cccc5F)c5ccc([nH]5)c(-c5c(F)cccc5F)c5nc(c(-c6c(F)cccc6F)c6ccc3[nH]6)C=C5)C=C4)cc1)[C@@H](C(F)(F)F)O2
REMARK SMILES IDX 19 1 18 2 17 3 16 4 15 5 13 6 14 7 12 9 4 10 5 11 9 12 6 13
REMARK SMILES IDX 8 14 10 15 7 16 84 17 11 18 79 19 2 20 1 21 3 22 80 23 81 24
REMARK SMILES IDX 82 25 83 26 20 27 21 28 22 29 23 30 24 32 25 33 26 34 78 35
REMARK SMILES IDX 27 36 77 37 28 38 29 39 30 40 71 41 31 42 76 43 70 44 72 45
REMARK SMILES IDX 32 46 75 47 69 48 68 49 33 51 59 52 42 53 58 54 43 55 46 56
REMARK SMILES IDX 57 57 73 58 44 59 45 60 56 62 74 63 47 64 34 65 35 66 40 67
REMARK SMILES IDX 36 68 37 69 39 70 41 71 38 72 60 73 61 74 66 75 62 76 63 77
REMARK SMILES IDX 65 78 67 79 64 80 48 81 49 82 54 83 50 84 51 85 53 86 55 87
REMARK SMILES IDX 52 88
REMARK H PARENT 15 8 22 31 72 50 46 61
REMARK Flexibility Score: inf
ROOT
ATOM      1  C   UNL A   1      36.592  21.464  24.611  1.00  0.00     0.002 C 
ENDROOT
BRANCH   1   2
ATOM      2  C   UNL A   1      36.406  22.492  25.735  1.00  0.00     0.002 C 
BRANCH   2   3
ATOM      3  C   UNL A   1      35.685  23.784  25.341  1.00  0.00     0.021 C 
BRANCH   3   4
ATOM      4  C   UNL A   1      34.409  24.060  26.131  1.00  0.00     0.116 C 
BRANCH   4   5
ATOM      5  N   UNL A   1      33.271  23.334  25.598  1.00  0.00    -0.352 N 
ATOM      6  C   UNL A   1      32.173  23.615  24.859  1.00  0.00     0.251 C 
ATOM      7  O   UNL A   1      31.455  22.643  24.601  1.00  0.00    -0.270 OA
ATOM      8  H   UNL A   1      33.308  22.381  25.840  1.00  0.00     0.163 HD
BRANCH   6   9
ATOM      9  C   UNL A   1      31.785  24.969  24.357  1.00  0.00     0.067 C 
ATOM     10  C   UNL A   1      29.133  29.098  23.059  1.00  0.00    -0.023 A 
ATOM     11  C   UNL A   1      30.500  28.778  23.175  1.00  0.00     0.052 A 
ATOM     12  C   UNL A   1      28.205  28.094  23.390  1.00  0.00     0.045 A 
ATOM     13  C   UNL A   1      30.920  27.517  23.590  1.00  0.00     0.128 A 
ATOM     14  C   UNL A   1      28.636  26.825  23.812  1.00  0.00     0.032 A 
ATOM     15  Cl  UNL A   1      26.496  28.333  23.336  1.00  0.00    -0.084 Cl
ATOM     16  C   UNL A   1      29.997  26.533  23.916  1.00  0.00     0.019 A 
ATOM     17  O   UNL A   1      32.266  27.341  23.698  1.00  0.00    -0.475 OA
ATOM     18  C   UNL A   1      30.468  25.243  24.400  1.00  0.00     0.025 C 
ATOM     19  C   UNL A   1      32.751  25.976  23.797  1.00  0.00     0.314 C 
BRANCH  10  20
ATOM     20  C   UNL A   1      28.802  30.514  22.612  1.00  0.00     0.014 C 
ATOM     21  C   UNL A   1      28.175  30.595  21.219  1.00  0.00     0.012 C 
ATOM     22  C   UNL A   1      27.994  31.281  23.660  1.00  0.00     0.012 C 
ENDBRANCH  10  20
BRANCH  19  23
ATOM     23  C   UNL A   1      33.323  25.561  22.430  1.00  0.00     0.429 C 
ATOM     24  F   UNL A   1      33.807  26.644  21.771  1.00  0.00    -0.167 F 
ATOM     25  F   UNL A   1      34.353  24.691  22.534  1.00  0.00    -0.167 F 
ATOM     26  F   UNL A   1      32.394  24.985  21.634  1.00  0.00    -0.167 F 
ENDBRANCH  19  23
ENDBRANCH   6   9
ENDBRANCH   4   5
ENDBRANCH   3   4
ENDBRANCH   2   3
ENDBRANCH   1   2
BRANCH   1  27
ATOM     27  C   UNL A   1      37.549  20.309  24.916  1.00  0.00     0.021 C 
BRANCH  27  28
ATOM     28  C   UNL A   1      38.820  20.704  25.657  1.00  0.00     0.116 C 
BRANCH  28  29
ATOM     29  N   UNL A   1      39.803  19.634  25.697  1.00  0.00    -0.352 N 
ATOM     30  C   UNL A   1      41.132  19.691  26.040  1.00  0.00     0.251 C 
ATOM     31  H   UNL A   1      39.470  18.743  25.441  1.00  0.00     0.163 HD
ATOM     32  O   UNL A   1      41.858  18.715  25.881  1.00  0.00    -0.269 OA
BRANCH  30  33
ATOM     33  C   UNL A   1      41.692  20.952  26.572  1.00  0.00     0.039 A 
ATOM     34  C   UNL A   1      41.680  21.212  27.944  1.00  0.00     0.014 A 
ATOM     35  C   UNL A   1      42.206  21.896  25.680  1.00  0.00     0.014 A 
ATOM     36  C   UNL A   1      42.035  22.474  28.408  1.00  0.00     0.010 A 
ATOM     37  C   UNL A   1      42.638  23.138  26.158  1.00  0.00     0.010 A 
ATOM     38  C   UNL A   1      42.511  23.453  27.520  1.00  0.00    -0.014 A 
BRANCH  38  39
ATOM     39  C   UNL A   1      42.858  24.802  28.038  1.00  0.00     0.031 A 
ATOM     40  C   UNL A   1      41.787  25.831  28.279  1.00  0.00     0.074 A 
ATOM     41  C   UNL A   1      44.140  25.079  28.342  1.00  0.00     0.049 A 
ATOM     42  N   UNL A   1      41.904  27.051  28.744  1.00  0.00    -0.248 NA
ATOM     43  C   UNL A   1      40.405  25.445  27.955  1.00  0.00     0.031 C 
ATOM     44  C   UNL A   1      45.267  24.161  28.162  1.00  0.00     0.029 A 
ATOM     45  N   UNL A   1      44.708  26.201  28.887  1.00  0.00    -0.354 N 
ATOM     46  C   UNL A   1      40.620  27.581  28.749  1.00  0.00     0.074 A 
ATOM     47  C   UNL A   1      39.741  26.563  28.217  1.00  0.00     0.031 C 
ATOM     48  C   UNL A   1      46.382  24.738  28.636  1.00  0.00     0.029 A 
ATOM     49  C   UNL A   1      46.060  26.085  29.096  1.00  0.00     0.049 A 
ATOM     50  H   UNL A   1      44.196  27.013  29.107  1.00  0.00     0.167 HD
ATOM     51  C   UNL A   1      40.208  28.803  29.169  1.00  0.00     0.037 A 
ATOM     52  C   UNL A   1      46.946  26.968  29.591  1.00  0.00     0.037 A 
ATOM     53  C   UNL A   1      41.080  29.810  29.718  1.00  0.00     0.049 A 
ATOM     54  C   UNL A   1      46.468  28.329  30.006  1.00  0.00     0.074 A 
ATOM     55  C   UNL A   1      40.753  31.067  30.196  1.00  0.00     0.029 A 
ATOM     56  N   UNL A   1      42.452  29.674  29.859  1.00  0.00    -0.354 N 
ATOM     57  N   UNL A   1      45.250  28.810  30.017  1.00  0.00    -0.248 NA
ATOM     58  C   UNL A   1      47.496  29.274  30.465  1.00  0.00     0.031 C 
ATOM     59  C   UNL A   1      41.934  31.706  30.592  1.00  0.00     0.029 A 
ATOM     60  C   UNL A   1      42.990  30.832  30.398  1.00  0.00     0.049 A 
ATOM     61  H   UNL A   1      42.969  28.872  29.614  1.00  0.00     0.167 HD
ATOM     62  C   UNL A   1      45.360  30.108  30.496  1.00  0.00     0.074 A 
ATOM     63  C   UNL A   1      46.762  30.330  30.787  1.00  0.00     0.031 C 
ATOM     64  C   UNL A   1      44.388  31.036  30.676  1.00  0.00     0.037 A 
BRANCH  51  65
ATOM     65  C   UNL A   1      38.748  29.125  29.035  1.00  0.00     0.057 A 
ATOM     66  C   UNL A   1      38.224  29.569  27.814  1.00  0.00     0.134 A 
ATOM     67  C   UNL A   1      37.866  29.027  30.119  1.00  0.00     0.134 A 
ATOM     68  F   UNL A   1      39.016  29.691  26.738  1.00  0.00    -0.206 F 
ATOM     69  C   UNL A   1      36.877  29.905  27.676  1.00  0.00     0.040 A 
ATOM     70  C   UNL A   1      36.511  29.339  29.987  1.00  0.00     0.040 A 
ATOM     71  F   UNL A   1      38.301  28.595  31.312  1.00  0.00    -0.206 F 
ATOM     72  C   UNL A   1      36.014  29.784  28.764  1.00  0.00     0.006 A 
ENDBRANCH  51  65
BRANCH  52  73
ATOM     73  C   UNL A   1      48.378  26.598  29.713  1.00  0.00     0.057 A 
ATOM     74  C   UNL A   1      48.862  25.921  30.838  1.00  0.00     0.134 A 
ATOM     75  C   UNL A   1      49.290  26.901  28.696  1.00  0.00     0.134 A 
ATOM     76  F   UNL A   1      48.038  25.606  31.848  1.00  0.00    -0.206 F 
ATOM     77  C   UNL A   1      50.207  25.567  30.954  1.00  0.00     0.040 A 
ATOM     78  C   UNL A   1      50.632  26.529  28.787  1.00  0.00     0.040 A 
ATOM     79  F   UNL A   1      48.879  27.530  27.585  1.00  0.00    -0.206 F 
ATOM     80  C   UNL A   1      51.094  25.864  29.921  1.00  0.00     0.006 A 
ENDBRANCH  52  73
BRANCH  64  81
ATOM     81  C   UNL A   1      44.816  32.362  31.230  1.00  0.00     0.057 A 
ATOM     82  C   UNL A   1      44.915  32.560  32.612  1.00  0.00     0.134 A 
ATOM     83  C   UNL A   1      45.126  33.443  30.395  1.00  0.00     0.134 A 
ATOM     84  F   UNL A   1      44.628  31.566  33.466  1.00  0.00    -0.206 F 
ATOM     85  C   UNL A   1      45.311  33.787  33.145  1.00  0.00     0.040 A 
ATOM     86  C   UNL A   1      45.546  34.667  30.916  1.00  0.00     0.040 A 
ATOM     87  F   UNL A   1      45.067  33.310  29.061  1.00  0.00    -0.206 F 
ATOM     88  C   UNL A   1      45.636  34.843  32.295  1.00  0.00     0.006 A 
ENDBRANCH  64  81
ENDBRANCH  38  39
ENDBRANCH  30  33
ENDBRANCH  28  29
ENDBRANCH  27  28
ENDBRANCH   1  27
TORSDOF 15
ENDMDL
MODEL 2
REMARK VINA RESULT:     -12.0      0.359      6.075
REMARK SMILES CC(C)c1cc2c(cc1Cl)C=C(C(=O)NCCCCCCNC(=O)c1ccc(-c3c4nc(c(-c5c(F)cccc5F)c5ccc([nH]5)c(-c5c(F)cccc5F)c5nc(c(-c6c(F)cccc6F)c6ccc3[nH]6)C=C5)C=C4)cc1)[C@@H](C(F)(F)F)O2
REMARK SMILES IDX 19 1 18 2 17 3 16 4 15 5 13 6 14 7 12 9 4 10 5 11 9 12 6 13
REMARK SMILES IDX 8 14 10 15 7 16 84 17 11 18 79 19 2 20 1 21 3 22 80 23 81 24
REMARK SMILES IDX 82 25 83 26 20 27 21 28 22 29 23 30 24 32 25 33 26 34 78 35
REMARK SMILES IDX 27 36 77 37 28 38 29 39 30 40 71 41 31 42 76 43 70 44 72 45
REMARK SMILES IDX 32 46 75 47 69 48 68 49 33 51 59 52 42 53 58 54 43 55 46 56
REMARK SMILES IDX 57 57 73 58 44 59 45 60 56 62 74 63 47 64 34 65 35 66 40 67
REMARK SMILES IDX 36 68 37 69 39 70 41 71 38 72 60 73 61 74 66 75 62 76 63 77
REMARK SMILES IDX 65 78 67 79 64 80 48 81 49 82 54 83 50 84 51 85 53 86 55 87
REMARK SMILES IDX 52 88
REMARK H PARENT 15 8 22 31 72 50 46 61
REMARK Flexibility Score: inf
ROOT
ATOM      1  C   UNL A   1      36.206  20.728  25.141  1.00  0.00     0.002 C 
ENDROOT
BRANCH   1   2
ATOM      2  C   UNL A   1      35.793  22.125  24.657  1.00  0.00     0.002 C 
BRANCH   2   3
ATOM      3  C   UNL A   1      35.862  23.239  25.706  1.00  0.00     0.021 C 
BRANCH   3   4
ATOM      4  C   UNL A   1      34.608  24.104  25.790  1.00  0.00     0.116 C 
BRANCH   4   5
ATOM      5  N   UNL A   1      33.411  23.363  25.436  1.00  0.00    -0.352 N 
ATOM      6  C   UNL A   1      32.223  23.621  24.842  1.00  0.00     0.251 C 
ATOM      7  O   UNL A   1      31.481  22.642  24.712  1.00  0.00    -0.270 OA
ATOM      8  H   UNL A   1      33.482  22.417  25.701  1.00  0.00     0.163 HD
BRANCH   6   9
ATOM      9  C   UNL A   1      31.768  24.959  24.354  1.00  0.00     0.067 C 
ATOM     10  C   UNL A   1      28.921  28.985  23.150  1.00  0.00    -0.023 A 
ATOM     11  C   UNL A   1      30.302  28.716  23.217  1.00  0.00     0.052 A 
ATOM     12  C   UNL A   1      28.043  27.948  23.514  1.00  0.00     0.045 A 
ATOM     13  C   UNL A   1      30.783  27.472  23.617  1.00  0.00     0.128 A 
ATOM     14  C   UNL A   1      28.535  26.697  23.921  1.00  0.00     0.032 A 
ATOM     15  Cl  UNL A   1      26.326  28.124  23.521  1.00  0.00    -0.084 Cl
ATOM     16  C   UNL A   1      29.909  26.455  23.976  1.00  0.00     0.019 A 
ATOM     17  O   UNL A   1      32.137  27.346  23.677  1.00  0.00    -0.475 OA
ATOM     18  C   UNL A   1      30.444  25.184  24.444  1.00  0.00     0.025 C 
ATOM     19  C   UNL A   1      32.675  26.001  23.759  1.00  0.00     0.314 C 
BRANCH  10  20
ATOM     20  C   UNL A   1      28.522  30.388  22.714  1.00  0.00     0.014 C 
ATOM     21  C   UNL A   1      28.855  31.475  23.738  1.00  0.00     0.012 C 
ATOM     22  C   UNL A   1      29.034  30.730  21.314  1.00  0.00     0.012 C 
ENDBRANCH  10  20
BRANCH  19  23
ATOM     23  C   UNL A   1      33.213  25.605  22.372  1.00  0.00     0.429 C 
ATOM     24  F   UNL A   1      33.551  26.711  21.663  1.00  0.00    -0.167 F 
ATOM     25  F   UNL A   1      34.329  24.844  22.440  1.00  0.00    -0.167 F 
ATOM     26  F   UNL A   1      32.306  24.916  21.643  1.00  0.00    -0.167 F 
ENDBRANCH  19  23
ENDBRANCH   6   9
ENDBRANCH   4   5
ENDBRANCH   3   4
ENDBRANCH   2   3
ENDBRANCH   1   2
BRANCH   1  27
ATOM     27  C   UNL A   1      37.594  20.255  24.704  1.00  0.00     0.021 C 
BRANCH  27  28
ATOM     28  C   UNL A   1      38.711  20.518  25.706  1.00  0.00     0.116 C 
BRANCH  28  29
ATOM     29  N   UNL A   1      39.730  19.483  25.697  1.00  0.00    -0.352 N 
ATOM     30  C   UNL A   1      41.061  19.576  26.026  1.00  0.00     0.251 C 
ATOM     31  H   UNL A   1      39.426  18.591  25.412  1.00  0.00     0.163 HD
ATOM     32  O   UNL A   1      41.819  18.633  25.824  1.00  0.00    -0.269 OA
BRANCH  30  33
ATOM     33  C   UNL A   1      41.583  20.836  26.597  1.00  0.00     0.039 A 
ATOM     34  C   UNL A   1      41.568  21.052  27.977  1.00  0.00     0.014 A 
ATOM     35  C   UNL A   1      42.064  21.824  25.734  1.00  0.00     0.014 A 
ATOM     36  C   UNL A   1      41.884  22.309  28.480  1.00  0.00     0.010 A 
ATOM     37  C   UNL A   1      42.458  23.062  26.251  1.00  0.00     0.010 A 
ATOM     38  C   UNL A   1      42.326  23.330  27.622  1.00  0.00    -0.014 A 
BRANCH  38  39
ATOM     39  C   UNL A   1      42.632  24.672  28.182  1.00  0.00     0.031 A 
ATOM     40  C   UNL A   1      44.048  25.066  28.503  1.00  0.00     0.074 A 
ATOM     41  C   UNL A   1      41.632  25.558  28.348  1.00  0.00     0.049 A 
ATOM     42  N   UNL A   1      44.502  26.200  28.979  1.00  0.00    -0.248 NA
ATOM     43  C   UNL A   1      45.093  24.058  28.263  1.00  0.00     0.031 C 
ATOM     44  C   UNL A   1      40.219  25.299  28.063  1.00  0.00     0.029 A 
ATOM     45  N   UNL A   1      41.652  26.860  28.775  1.00  0.00    -0.354 N 
ATOM     46  C   UNL A   1      45.875  26.034  29.113  1.00  0.00     0.074 A 
ATOM     47  C   UNL A   1      46.179  24.683  28.694  1.00  0.00     0.031 C 
ATOM     48  C   UNL A   1      39.515  26.421  28.274  1.00  0.00     0.029 A 
ATOM     49  C   UNL A   1      40.416  27.459  28.765  1.00  0.00     0.049 A 
ATOM     50  H   UNL A   1      42.472  27.323  29.061  1.00  0.00     0.167 HD
ATOM     51  C   UNL A   1      46.801  26.930  29.537  1.00  0.00     0.037 A 
ATOM     52  C   UNL A   1      40.046  28.701  29.124  1.00  0.00     0.037 A 
ATOM     53  C   UNL A   1      46.501  28.282  29.935  1.00  0.00     0.049 A 
ATOM     54  C   UNL A   1      41.086  29.658  29.632  1.00  0.00     0.074 A 
ATOM     55  C   UNL A   1      47.372  29.273  30.353  1.00  0.00     0.029 A 
ATOM     56  N   UNL A   1      45.228  28.831  29.965  1.00  0.00    -0.354 N 
ATOM     57  N   UNL A   1      42.380  29.490  29.740  1.00  0.00    -0.248 NA
ATOM     58  C   UNL A   1      40.606  30.973  30.081  1.00  0.00     0.031 C 
ATOM     59  C   UNL A   1      46.623  30.410  30.673  1.00  0.00     0.029 A 
ATOM     60  C   UNL A   1      45.288  30.141  30.415  1.00  0.00     0.049 A 
ATOM     61  H   UNL A   1      44.403  28.361  29.705  1.00  0.00     0.167 HD
ATOM     62  C   UNL A   1      42.874  30.681  30.256  1.00  0.00     0.074 A 
ATOM     63  C   UNL A   1      41.740  31.569  30.416  1.00  0.00     0.031 C 
ATOM     64  C   UNL A   1      44.150  31.008  30.572  1.00  0.00     0.037 A 
BRANCH  51  65
ATOM     65  C   UNL A   1      48.227  26.470  29.608  1.00  0.00     0.057 A 
ATOM     66  C   UNL A   1      49.088  26.641  28.516  1.00  0.00     0.134 A 
ATOM     67  C   UNL A   1      48.744  25.830  30.743  1.00  0.00     0.134 A 
ATOM     68  F   UNL A   1      48.655  27.240  27.396  1.00  0.00    -0.206 F 
ATOM     69  C   UNL A   1      50.409  26.192  28.548  1.00  0.00     0.040 A 
ATOM     70  C   UNL A   1      50.070  25.397  30.796  1.00  0.00     0.040 A 
ATOM     71  F   UNL A   1      47.977  25.648  31.828  1.00  0.00    -0.206 F 
ATOM     72  C   UNL A   1      50.905  25.572  29.694  1.00  0.00     0.006 A 
ENDBRANCH  51  65
BRANCH  52  73
ATOM     73  C   UNL A   1      38.623  29.112  29.025  1.00  0.00     0.057 A 
ATOM     74  C   UNL A   1      37.763  29.031  30.126  1.00  0.00     0.134 A 
ATOM     75  C   UNL A   1      38.097  29.610  27.828  1.00  0.00     0.134 A 
ATOM     76  F   UNL A   1      38.207  28.558  31.300  1.00  0.00    -0.206 F 
ATOM     77  C   UNL A   1      36.426  29.421  30.038  1.00  0.00     0.040 A 
ATOM     78  C   UNL A   1      36.769  30.028  27.733  1.00  0.00     0.040 A 
ATOM     79  F   UNL A   1      38.879  29.730  26.745  1.00  0.00    -0.206 F 
ATOM     80  C   UNL A   1      35.929  29.930  28.840  1.00  0.00     0.006 A 
ENDBRANCH  52  73
BRANCH  64  81
ATOM     81  C   UNL A   1      44.380  32.392  31.103  1.00  0.00     0.057 A 
ATOM     82  C   UNL A   1      44.624  33.459  30.231  1.00  0.00     0.134 A 
ATOM     83  C   UNL A   1      44.362  32.665  32.476  1.00  0.00     0.134 A 
ATOM     84  F   UNL A   1      44.659  33.263  28.905  1.00  0.00    -0.206 F 
ATOM     85  C   UNL A   1      44.840  34.753  30.707  1.00  0.00     0.040 A 
ATOM     86  C   UNL A   1      44.552  33.959  32.963  1.00  0.00     0.040 A 
ATOM     87  F   UNL A   1      44.115  31.687  33.362  1.00  0.00    -0.206 F 
ATOM     88  C   UNL A   1      44.797  35.007  32.077  1.00  0.00     0.006 A 
ENDBRANCH  64  81
ENDBRANCH  38  39
ENDBRANCH  30  33
ENDBRANCH  28  29
ENDBRANCH  27  28
ENDBRANCH   1  27
TORSDOF 15
ENDMDL
MODEL 3
REMARK VINA RESULT:     -11.8      4.484      9.026
REMARK SMILES CC(C)c1cc2c(cc1Cl)C=C(C(=O)NCCCCCCNC(=O)c1ccc(-c3c4nc(c(-c5c(F)cccc5F)c5ccc([nH]5)c(-c5c(F)cccc5F)c5nc(c(-c6c(F)cccc6F)c6ccc3[nH]6)C=C5)C=C4)cc1)[C@@H](C(F)(F)F)O2
REMARK SMILES IDX 19 1 18 2 17 3 16 4 15 5 13 6 14 7 12 9 4 10 5 11 9 12 6 13
REMARK SMILES IDX 8 14 10 15 7 16 84 17 11 18 79 19 2 20 1 21 3 22 80 23 81 24
REMARK SMILES IDX 82 25 83 26 20 27 21 28 22 29 23 30 24 32 25 33 26 34 78 35
REMARK SMILES IDX 27 36 77 37 28 38 29 39 30 40 71 41 31 42 76 43 70 44 72 45
REMARK SMILES IDX 32 46 75 47 69 48 68 49 33 51 59 52 42 53 58 54 43 55 46 56
REMARK SMILES IDX 57 57 73 58 44 59 45 60 56 62 74 63 47 64 34 65 35 66 40 67
REMARK SMILES IDX 36 68 37 69 39 70 41 71 38 72 60 73 61 74 66 75 62 76 63 77
REMARK SMILES IDX 65 78 67 79 64 80 48 81 49 82 54 83 50 84 51 85 53 86 55 87
REMARK SMILES IDX 52 88
REMARK H PARENT 15 8 22 31 72 50 46 61
REMARK Flexibility Score: inf
ROOT
ATOM      1  C   UNL A   1      31.819  29.880  26.619  1.00  0.00     0.002 C 
ENDROOT
BRANCH   1   2
ATOM      2  C   UNL A   1      32.111  29.176  25.287  1.00  0.00     0.002 C 
BRANCH   2   3
ATOM      3  C   UNL A   1      33.539  28.653  25.111  1.00  0.00     0.021 C 
BRANCH   3   4
ATOM      4  C   UNL A   1      33.628  27.171  24.756  1.00  0.00     0.116 C 
BRANCH   4   5
ATOM      5  N   UNL A   1      32.559  26.760  23.865  1.00  0.00    -0.352 N 
ATOM      6  C   UNL A   1      31.956  25.603  23.507  1.00  0.00     0.251 C 
ATOM      7  O   UNL A   1      31.026  25.726  22.703  1.00  0.00    -0.270 OA
ATOM      8  H   UNL A   1      32.167  27.530  23.394  1.00  0.00     0.163 HD
BRANCH   6   9
ATOM      9  C   UNL A   1      32.327  24.240  23.998  1.00  0.00     0.067 C 
ATOM     10  C   UNL A   1      33.183  19.247  24.300  1.00  0.00    -0.023 A 
ATOM     11  C   UNL A   1      33.477  20.365  25.103  1.00  0.00     0.052 A 
ATOM     12  C   UNL A   1      32.512  19.481  23.086  1.00  0.00     0.045 A 
ATOM     13  C   UNL A   1      33.112  21.653  24.720  1.00  0.00     0.128 A 
ATOM     14  C   UNL A   1      32.150  20.783  22.704  1.00  0.00     0.032 A 
ATOM     15  Cl  UNL A   1      32.108  18.225  21.973  1.00  0.00    -0.084 Cl
ATOM     16  C   UNL A   1      32.451  21.876  23.519  1.00  0.00     0.019 A 
ATOM     17  O   UNL A   1      33.485  22.656  25.561  1.00  0.00    -0.475 OA
ATOM     18  C   UNL A   1      32.133  23.239  23.120  1.00  0.00     0.025 C 
ATOM     19  C   UNL A   1      32.846  23.947  25.379  1.00  0.00     0.314 C 
BRANCH  10  20
ATOM     20  C   UNL A   1      33.650  17.894  24.821  1.00  0.00     0.014 C 
ATOM     21  C   UNL A   1      32.516  16.994  25.316  1.00  0.00     0.012 C 
ATOM     22  C   UNL A   1      34.573  17.179  23.834  1.00  0.00     0.012 C 
ENDBRANCH  10  20
BRANCH  19  23
ATOM     23  C   UNL A   1      31.776  24.121  26.471  1.00  0.00     0.429 C 
ATOM     24  F   UNL A   1      31.696  25.421  26.852  1.00  0.00    -0.167 F 
ATOM     25  F   UNL A   1      30.538  23.773  26.052  1.00  0.00    -0.167 F 
ATOM     26  F   UNL A   1      32.042  23.390  27.577  1.00  0.00    -0.167 F 
ENDBRANCH  19  23
ENDBRANCH   6   9
ENDBRANCH   4   5
ENDBRANCH   3   4
ENDBRANCH   2   3
ENDBRANCH   1   2
BRANCH   1  27
ATOM     27  C   UNL A   1      31.659  31.401  26.548  1.00  0.00     0.021 C 
BRANCH  27  28
ATOM     28  C   UNL A   1      32.888  32.198  26.967  1.00  0.00     0.116 C 
BRANCH  28  29
ATOM     29  N   UNL A   1      32.562  33.547  27.399  1.00  0.00    -0.352 N 
ATOM     30  C   UNL A   1      33.130  34.296  28.400  1.00  0.00     0.251 C 
ATOM     31  H   UNL A   1      31.830  33.985  26.907  1.00  0.00     0.163 HD
ATOM     32  O   UNL A   1      32.637  35.370  28.731  1.00  0.00    -0.269 OA
BRANCH  30  33
ATOM     33  C   UNL A   1      34.325  33.783  29.104  1.00  0.00     0.039 A 
ATOM     34  C   UNL A   1      35.607  34.161  28.697  1.00  0.00     0.014 A 
ATOM     35  C   UNL A   1      34.158  32.890  30.165  1.00  0.00     0.014 A 
ATOM     36  C   UNL A   1      36.717  33.526  29.243  1.00  0.00     0.010 A 
ATOM     37  C   UNL A   1      35.279  32.311  30.767  1.00  0.00     0.010 A 
ATOM     38  C   UNL A   1      36.566  32.590  30.279  1.00  0.00    -0.014 A 
BRANCH  38  39
ATOM     39  C   UNL A   1      37.766  31.906  30.827  1.00  0.00     0.031 A 
ATOM     40  C   UNL A   1      38.256  32.209  32.216  1.00  0.00     0.074 A 
ATOM     41  C   UNL A   1      38.382  30.967  30.085  1.00  0.00     0.049 A 
ATOM     42  N   UNL A   1      39.273  31.696  32.864  1.00  0.00    -0.248 NA
ATOM     43  C   UNL A   1      37.511  33.222  32.981  1.00  0.00     0.031 C 
ATOM     44  C   UNL A   1      37.996  30.576  28.727  1.00  0.00     0.029 A 
ATOM     45  N   UNL A   1      39.448  30.155  30.374  1.00  0.00    -0.354 N 
ATOM     46  C   UNL A   1      39.302  32.335  34.097  1.00  0.00     0.074 A 
ATOM     47  C   UNL A   1      38.218  33.292  34.101  1.00  0.00     0.031 C 
ATOM     48  C   UNL A   1      38.780  29.566  28.321  1.00  0.00     0.029 A 
ATOM     49  C   UNL A   1      39.760  29.278  29.363  1.00  0.00     0.049 A 
ATOM     50  H   UNL A   1      39.943  30.196  31.224  1.00  0.00     0.167 HD
ATOM     51  C   UNL A   1      40.148  32.135  35.137  1.00  0.00     0.037 A 
ATOM     52  C   UNL A   1      40.735  28.356  29.279  1.00  0.00     0.037 A 
ATOM     53  C   UNL A   1      41.216  31.167  35.142  1.00  0.00     0.049 A 
ATOM     54  C   UNL A   1      41.686  28.187  30.429  1.00  0.00     0.074 A 
ATOM     55  C   UNL A   1      42.109  30.870  36.157  1.00  0.00     0.029 A 
ATOM     56  N   UNL A   1      41.534  30.339  34.077  1.00  0.00    -0.354 N 
ATOM     57  N   UNL A   1      41.691  28.789  31.592  1.00  0.00    -0.248 NA
ATOM     58  C   UNL A   1      42.774  27.217  30.245  1.00  0.00     0.031 C 
ATOM     59  C   UNL A   1      42.992  29.889  35.692  1.00  0.00     0.029 A 
ATOM     60  C   UNL A   1      42.623  29.546  34.402  1.00  0.00     0.049 A 
ATOM     61  H   UNL A   1      41.057  30.316  33.216  1.00  0.00     0.167 HD
ATOM     62  C   UNL A   1      42.772  28.263  32.285  1.00  0.00     0.074 A 
ATOM     63  C   UNL A   1      43.385  27.276  31.419  1.00  0.00     0.031 C 
ATOM     64  C   UNL A   1      43.222  28.572  33.526  1.00  0.00     0.037 A 
BRANCH  51  65
ATOM     65  C   UNL A   1      39.964  32.993  36.355  1.00  0.00     0.057 A 
ATOM     66  C   UNL A   1      39.023  32.650  37.334  1.00  0.00     0.134 A 
ATOM     67  C   UNL A   1      40.693  34.174  36.545  1.00  0.00     0.134 A 
ATOM     68  F   UNL A   1      38.287  31.535  37.210  1.00  0.00    -0.206 F 
ATOM     69  C   UNL A   1      38.813  33.450  38.458  1.00  0.00     0.040 A 
ATOM     70  C   UNL A   1      40.508  34.971  37.677  1.00  0.00     0.040 A 
ATOM     71  F   UNL A   1      41.620  34.552  35.653  1.00  0.00    -0.206 F 
ATOM     72  C   UNL A   1      39.561  34.613  38.634  1.00  0.00     0.006 A 
ENDBRANCH  51  65
BRANCH  52  73
ATOM     73  C   UNL A   1      40.869  27.524  28.058  1.00  0.00     0.057 A 
ATOM     74  C   UNL A   1      40.232  26.283  27.948  1.00  0.00     0.134 A 
ATOM     75  C   UNL A   1      41.626  27.962  26.966  1.00  0.00     0.134 A 
ATOM     76  F   UNL A   1      39.495  25.806  28.962  1.00  0.00    -0.206 F 
ATOM     77  C   UNL A   1      40.352  25.500  26.799  1.00  0.00     0.040 A 
ATOM     78  C   UNL A   1      41.733  27.202  25.801  1.00  0.00     0.040 A 
ATOM     79  F   UNL A   1      42.242  29.153  27.006  1.00  0.00    -0.206 F 
ATOM     80  C   UNL A   1      41.098  25.965  25.717  1.00  0.00     0.006 A 
ENDBRANCH  52  73
BRANCH  64  81
ATOM     81  C   UNL A   1      44.420  27.816  34.018  1.00  0.00     0.057 A 
ATOM     82  C   UNL A   1      44.270  26.588  34.671  1.00  0.00     0.134 A 
ATOM     83  C   UNL A   1      45.720  28.307  33.846  1.00  0.00     0.134 A 
ATOM     84  F   UNL A   1      43.051  26.065  34.871  1.00  0.00    -0.206 F 
ATOM     85  C   UNL A   1      45.374  25.871  35.135  1.00  0.00     0.040 A 
ATOM     86  C   UNL A   1      46.833  27.588  34.284  1.00  0.00     0.040 A 
ATOM     87  F   UNL A   1      45.930  29.471  33.211  1.00  0.00    -0.206 F 
ATOM     88  C   UNL A   1      46.660  26.368  34.935  1.00  0.00     0.006 A 
ENDBRANCH  64  81
ENDBRANCH  38  39
ENDBRANCH  30  33
ENDBRANCH  28  29
ENDBRANCH  27  28
ENDBRANCH   1  27
TORSDOF 15
ENDMDL
