MODEL 1
REMARK VINA RESULT:     -11.7      0.000      0.000
REMARK SMILES Cc1ccn2c([C@H]3C[C@@H]3C(=O)NCCCCCCNC(=O)c3ccc(-c4c5nc(c(-c6c(F)cccc6F)c6ccc([nH]6)c(-c6c(F)cccc6F)c6nc(c(-c7c(F)cccc7F)c7ccc4[nH]7)C=C6)C=C5)cc3)nnc2c1
REMARK SMILES IDX 16 1 15 2 14 3 13 4 12 5 10 6 11 7 9 9 7 10 8 11 6 12 1 13
REMARK SMILES IDX 2 14 3 15 79 16 4 17 78 18 5 19 77 20 76 21 17 22 18 23
REMARK SMILES IDX 19 24 20 25 21 27 22 28 23 29 75 30 24 31 74 32 25 33 26 34
REMARK SMILES IDX 27 35 68 36 28 37 73 38 67 39 69 40 29 41 72 42 66 43 65 44
REMARK SMILES IDX 30 46 56 47 39 48 55 49 40 50 43 51 54 52 70 53 41 54 42 55
REMARK SMILES IDX 53 57 71 58 44 59 31 60 32 61 37 62 33 63 34 64 36 65 38 66
REMARK SMILES IDX 35 67 57 68 58 69 63 70 59 71 60 72 62 73 64 74 61 75 45 76
REMARK SMILES IDX 46 77 51 78 47 79 48 80 50 81 52 82 49 83
REMARK H PARENT 12 8 19 26 69 45 43 56
REMARK Flexibility Score: inf
ROOT
ATOM      1  C   UNL A   1      32.850  27.661  25.822  1.00  0.00     0.002 C 
ENDROOT
BRANCH   1   2
ATOM      2  C   UNL A   1      31.910  28.474  24.924  1.00  0.00     0.002 C 
BRANCH   2   3
ATOM      3  C   UNL A   1      32.513  28.950  23.601  1.00  0.00     0.021 C 
BRANCH   3   4
ATOM      4  C   UNL A   1      33.798  28.249  23.189  1.00  0.00     0.116 C 
BRANCH   4   5
ATOM      5  N   UNL A   1      33.651  27.501  21.959  1.00  0.00    -0.356 N 
ATOM      6  C   UNL A   1      33.279  26.204  21.767  1.00  0.00     0.223 C 
ATOM      7  O   UNL A   1      33.218  25.752  20.624  1.00  0.00    -0.275 OA
ATOM      8  H   UNL A   1      33.849  28.005  21.137  1.00  0.00     0.163 HD
BRANCH   6   9
ATOM      9  C   UNL A   1      32.953  25.330  22.913  1.00  0.00     0.090 C 
ATOM     10  C   UNL A   1      32.649  23.885  22.610  1.00  0.00     0.071 C 
ATOM     11  C   UNL A   1      31.579  24.751  23.194  1.00  0.00     0.026 C 
BRANCH  10  12
ATOM     12  C   UNL A   1      33.139  22.741  23.461  1.00  0.00     0.141 A 
ATOM     13  C   UNL A   1      38.182  21.332  25.368  1.00  0.00     0.044 C 
ATOM     14  C   UNL A   1      36.828  21.714  24.854  1.00  0.00    -0.046 A 
ATOM     15  C   UNL A   1      36.778  22.870  23.958  1.00  0.00     0.022 A 
ATOM     16  C   UNL A   1      35.700  21.047  25.190  1.00  0.00     0.053 A 
ATOM     17  C   UNL A   1      35.590  23.291  23.500  1.00  0.00     0.095 A 
ATOM     18  C   UNL A   1      34.451  21.447  24.639  1.00  0.00     0.161 A 
ATOM     19  N   UNL A   1      34.443  22.585  23.856  1.00  0.00    -0.286 N 
ATOM     20  N   UNL A   1      33.243  20.924  24.657  1.00  0.00    -0.130 NA
ATOM     21  N   UNL A   1      32.427  21.713  23.864  1.00  0.00    -0.134 NA
ENDBRANCH  10  12
ENDBRANCH   6   9
ENDBRANCH   4   5
ENDBRANCH   3   4
ENDBRANCH   2   3
ENDBRANCH   1   2
BRANCH   1  22
ATOM     22  C   UNL A   1      33.291  28.358  27.117  1.00  0.00     0.021 C 
BRANCH  22  23
ATOM     23  C   UNL A   1      34.698  28.951  27.063  1.00  0.00     0.116 C 
BRANCH  23  24
ATOM     24  N   UNL A   1      35.012  29.795  28.196  1.00  0.00    -0.352 N 
ATOM     25  C   UNL A   1      36.138  30.075  28.910  1.00  0.00     0.251 C 
ATOM     26  H   UNL A   1      34.224  30.281  28.530  1.00  0.00     0.163 HD
ATOM     27  O   UNL A   1      36.031  30.949  29.772  1.00  0.00    -0.269 OA
BRANCH  25  28
ATOM     28  C   UNL A   1      37.426  29.350  28.782  1.00  0.00     0.039 A 
ATOM     29  C   UNL A   1      37.946  28.434  29.697  1.00  0.00     0.014 A 
ATOM     30  C   UNL A   1      38.199  29.701  27.660  1.00  0.00     0.014 A 
ATOM     31  C   UNL A   1      39.259  28.000  29.583  1.00  0.00     0.010 A 
ATOM     32  C   UNL A   1      39.497  29.248  27.522  1.00  0.00     0.010 A 
ATOM     33  C   UNL A   1      40.044  28.462  28.529  1.00  0.00    -0.014 A 
BRANCH  33  34
ATOM     34  C   UNL A   1      41.430  28.023  28.459  1.00  0.00     0.031 A 
ATOM     35  C   UNL A   1      41.618  26.717  27.766  1.00  0.00     0.074 A 
ATOM     36  C   UNL A   1      42.437  28.815  28.880  1.00  0.00     0.049 A 
ATOM     37  N   UNL A   1      42.123  25.625  28.241  1.00  0.00    -0.248 NA
ATOM     38  C   UNL A   1      41.025  26.564  26.426  1.00  0.00     0.031 C 
ATOM     39  C   UNL A   1      42.356  30.199  29.361  1.00  0.00     0.029 A 
ATOM     40  N   UNL A   1      43.778  28.582  28.871  1.00  0.00    -0.354 N 
ATOM     41  C   UNL A   1      42.105  24.709  27.189  1.00  0.00     0.074 A 
ATOM     42  C   UNL A   1      41.271  25.279  26.166  1.00  0.00     0.031 C 
ATOM     43  C   UNL A   1      43.589  30.750  29.361  1.00  0.00     0.029 A 
ATOM     44  C   UNL A   1      44.558  29.725  29.019  1.00  0.00     0.049 A 
ATOM     45  H   UNL A   1      44.163  27.682  28.769  1.00  0.00     0.167 HD
ATOM     46  C   UNL A   1      42.988  23.673  27.143  1.00  0.00     0.037 A 
ATOM     47  C   UNL A   1      45.894  29.820  28.803  1.00  0.00     0.037 A 
ATOM     48  C   UNL A   1      43.533  23.400  28.449  1.00  0.00     0.049 A 
ATOM     49  C   UNL A   1      46.449  28.444  28.836  1.00  0.00     0.074 A 
ATOM     50  C   UNL A   1      43.018  22.981  29.658  1.00  0.00     0.029 A 
ATOM     51  N   UNL A   1      44.782  23.894  28.726  1.00  0.00    -0.354 N 
ATOM     52  N   UNL A   1      46.502  27.721  29.918  1.00  0.00    -0.248 NA
ATOM     53  C   UNL A   1      46.481  27.702  27.585  1.00  0.00     0.031 C 
ATOM     54  C   UNL A   1      43.775  23.682  30.643  1.00  0.00     0.029 A 
ATOM     55  C   UNL A   1      44.746  24.435  29.982  1.00  0.00     0.049 A 
ATOM     56  H   UNL A   1      45.565  23.864  28.128  1.00  0.00     0.167 HD
ATOM     57  C   UNL A   1      46.135  26.446  29.510  1.00  0.00     0.074 A 
ATOM     58  C   UNL A   1      46.205  26.480  28.049  1.00  0.00     0.031 C 
ATOM     59  C   UNL A   1      45.527  25.581  30.375  1.00  0.00     0.037 A 
BRANCH  46  60
ATOM     60  C   UNL A   1      43.692  23.222  25.880  1.00  0.00     0.057 A 
ATOM     61  C   UNL A   1      44.593  24.018  25.142  1.00  0.00     0.134 A 
ATOM     62  C   UNL A   1      43.750  21.843  25.595  1.00  0.00     0.134 A 
ATOM     63  F   UNL A   1      44.685  25.343  25.298  1.00  0.00    -0.206 F 
ATOM     64  C   UNL A   1      45.536  23.479  24.263  1.00  0.00     0.040 A 
ATOM     65  C   UNL A   1      44.720  21.291  24.751  1.00  0.00     0.040 A 
ATOM     66  F   UNL A   1      42.928  20.979  26.211  1.00  0.00    -0.206 F 
ATOM     67  C   UNL A   1      45.632  22.108  24.099  1.00  0.00     0.006 A 
ENDBRANCH  46  60
BRANCH  47  68
ATOM     68  C   UNL A   1      46.646  30.968  28.246  1.00  0.00     0.057 A 
ATOM     69  C   UNL A   1      47.425  31.797  29.073  1.00  0.00     0.134 A 
ATOM     70  C   UNL A   1      46.414  31.441  26.947  1.00  0.00     0.134 A 
ATOM     71  F   UNL A   1      47.635  31.486  30.360  1.00  0.00    -0.206 F 
ATOM     72  C   UNL A   1      47.942  33.021  28.639  1.00  0.00     0.040 A 
ATOM     73  C   UNL A   1      46.923  32.669  26.500  1.00  0.00     0.040 A 
ATOM     74  F   UNL A   1      45.639  30.749  26.100  1.00  0.00    -0.206 F 
ATOM     75  C   UNL A   1      47.684  33.467  27.349  1.00  0.00     0.006 A 
ENDBRANCH  47  68
BRANCH  59  76
ATOM     76  C   UNL A   1      45.475  25.979  31.823  1.00  0.00     0.057 A 
ATOM     77  C   UNL A   1      46.514  25.583  32.669  1.00  0.00     0.134 A 
ATOM     78  C   UNL A   1      44.380  26.622  32.420  1.00  0.00     0.134 A 
ATOM     79  F   UNL A   1      47.562  24.905  32.178  1.00  0.00    -0.206 F 
ATOM     80  C   UNL A   1      46.479  25.832  34.042  1.00  0.00     0.040 A 
ATOM     81  C   UNL A   1      44.347  26.909  33.788  1.00  0.00     0.040 A 
ATOM     82  F   UNL A   1      43.292  26.941  31.709  1.00  0.00    -0.206 F 
ATOM     83  C   UNL A   1      45.400  26.510  34.605  1.00  0.00     0.006 A 
ENDBRANCH  59  76
ENDBRANCH  33  34
ENDBRANCH  25  28
ENDBRANCH  23  24
ENDBRANCH  22  23
ENDBRANCH   1  22
TORSDOF 14
ENDMDL
MODEL 2
REMARK VINA RESULT:     -11.6      3.609      7.659
REMARK SMILES Cc1ccn2c([C@H]3C[C@@H]3C(=O)NCCCCCCNC(=O)c3ccc(-c4c5nc(c(-c6c(F)cccc6F)c6ccc([nH]6)c(-c6c(F)cccc6F)c6nc(c(-c7c(F)cccc7F)c7ccc4[nH]7)C=C6)C=C5)cc3)nnc2c1
REMARK SMILES IDX 16 1 15 2 14 3 13 4 12 5 10 6 11 7 9 9 7 10 8 11 6 12 1 13
REMARK SMILES IDX 2 14 3 15 79 16 4 17 78 18 5 19 77 20 76 21 17 22 18 23
REMARK SMILES IDX 19 24 20 25 21 27 22 28 23 29 75 30 24 31 74 32 25 33 26 34
REMARK SMILES IDX 27 35 68 36 28 37 73 38 67 39 69 40 29 41 72 42 66 43 65 44
REMARK SMILES IDX 30 46 56 47 39 48 55 49 40 50 43 51 54 52 70 53 41 54 42 55
REMARK SMILES IDX 53 57 71 58 44 59 31 60 32 61 37 62 33 63 34 64 36 65 38 66
REMARK SMILES IDX 35 67 57 68 58 69 63 70 59 71 60 72 62 73 64 74 61 75 45 76
REMARK SMILES IDX 46 77 51 78 47 79 48 80 50 81 52 82 49 83
REMARK H PARENT 12 8 19 26 69 45 43 56
REMARK Flexibility Score: inf
ROOT
ATOM      1  C   UNL A   1      35.358  33.368  28.182  1.00  0.00     0.002 C 
ENDROOT
BRANCH   1   2
ATOM      2  C   UNL A   1      34.662  32.053  28.553  1.00  0.00     0.002 C 
BRANCH   2   3
ATOM      3  C   UNL A   1      34.902  30.887  27.590  1.00  0.00     0.021 C 
BRANCH   3   4
ATOM      4  C   UNL A   1      33.642  30.250  27.024  1.00  0.00     0.116 C 
BRANCH   4   5
ATOM      5  N   UNL A   1      33.881  29.575  25.767  1.00  0.00    -0.356 N 
ATOM      6  C   UNL A   1      33.621  28.285  25.408  1.00  0.00     0.223 C 
ATOM      7  O   UNL A   1      33.908  27.901  24.275  1.00  0.00    -0.275 OA
ATOM      8  H   UNL A   1      34.294  30.129  25.066  1.00  0.00     0.163 HD
BRANCH   6   9
ATOM      9  C   UNL A   1      33.003  27.341  26.363  1.00  0.00     0.090 C 
ATOM     10  C   UNL A   1      32.176  26.221  25.783  1.00  0.00     0.071 C 
ATOM     11  C   UNL A   1      31.516  27.249  26.646  1.00  0.00     0.026 C 
BRANCH  10  12
ATOM     12  C   UNL A   1      32.211  24.810  26.310  1.00  0.00     0.141 A 
ATOM     13  C   UNL A   1      35.252  20.338  24.962  1.00  0.00     0.044 C 
ATOM     14  C   UNL A   1      34.437  21.543  25.322  1.00  0.00    -0.046 A 
ATOM     15  C   UNL A   1      34.636  22.731  24.492  1.00  0.00     0.022 A 
ATOM     16  C   UNL A   1      33.563  21.556  26.355  1.00  0.00     0.053 A 
ATOM     17  C   UNL A   1      33.970  23.856  24.792  1.00  0.00     0.095 A 
ATOM     18  C   UNL A   1      32.798  22.726  26.621  1.00  0.00     0.161 A 
ATOM     19  N   UNL A   1      33.073  23.844  25.856  1.00  0.00    -0.286 N 
ATOM     20  N   UNL A   1      31.796  22.990  27.432  1.00  0.00    -0.130 NA
ATOM     21  N   UNL A   1      31.388  24.291  27.194  1.00  0.00    -0.134 NA
ENDBRANCH  10  12
ENDBRANCH   6   9
ENDBRANCH   4   5
ENDBRANCH   3   4
ENDBRANCH   2   3
ENDBRANCH   1   2
BRANCH   1  22
ATOM     22  C   UNL A   1      34.865  34.609  28.938  1.00  0.00     0.021 C 
BRANCH  22  23
ATOM     23  C   UNL A   1      33.392  34.555  29.340  1.00  0.00     0.116 C 
BRANCH  23  24
ATOM     24  N   UNL A   1      33.161  34.893  30.728  1.00  0.00    -0.352 N 
ATOM     25  C   UNL A   1      33.885  34.801  31.878  1.00  0.00     0.251 C 
ATOM     26  H   UNL A   1      32.269  35.282  30.876  1.00  0.00     0.163 HD
ATOM     27  O   UNL A   1      33.375  35.300  32.883  1.00  0.00    -0.269 OA
BRANCH  25  28
ATOM     28  C   UNL A   1      35.174  34.078  32.014  1.00  0.00     0.039 A 
ATOM     29  C   UNL A   1      36.439  34.662  32.078  1.00  0.00     0.014 A 
ATOM     30  C   UNL A   1      35.074  32.674  32.000  1.00  0.00     0.014 A 
ATOM     31  C   UNL A   1      37.578  33.877  31.971  1.00  0.00     0.010 A 
ATOM     32  C   UNL A   1      36.205  31.883  31.926  1.00  0.00     0.010 A 
ATOM     33  C   UNL A   1      37.448  32.497  31.832  1.00  0.00    -0.014 A 
BRANCH  33  34
ATOM     34  C   UNL A   1      38.658  31.703  31.679  1.00  0.00     0.031 A 
ATOM     35  C   UNL A   1      39.395  31.470  32.953  1.00  0.00     0.074 A 
ATOM     36  C   UNL A   1      38.981  31.138  30.497  1.00  0.00     0.049 A 
ATOM     37  N   UNL A   1      40.606  31.815  33.251  1.00  0.00    -0.248 NA
ATOM     38  C   UNL A   1      38.635  30.924  34.092  1.00  0.00     0.031 C 
ATOM     39  C   UNL A   1      38.195  31.129  29.257  1.00  0.00     0.029 A 
ATOM     40  N   UNL A   1      40.048  30.356  30.178  1.00  0.00    -0.354 N 
ATOM     41  C   UNL A   1      40.829  31.338  34.543  1.00  0.00     0.074 A 
ATOM     42  C   UNL A   1      39.545  30.961  35.066  1.00  0.00     0.031 C 
ATOM     43  C   UNL A   1      38.686  30.190  28.419  1.00  0.00     0.029 A 
ATOM     44  C   UNL A   1      39.896  29.636  28.998  1.00  0.00     0.049 A 
ATOM     45  H   UNL A   1      40.858  30.305  30.735  1.00  0.00     0.167 HD
ATOM     46  C   UNL A   1      42.088  31.055  34.981  1.00  0.00     0.037 A 
ATOM     47  C   UNL A   1      40.679  28.611  28.576  1.00  0.00     0.037 A 
ATOM     48  C   UNL A   1      43.078  31.731  34.181  1.00  0.00     0.049 A 
ATOM     49  C   UNL A   1      41.957  28.690  29.324  1.00  0.00     0.074 A 
ATOM     50  C   UNL A   1      43.402  33.048  33.930  1.00  0.00     0.029 A 
ATOM     51  N   UNL A   1      43.710  30.998  33.209  1.00  0.00    -0.354 N 
ATOM     52  N   UNL A   1      42.825  29.647  29.157  1.00  0.00    -0.248 NA
ATOM     53  C   UNL A   1      42.036  27.988  30.596  1.00  0.00     0.031 C 
ATOM     54  C   UNL A   1      43.802  33.074  32.561  1.00  0.00     0.029 A 
ATOM     55  C   UNL A   1      43.760  31.765  32.077  1.00  0.00     0.049 A 
ATOM     56  H   UNL A   1      44.065  30.085  33.308  1.00  0.00     0.167 HD
ATOM     57  C   UNL A   1      43.257  29.960  30.439  1.00  0.00     0.074 A 
ATOM     58  C   UNL A   1      42.791  28.855  31.277  1.00  0.00     0.031 C 
ATOM     59  C   UNL A   1      43.689  31.219  30.745  1.00  0.00     0.037 A 
BRANCH  46  60
ATOM     60  C   UNL A   1      42.435  29.836  35.810  1.00  0.00     0.057 A 
ATOM     61  C   UNL A   1      42.135  28.508  35.440  1.00  0.00     0.134 A 
ATOM     62  C   UNL A   1      43.407  29.963  36.821  1.00  0.00     0.134 A 
ATOM     63  F   UNL A   1      41.250  28.204  34.485  1.00  0.00    -0.206 F 
ATOM     64  C   UNL A   1      42.810  27.403  35.966  1.00  0.00     0.040 A 
ATOM     65  C   UNL A   1      44.120  28.866  37.321  1.00  0.00     0.040 A 
ATOM     66  F   UNL A   1      43.767  31.171  37.282  1.00  0.00    -0.206 F 
ATOM     67  C   UNL A   1      43.837  27.583  36.876  1.00  0.00     0.006 A 
ENDBRANCH  46  60
BRANCH  47  68
ATOM     68  C   UNL A   1      40.267  27.400  27.829  1.00  0.00     0.057 A 
ATOM     69  C   UNL A   1      39.510  26.388  28.445  1.00  0.00     0.134 A 
ATOM     70  C   UNL A   1      40.823  27.078  26.583  1.00  0.00     0.134 A 
ATOM     71  F   UNL A   1      39.006  26.555  29.677  1.00  0.00    -0.206 F 
ATOM     72  C   UNL A   1      39.316  25.132  27.862  1.00  0.00     0.040 A 
ATOM     73  C   UNL A   1      40.639  25.820  25.988  1.00  0.00     0.040 A 
ATOM     74  F   UNL A   1      41.606  27.956  25.940  1.00  0.00    -0.206 F 
ATOM     75  C   UNL A   1      39.890  24.840  26.631  1.00  0.00     0.006 A 
ENDBRANCH  47  68
BRANCH  59  76
ATOM     76  C   UNL A   1      43.885  32.177  29.603  1.00  0.00     0.057 A 
ATOM     77  C   UNL A   1      45.128  32.222  28.967  1.00  0.00     0.134 A 
ATOM     78  C   UNL A   1      42.934  33.129  29.207  1.00  0.00     0.134 A 
ATOM     79  F   UNL A   1      46.108  31.385  29.341  1.00  0.00    -0.206 F 
ATOM     80  C   UNL A   1      45.409  33.156  27.968  1.00  0.00     0.040 A 
ATOM     81  C   UNL A   1      43.189  34.047  28.184  1.00  0.00     0.040 A 
ATOM     82  F   UNL A   1      41.756  33.232  29.833  1.00  0.00    -0.206 F 
ATOM     83  C   UNL A   1      44.434  34.063  27.562  1.00  0.00     0.006 A 
ENDBRANCH  59  76
ENDBRANCH  33  34
ENDBRANCH  25  28
ENDBRANCH  23  24
ENDBRANCH  22  23
ENDBRANCH   1  22
TORSDOF 14
ENDMDL
MODEL 3
REMARK VINA RESULT:     -11.6      2.730      7.611
REMARK SMILES Cc1ccn2c([C@H]3C[C@@H]3C(=O)NCCCCCCNC(=O)c3ccc(-c4c5nc(c(-c6c(F)cccc6F)c6ccc([nH]6)c(-c6c(F)cccc6F)c6nc(c(-c7c(F)cccc7F)c7ccc4[nH]7)C=C6)C=C5)cc3)nnc2c1
REMARK SMILES IDX 16 1 15 2 14 3 13 4 12 5 10 6 11 7 9 9 7 10 8 11 6 12 1 13
REMARK SMILES IDX 2 14 3 15 79 16 4 17 78 18 5 19 77 20 76 21 17 22 18 23
REMARK SMILES IDX 19 24 20 25 21 27 22 28 23 29 75 30 24 31 74 32 25 33 26 34
REMARK SMILES IDX 27 35 68 36 28 37 73 38 67 39 69 40 29 41 72 42 66 43 65 44
REMARK SMILES IDX 30 46 56 47 39 48 55 49 40 50 43 51 54 52 70 53 41 54 42 55
REMARK SMILES IDX 53 57 71 58 44 59 31 60 32 61 37 62 33 63 34 64 36 65 38 66
REMARK SMILES IDX 35 67 57 68 58 69 63 70 59 71 60 72 62 73 64 74 61 75 45 76
REMARK SMILES IDX 46 77 51 78 47 79 48 80 50 81 52 82 49 83
REMARK H PARENT 12 8 19 26 69 45 43 56
REMARK Flexibility Score: inf
ROOT
ATOM      1  C   UNL A   1      40.923  21.548  26.389  1.00  0.00     0.002 C 
ENDROOT
BRANCH   1   2
ATOM      2  C   UNL A   1      39.489  21.932  26.773  1.00  0.00     0.002 C 
BRANCH   2   3
ATOM      3  C   UNL A   1      39.048  23.336  26.350  1.00  0.00     0.021 C 
BRANCH   3   4
ATOM      4  C   UNL A   1      37.699  23.404  25.652  1.00  0.00     0.116 C 
BRANCH   4   5
ATOM      5  N   UNL A   1      36.667  22.690  26.374  1.00  0.00    -0.356 N 
ATOM      6  C   UNL A   1      35.422  22.311  25.966  1.00  0.00     0.223 C 
ATOM      7  O   UNL A   1      34.685  21.708  26.745  1.00  0.00    -0.275 OA
ATOM      8  H   UNL A   1      36.898  22.442  27.298  1.00  0.00     0.163 HD
BRANCH   6   9
ATOM      9  C   UNL A   1      34.944  22.620  24.602  1.00  0.00     0.090 C 
ATOM     10  C   UNL A   1      33.632  23.356  24.486  1.00  0.00     0.071 C 
ATOM     11  C   UNL A   1      33.745  21.968  23.940  1.00  0.00     0.026 C 
BRANCH  10  12
ATOM     12  C   UNL A   1      33.391  24.461  23.490  1.00  0.00     0.141 A 
ATOM     13  C   UNL A   1      29.350  28.262  22.960  1.00  0.00     0.044 C 
ATOM     14  C   UNL A   1      30.434  27.239  23.106  1.00  0.00    -0.046 A 
ATOM     15  C   UNL A   1      30.256  26.254  24.173  1.00  0.00     0.022 A 
ATOM     16  C   UNL A   1      31.529  27.211  22.311  1.00  0.00     0.053 A 
ATOM     17  C   UNL A   1      31.215  25.340  24.385  1.00  0.00     0.095 A 
ATOM     18  C   UNL A   1      32.505  26.191  22.487  1.00  0.00     0.161 A 
ATOM     19  N   UNL A   1      32.330  25.328  23.551  1.00  0.00    -0.286 N 
ATOM     20  N   UNL A   1      33.566  25.823  21.799  1.00  0.00    -0.130 NA
ATOM     21  N   UNL A   1      34.092  24.694  22.403  1.00  0.00    -0.134 NA
ENDBRANCH  10  12
ENDBRANCH   6   9
ENDBRANCH   4   5
ENDBRANCH   3   4
ENDBRANCH   2   3
ENDBRANCH   1   2
BRANCH   1  22
ATOM     22  C   UNL A   1      41.155  20.054  26.122  1.00  0.00     0.021 C 
BRANCH  22  23
ATOM     23  C   UNL A   1      42.606  19.605  26.286  1.00  0.00     0.116 C 
BRANCH  23  24
ATOM     24  N   UNL A   1      43.421  19.848  25.116  1.00  0.00    -0.352 N 
ATOM     25  C   UNL A   1      44.214  20.868  24.686  1.00  0.00     0.251 C 
ATOM     26  H   UNL A   1      43.395  19.098  24.479  1.00  0.00     0.163 HD
ATOM     27  O   UNL A   1      44.847  20.665  23.648  1.00  0.00    -0.269 OA
BRANCH  25  28
ATOM     28  C   UNL A   1      44.293  22.208  25.320  1.00  0.00     0.039 A 
ATOM     29  C   UNL A   1      45.008  22.526  26.475  1.00  0.00     0.014 A 
ATOM     30  C   UNL A   1      43.502  23.202  24.716  1.00  0.00     0.014 A 
ATOM     31  C   UNL A   1      44.818  23.751  27.099  1.00  0.00     0.010 A 
ATOM     32  C   UNL A   1      43.333  24.436  25.314  1.00  0.00     0.010 A 
ATOM     33  C   UNL A   1      43.932  24.672  26.546  1.00  0.00    -0.014 A 
BRANCH  33  34
ATOM     34  C   UNL A   1      43.720  25.931  27.245  1.00  0.00     0.031 A 
ATOM     35  C   UNL A   1      44.740  26.973  26.937  1.00  0.00     0.074 A 
ATOM     36  C   UNL A   1      42.619  26.139  27.995  1.00  0.00     0.049 A 
ATOM     37  N   UNL A   1      45.549  27.567  27.754  1.00  0.00    -0.248 NA
ATOM     38  C   UNL A   1      44.996  27.280  25.519  1.00  0.00     0.031 C 
ATOM     39  C   UNL A   1      41.462  25.252  28.164  1.00  0.00     0.029 A 
ATOM     40  N   UNL A   1      42.249  27.247  28.694  1.00  0.00    -0.354 N 
ATOM     41  C   UNL A   1      46.271  28.475  26.980  1.00  0.00     0.074 A 
ATOM     42  C   UNL A   1      46.016  28.135  25.607  1.00  0.00     0.031 C 
ATOM     43  C   UNL A   1      40.436  25.947  28.704  1.00  0.00     0.029 A 
ATOM     44  C   UNL A   1      40.903  27.277  29.046  1.00  0.00     0.049 A 
ATOM     45  H   UNL A   1      42.880  27.965  28.930  1.00  0.00     0.167 HD
ATOM     46  C   UNL A   1      46.815  29.595  27.533  1.00  0.00     0.037 A 
ATOM     47  C   UNL A   1      40.220  28.351  29.518  1.00  0.00     0.037 A 
ATOM     48  C   UNL A   1      46.958  29.449  28.960  1.00  0.00     0.049 A 
ATOM     49  C   UNL A   1      41.218  29.325  30.024  1.00  0.00     0.074 A 
ATOM     50  C   UNL A   1      47.678  28.618  29.793  1.00  0.00     0.029 A 
ATOM     51  N   UNL A   1      46.005  30.037  29.752  1.00  0.00    -0.354 N 
ATOM     52  N   UNL A   1      41.953  29.114  31.078  1.00  0.00    -0.248 NA
ATOM     53  C   UNL A   1      41.742  30.301  29.080  1.00  0.00     0.031 C 
ATOM     54  C   UNL A   1      46.823  28.388  30.912  1.00  0.00     0.029 A 
ATOM     55  C   UNL A   1      45.663  29.140  30.726  1.00  0.00     0.049 A 
ATOM     56  H   UNL A   1      45.634  30.942  29.639  1.00  0.00     0.167 HD
ATOM     57  C   UNL A   1      43.213  29.581  30.730  1.00  0.00     0.074 A 
ATOM     58  C   UNL A   1      43.004  30.368  29.515  1.00  0.00     0.031 C 
ATOM     59  C   UNL A   1      44.338  29.044  31.287  1.00  0.00     0.037 A 
BRANCH  46  60
ATOM     60  C   UNL A   1      46.788  30.958  26.875  1.00  0.00     0.057 A 
ATOM     61  C   UNL A   1      45.611  31.674  26.574  1.00  0.00     0.134 A 
ATOM     62  C   UNL A   1      47.967  31.729  26.869  1.00  0.00     0.134 A 
ATOM     63  F   UNL A   1      44.401  31.105  26.552  1.00  0.00    -0.206 F 
ATOM     64  C   UNL A   1      45.594  33.057  26.375  1.00  0.00     0.040 A 
ATOM     65  C   UNL A   1      47.955  33.120  26.715  1.00  0.00     0.040 A 
ATOM     66  F   UNL A   1      49.160  31.163  27.115  1.00  0.00    -0.206 F 
ATOM     67  C   UNL A   1      46.762  33.792  26.491  1.00  0.00     0.006 A 
ENDBRANCH  46  60
BRANCH  47  68
ATOM     68  C   UNL A   1      38.810  28.719  29.255  1.00  0.00     0.057 A 
ATOM     69  C   UNL A   1      38.420  29.274  28.023  1.00  0.00     0.134 A 
ATOM     70  C   UNL A   1      37.861  28.785  30.285  1.00  0.00     0.134 A 
ATOM     71  F   UNL A   1      39.279  29.344  26.995  1.00  0.00    -0.206 F 
ATOM     72  C   UNL A   1      37.166  29.860  27.824  1.00  0.00     0.040 A 
ATOM     73  C   UNL A   1      36.601  29.373  30.100  1.00  0.00     0.040 A 
ATOM     74  F   UNL A   1      38.157  28.332  31.512  1.00  0.00    -0.206 F 
ATOM     75  C   UNL A   1      36.253  29.920  28.869  1.00  0.00     0.006 A 
ENDBRANCH  47  68
BRANCH  59  76
ATOM     76  C   UNL A   1      44.151  28.097  32.439  1.00  0.00     0.057 A 
ATOM     77  C   UNL A   1      44.252  28.591  33.742  1.00  0.00     0.134 A 
ATOM     78  C   UNL A   1      44.004  26.709  32.296  1.00  0.00     0.134 A 
ATOM     79  F   UNL A   1      44.460  29.899  33.953  1.00  0.00    -0.206 F 
ATOM     80  C   UNL A   1      44.189  27.749  34.854  1.00  0.00     0.040 A 
ATOM     81  C   UNL A   1      43.904  25.858  33.401  1.00  0.00     0.040 A 
ATOM     82  F   UNL A   1      44.007  26.134  31.088  1.00  0.00    -0.206 F 
ATOM     83  C   UNL A   1      44.000  26.380  34.687  1.00  0.00     0.006 A 
ENDBRANCH  59  76
ENDBRANCH  33  34
ENDBRANCH  25  28
ENDBRANCH  23  24
ENDBRANCH  22  23
ENDBRANCH   1  22
TORSDOF 14
ENDMDL
