MODEL 1
REMARK VINA RESULT:     -10.6      0.000      0.000
REMARK SMILES CCc1ccsc1CNC(=O)N1[C@H]2CC[C@@H]1[C@H](C(=O)NCCCCCCNC(=O)c1ccc(-c3c4nc(c(-c5c(F)cccc5F)c5ccc([nH]5)c(-c5c(F)cccc5F)c5nc(c(-c6c(F)cccc6F)c6ccc3[nH]6)C=C5)C=C4)cc1)C2
REMARK SMILES IDX 22 1 21 2 20 3 18 4 19 5 17 7 12 8 13 9 16 10 14 11 84 12
REMARK SMILES IDX 15 13 10 14 9 15 11 17 8 18 7 19 3 20 4 21 5 22 6 23 2 24
REMARK SMILES IDX 1 25 23 26 24 27 25 28 26 29 27 30 28 31 29 33 30 34 31 35
REMARK SMILES IDX 83 36 32 37 82 38 33 39 34 40 35 41 76 42 36 43 81 44 75 45
REMARK SMILES IDX 77 46 37 47 80 48 74 49 73 50 38 52 64 53 47 54 63 55 48 56
REMARK SMILES IDX 51 57 62 58 78 59 49 60 50 61 61 63 79 64 52 65 39 66 40 67
REMARK SMILES IDX 45 68 41 69 42 70 44 71 46 72 43 73 65 74 66 75 71 76 67 77
REMARK SMILES IDX 68 78 70 79 72 80 69 81 53 82 54 83 59 84 55 85 56 86 58 87
REMARK SMILES IDX 60 88 57 89
REMARK H PARENT 20 6 9 16 27 32 77 51 51 62
REMARK Flexibility Score: inf
ROOT
ATOM      1  C   UNL A   1      34.511  29.287  27.586  1.00  0.00     0.021 C 
ENDROOT
BRANCH   1   2
ATOM      2  C   UNL A   1      34.208  28.270  26.488  1.00  0.00     0.116 C 
BRANCH   2   3
ATOM      3  N   UNL A   1      34.384  28.852  25.179  1.00  0.00    -0.356 N 
ATOM      4  C   UNL A   1      33.852  28.574  23.969  1.00  0.00     0.225 C 
ATOM      5  O   UNL A   1      34.337  29.194  23.015  1.00  0.00    -0.275 OA
ATOM      6  H   UNL A   1      35.019  29.604  25.166  1.00  0.00     0.163 HD
BRANCH   4   7
ATOM      7  C   UNL A   1      32.747  27.568  23.704  1.00  0.00     0.103 C 
ATOM      8  N   UNL A   1      30.639  26.749  23.766  1.00  0.00    -0.318 N 
ATOM      9  C   UNL A   1      30.816  27.069  22.365  1.00  0.00     0.088 C 
ATOM     10  C   UNL A   1      31.383  27.843  24.366  1.00  0.00     0.099 C 
ATOM     11  C   UNL A   1      30.249  28.500  22.349  1.00  0.00     0.027 C 
ATOM     12  C   UNL A   1      32.356  27.103  22.279  1.00  0.00     0.040 C 
ATOM     13  C   UNL A   1      30.652  29.038  23.739  1.00  0.00     0.028 C 
BRANCH   8  14
ATOM     14  C   UNL A   1      29.672  26.032  24.381  1.00  0.00     0.318 C 
ATOM     15  N   UNL A   1      30.028  24.908  25.048  1.00  0.00    -0.333 N 
ATOM     16  H   UNL A   1      29.302  24.267  25.227  1.00  0.00     0.165 HD
ATOM     17  O   UNL A   1      28.496  26.391  24.406  1.00  0.00    -0.249 OA
BRANCH  15  18
ATOM     18  C   UNL A   1      31.337  24.526  25.530  1.00  0.00     0.165 C 
BRANCH  18  19
ATOM     19  C   UNL A   1      32.202  23.948  24.440  1.00  0.00     0.027 A 
ATOM     20  C   UNL A   1      33.591  24.002  24.347  1.00  0.00    -0.033 A 
ATOM     21  C   UNL A   1      34.056  23.253  23.214  1.00  0.00     0.016 A 
ATOM     22  C   UNL A   1      33.037  22.660  22.507  1.00  0.00     0.065 A 
ATOM     23  S   UNL A   1      31.517  22.976  23.199  1.00  0.00    -0.147 S 
BRANCH  20  24
ATOM     24  C   UNL A   1      34.466  24.719  25.348  1.00  0.00     0.033 C 
ATOM     25  C   UNL A   1      35.807  24.066  25.635  1.00  0.00     0.009 C 
ENDBRANCH  20  24
ENDBRANCH  18  19
ENDBRANCH  15  18
ENDBRANCH   8  14
ENDBRANCH   4   7
ENDBRANCH   2   3
ENDBRANCH   1   2
BRANCH   1  26
ATOM     26  C   UNL A   1      33.921  30.672  27.322  1.00  0.00     0.002 C 
BRANCH  26  27
ATOM     27  C   UNL A   1      32.391  30.720  27.239  1.00  0.00     0.002 C 
BRANCH  27  28
ATOM     28  C   UNL A   1      31.773  32.121  27.219  1.00  0.00     0.021 C 
BRANCH  28  29
ATOM     29  C   UNL A   1      32.738  33.253  26.875  1.00  0.00     0.116 C 
BRANCH  29  30
ATOM     30  N   UNL A   1      32.523  34.426  27.704  1.00  0.00    -0.352 N 
ATOM     31  C   UNL A   1      33.096  34.772  28.900  1.00  0.00     0.251 C 
ATOM     32  H   UNL A   1      31.866  35.070  27.354  1.00  0.00     0.163 HD
ATOM     33  O   UNL A   1      32.645  35.711  29.548  1.00  0.00    -0.269 OA
BRANCH  31  34
ATOM     34  C   UNL A   1      34.251  34.012  29.420  1.00  0.00     0.039 A 
ATOM     35  C   UNL A   1      35.537  34.390  29.024  1.00  0.00     0.014 A 
ATOM     36  C   UNL A   1      34.070  32.908  30.259  1.00  0.00     0.014 A 
ATOM     37  C   UNL A   1      36.645  33.690  29.505  1.00  0.00     0.010 A 
ATOM     38  C   UNL A   1      35.176  32.247  30.785  1.00  0.00     0.010 A 
ATOM     39  C   UNL A   1      36.473  32.627  30.406  1.00  0.00    -0.014 A 
BRANCH  39  40
ATOM     40  C   UNL A   1      37.640  31.890  30.947  1.00  0.00     0.031 A 
ATOM     41  C   UNL A   1      38.161  32.206  32.320  1.00  0.00     0.074 A 
ATOM     42  C   UNL A   1      38.262  30.974  30.181  1.00  0.00     0.049 A 
ATOM     43  N   UNL A   1      39.204  31.718  32.941  1.00  0.00    -0.248 NA
ATOM     44  C   UNL A   1      37.426  33.224  33.088  1.00  0.00     0.031 C 
ATOM     45  C   UNL A   1      37.877  30.608  28.817  1.00  0.00     0.029 A 
ATOM     46  N   UNL A   1      39.360  30.192  30.438  1.00  0.00    -0.354 N 
ATOM     47  C   UNL A   1      39.261  32.379  34.162  1.00  0.00     0.074 A 
ATOM     48  C   UNL A   1      38.173  33.333  34.176  1.00  0.00     0.031 C 
ATOM     49  C   UNL A   1      38.711  29.658  28.365  1.00  0.00     0.029 A 
ATOM     50  C   UNL A   1      39.707  29.371  29.393  1.00  0.00     0.049 A 
ATOM     51  H   UNL A   1      39.851  30.216  31.291  1.00  0.00     0.167 HD
ATOM     52  C   UNL A   1      40.128  32.192  35.186  1.00  0.00     0.037 A 
ATOM     53  C   UNL A   1      40.717  28.488  29.278  1.00  0.00     0.037 A 
ATOM     54  C   UNL A   1      41.190  31.222  35.182  1.00  0.00     0.049 A 
ATOM     55  C   UNL A   1      41.658  28.292  30.433  1.00  0.00     0.074 A 
ATOM     56  C   UNL A   1      42.087  30.919  36.191  1.00  0.00     0.029 A 
ATOM     57  N   UNL A   1      41.495  30.393  34.113  1.00  0.00    -0.354 N 
ATOM     58  N   UNL A   1      41.667  28.887  31.601  1.00  0.00    -0.248 NA
ATOM     59  C   UNL A   1      42.726  27.299  30.254  1.00  0.00     0.031 C 
ATOM     60  C   UNL A   1      42.954  29.926  35.722  1.00  0.00     0.029 A 
ATOM     61  C   UNL A   1      42.575  29.587  34.434  1.00  0.00     0.049 A 
ATOM     62  H   UNL A   1      41.015  30.379  33.254  1.00  0.00     0.167 HD
ATOM     63  C   UNL A   1      42.721  28.323  32.305  1.00  0.00     0.074 A 
ATOM     64  C   UNL A   1      43.323  27.332  31.438  1.00  0.00     0.031 C 
ATOM     65  C   UNL A   1      43.154  28.600  33.560  1.00  0.00     0.037 A 
BRANCH  52  66
ATOM     66  C   UNL A   1      39.955  33.056  36.400  1.00  0.00     0.057 A 
ATOM     67  C   UNL A   1      39.061  32.717  37.424  1.00  0.00     0.134 A 
ATOM     68  C   UNL A   1      40.709  34.225  36.560  1.00  0.00     0.134 A 
ATOM     69  F   UNL A   1      38.299  31.617  37.323  1.00  0.00    -0.206 F 
ATOM     70  C   UNL A   1      38.905  33.522  38.552  1.00  0.00     0.040 A 
ATOM     71  C   UNL A   1      40.579  35.026  37.696  1.00  0.00     0.040 A 
ATOM     72  F   UNL A   1      41.587  34.605  35.620  1.00  0.00    -0.206 F 
ATOM     73  C   UNL A   1      39.670  34.678  38.694  1.00  0.00     0.006 A 
ENDBRANCH  52  66
BRANCH  53  74
ATOM     74  C   UNL A   1      40.870  27.698  28.033  1.00  0.00     0.057 A 
ATOM     75  C   UNL A   1      40.265  26.443  27.899  1.00  0.00     0.134 A 
ATOM     76  C   UNL A   1      41.621  28.173  26.952  1.00  0.00     0.134 A 
ATOM     77  F   UNL A   1      39.547  25.930  28.910  1.00  0.00    -0.206 F 
ATOM     78  C   UNL A   1      40.413  25.681  26.741  1.00  0.00     0.040 A 
ATOM     79  C   UNL A   1      41.761  27.429  25.779  1.00  0.00     0.040 A 
ATOM     80  F   UNL A   1      42.219  29.371  27.016  1.00  0.00    -0.206 F 
ATOM     81  C   UNL A   1      41.161  26.176  25.674  1.00  0.00     0.006 A 
ENDBRANCH  53  74
BRANCH  65  82
ATOM     82  C   UNL A   1      44.311  27.800  34.076  1.00  0.00     0.057 A 
ATOM     83  C   UNL A   1      44.131  26.551  34.680  1.00  0.00     0.134 A 
ATOM     84  C   UNL A   1      45.622  28.271  33.934  1.00  0.00     0.134 A 
ATOM     85  F   UNL A   1      42.899  26.051  34.857  1.00  0.00    -0.206 F 
ATOM     86  C   UNL A   1      45.216  25.804  35.143  1.00  0.00     0.040 A 
ATOM     87  C   UNL A   1      46.715  27.524  34.373  1.00  0.00     0.040 A 
ATOM     88  F   UNL A   1      45.860  29.459  33.357  1.00  0.00    -0.206 F 
ATOM     89  C   UNL A   1      46.513  26.288  34.984  1.00  0.00     0.006 A 
ENDBRANCH  65  82
ENDBRANCH  39  40
ENDBRANCH  31  34
ENDBRANCH  29  30
ENDBRANCH  28  29
ENDBRANCH  27  28
ENDBRANCH  26  27
ENDBRANCH   1  26
TORSDOF 17
ENDMDL
MODEL 2
REMARK VINA RESULT:     -10.5      4.603      9.015
REMARK SMILES CCc1ccsc1CNC(=O)N1[C@H]2CC[C@@H]1[C@H](C(=O)NCCCCCCNC(=O)c1ccc(-c3c4nc(c(-c5c(F)cccc5F)c5ccc([nH]5)c(-c5c(F)cccc5F)c5nc(c(-c6c(F)cccc6F)c6ccc3[nH]6)C=C5)C=C4)cc1)C2
REMARK SMILES IDX 22 1 21 2 20 3 18 4 19 5 17 7 12 8 13 9 16 10 14 11 84 12
REMARK SMILES IDX 15 13 10 14 9 15 11 17 8 18 7 19 3 20 4 21 5 22 6 23 2 24
REMARK SMILES IDX 1 25 23 26 24 27 25 28 26 29 27 30 28 31 29 33 30 34 31 35
REMARK SMILES IDX 83 36 32 37 82 38 33 39 34 40 35 41 76 42 36 43 81 44 75 45
REMARK SMILES IDX 77 46 37 47 80 48 74 49 73 50 38 52 64 53 47 54 63 55 48 56
REMARK SMILES IDX 51 57 62 58 78 59 49 60 50 61 61 63 79 64 52 65 39 66 40 67
REMARK SMILES IDX 45 68 41 69 42 70 44 71 46 72 43 73 65 74 66 75 71 76 67 77
REMARK SMILES IDX 68 78 70 79 72 80 69 81 53 82 54 83 59 84 55 85 56 86 58 87
REMARK SMILES IDX 60 88 57 89
REMARK H PARENT 20 6 9 16 27 32 77 51 51 62
REMARK Flexibility Score: inf
ROOT
ATOM      1  C   UNL A   1      36.903  22.106  24.102  1.00  0.00     0.021 C 
ENDROOT
BRANCH   1   2
ATOM      2  C   UNL A   1      36.112  23.349  23.700  1.00  0.00     0.116 C 
BRANCH   2   3
ATOM      3  N   UNL A   1      34.984  22.999  22.870  1.00  0.00    -0.356 N 
ATOM      4  C   UNL A   1      33.648  23.084  23.050  1.00  0.00     0.225 C 
ATOM      5  O   UNL A   1      32.955  22.556  22.172  1.00  0.00    -0.275 OA
ATOM      6  H   UNL A   1      35.240  22.624  21.996  1.00  0.00     0.163 HD
BRANCH   4   7
ATOM      7  C   UNL A   1      32.959  23.745  24.230  1.00  0.00     0.103 C 
ATOM      8  N   UNL A   1      31.630  23.841  26.059  1.00  0.00    -0.318 N 
ATOM      9  C   UNL A   1      32.956  24.000  26.619  1.00  0.00     0.088 C 
ATOM     10  C   UNL A   1      31.923  22.897  24.993  1.00  0.00     0.099 C 
ATOM     11  C   UNL A   1      33.282  22.532  26.945  1.00  0.00     0.027 C 
ATOM     12  C   UNL A   1      33.736  24.455  25.367  1.00  0.00     0.040 C 
ATOM     13  C   UNL A   1      32.568  21.767  25.809  1.00  0.00     0.028 C 
BRANCH   8  14
ATOM     14  C   UNL A   1      30.417  24.030  26.624  1.00  0.00     0.318 C 
ATOM     15  N   UNL A   1      29.667  25.077  26.204  1.00  0.00    -0.333 N 
ATOM     16  H   UNL A   1      28.947  25.359  26.813  1.00  0.00     0.165 HD
ATOM     17  O   UNL A   1      29.949  23.258  27.458  1.00  0.00    -0.249 OA
BRANCH  15  18
ATOM     18  C   UNL A   1      29.787  25.833  24.978  1.00  0.00     0.165 C 
BRANCH  18  19
ATOM     19  C   UNL A   1      30.616  27.079  25.153  1.00  0.00     0.027 A 
ATOM     20  C   UNL A   1      30.827  28.090  24.218  1.00  0.00    -0.033 A 
ATOM     21  C   UNL A   1      31.598  29.159  24.788  1.00  0.00     0.016 A 
ATOM     22  C   UNL A   1      31.929  28.940  26.105  1.00  0.00     0.065 A 
ATOM     23  S   UNL A   1      31.308  27.466  26.678  1.00  0.00    -0.147 S 
BRANCH  20  24
ATOM     24  C   UNL A   1      30.266  28.060  22.816  1.00  0.00     0.033 C 
ATOM     25  C   UNL A   1      29.287  29.171  22.476  1.00  0.00     0.009 C 
ENDBRANCH  20  24
ENDBRANCH  18  19
ENDBRANCH  15  18
ENDBRANCH   8  14
ENDBRANCH   4   7
ENDBRANCH   2   3
ENDBRANCH   1   2
BRANCH   1  26
ATOM     26  C   UNL A   1      36.068  21.056  24.834  1.00  0.00     0.002 C 
BRANCH  26  27
ATOM     27  C   UNL A   1      36.714  19.669  24.935  1.00  0.00     0.002 C 
BRANCH  27  28
ATOM     28  C   UNL A   1      38.216  19.614  24.641  1.00  0.00     0.021 C 
BRANCH  28  29
ATOM     29  C   UNL A   1      39.122  19.918  25.832  1.00  0.00     0.116 C 
BRANCH  29  30
ATOM     30  N   UNL A   1      40.294  19.061  25.859  1.00  0.00    -0.352 N 
ATOM     31  C   UNL A   1      41.612  19.381  26.056  1.00  0.00     0.251 C 
ATOM     32  H   UNL A   1      40.115  18.104  25.715  1.00  0.00     0.163 HD
ATOM     33  O   UNL A   1      42.485  18.544  25.851  1.00  0.00    -0.269 OA
BRANCH  31  34
ATOM     34  C   UNL A   1      41.990  20.738  26.503  1.00  0.00     0.039 A 
ATOM     35  C   UNL A   1      42.015  21.011  27.873  1.00  0.00     0.014 A 
ATOM     36  C   UNL A   1      42.277  21.748  25.579  1.00  0.00     0.014 A 
ATOM     37  C   UNL A   1      42.371  22.283  28.321  1.00  0.00     0.010 A 
ATOM     38  C   UNL A   1      42.691  23.000  26.027  1.00  0.00     0.010 A 
ATOM     39  C   UNL A   1      42.733  23.281  27.401  1.00  0.00    -0.014 A 
BRANCH  39  40
ATOM     40  C   UNL A   1      43.141  24.630  27.861  1.00  0.00     0.031 A 
ATOM     41  C   UNL A   1      42.101  25.673  28.157  1.00  0.00     0.074 A 
ATOM     42  C   UNL A   1      44.450  24.931  27.960  1.00  0.00     0.049 A 
ATOM     43  N   UNL A   1      42.261  26.924  28.508  1.00  0.00    -0.248 NA
ATOM     44  C   UNL A   1      40.695  25.262  28.018  1.00  0.00     0.031 C 
ATOM     45  C   UNL A   1      45.555  24.018  27.662  1.00  0.00     0.029 A 
ATOM     46  N   UNL A   1      45.072  26.097  28.331  1.00  0.00    -0.354 N 
ATOM     47  C   UNL A   1      40.980  27.452  28.613  1.00  0.00     0.074 A 
ATOM     48  C   UNL A   1      40.057  26.399  28.249  1.00  0.00     0.031 C 
ATOM     49  C   UNL A   1      46.718  24.652  27.881  1.00  0.00     0.029 A 
ATOM     50  C   UNL A   1      46.443  26.021  28.304  1.00  0.00     0.049 A 
ATOM     51  H   UNL A   1      44.582  26.910  28.591  1.00  0.00     0.167 HD
ATOM     52  C   UNL A   1      40.608  28.696  29.000  1.00  0.00     0.037 A 
ATOM     53  C   UNL A   1      47.372  26.953  28.586  1.00  0.00     0.037 A 
ATOM     54  C   UNL A   1      41.526  29.732  29.391  1.00  0.00     0.049 A 
ATOM     55  C   UNL A   1      46.932  28.321  29.023  1.00  0.00     0.074 A 
ATOM     56  C   UNL A   1      41.245  31.007  29.851  1.00  0.00     0.029 A 
ATOM     57  N   UNL A   1      42.907  29.609  29.373  1.00  0.00    -0.354 N 
ATOM     58  N   UNL A   1      45.718  28.791  29.170  1.00  0.00    -0.248 NA
ATOM     59  C   UNL A   1      47.994  29.288  29.339  1.00  0.00     0.031 C 
ATOM     60  C   UNL A   1      42.457  31.665  30.082  1.00  0.00     0.029 A 
ATOM     61  C   UNL A   1      43.492  30.789  29.800  1.00  0.00     0.049 A 
ATOM     62  H   UNL A   1      43.398  28.802  29.097  1.00  0.00     0.167 HD
ATOM     63  C   UNL A   1      45.866  30.096  29.619  1.00  0.00     0.074 A 
ATOM     64  C   UNL A   1      47.289  30.341  29.730  1.00  0.00     0.031 C 
ATOM     65  C   UNL A   1      44.910  31.010  29.913  1.00  0.00     0.037 A 
BRANCH  52  66
ATOM     66  C   UNL A   1      39.139  28.998  29.022  1.00  0.00     0.057 A 
ATOM     67  C   UNL A   1      38.373  28.845  30.186  1.00  0.00     0.134 A 
ATOM     68  C   UNL A   1      38.487  29.473  27.877  1.00  0.00     0.134 A 
ATOM     69  F   UNL A   1      38.935  28.380  31.312  1.00  0.00    -0.206 F 
ATOM     70  C   UNL A   1      37.007  29.130  30.203  1.00  0.00     0.040 A 
ATOM     71  C   UNL A   1      37.127  29.784  27.889  1.00  0.00     0.040 A 
ATOM     72  F   UNL A   1      39.163  29.648  26.731  1.00  0.00    -0.206 F 
ATOM     73  C   UNL A   1      36.381  29.606  29.053  1.00  0.00     0.006 A 
ENDBRANCH  52  66
BRANCH  53  74
ATOM     74  C   UNL A   1      48.813  26.612  28.497  1.00  0.00     0.057 A 
ATOM     75  C   UNL A   1      49.518  26.780  27.301  1.00  0.00     0.134 A 
ATOM     76  C   UNL A   1      49.516  26.113  29.599  1.00  0.00     0.134 A 
ATOM     77  F   UNL A   1      48.891  27.239  26.207  1.00  0.00    -0.206 F 
ATOM     78  C   UNL A   1      50.869  26.449  27.196  1.00  0.00     0.040 A 
ATOM     79  C   UNL A   1      50.873  25.796  29.514  1.00  0.00     0.040 A 
ATOM     80  F   UNL A   1      48.898  25.937  30.775  1.00  0.00    -0.206 F 
ATOM     81  C   UNL A   1      51.552  25.959  28.308  1.00  0.00     0.006 A 
ENDBRANCH  53  74
BRANCH  65  82
ATOM     82  C   UNL A   1      45.373  32.346  30.412  1.00  0.00     0.057 A 
ATOM     83  C   UNL A   1      45.615  33.413  29.540  1.00  0.00     0.134 A 
ATOM     84  C   UNL A   1      45.543  32.574  31.782  1.00  0.00     0.134 A 
ATOM     85  F   UNL A   1      45.483  33.254  28.215  1.00  0.00    -0.206 F 
ATOM     86  C   UNL A   1      46.030  34.659  30.014  1.00  0.00     0.040 A 
ATOM     87  C   UNL A   1      45.936  33.820  32.270  1.00  0.00     0.040 A 
ATOM     88  F   UNL A   1      45.320  31.592  32.670  1.00  0.00    -0.206 F 
ATOM     89  C   UNL A   1      46.185  34.867  31.383  1.00  0.00     0.006 A 
ENDBRANCH  65  82
ENDBRANCH  39  40
ENDBRANCH  31  34
ENDBRANCH  29  30
ENDBRANCH  28  29
ENDBRANCH  27  28
ENDBRANCH  26  27
ENDBRANCH   1  26
TORSDOF 17
ENDMDL
MODEL 3
REMARK VINA RESULT:     -10.4      1.476      3.095
REMARK SMILES CCc1ccsc1CNC(=O)N1[C@H]2CC[C@@H]1[C@H](C(=O)NCCCCCCNC(=O)c1ccc(-c3c4nc(c(-c5c(F)cccc5F)c5ccc([nH]5)c(-c5c(F)cccc5F)c5nc(c(-c6c(F)cccc6F)c6ccc3[nH]6)C=C5)C=C4)cc1)C2
REMARK SMILES IDX 22 1 21 2 20 3 18 4 19 5 17 7 12 8 13 9 16 10 14 11 84 12
REMARK SMILES IDX 15 13 10 14 9 15 11 17 8 18 7 19 3 20 4 21 5 22 6 23 2 24
REMARK SMILES IDX 1 25 23 26 24 27 25 28 26 29 27 30 28 31 29 33 30 34 31 35
REMARK SMILES IDX 83 36 32 37 82 38 33 39 34 40 35 41 76 42 36 43 81 44 75 45
REMARK SMILES IDX 77 46 37 47 80 48 74 49 73 50 38 52 64 53 47 54 63 55 48 56
REMARK SMILES IDX 51 57 62 58 78 59 49 60 50 61 61 63 79 64 52 65 39 66 40 67
REMARK SMILES IDX 45 68 41 69 42 70 44 71 46 72 43 73 65 74 66 75 71 76 67 77
REMARK SMILES IDX 68 78 70 79 72 80 69 81 53 82 54 83 59 84 55 85 56 86 58 87
REMARK SMILES IDX 60 88 57 89
REMARK H PARENT 20 6 9 16 27 32 77 51 51 62
REMARK Flexibility Score: inf
ROOT
ATOM      1  C   UNL A   1      31.969  28.534  27.546  1.00  0.00     0.021 C 
ENDROOT
BRANCH   1   2
ATOM      2  C   UNL A   1      31.249  27.553  26.623  1.00  0.00     0.116 C 
BRANCH   2   3
ATOM      3  N   UNL A   1      31.451  26.192  27.057  1.00  0.00    -0.356 N 
ATOM      4  C   UNL A   1      31.554  25.020  26.392  1.00  0.00     0.225 C 
ATOM      5  O   UNL A   1      31.587  24.005  27.099  1.00  0.00    -0.275 OA
ATOM      6  H   UNL A   1      31.531  26.097  28.034  1.00  0.00     0.163 HD
BRANCH   4   7
ATOM      7  C   UNL A   1      31.610  24.866  24.884  1.00  0.00     0.103 C 
ATOM      8  N   UNL A   1      32.445  25.179  22.804  1.00  0.00    -0.318 N 
ATOM      9  C   UNL A   1      32.725  23.780  23.054  1.00  0.00     0.088 C 
ATOM     10  C   UNL A   1      32.656  25.716  24.137  1.00  0.00     0.099 C 
ATOM     11  C   UNL A   1      34.147  23.896  23.631  1.00  0.00     0.027 C 
ATOM     12  C   UNL A   1      31.712  23.489  24.181  1.00  0.00     0.040 C 
ATOM     13  C   UNL A   1      34.094  25.240  24.390  1.00  0.00     0.028 C 
BRANCH   8  14
ATOM     14  C   UNL A   1      32.509  25.889  21.656  1.00  0.00     0.318 C 
ATOM     15  N   UNL A   1      31.939  27.118  21.625  1.00  0.00    -0.333 N 
ATOM     16  H   UNL A   1      31.745  27.477  20.729  1.00  0.00     0.165 HD
ATOM     17  O   UNL A   1      33.113  25.488  20.663  1.00  0.00    -0.249 OA
BRANCH  15  18
ATOM     18  C   UNL A   1      31.579  27.969  22.737  1.00  0.00     0.165 C 
BRANCH  18  19
ATOM     19  C   UNL A   1      30.186  28.528  22.601  1.00  0.00     0.027 A 
ATOM     20  C   UNL A   1      29.000  27.960  23.062  1.00  0.00    -0.033 A 
ATOM     21  C   UNL A   1      27.889  28.838  22.826  1.00  0.00     0.016 A 
ATOM     22  C   UNL A   1      28.255  30.017  22.221  1.00  0.00     0.065 A 
ATOM     23  S   UNL A   1      29.930  30.096  21.946  1.00  0.00    -0.147 S 
BRANCH  20  24
ATOM     24  C   UNL A   1      28.932  26.620  23.756  1.00  0.00     0.033 C 
ATOM     25  C   UNL A   1      27.597  26.278  24.395  1.00  0.00     0.009 C 
ENDBRANCH  20  24
ENDBRANCH  18  19
ENDBRANCH  15  18
ENDBRANCH   8  14
ENDBRANCH   4   7
ENDBRANCH   2   3
ENDBRANCH   1   2
BRANCH   1  26
ATOM     26  C   UNL A   1      32.453  29.801  26.841  1.00  0.00     0.002 C 
BRANCH  26  27
ATOM     27  C   UNL A   1      31.351  30.640  26.184  1.00  0.00     0.002 C 
BRANCH  27  28
ATOM     28  C   UNL A   1      31.334  32.124  26.560  1.00  0.00     0.021 C 
BRANCH  28  29
ATOM     29  C   UNL A   1      32.683  32.702  26.985  1.00  0.00     0.116 C 
BRANCH  29  30
ATOM     30  N   UNL A   1      32.546  34.007  27.607  1.00  0.00    -0.352 N 
ATOM     31  C   UNL A   1      33.219  34.548  28.671  1.00  0.00     0.251 C 
ATOM     32  H   UNL A   1      31.867  34.594  27.201  1.00  0.00     0.163 HD
ATOM     33  O   UNL A   1      32.830  35.596  29.175  1.00  0.00    -0.269 OA
BRANCH  31  34
ATOM     34  C   UNL A   1      34.408  33.866  29.224  1.00  0.00     0.039 A 
ATOM     35  C   UNL A   1      34.221  32.836  30.149  1.00  0.00     0.014 A 
ATOM     36  C   UNL A   1      35.700  34.266  28.867  1.00  0.00     0.014 A 
ATOM     37  C   UNL A   1      35.328  32.174  30.684  1.00  0.00     0.010 A 
ATOM     38  C   UNL A   1      36.801  33.567  29.354  1.00  0.00     0.010 A 
ATOM     39  C   UNL A   1      36.625  32.521  30.273  1.00  0.00    -0.014 A 
BRANCH  39  40
ATOM     40  C   UNL A   1      37.810  31.810  30.810  1.00  0.00     0.031 A 
ATOM     41  C   UNL A   1      38.366  32.181  32.156  1.00  0.00     0.074 A 
ATOM     42  C   UNL A   1      38.416  30.869  30.063  1.00  0.00     0.049 A 
ATOM     43  N   UNL A   1      39.428  31.721  32.767  1.00  0.00    -0.248 NA
ATOM     44  C   UNL A   1      37.647  33.224  32.904  1.00  0.00     0.031 C 
ATOM     45  C   UNL A   1      37.996  30.448  28.725  1.00  0.00     0.029 A 
ATOM     46  N   UNL A   1      39.524  30.101  30.320  1.00  0.00    -0.354 N 
ATOM     47  C   UNL A   1      39.514  32.429  33.959  1.00  0.00     0.074 A 
ATOM     48  C   UNL A   1      38.422  33.378  33.967  1.00  0.00     0.031 C 
ATOM     49  C   UNL A   1      38.823  29.485  28.288  1.00  0.00     0.029 A 
ATOM     50  C   UNL A   1      39.847  29.242  29.298  1.00  0.00     0.049 A 
ATOM     51  H   UNL A   1      40.038  30.160  31.157  1.00  0.00     0.167 HD
ATOM     52  C   UNL A   1      40.409  32.285  34.965  1.00  0.00     0.037 A 
ATOM     53  C   UNL A   1      40.858  28.360  29.189  1.00  0.00     0.037 A 
ATOM     54  C   UNL A   1      41.476  31.320  34.970  1.00  0.00     0.049 A 
ATOM     55  C   UNL A   1      41.831  28.212  30.325  1.00  0.00     0.074 A 
ATOM     56  C   UNL A   1      42.402  31.060  35.965  1.00  0.00     0.029 A 
ATOM     57  N   UNL A   1      41.757  30.452  33.925  1.00  0.00    -0.354 N 
ATOM     58  N   UNL A   1      41.869  28.851  31.469  1.00  0.00    -0.248 NA
ATOM     59  C   UNL A   1      42.899  27.217  30.155  1.00  0.00     0.031 C 
ATOM     60  C   UNL A   1      43.261  30.054  35.511  1.00  0.00     0.029 A 
ATOM     61  C   UNL A   1      42.849  29.663  34.247  1.00  0.00     0.049 A 
ATOM     62  H   UNL A   1      41.254  30.403  33.081  1.00  0.00     0.167 HD
ATOM     63  C   UNL A   1      42.945  28.319  32.165  1.00  0.00     0.074 A 
ATOM     64  C   UNL A   1      43.528  27.298  31.320  1.00  0.00     0.031 C 
ATOM     65  C   UNL A   1      43.409  28.646  33.396  1.00  0.00     0.037 A 
BRANCH  52  66
ATOM     66  C   UNL A   1      40.265  33.194  36.150  1.00  0.00     0.057 A 
ATOM     67  C   UNL A   1      41.004  34.380  36.262  1.00  0.00     0.134 A 
ATOM     68  C   UNL A   1      39.361  32.895  37.177  1.00  0.00     0.134 A 
ATOM     69  F   UNL A   1      41.897  34.715  35.319  1.00  0.00    -0.206 F 
ATOM     70  C   UNL A   1      40.865  35.223  37.365  1.00  0.00     0.040 A 
ATOM     71  C   UNL A   1      39.196  33.744  38.272  1.00  0.00     0.040 A 
ATOM     72  F   UNL A   1      38.619  31.779  37.128  1.00  0.00    -0.206 F 
ATOM     73  C   UNL A   1      39.954  34.909  38.372  1.00  0.00     0.006 A 
ENDBRANCH  52  66
BRANCH  53  74
ATOM     74  C   UNL A   1      40.982  27.523  27.972  1.00  0.00     0.057 A 
ATOM     75  C   UNL A   1      40.321  26.293  27.875  1.00  0.00     0.134 A 
ATOM     76  C   UNL A   1      41.759  27.928  26.881  1.00  0.00     0.134 A 
ATOM     77  F   UNL A   1      39.576  25.846  28.897  1.00  0.00    -0.206 F 
ATOM     78  C   UNL A   1      40.441  25.487  26.743  1.00  0.00     0.040 A 
ATOM     79  C   UNL A   1      41.872  27.141  25.734  1.00  0.00     0.040 A 
ATOM     80  F   UNL A   1      42.410  29.100  26.910  1.00  0.00    -0.206 F 
ATOM     81  C   UNL A   1      41.216  25.914  25.665  1.00  0.00     0.006 A 
ENDBRANCH  53  74
BRANCH  65  82
ATOM     82  C   UNL A   1      44.584  27.872  33.911  1.00  0.00     0.057 A 
ATOM     83  C   UNL A   1      44.425  26.666  34.604  1.00  0.00     0.134 A 
ATOM     84  C   UNL A   1      45.890  28.320  33.678  1.00  0.00     0.134 A 
ATOM     85  F   UNL A   1      43.199  26.191  34.870  1.00  0.00    -0.206 F 
ATOM     86  C   UNL A   1      45.525  25.942  35.065  1.00  0.00     0.040 A 
ATOM     87  C   UNL A   1      46.998  27.594  34.115  1.00  0.00     0.040 A 
ATOM     88  F   UNL A   1      46.109  29.465  33.013  1.00  0.00    -0.206 F 
ATOM     89  C   UNL A   1      46.817  26.403  34.815  1.00  0.00     0.006 A 
ENDBRANCH  65  82
ENDBRANCH  39  40
ENDBRANCH  31  34
ENDBRANCH  29  30
ENDBRANCH  28  29
ENDBRANCH  27  28
ENDBRANCH  26  27
ENDBRANCH   1  26
TORSDOF 17
ENDMDL
