MODEL 1
REMARK VINA RESULT:     -11.1      0.000      0.000
REMARK SMILES COc1ccc2c(c1)c(CC(=O)NCCCCCCNC(=O)c1ccc(-c3c4nc(c(-c5c(F)cccc5F)c5ccc([nH]5)c(-c5c(F)cccc5F)c5nc(c(-c6c(F)cccc6F)c6ccc3[nH]6)C=C5)C=C4)cc1)c(C)n2Cc1ccc(Br)cc1
REMARK SMILES IDX 16 1 15 2 14 3 13 4 11 5 12 6 10 8 9 9 3 10 4 11 8 12 5 13
REMARK SMILES IDX 7 14 6 15 79 16 77 17 78 18 2 19 1 20 80 21 81 22 82 23
REMARK SMILES IDX 87 24 83 25 86 26 84 27 85 28 17 29 18 30 19 31 20 32 21 33
REMARK SMILES IDX 22 35 23 36 24 37 76 38 25 39 75 40 26 41 27 42 28 43 69 44
REMARK SMILES IDX 29 45 74 46 68 47 70 48 30 49 73 50 67 51 66 52 31 54 57 55
REMARK SMILES IDX 40 56 56 57 41 58 44 59 55 60 71 61 42 62 43 63 54 65 72 66
REMARK SMILES IDX 45 67 32 68 33 69 38 70 34 71 35 72 37 73 39 74 36 75 58 76
REMARK SMILES IDX 59 77 64 78 60 79 61 80 63 81 65 82 62 83 46 84 47 85 52 86
REMARK SMILES IDX 48 87 49 88 51 89 53 90 50 91
REMARK H PARENT 13 7 20 34 70 53 44 64
REMARK Flexibility Score: inf
ROOT
ATOM      1  C   UNL A   1      38.368  24.307  26.797  1.00  0.00     0.002 C 
ENDROOT
BRANCH   1   2
ATOM      2  C   UNL A   1      37.535  23.670  25.679  1.00  0.00     0.021 C 
BRANCH   2   3
ATOM      3  C   UNL A   1      36.111  24.219  25.585  1.00  0.00     0.116 C 
BRANCH   3   4
ATOM      4  N   UNL A   1      35.157  23.165  25.292  1.00  0.00    -0.356 N 
ATOM      5  C   UNL A   1      34.036  23.199  24.512  1.00  0.00     0.224 C 
ATOM      6  O   UNL A   1      33.332  22.187  24.466  1.00  0.00    -0.275 OA
ATOM      7  H   UNL A   1      35.344  22.298  25.720  1.00  0.00     0.163 HD
BRANCH   5   8
ATOM      8  C   UNL A   1      33.722  24.414  23.651  1.00  0.00     0.138 C 
BRANCH   8   9
ATOM      9  C   UNL A   1      32.556  25.218  24.143  1.00  0.00    -0.010 A 
ATOM     10  C   UNL A   1      33.361  27.922  26.710  1.00  0.00     0.119 A 
ATOM     11  C   UNL A   1      32.068  28.425  26.808  1.00  0.00     0.048 A 
ATOM     12  C   UNL A   1      33.642  26.889  25.816  1.00  0.00     0.057 A 
ATOM     13  C   UNL A   1      31.026  27.897  26.030  1.00  0.00     0.031 A 
ATOM     14  C   UNL A   1      32.602  26.306  25.061  1.00  0.00     0.007 A 
ATOM     15  C   UNL A   1      31.308  26.824  25.165  1.00  0.00     0.049 A 
ATOM     16  N   UNL A   1      30.510  26.098  24.286  1.00  0.00    -0.340 N 
ATOM     17  C   UNL A   1      31.218  24.985  23.859  1.00  0.00     0.020 A 
ATOM     18  C   UNL A   1      30.632  23.798  23.173  1.00  0.00     0.065 C 
BRANCH  10  19
ATOM     19  O   UNL A   1      34.435  28.423  27.396  1.00  0.00    -0.497 OA
ATOM     20  C   UNL A   1      34.910  29.673  26.909  1.00  0.00     0.278 C 
ENDBRANCH  10  19
BRANCH  16  21
ATOM     21  C   UNL A   1      29.109  26.399  23.979  1.00  0.00     0.157 C 
BRANCH  21  22
ATOM     22  C   UNL A   1      28.892  27.727  23.271  1.00  0.00    -0.028 A 
ATOM     23  C   UNL A   1      27.666  28.409  23.341  1.00  0.00     0.007 A 
ATOM     24  C   UNL A   1      29.951  28.361  22.599  1.00  0.00     0.007 A 
ATOM     25  C   UNL A   1      27.495  29.673  22.769  1.00  0.00     0.016 A 
ATOM     26  C   UNL A   1      29.792  29.639  22.044  1.00  0.00     0.016 A 
ATOM     27  C   UNL A   1      28.565  30.292  22.139  1.00  0.00     0.017 A 
ATOM     28  Br  UNL A   1      28.360  32.045  21.463  1.00  0.00    -0.051 Br
ENDBRANCH  21  22
ENDBRANCH  16  21
ENDBRANCH   8   9
ENDBRANCH   5   8
ENDBRANCH   3   4
ENDBRANCH   2   3
ENDBRANCH   1   2
BRANCH   1  29
ATOM     29  C   UNL A   1      39.605  23.505  27.217  1.00  0.00     0.002 C 
BRANCH  29  30
ATOM     30  C   UNL A   1      39.733  22.123  26.566  1.00  0.00     0.021 C 
BRANCH  30  31
ATOM     31  C   UNL A   1      41.155  21.559  26.583  1.00  0.00     0.116 C 
BRANCH  31  32
ATOM     32  N   UNL A   1      41.955  21.968  25.448  1.00  0.00    -0.352 N 
ATOM     33  C   UNL A   1      42.730  23.056  25.167  1.00  0.00     0.251 C 
ATOM     34  H   UNL A   1      41.936  21.314  24.712  1.00  0.00     0.163 HD
ATOM     35  O   UNL A   1      43.367  23.017  24.109  1.00  0.00    -0.269 OA
BRANCH  33  36
ATOM     36  C   UNL A   1      42.805  24.291  25.995  1.00  0.00     0.039 A 
ATOM     37  C   UNL A   1      43.503  24.426  27.196  1.00  0.00     0.014 A 
ATOM     38  C   UNL A   1      42.050  25.385  25.532  1.00  0.00     0.014 A 
ATOM     39  C   UNL A   1      43.356  25.567  27.974  1.00  0.00     0.010 A 
ATOM     40  C   UNL A   1      41.922  26.540  26.292  1.00  0.00     0.010 A 
ATOM     41  C   UNL A   1      42.527  26.601  27.542  1.00  0.00    -0.014 A 
BRANCH  41  42
ATOM     42  C   UNL A   1      42.374  27.757  28.419  1.00  0.00     0.031 A 
ATOM     43  C   UNL A   1      43.449  28.786  28.325  1.00  0.00     0.074 A 
ATOM     44  C   UNL A   1      41.277  27.936  29.182  1.00  0.00     0.049 A 
ATOM     45  N   UNL A   1      44.199  29.255  29.270  1.00  0.00    -0.248 NA
ATOM     46  C   UNL A   1      43.792  29.291  26.986  1.00  0.00     0.031 C 
ATOM     47  C   UNL A   1      40.040  27.150  29.181  1.00  0.00     0.029 A 
ATOM     48  N   UNL A   1      40.994  28.946  30.049  1.00  0.00    -0.354 N 
ATOM     49  C   UNL A   1      44.993  30.241  28.680  1.00  0.00     0.074 A 
ATOM     50  C   UNL A   1      44.791  30.131  27.260  1.00  0.00     0.031 C 
ATOM     51  C   UNL A   1      39.071  27.848  29.810  1.00  0.00     0.029 A 
ATOM     52  C   UNL A   1      39.648  29.062  30.360  1.00  0.00     0.049 A 
ATOM     53  H   UNL A   1      41.685  29.539  30.423  1.00  0.00     0.167 HD
ATOM     54  C   UNL A   1      45.601  31.211  29.420  1.00  0.00     0.037 A 
ATOM     55  C   UNL A   1      39.041  30.125  30.945  1.00  0.00     0.037 A 
ATOM     56  C   UNL A   1      45.740  30.817  30.797  1.00  0.00     0.049 A 
ATOM     57  C   UNL A   1      40.089  30.924  31.628  1.00  0.00     0.074 A 
ATOM     58  C   UNL A   1      46.372  29.778  31.454  1.00  0.00     0.029 A 
ATOM     59  N   UNL A   1      44.898  31.376  31.726  1.00  0.00    -0.354 N 
ATOM     60  N   UNL A   1      40.735  30.526  32.689  1.00  0.00    -0.248 NA
ATOM     61  C   UNL A   1      40.736  31.983  30.867  1.00  0.00     0.031 C 
ATOM     62  C   UNL A   1      45.513  29.458  32.546  1.00  0.00     0.029 A 
ATOM     63  C   UNL A   1      44.442  30.349  32.509  1.00  0.00     0.049 A 
ATOM     64  H   UNL A   1      44.667  32.329  31.811  1.00  0.00     0.167 HD
ATOM     65  C   UNL A   1      42.039  30.955  32.491  1.00  0.00     0.074 A 
ATOM     66  C   UNL A   1      41.959  31.927  31.401  1.00  0.00     0.031 C 
ATOM     67  C   UNL A   1      43.097  30.280  33.026  1.00  0.00     0.037 A 
BRANCH  54  68
ATOM     68  C   UNL A   1      45.723  32.655  28.983  1.00  0.00     0.057 A 
ATOM     69  C   UNL A   1      44.625  33.506  28.750  1.00  0.00     0.134 A 
ATOM     70  C   UNL A   1      46.963  33.310  29.123  1.00  0.00     0.134 A 
ATOM     71  F   UNL A   1      43.373  33.051  28.633  1.00  0.00    -0.206 F 
ATOM     72  C   UNL A   1      44.737  34.900  28.724  1.00  0.00     0.040 A 
ATOM     73  C   UNL A   1      47.078  34.705  29.149  1.00  0.00     0.040 A 
ATOM     74  F   UNL A   1      48.090  32.615  29.337  1.00  0.00    -0.206 F 
ATOM     75  C   UNL A   1      45.958  35.506  28.967  1.00  0.00     0.006 A 
ENDBRANCH  54  68
BRANCH  55  76
ATOM     76  C   UNL A   1      37.678  30.646  30.683  1.00  0.00     0.057 A 
ATOM     77  C   UNL A   1      37.332  31.227  29.448  1.00  0.00     0.134 A 
ATOM     78  C   UNL A   1      36.753  30.819  31.720  1.00  0.00     0.134 A 
ATOM     79  F   UNL A   1      38.177  31.208  28.408  1.00  0.00    -0.206 F 
ATOM     80  C   UNL A   1      36.140  31.930  29.254  1.00  0.00     0.040 A 
ATOM     81  C   UNL A   1      35.559  31.534  31.543  1.00  0.00     0.040 A 
ATOM     82  F   UNL A   1      37.010  30.348  32.949  1.00  0.00    -0.206 F 
ATOM     83  C   UNL A   1      35.253  32.098  30.308  1.00  0.00     0.006 A 
ENDBRANCH  55  76
BRANCH  67  84
ATOM     84  C   UNL A   1      42.809  29.196  34.026  1.00  0.00     0.057 A 
ATOM     85  C   UNL A   1      42.967  29.468  35.388  1.00  0.00     0.134 A 
ATOM     86  C   UNL A   1      42.529  27.867  33.673  1.00  0.00     0.134 A 
ATOM     87  F   UNL A   1      43.301  30.702  35.798  1.00  0.00    -0.206 F 
ATOM     88  C   UNL A   1      42.832  28.472  36.359  1.00  0.00     0.040 A 
ATOM     89  C   UNL A   1      42.357  26.869  34.635  1.00  0.00     0.040 A 
ATOM     90  F   UNL A   1      42.475  27.486  32.391  1.00  0.00    -0.206 F 
ATOM     91  C   UNL A   1      42.513  27.169  35.984  1.00  0.00     0.006 A 
ENDBRANCH  67  84
ENDBRANCH  41  42
ENDBRANCH  33  36
ENDBRANCH  31  32
ENDBRANCH  30  31
ENDBRANCH  29  30
ENDBRANCH   1  29
TORSDOF 17
ENDMDL
MODEL 2
REMARK VINA RESULT:     -11.0      2.912      7.982
REMARK SMILES COc1ccc2c(c1)c(CC(=O)NCCCCCCNC(=O)c1ccc(-c3c4nc(c(-c5c(F)cccc5F)c5ccc([nH]5)c(-c5c(F)cccc5F)c5nc(c(-c6c(F)cccc6F)c6ccc3[nH]6)C=C5)C=C4)cc1)c(C)n2Cc1ccc(Br)cc1
REMARK SMILES IDX 16 1 15 2 14 3 13 4 11 5 12 6 10 8 9 9 3 10 4 11 8 12 5 13
REMARK SMILES IDX 7 14 6 15 79 16 77 17 78 18 2 19 1 20 80 21 81 22 82 23
REMARK SMILES IDX 87 24 83 25 86 26 84 27 85 28 17 29 18 30 19 31 20 32 21 33
REMARK SMILES IDX 22 35 23 36 24 37 76 38 25 39 75 40 26 41 27 42 28 43 69 44
REMARK SMILES IDX 29 45 74 46 68 47 70 48 30 49 73 50 67 51 66 52 31 54 57 55
REMARK SMILES IDX 40 56 56 57 41 58 44 59 55 60 71 61 42 62 43 63 54 65 72 66
REMARK SMILES IDX 45 67 32 68 33 69 38 70 34 71 35 72 37 73 39 74 36 75 58 76
REMARK SMILES IDX 59 77 64 78 60 79 61 80 63 81 65 82 62 83 46 84 47 85 52 86
REMARK SMILES IDX 48 87 49 88 51 89 53 90 50 91
REMARK H PARENT 13 7 20 34 70 53 44 64
REMARK Flexibility Score: inf
ROOT
ATOM      1  C   UNL A   1      35.344  31.801  27.532  1.00  0.00     0.002 C 
ENDROOT
BRANCH   1   2
ATOM      2  C   UNL A   1      34.977  30.595  28.405  1.00  0.00     0.021 C 
BRANCH   2   3
ATOM      3  C   UNL A   1      33.970  29.648  27.752  1.00  0.00     0.116 C 
BRANCH   3   4
ATOM      4  N   UNL A   1      34.235  29.493  26.333  1.00  0.00    -0.356 N 
ATOM      5  C   UNL A   1      33.376  29.576  25.274  1.00  0.00     0.224 C 
ATOM      6  O   UNL A   1      33.820  29.337  24.149  1.00  0.00    -0.275 OA
ATOM      7  H   UNL A   1      35.172  29.300  26.099  1.00  0.00     0.163 HD
BRANCH   5   8
ATOM      8  C   UNL A   1      31.941  30.043  25.469  1.00  0.00     0.138 C 
BRANCH   8   9
ATOM      9  C   UNL A   1      30.927  29.193  24.766  1.00  0.00    -0.010 A 
ATOM     10  C   UNL A   1      28.596  31.021  22.363  1.00  0.00     0.119 A 
ATOM     11  C   UNL A   1      27.924  29.888  21.915  1.00  0.00     0.048 A 
ATOM     12  C   UNL A   1      29.645  30.896  23.274  1.00  0.00     0.057 A 
ATOM     13  C   UNL A   1      28.274  28.610  22.377  1.00  0.00     0.031 A 
ATOM     14  C   UNL A   1      29.982  29.628  23.794  1.00  0.00     0.007 A 
ATOM     15  C   UNL A   1      29.303  28.496  23.330  1.00  0.00     0.049 A 
ATOM     16  N   UNL A   1      29.866  27.397  23.971  1.00  0.00    -0.340 N 
ATOM     17  C   UNL A   1      30.674  27.849  25.003  1.00  0.00     0.020 A 
ATOM     18  C   UNL A   1      31.203  27.012  26.117  1.00  0.00     0.065 C 
BRANCH  10  19
ATOM     19  O   UNL A   1      28.346  32.291  21.916  1.00  0.00    -0.497 OA
ATOM     20  C   UNL A   1      27.883  32.358  20.571  1.00  0.00     0.278 C 
ENDBRANCH  10  19
BRANCH  16  21
ATOM     21  C   UNL A   1      29.544  25.998  23.677  1.00  0.00     0.157 C 
BRANCH  21  22
ATOM     22  C   UNL A   1      30.755  25.093  23.520  1.00  0.00    -0.028 A 
ATOM     23  C   UNL A   1      31.807  25.414  22.647  1.00  0.00     0.007 A 
ATOM     24  C   UNL A   1      30.901  23.948  24.321  1.00  0.00     0.007 A 
ATOM     25  C   UNL A   1      32.964  24.632  22.571  1.00  0.00     0.016 A 
ATOM     26  C   UNL A   1      32.069  23.173  24.266  1.00  0.00     0.016 A 
ATOM     27  C   UNL A   1      33.099  23.524  23.396  1.00  0.00     0.017 A 
ATOM     28  Br  UNL A   1      34.707  22.533  23.369  1.00  0.00    -0.051 Br
ENDBRANCH  21  22
ENDBRANCH  16  21
ENDBRANCH   8   9
ENDBRANCH   5   8
ENDBRANCH   3   4
ENDBRANCH   2   3
ENDBRANCH   1   2
BRANCH   1  29
ATOM     29  C   UNL A   1      35.267  33.158  28.241  1.00  0.00     0.002 C 
BRANCH  29  30
ATOM     30  C   UNL A   1      33.847  33.678  28.493  1.00  0.00     0.021 C 
BRANCH  30  31
ATOM     31  C   UNL A   1      33.799  35.012  29.239  1.00  0.00     0.116 C 
BRANCH  31  32
ATOM     32  N   UNL A   1      33.355  34.894  30.612  1.00  0.00    -0.352 N 
ATOM     33  C   UNL A   1      33.921  34.426  31.763  1.00  0.00     0.251 C 
ATOM     34  H   UNL A   1      32.437  35.225  30.747  1.00  0.00     0.163 HD
ATOM     35  O   UNL A   1      33.266  34.581  32.799  1.00  0.00    -0.269 OA
BRANCH  33  36
ATOM     36  C   UNL A   1      35.215  33.693  31.844  1.00  0.00     0.039 A 
ATOM     37  C   UNL A   1      36.484  34.274  31.828  1.00  0.00     0.014 A 
ATOM     38  C   UNL A   1      35.122  32.289  31.882  1.00  0.00     0.014 A 
ATOM     39  C   UNL A   1      37.621  33.485  31.728  1.00  0.00     0.010 A 
ATOM     40  C   UNL A   1      36.257  31.493  31.811  1.00  0.00     0.010 A 
ATOM     41  C   UNL A   1      37.502  32.098  31.671  1.00  0.00    -0.014 A 
BRANCH  41  42
ATOM     42  C   UNL A   1      38.726  31.318  31.521  1.00  0.00     0.031 A 
ATOM     43  C   UNL A   1      39.467  31.031  32.783  1.00  0.00     0.074 A 
ATOM     44  C   UNL A   1      39.102  30.798  30.336  1.00  0.00     0.049 A 
ATOM     45  N   UNL A   1      40.700  31.300  33.071  1.00  0.00    -0.248 NA
ATOM     46  C   UNL A   1      38.708  30.447  33.901  1.00  0.00     0.031 C 
ATOM     47  C   UNL A   1      38.348  30.779  29.079  1.00  0.00     0.029 A 
ATOM     48  N   UNL A   1      40.210  30.066  30.036  1.00  0.00    -0.354 N 
ATOM     49  C   UNL A   1      40.926  30.766  34.342  1.00  0.00     0.074 A 
ATOM     50  C   UNL A   1      39.640  30.370  34.851  1.00  0.00     0.031 C 
ATOM     51  C   UNL A   1      38.900  29.872  28.244  1.00  0.00     0.029 A 
ATOM     52  C   UNL A   1      40.107  29.344  28.856  1.00  0.00     0.049 A 
ATOM     53  H   UNL A   1      41.012  30.051  30.606  1.00  0.00     0.167 HD
ATOM     54  C   UNL A   1      42.182  30.502  34.797  1.00  0.00     0.037 A 
ATOM     55  C   UNL A   1      40.907  28.323  28.460  1.00  0.00     0.037 A 
ATOM     56  C   UNL A   1      43.174  31.261  34.082  1.00  0.00     0.049 A 
ATOM     57  C   UNL A   1      42.171  28.413  29.232  1.00  0.00     0.074 A 
ATOM     58  C   UNL A   1      43.418  32.607  33.888  1.00  0.00     0.029 A 
ATOM     59  N   UNL A   1      43.946  30.613  33.150  1.00  0.00    -0.354 N 
ATOM     60  N   UNL A   1      43.056  29.358  29.073  1.00  0.00    -0.248 NA
ATOM     61  C   UNL A   1      42.245  27.698  30.498  1.00  0.00     0.031 C 
ATOM     62  C   UNL A   1      43.903  32.703  32.550  1.00  0.00     0.029 A 
ATOM     63  C   UNL A   1      43.966  31.409  32.036  1.00  0.00     0.049 A 
ATOM     64  H   UNL A   1      44.398  29.745  33.260  1.00  0.00     0.167 HD
ATOM     65  C   UNL A   1      43.498  29.647  30.356  1.00  0.00     0.074 A 
ATOM     66  C   UNL A   1      43.035  28.531  31.179  1.00  0.00     0.031 C 
ATOM     67  C   UNL A   1      43.945  30.893  30.689  1.00  0.00     0.037 A 
BRANCH  54  68
ATOM     68  C   UNL A   1      42.545  29.285  35.622  1.00  0.00     0.057 A 
ATOM     69  C   UNL A   1      42.297  27.958  35.222  1.00  0.00     0.134 A 
ATOM     70  C   UNL A   1      43.462  29.426  36.682  1.00  0.00     0.134 A 
ATOM     71  F   UNL A   1      41.484  27.650  34.206  1.00  0.00    -0.206 F 
ATOM     72  C   UNL A   1      42.957  26.861  35.785  1.00  0.00     0.040 A 
ATOM     73  C   UNL A   1      44.164  28.340  37.218  1.00  0.00     0.040 A 
ATOM     74  F   UNL A   1      43.777  30.637  37.167  1.00  0.00    -0.206 F 
ATOM     75  C   UNL A   1      43.925  27.052  36.756  1.00  0.00     0.006 A 
ENDBRANCH  54  68
BRANCH  55  76
ATOM     76  C   UNL A   1      40.518  27.113  27.696  1.00  0.00     0.057 A 
ATOM     77  C   UNL A   1      39.746  26.088  28.274  1.00  0.00     0.134 A 
ATOM     78  C   UNL A   1      41.105  26.813  26.460  1.00  0.00     0.134 A 
ATOM     79  F   UNL A   1      39.212  26.222  29.496  1.00  0.00    -0.206 F 
ATOM     80  C   UNL A   1      39.565  24.844  27.662  1.00  0.00     0.040 A 
ATOM     81  C   UNL A   1      40.942  25.566  25.840  1.00  0.00     0.040 A 
ATOM     82  F   UNL A   1      41.900  27.704  25.848  1.00  0.00    -0.206 F 
ATOM     83  C   UNL A   1      40.175  24.574  26.445  1.00  0.00     0.006 A 
ENDBRANCH  55  76
BRANCH  67  84
ATOM     84  C   UNL A   1      44.168  31.881  29.579  1.00  0.00     0.057 A 
ATOM     85  C   UNL A   1      45.447  32.011  29.030  1.00  0.00     0.134 A 
ATOM     86  C   UNL A   1      43.197  32.800  29.151  1.00  0.00     0.134 A 
ATOM     87  F   UNL A   1      46.444  31.212  29.440  1.00  0.00    -0.206 F 
ATOM     88  C   UNL A   1      45.745  32.994  28.082  1.00  0.00     0.040 A 
ATOM     89  C   UNL A   1      43.473  33.765  28.178  1.00  0.00     0.040 A 
ATOM     90  F   UNL A   1      41.978  32.830  29.702  1.00  0.00    -0.206 F 
ATOM     91  C   UNL A   1      44.753  33.867  27.644  1.00  0.00     0.006 A 
ENDBRANCH  67  84
ENDBRANCH  41  42
ENDBRANCH  33  36
ENDBRANCH  31  32
ENDBRANCH  30  31
ENDBRANCH  29  30
ENDBRANCH   1  29
TORSDOF 17
ENDMDL
MODEL 3
REMARK VINA RESULT:     -11.0      2.564      4.125
REMARK SMILES COc1ccc2c(c1)c(CC(=O)NCCCCCCNC(=O)c1ccc(-c3c4nc(c(-c5c(F)cccc5F)c5ccc([nH]5)c(-c5c(F)cccc5F)c5nc(c(-c6c(F)cccc6F)c6ccc3[nH]6)C=C5)C=C4)cc1)c(C)n2Cc1ccc(Br)cc1
REMARK SMILES IDX 16 1 15 2 14 3 13 4 11 5 12 6 10 8 9 9 3 10 4 11 8 12 5 13
REMARK SMILES IDX 7 14 6 15 79 16 77 17 78 18 2 19 1 20 80 21 81 22 82 23
REMARK SMILES IDX 87 24 83 25 86 26 84 27 85 28 17 29 18 30 19 31 20 32 21 33
REMARK SMILES IDX 22 35 23 36 24 37 76 38 25 39 75 40 26 41 27 42 28 43 69 44
REMARK SMILES IDX 29 45 74 46 68 47 70 48 30 49 73 50 67 51 66 52 31 54 57 55
REMARK SMILES IDX 40 56 56 57 41 58 44 59 55 60 71 61 42 62 43 63 54 65 72 66
REMARK SMILES IDX 45 67 32 68 33 69 38 70 34 71 35 72 37 73 39 74 36 75 58 76
REMARK SMILES IDX 59 77 64 78 60 79 61 80 63 81 65 82 62 83 46 84 47 85 52 86
REMARK SMILES IDX 48 87 49 88 51 89 53 90 50 91
REMARK H PARENT 13 7 20 34 70 53 44 64
REMARK Flexibility Score: inf
ROOT
ATOM      1  C   UNL A   1      33.765  22.527  24.247  1.00  0.00     0.002 C 
ENDROOT
BRANCH   1   2
ATOM      2  C   UNL A   1      32.710  22.906  23.200  1.00  0.00     0.021 C 
BRANCH   2   3
ATOM      3  C   UNL A   1      31.377  23.348  23.804  1.00  0.00     0.116 C 
BRANCH   3   4
ATOM      4  N   UNL A   1      31.451  23.421  25.252  1.00  0.00    -0.356 N 
ATOM      5  C   UNL A   1      31.139  24.455  26.088  1.00  0.00     0.224 C 
ATOM      6  O   UNL A   1      31.351  24.308  27.294  1.00  0.00    -0.275 OA
ATOM      7  H   UNL A   1      31.774  22.604  25.697  1.00  0.00     0.163 HD
BRANCH   5   8
ATOM      8  C   UNL A   1      30.461  25.710  25.556  1.00  0.00     0.138 C 
BRANCH   8   9
ATOM      9  C   UNL A   1      31.387  26.879  25.408  1.00  0.00    -0.010 A 
ATOM     10  C   UNL A   1      33.355  27.044  22.144  1.00  0.00     0.119 A 
ATOM     11  C   UNL A   1      33.979  28.259  22.406  1.00  0.00     0.048 A 
ATOM     12  C   UNL A   1      32.436  26.520  23.054  1.00  0.00     0.057 A 
ATOM     13  C   UNL A   1      33.712  28.968  23.588  1.00  0.00     0.031 A 
ATOM     14  C   UNL A   1      32.190  27.188  24.273  1.00  0.00     0.007 A 
ATOM     15  C   UNL A   1      32.819  28.411  24.522  1.00  0.00     0.049 A 
ATOM     16  N   UNL A   1      32.362  28.856  25.758  1.00  0.00    -0.340 N 
ATOM     17  C   UNL A   1      31.689  27.818  26.384  1.00  0.00     0.020 A 
ATOM     18  C   UNL A   1      31.324  27.771  27.829  1.00  0.00     0.065 C 
BRANCH  10  19
ATOM     19  O   UNL A   1      33.524  26.325  20.991  1.00  0.00    -0.497 OA
ATOM     20  C   UNL A   1      32.404  25.523  20.631  1.00  0.00     0.278 C 
ENDBRANCH  10  19
BRANCH  16  21
ATOM     21  C   UNL A   1      32.665  30.165  26.344  1.00  0.00     0.157 C 
BRANCH  21  22
ATOM     22  C   UNL A   1      34.020  30.250  27.026  1.00  0.00    -0.028 A 
ATOM     23  C   UNL A   1      34.846  29.123  27.170  1.00  0.00     0.007 A 
ATOM     24  C   UNL A   1      34.532  31.488  27.450  1.00  0.00     0.007 A 
ATOM     25  C   UNL A   1      36.131  29.217  27.712  1.00  0.00     0.016 A 
ATOM     26  C   UNL A   1      35.829  31.593  27.973  1.00  0.00     0.016 A 
ATOM     27  C   UNL A   1      36.626  30.457  28.093  1.00  0.00     0.017 A 
ATOM     28  Br  UNL A   1      38.401  30.596  28.724  1.00  0.00    -0.051 Br
ENDBRANCH  21  22
ENDBRANCH  16  21
ENDBRANCH   8   9
ENDBRANCH   5   8
ENDBRANCH   3   4
ENDBRANCH   2   3
ENDBRANCH   1   2
BRANCH   1  29
ATOM     29  C   UNL A   1      35.038  23.380  24.218  1.00  0.00     0.002 C 
BRANCH  29  30
ATOM     30  C   UNL A   1      35.882  23.328  25.497  1.00  0.00     0.021 C 
BRANCH  30  31
ATOM     31  C   UNL A   1      37.356  23.674  25.281  1.00  0.00     0.116 C 
BRANCH  31  32
ATOM     32  N   UNL A   1      38.269  22.731  25.891  1.00  0.00    -0.352 N 
ATOM     33  C   UNL A   1      39.277  22.831  26.806  1.00  0.00     0.251 C 
ATOM     34  H   UNL A   1      38.133  21.808  25.574  1.00  0.00     0.163 HD
ATOM     35  O   UNL A   1      39.787  21.769  27.179  1.00  0.00    -0.269 OA
BRANCH  33  36
ATOM     36  C   UNL A   1      39.841  24.109  27.321  1.00  0.00     0.039 A 
ATOM     37  C   UNL A   1      41.167  24.321  27.701  1.00  0.00     0.014 A 
ATOM     38  C   UNL A   1      38.922  25.163  27.482  1.00  0.00     0.014 A 
ATOM     39  C   UNL A   1      41.541  25.498  28.336  1.00  0.00     0.010 A 
ATOM     40  C   UNL A   1      39.295  26.354  28.090  1.00  0.00     0.010 A 
ATOM     41  C   UNL A   1      40.593  26.492  28.572  1.00  0.00    -0.014 A 
BRANCH  41  42
ATOM     42  C   UNL A   1      41.029  27.689  29.281  1.00  0.00     0.031 A 
ATOM     43  C   UNL A   1      42.019  28.542  28.562  1.00  0.00     0.074 A 
ATOM     44  C   UNL A   1      40.489  28.059  30.460  1.00  0.00     0.049 A 
ATOM     45  N   UNL A   1      43.188  28.928  28.961  1.00  0.00    -0.248 NA
ATOM     46  C   UNL A   1      41.699  28.940  27.182  1.00  0.00     0.031 C 
ATOM     47  C   UNL A   1      39.340  27.468  31.151  1.00  0.00     0.029 A 
ATOM     48  N   UNL A   1      40.794  29.132  31.241  1.00  0.00    -0.354 N 
ATOM     49  C   UNL A   1      43.684  29.762  27.957  1.00  0.00     0.074 A 
ATOM     50  C   UNL A   1      42.787  29.631  26.840  1.00  0.00     0.031 C 
ATOM     51  C   UNL A   1      38.901  28.326  32.096  1.00  0.00     0.029 A 
ATOM     52  C   UNL A   1      39.807  29.460  32.159  1.00  0.00     0.049 A 
ATOM     53  H   UNL A   1      41.640  29.628  31.162  1.00  0.00     0.167 HD
ATOM     54  C   UNL A   1      44.684  30.656  28.194  1.00  0.00     0.037 A 
ATOM     55  C   UNL A   1      39.697  30.622  32.848  1.00  0.00     0.037 A 
ATOM     56  C   UNL A   1      45.450  30.297  29.358  1.00  0.00     0.049 A 
ATOM     57  C   UNL A   1      41.028  31.280  32.839  1.00  0.00     0.074 A 
ATOM     58  C   UNL A   1      46.206  29.201  29.727  1.00  0.00     0.029 A 
ATOM     59  N   UNL A   1      45.254  31.010  30.515  1.00  0.00    -0.354 N 
ATOM     60  N   UNL A   1      42.069  30.829  33.482  1.00  0.00    -0.248 NA
ATOM     61  C   UNL A   1      41.320  32.202  31.750  1.00  0.00     0.031 C 
ATOM     62  C   UNL A   1      45.980  29.053  31.127  1.00  0.00     0.029 A 
ATOM     63  C   UNL A   1      45.142  30.093  31.526  1.00  0.00     0.049 A 
ATOM     64  H   UNL A   1      45.205  31.989  30.601  1.00  0.00     0.167 HD
ATOM     65  C   UNL A   1      43.137  31.051  32.625  1.00  0.00     0.074 A 
ATOM     66  C   UNL A   1      42.630  31.982  31.619  1.00  0.00     0.031 C 
ATOM     67  C   UNL A   1      44.239  30.245  32.641  1.00  0.00     0.037 A 
BRANCH  54  68
ATOM     68  C   UNL A   1      44.731  32.049  27.602  1.00  0.00     0.057 A 
ATOM     69  C   UNL A   1      43.971  33.135  28.077  1.00  0.00     0.134 A 
ATOM     70  C   UNL A   1      45.804  32.398  26.758  1.00  0.00     0.134 A 
ATOM     71  F   UNL A   1      42.942  32.982  28.919  1.00  0.00    -0.206 F 
ATOM     72  C   UNL A   1      44.290  34.466  27.792  1.00  0.00     0.040 A 
ATOM     73  C   UNL A   1      46.161  33.728  26.507  1.00  0.00     0.040 A 
ATOM     74  F   UNL A   1      46.600  31.457  26.228  1.00  0.00    -0.206 F 
ATOM     75  C   UNL A   1      45.412  34.769  27.040  1.00  0.00     0.006 A 
ENDBRANCH  54  68
BRANCH  55  76
ATOM     76  C   UNL A   1      38.455  31.332  33.235  1.00  0.00     0.057 A 
ATOM     77  C   UNL A   1      37.654  31.994  32.286  1.00  0.00     0.134 A 
ATOM     78  C   UNL A   1      38.153  31.594  34.578  1.00  0.00     0.134 A 
ATOM     79  F   UNL A   1      37.904  31.896  30.973  1.00  0.00    -0.206 F 
ATOM     80  C   UNL A   1      36.616  32.859  32.646  1.00  0.00     0.040 A 
ATOM     81  C   UNL A   1      37.124  32.469  34.954  1.00  0.00     0.040 A 
ATOM     82  F   UNL A   1      38.888  31.051  35.560  1.00  0.00    -0.206 F 
ATOM     83  C   UNL A   1      36.356  33.110  33.986  1.00  0.00     0.006 A 
ENDBRANCH  55  76
BRANCH  67  84
ATOM     84  C   UNL A   1      44.372  29.255  33.762  1.00  0.00     0.057 A 
ATOM     85  C   UNL A   1      43.765  28.001  33.639  1.00  0.00     0.134 A 
ATOM     86  C   UNL A   1      44.948  29.560  35.005  1.00  0.00     0.134 A 
ATOM     87  F   UNL A   1      43.134  27.663  32.503  1.00  0.00    -0.206 F 
ATOM     88  C   UNL A   1      43.749  27.084  34.693  1.00  0.00     0.040 A 
ATOM     89  C   UNL A   1      44.970  28.639  36.055  1.00  0.00     0.040 A 
ATOM     90  F   UNL A   1      45.450  30.775  35.257  1.00  0.00    -0.206 F 
ATOM     91  C   UNL A   1      44.365  27.396  35.902  1.00  0.00     0.006 A 
ENDBRANCH  67  84
ENDBRANCH  41  42
ENDBRANCH  33  36
ENDBRANCH  31  32
ENDBRANCH  30  31
ENDBRANCH  29  30
ENDBRANCH   1  29
TORSDOF 17
ENDMDL
