MODEL 1
REMARK VINA RESULT:     -11.1      0.000      0.000
REMARK SMILES O=C(NCCCCCCNC(=O)[C@@]1([NH2+]C2CC2)CCC[C@@H]([NH+]2CCS(=O)(=O)CC2)C1)c1ccc(-c2c3nc(c(-c4c(F)cccc4F)c4ccc([nH]4)c(-c4c(F)cccc4F)c4nc(c(-c5c(F)cccc5F)c5ccc2[nH]5)C=C4)C=C3)cc1
REMARK SMILES IDX 6 1 5 2 4 3 3 4 1 5 2 6 31 8 32 9 84 10 33 11 83 12 34 13
REMARK SMILES IDX 35 14 36 15 77 16 37 17 82 18 76 19 78 20 38 21 81 22 75 23
REMARK SMILES IDX 74 24 39 26 65 27 48 28 64 29 49 30 52 31 63 32 79 33 50 34
REMARK SMILES IDX 51 35 62 37 80 38 53 39 40 40 41 41 46 42 42 43 43 44 45 45
REMARK SMILES IDX 47 46 44 47 66 48 67 49 72 50 68 51 69 52 71 53 73 54 70 55
REMARK SMILES IDX 54 56 55 57 60 58 56 59 57 60 59 61 61 62 58 63 7 64 8 65
REMARK SMILES IDX 9 66 10 67 11 68 12 70 13 71 18 72 30 73 19 74 21 75 20 76
REMARK SMILES IDX 14 77 15 80 16 81 17 82 22 83 23 84 29 85 24 87 28 88 25 89
REMARK SMILES IDX 26 90 27 91
REMARK H PARENT 3 7 78 25 52 36 10 69 14 78 14 79 22 86
REMARK Flexibility Score: inf
ROOT
ATOM      1  C   UNL A   1      36.305  19.506  25.026  1.00  0.00     0.002 C 
ENDROOT
BRANCH   1   2
ATOM      2  C   UNL A   1      37.685  19.950  24.540  1.00  0.00     0.021 C 
BRANCH   2   3
ATOM      3  C   UNL A   1      38.664  20.335  25.646  1.00  0.00     0.116 C 
BRANCH   3   4
ATOM      4  N   UNL A   1      39.753  19.383  25.765  1.00  0.00    -0.352 N 
ATOM      5  O   UNL A   1      41.918  18.751  25.898  1.00  0.00    -0.269 OA
ATOM      6  C   UNL A   1      41.068  19.618  26.072  1.00  0.00     0.251 C 
ATOM      7  H   UNL A   1      39.516  18.442  25.604  1.00  0.00     0.163 HD
BRANCH   6   8
ATOM      8  C   UNL A   1      41.454  20.936  26.610  1.00  0.00     0.039 A 
ATOM      9  C   UNL A   1      41.861  21.956  25.745  1.00  0.00     0.014 A 
ATOM     10  C   UNL A   1      41.396  21.152  27.987  1.00  0.00     0.014 A 
ATOM     11  C   UNL A   1      42.322  23.158  26.267  1.00  0.00     0.010 A 
ATOM     12  C   UNL A   1      41.780  22.390  28.503  1.00  0.00     0.010 A 
ATOM     13  C   UNL A   1      42.261  23.395  27.649  1.00  0.00    -0.014 A 
BRANCH  13  14
ATOM     14  C   UNL A   1      42.633  24.725  28.186  1.00  0.00     0.031 A 
ATOM     15  C   UNL A   1      41.596  25.786  28.407  1.00  0.00     0.074 A 
ATOM     16  C   UNL A   1      43.931  24.974  28.448  1.00  0.00     0.049 A 
ATOM     17  N   UNL A   1      41.754  27.026  28.797  1.00  0.00    -0.248 NA
ATOM     18  C   UNL A   1      40.199  25.410  28.148  1.00  0.00     0.031 C 
ATOM     19  C   UNL A   1      45.024  24.016  28.268  1.00  0.00     0.029 A 
ATOM     20  N   UNL A   1      44.551  26.103  28.913  1.00  0.00    -0.354 N 
ATOM     21  C   UNL A   1      40.485  27.585  28.808  1.00  0.00     0.074 A 
ATOM     22  C   UNL A   1      39.568  26.556  28.361  1.00  0.00     0.031 C 
ATOM     23  C   UNL A   1      46.177  24.592  28.637  1.00  0.00     0.029 A 
ATOM     24  C   UNL A   1      45.914  25.975  29.012  1.00  0.00     0.049 A 
ATOM     25  H   UNL A   1      44.066  26.926  29.154  1.00  0.00     0.167 HD
ATOM     26  C   UNL A   1      40.120  28.842  29.163  1.00  0.00     0.037 A 
ATOM     27  C   UNL A   1      46.856  26.881  29.335  1.00  0.00     0.037 A 
ATOM     28  C   UNL A   1      41.045  29.855  29.603  1.00  0.00     0.049 A 
ATOM     29  C   UNL A   1      46.431  28.278  29.676  1.00  0.00     0.074 A 
ATOM     30  C   UNL A   1      40.777  31.149  30.013  1.00  0.00     0.029 A 
ATOM     31  N   UNL A   1      42.422  29.691  29.678  1.00  0.00    -0.354 N 
ATOM     32  N   UNL A   1      45.224  28.788  29.714  1.00  0.00    -0.248 NA
ATOM     33  C   UNL A   1      47.499  29.227  30.018  1.00  0.00     0.031 C 
ATOM     34  C   UNL A   1      41.994  31.785  30.280  1.00  0.00     0.029 A 
ATOM     35  C   UNL A   1      43.018  30.868  30.102  1.00  0.00     0.049 A 
ATOM     36  H   UNL A   1      42.905  28.861  29.461  1.00  0.00     0.167 HD
ATOM     37  C   UNL A   1      45.381  30.108  30.113  1.00  0.00     0.074 A 
ATOM     38  C   UNL A   1      46.802  30.317  30.311  1.00  0.00     0.031 C 
ATOM     39  C   UNL A   1      44.433  31.059  30.301  1.00  0.00     0.037 A 
BRANCH  26  40
ATOM     40  C   UNL A   1      38.663  29.197  29.054  1.00  0.00     0.057 A 
ATOM     41  C   UNL A   1      38.086  29.614  27.847  1.00  0.00     0.134 A 
ATOM     42  C   UNL A   1      37.822  29.099  30.170  1.00  0.00     0.134 A 
ATOM     43  F   UNL A   1      38.835  29.740  26.741  1.00  0.00    -0.206 F 
ATOM     44  C   UNL A   1      36.733  29.955  27.762  1.00  0.00     0.040 A 
ATOM     45  C   UNL A   1      36.462  29.408  30.091  1.00  0.00     0.040 A 
ATOM     46  F   UNL A   1      38.304  28.697  31.355  1.00  0.00    -0.206 F 
ATOM     47  C   UNL A   1      35.916  29.846  28.886  1.00  0.00     0.006 A 
ENDBRANCH  26  40
BRANCH  27  48
ATOM     48  C   UNL A   1      48.284  26.482  29.337  1.00  0.00     0.057 A 
ATOM     49  C   UNL A   1      48.867  25.886  30.460  1.00  0.00     0.134 A 
ATOM     50  C   UNL A   1      49.091  26.654  28.205  1.00  0.00     0.134 A 
ATOM     51  F   UNL A   1      48.147  25.707  31.578  1.00  0.00    -0.206 F 
ATOM     52  C   UNL A   1      50.203  25.486  30.463  1.00  0.00     0.040 A 
ATOM     53  C   UNL A   1      50.421  26.233  28.184  1.00  0.00     0.040 A 
ATOM     54  F   UNL A   1      48.587  27.206  27.092  1.00  0.00    -0.206 F 
ATOM     55  C   UNL A   1      50.983  25.652  29.319  1.00  0.00     0.006 A 
ENDBRANCH  27  48
BRANCH  39  56
ATOM     56  C   UNL A   1      44.896  32.399  30.794  1.00  0.00     0.057 A 
ATOM     57  C   UNL A   1      45.035  32.685  32.158  1.00  0.00     0.134 A 
ATOM     58  C   UNL A   1      45.248  33.404  29.883  1.00  0.00     0.134 A 
ATOM     59  F   UNL A   1      44.699  31.771  33.082  1.00  0.00    -0.206 F 
ATOM     60  C   UNL A   1      45.489  33.928  32.599  1.00  0.00     0.040 A 
ATOM     61  C   UNL A   1      45.730  34.641  30.311  1.00  0.00     0.040 A 
ATOM     62  F   UNL A   1      45.143  33.193  28.562  1.00  0.00    -0.206 F 
ATOM     63  C   UNL A   1      45.847  34.908  31.674  1.00  0.00     0.006 A 
ENDBRANCH  39  56
ENDBRANCH  13  14
ENDBRANCH   6   8
ENDBRANCH   3   4
ENDBRANCH   2   3
ENDBRANCH   1   2
BRANCH   1  64
ATOM     64  C   UNL A   1      35.156  20.445  24.671  1.00  0.00     0.002 C 
BRANCH  64  65
ATOM     65  C   UNL A   1      33.851  20.217  25.431  1.00  0.00     0.021 C 
BRANCH  65  66
ATOM     66  C   UNL A   1      33.758  20.829  26.834  1.00  0.00     0.116 C 
BRANCH  66  67
ATOM     67  N   UNL A   1      32.695  21.809  26.874  1.00  0.00    -0.351 N 
ATOM     68  C   UNL A   1      32.676  23.154  26.672  1.00  0.00     0.281 C 
ATOM     69  H   UNL A   1      31.813  21.429  27.089  1.00  0.00     0.163 HD
ATOM     70  O   UNL A   1      31.794  23.731  27.330  1.00  0.00    -0.268 OA
BRANCH  68  71
ATOM     71  C   UNL A   1      33.565  23.955  25.637  1.00  0.00     0.181 C 
ATOM     72  C   UNL A   1      33.433  23.547  24.160  1.00  0.00     0.079 C 
ATOM     73  C   UNL A   1      32.902  25.385  25.745  1.00  0.00     0.144 C 
ATOM     74  C   UNL A   1      34.000  24.582  23.180  1.00  0.00     0.013 C 
ATOM     75  C   UNL A   1      33.402  26.472  24.781  1.00  0.00     0.190 C 
ATOM     76  C   UNL A   1      33.343  25.954  23.334  1.00  0.00     0.065 C 
BRANCH  71  77
ATOM     77  N   UNL A   1      34.951  24.229  26.104  1.00  0.00    -0.331 N 
ATOM     78  H   UNL A   1      34.862  24.333  27.115  1.00  0.00     0.347 HD
ATOM     79  H   UNL A   1      35.179  24.975  25.446  1.00  0.00     0.347 HD
BRANCH  77  80
ATOM     80  C   UNL A   1      36.151  23.431  25.929  1.00  0.00     0.183 C 
ATOM     81  C   UNL A   1      37.076  23.586  24.782  1.00  0.00     0.071 C 
ATOM     82  C   UNL A   1      37.540  23.913  26.176  1.00  0.00     0.071 C 
ENDBRANCH  77  80
ENDBRANCH  71  77
BRANCH  75  83
ATOM     83  N   UNL A   1      32.800  27.808  24.988  1.00  0.00    -0.331 N 
ATOM     84  C   UNL A   1      31.417  27.833  25.491  1.00  0.00     0.278 C 
ATOM     85  C   UNL A   1      33.077  28.890  24.051  1.00  0.00     0.278 C 
ATOM     86  H   UNL A   1      33.406  28.060  25.768  1.00  0.00     0.348 HD
ATOM     87  C   UNL A   1      30.298  27.770  24.456  1.00  0.00     0.198 C 
ATOM     88  C   UNL A   1      32.264  28.839  22.776  1.00  0.00     0.198 C 
ATOM     89  S   UNL A   1      30.533  28.940  23.148  1.00  0.00     0.161 S 
ATOM     90  O   UNL A   1      29.812  28.453  21.980  1.00  0.00    -0.228 OA
ATOM     91  O   UNL A   1      30.260  30.261  23.671  1.00  0.00    -0.228 OA
ENDBRANCH  75  83
ENDBRANCH  68  71
ENDBRANCH  66  67
ENDBRANCH  65  66
ENDBRANCH  64  65
ENDBRANCH   1  64
TORSDOF 16
ENDMDL
MODEL 2
REMARK VINA RESULT:     -11.1      4.364      9.509
REMARK SMILES O=C(NCCCCCCNC(=O)[C@@]1([NH2+]C2CC2)CCC[C@@H]([NH+]2CCS(=O)(=O)CC2)C1)c1ccc(-c2c3nc(c(-c4c(F)cccc4F)c4ccc([nH]4)c(-c4c(F)cccc4F)c4nc(c(-c5c(F)cccc5F)c5ccc2[nH]5)C=C4)C=C3)cc1
REMARK SMILES IDX 6 1 5 2 4 3 3 4 1 5 2 6 31 8 32 9 84 10 33 11 83 12 34 13
REMARK SMILES IDX 35 14 36 15 77 16 37 17 82 18 76 19 78 20 38 21 81 22 75 23
REMARK SMILES IDX 74 24 39 26 65 27 48 28 64 29 49 30 52 31 63 32 79 33 50 34
REMARK SMILES IDX 51 35 62 37 80 38 53 39 40 40 41 41 46 42 42 43 43 44 45 45
REMARK SMILES IDX 47 46 44 47 66 48 67 49 72 50 68 51 69 52 71 53 73 54 70 55
REMARK SMILES IDX 54 56 55 57 60 58 56 59 57 60 59 61 61 62 58 63 7 64 8 65
REMARK SMILES IDX 9 66 10 67 11 68 12 70 13 71 18 72 30 73 19 74 21 75 20 76
REMARK SMILES IDX 14 77 15 80 16 81 17 82 22 83 23 84 29 85 24 87 28 88 25 89
REMARK SMILES IDX 26 90 27 91
REMARK H PARENT 3 7 78 25 52 36 10 69 14 78 14 79 22 86
REMARK Flexibility Score: inf
ROOT
ATOM      1  C   UNL A   1      31.599  30.756  26.155  1.00  0.00     0.002 C 
ENDROOT
BRANCH   1   2
ATOM      2  C   UNL A   1      31.417  32.150  26.756  1.00  0.00     0.021 C 
BRANCH   2   3
ATOM      3  C   UNL A   1      32.713  32.909  27.027  1.00  0.00     0.116 C 
BRANCH   3   4
ATOM      4  N   UNL A   1      32.469  34.209  27.626  1.00  0.00    -0.352 N 
ATOM      5  O   UNL A   1      32.540  35.752  29.274  1.00  0.00    -0.269 OA
ATOM      6  C   UNL A   1      33.020  34.749  28.759  1.00  0.00     0.251 C 
ATOM      7  H   UNL A   1      31.821  34.779  27.155  1.00  0.00     0.163 HD
BRANCH   6   8
ATOM      8  C   UNL A   1      34.201  34.100  29.360  1.00  0.00     0.039 A 
ATOM      9  C   UNL A   1      35.488  34.493  28.981  1.00  0.00     0.014 A 
ATOM     10  C   UNL A   1      34.015  33.100  30.315  1.00  0.00     0.014 A 
ATOM     11  C   UNL A   1      36.591  33.807  29.473  1.00  0.00     0.010 A 
ATOM     12  C   UNL A   1      35.128  32.469  30.871  1.00  0.00     0.010 A 
ATOM     13  C   UNL A   1      36.422  32.805  30.442  1.00  0.00    -0.014 A 
BRANCH  13  14
ATOM     14  C   UNL A   1      37.609  32.166  31.056  1.00  0.00     0.031 A 
ATOM     15  C   UNL A   1      38.350  31.071  30.347  1.00  0.00     0.074 A 
ATOM     16  C   UNL A   1      37.999  32.571  32.280  1.00  0.00     0.049 A 
ATOM     17  N   UNL A   1      39.359  30.351  30.767  1.00  0.00    -0.248 NA
ATOM     18  C   UNL A   1      37.891  30.732  28.991  1.00  0.00     0.031 C 
ATOM     19  C   UNL A   1      37.351  33.626  33.063  1.00  0.00     0.029 A 
ATOM     20  N   UNL A   1      39.022  32.142  33.083  1.00  0.00    -0.354 N 
ATOM     21  C   UNL A   1      39.642  29.460  29.742  1.00  0.00     0.074 A 
ATOM     22  C   UNL A   1      38.681  29.712  28.687  1.00  0.00     0.031 C 
ATOM     23  C   UNL A   1      38.004  33.776  34.224  1.00  0.00     0.029 A 
ATOM     24  C   UNL A   1      39.069  32.784  34.296  1.00  0.00     0.049 A 
ATOM     25  H   UNL A   1      39.662  31.442  32.816  1.00  0.00     0.167 HD
ATOM     26  C   UNL A   1      40.618  28.520  29.686  1.00  0.00     0.037 A 
ATOM     27  C   UNL A   1      39.860  32.574  35.364  1.00  0.00     0.037 A 
ATOM     28  C   UNL A   1      41.565  28.280  30.746  1.00  0.00     0.049 A 
ATOM     29  C   UNL A   1      40.900  31.496  35.297  1.00  0.00     0.074 A 
ATOM     30  C   UNL A   1      42.610  27.374  30.780  1.00  0.00     0.029 A 
ATOM     31  N   UNL A   1      41.573  28.942  31.966  1.00  0.00    -0.354 N 
ATOM     32  N   UNL A   1      41.180  30.680  34.310  1.00  0.00    -0.248 NA
ATOM     33  C   UNL A   1      41.733  31.309  36.492  1.00  0.00     0.031 C 
ATOM     34  C   UNL A   1      43.213  27.448  32.039  1.00  0.00     0.029 A 
ATOM     35  C   UNL A   1      42.588  28.446  32.769  1.00  0.00     0.049 A 
ATOM     36  H   UNL A   1      40.949  29.659  32.224  1.00  0.00     0.167 HD
ATOM     37  C   UNL A   1      42.241  29.901  34.751  1.00  0.00     0.074 A 
ATOM     38  C   UNL A   1      42.558  30.349  36.093  1.00  0.00     0.031 C 
ATOM     39  C   UNL A   1      42.895  28.908  34.100  1.00  0.00     0.037 A 
BRANCH  26  40
ATOM     40  C   UNL A   1      40.684  27.661  28.455  1.00  0.00     0.057 A 
ATOM     41  C   UNL A   1      39.995  26.446  28.355  1.00  0.00     0.134 A 
ATOM     42  C   UNL A   1      41.432  28.069  27.342  1.00  0.00     0.134 A 
ATOM     43  F   UNL A   1      39.267  25.988  29.386  1.00  0.00    -0.206 F 
ATOM     44  C   UNL A   1      40.076  25.650  27.210  1.00  0.00     0.040 A 
ATOM     45  C   UNL A   1      41.496  27.298  26.181  1.00  0.00     0.040 A 
ATOM     46  F   UNL A   1      42.109  29.227  27.363  1.00  0.00    -0.206 F 
ATOM     47  C   UNL A   1      40.824  26.079  26.115  1.00  0.00     0.006 A 
ENDBRANCH  26  40
BRANCH  27  48
ATOM     48  C   UNL A   1      39.679  33.404  36.580  1.00  0.00     0.057 A 
ATOM     49  C   UNL A   1      40.398  34.590  36.759  1.00  0.00     0.134 A 
ATOM     50  C   UNL A   1      38.760  33.048  37.576  1.00  0.00     0.134 A 
ATOM     51  F   UNL A   1      41.301  34.976  35.846  1.00  0.00    -0.206 F 
ATOM     52  C   UNL A   1      40.217  35.389  37.889  1.00  0.00     0.040 A 
ATOM     53  C   UNL A   1      38.549  33.851  38.697  1.00  0.00     0.040 A 
ATOM     54  F   UNL A   1      38.032  31.929  37.457  1.00  0.00    -0.206 F 
ATOM     55  C   UNL A   1      39.284  35.024  38.859  1.00  0.00     0.006 A 
ENDBRANCH  27  48
BRANCH  39  56
ATOM     56  C   UNL A   1      44.054  28.271  34.810  1.00  0.00     0.057 A 
ATOM     57  C   UNL A   1      45.350  28.796  34.745  1.00  0.00     0.134 A 
ATOM     58  C   UNL A   1      43.856  27.136  35.608  1.00  0.00     0.134 A 
ATOM     59  F   UNL A   1      45.609  29.872  33.985  1.00  0.00    -0.206 F 
ATOM     60  C   UNL A   1      46.412  28.205  35.431  1.00  0.00     0.040 A 
ATOM     61  C   UNL A   1      44.903  26.553  36.322  1.00  0.00     0.040 A 
ATOM     62  F   UNL A   1      42.637  26.585  35.719  1.00  0.00    -0.206 F 
ATOM     63  C   UNL A   1      46.187  27.085  36.230  1.00  0.00     0.006 A 
ENDBRANCH  39  56
ENDBRANCH  13  14
ENDBRANCH   6   8
ENDBRANCH   3   4
ENDBRANCH   2   3
ENDBRANCH   1   2
BRANCH   1  64
ATOM     64  C   UNL A   1      31.926  29.653  27.157  1.00  0.00     0.002 C 
BRANCH  64  65
ATOM     65  C   UNL A   1      33.387  29.206  27.200  1.00  0.00     0.021 C 
BRANCH  65  66
ATOM     66  C   UNL A   1      33.802  28.125  26.194  1.00  0.00     0.116 C 
BRANCH  66  67
ATOM     67  N   UNL A   1      33.981  28.716  24.885  1.00  0.00    -0.351 N 
ATOM     68  C   UNL A   1      33.941  28.196  23.629  1.00  0.00     0.281 C 
ATOM     69  H   UNL A   1      34.169  29.682  24.908  1.00  0.00     0.163 HD
ATOM     70  O   UNL A   1      34.682  28.796  22.832  1.00  0.00    -0.268 OA
BRANCH  68  71
ATOM     71  C   UNL A   1      32.989  27.036  23.129  1.00  0.00     0.181 C 
ATOM     72  C   UNL A   1      32.954  26.783  21.611  1.00  0.00     0.079 C 
ATOM     73  C   UNL A   1      33.720  25.783  23.753  1.00  0.00     0.144 C 
ATOM     74  C   UNL A   1      32.338  25.433  21.225  1.00  0.00     0.013 C 
ATOM     75  C   UNL A   1      33.174  24.393  23.395  1.00  0.00     0.190 C 
ATOM     76  C   UNL A   1      33.066  24.252  21.867  1.00  0.00     0.065 C 
BRANCH  71  77
ATOM     77  N   UNL A   1      31.669  26.989  23.815  1.00  0.00    -0.331 N 
ATOM     78  H   UNL A   1      31.898  26.792  24.789  1.00  0.00     0.347 HD
ATOM     79  H   UNL A   1      31.197  26.351  23.173  1.00  0.00     0.347 HD
BRANCH  77  80
ATOM     80  C   UNL A   1      30.637  28.007  23.887  1.00  0.00     0.183 C 
ATOM     81  C   UNL A   1      30.375  28.983  22.803  1.00  0.00     0.071 C 
ATOM     82  C   UNL A   1      29.336  27.955  23.161  1.00  0.00     0.071 C 
ENDBRANCH  77  80
ENDBRANCH  71  77
BRANCH  75  83
ATOM     83  N   UNL A   1      33.851  23.267  24.076  1.00  0.00    -0.331 N 
ATOM     84  C   UNL A   1      33.061  22.040  24.257  1.00  0.00     0.278 C 
ATOM     85  C   UNL A   1      34.758  23.522  25.189  1.00  0.00     0.278 C 
ATOM     86  H   UNL A   1      34.511  23.088  23.319  1.00  0.00     0.348 HD
ATOM     87  C   UNL A   1      32.199  21.946  25.512  1.00  0.00     0.198 C 
ATOM     88  C   UNL A   1      34.071  23.768  26.514  1.00  0.00     0.198 C 
ATOM     89  S   UNL A   1      33.106  22.355  26.977  1.00  0.00     0.161 S 
ATOM     90  O   UNL A   1      32.151  22.796  27.984  1.00  0.00    -0.228 OA
ATOM     91  O   UNL A   1      34.012  21.264  27.264  1.00  0.00    -0.228 OA
ENDBRANCH  75  83
ENDBRANCH  68  71
ENDBRANCH  66  67
ENDBRANCH  65  66
ENDBRANCH  64  65
ENDBRANCH   1  64
TORSDOF 16
ENDMDL
MODEL 3
REMARK VINA RESULT:     -11.0      4.065      9.283
REMARK SMILES O=C(NCCCCCCNC(=O)[C@@]1([NH2+]C2CC2)CCC[C@@H]([NH+]2CCS(=O)(=O)CC2)C1)c1ccc(-c2c3nc(c(-c4c(F)cccc4F)c4ccc([nH]4)c(-c4c(F)cccc4F)c4nc(c(-c5c(F)cccc5F)c5ccc2[nH]5)C=C4)C=C3)cc1
REMARK SMILES IDX 6 1 5 2 4 3 3 4 1 5 2 6 31 8 32 9 84 10 33 11 83 12 34 13
REMARK SMILES IDX 35 14 36 15 77 16 37 17 82 18 76 19 78 20 38 21 81 22 75 23
REMARK SMILES IDX 74 24 39 26 65 27 48 28 64 29 49 30 52 31 63 32 79 33 50 34
REMARK SMILES IDX 51 35 62 37 80 38 53 39 40 40 41 41 46 42 42 43 43 44 45 45
REMARK SMILES IDX 47 46 44 47 66 48 67 49 72 50 68 51 69 52 71 53 73 54 70 55
REMARK SMILES IDX 54 56 55 57 60 58 56 59 57 60 59 61 61 62 58 63 7 64 8 65
REMARK SMILES IDX 9 66 10 67 11 68 12 70 13 71 18 72 30 73 19 74 21 75 20 76
REMARK SMILES IDX 14 77 15 80 16 81 17 82 22 83 23 84 29 85 24 87 28 88 25 89
REMARK SMILES IDX 26 90 27 91
REMARK H PARENT 3 7 78 25 52 36 10 69 14 78 14 79 22 86
REMARK Flexibility Score: inf
ROOT
ATOM      1  C   UNL A   1      31.329  30.465  25.377  1.00  0.00     0.002 C 
ENDROOT
BRANCH   1   2
ATOM      2  C   UNL A   1      31.093  31.686  26.266  1.00  0.00     0.021 C 
BRANCH   2   3
ATOM      3  C   UNL A   1      32.344  32.246  26.937  1.00  0.00     0.116 C 
BRANCH   3   4
ATOM      4  N   UNL A   1      32.210  33.657  27.251  1.00  0.00    -0.352 N 
ATOM      5  O   UNL A   1      32.514  35.519  28.493  1.00  0.00    -0.269 OA
ATOM      6  C   UNL A   1      32.902  34.402  28.170  1.00  0.00     0.251 C 
ATOM      7  H   UNL A   1      31.529  34.145  26.734  1.00  0.00     0.163 HD
BRANCH   6   8
ATOM      8  C   UNL A   1      34.123  33.838  28.775  1.00  0.00     0.039 A 
ATOM      9  C   UNL A   1      34.027  32.895  29.803  1.00  0.00     0.014 A 
ATOM     10  C   UNL A   1      35.370  34.249  28.301  1.00  0.00     0.014 A 
ATOM     11  C   UNL A   1      35.179  32.448  30.437  1.00  0.00     0.010 A 
ATOM     12  C   UNL A   1      36.528  33.734  28.884  1.00  0.00     0.010 A 
ATOM     13  C   UNL A   1      36.441  32.844  29.967  1.00  0.00    -0.014 A 
BRANCH  13  14
ATOM     14  C   UNL A   1      37.666  32.264  30.565  1.00  0.00     0.031 A 
ATOM     15  C   UNL A   1      38.334  31.069  29.951  1.00  0.00     0.074 A 
ATOM     16  C   UNL A   1      38.158  32.817  31.691  1.00  0.00     0.049 A 
ATOM     17  N   UNL A   1      39.365  30.388  30.383  1.00  0.00    -0.248 NA
ATOM     18  C   UNL A   1      37.763  30.566  28.693  1.00  0.00     0.031 C 
ATOM     19  C   UNL A   1      37.587  33.980  32.375  1.00  0.00     0.029 A 
ATOM     20  N   UNL A   1      39.237  32.474  32.461  1.00  0.00    -0.354 N 
ATOM     21  C   UNL A   1      39.554  29.364  29.466  1.00  0.00     0.074 A 
ATOM     22  C   UNL A   1      38.514  29.497  28.466  1.00  0.00     0.031 C 
ATOM     23  C   UNL A   1      38.334  34.266  33.451  1.00  0.00     0.029 A 
ATOM     24  C   UNL A   1      39.389  33.268  33.570  1.00  0.00     0.049 A 
ATOM     25  H   UNL A   1      39.845  31.732  32.239  1.00  0.00     0.167 HD
ATOM     26  C   UNL A   1      40.511  28.403  29.459  1.00  0.00     0.037 A 
ATOM     27  C   UNL A   1      40.261  33.183  34.592  1.00  0.00     0.037 A 
ATOM     28  C   UNL A   1      41.537  28.283  30.464  1.00  0.00     0.049 A 
ATOM     29  C   UNL A   1      41.280  32.082  34.587  1.00  0.00     0.074 A 
ATOM     30  C   UNL A   1      42.571  27.366  30.535  1.00  0.00     0.029 A 
ATOM     31  N   UNL A   1      41.652  29.100  31.581  1.00  0.00    -0.354 N 
ATOM     32  N   UNL A   1      41.470  31.138  33.698  1.00  0.00    -0.248 NA
ATOM     33  C   UNL A   1      42.204  32.034  35.727  1.00  0.00     0.031 C 
ATOM     34  C   UNL A   1      43.275  27.591  31.723  1.00  0.00     0.029 A 
ATOM     35  C   UNL A   1      42.722  28.690  32.360  1.00  0.00     0.049 A 
ATOM     36  H   UNL A   1      41.059  29.858  31.790  1.00  0.00     0.167 HD
ATOM     37  C   UNL A   1      42.553  30.400  34.153  1.00  0.00     0.074 A 
ATOM     38  C   UNL A   1      42.983  31.013  35.395  1.00  0.00     0.031 C 
ATOM     39  C   UNL A   1      43.141  29.315  33.591  1.00  0.00     0.037 A 
BRANCH  26  40
ATOM     40  C   UNL A   1      40.467  27.390  28.351  1.00  0.00     0.057 A 
ATOM     41  C   UNL A   1      39.684  26.231  28.431  1.00  0.00     0.134 A 
ATOM     42  C   UNL A   1      41.205  27.588  27.176  1.00  0.00     0.134 A 
ATOM     43  F   UNL A   1      38.961  25.971  29.531  1.00  0.00    -0.206 F 
ATOM     44  C   UNL A   1      39.663  25.289  27.399  1.00  0.00     0.040 A 
ATOM     45  C   UNL A   1      41.169  26.669  26.125  1.00  0.00     0.040 A 
ATOM     46  F   UNL A   1      41.969  28.680  27.026  1.00  0.00    -0.206 F 
ATOM     47  C   UNL A   1      40.403  25.510  26.239  1.00  0.00     0.006 A 
ENDBRANCH  26  40
BRANCH  27  48
ATOM     48  C   UNL A   1      40.189  34.168  35.698  1.00  0.00     0.057 A 
ATOM     49  C   UNL A   1      39.464  33.897  36.863  1.00  0.00     0.134 A 
ATOM     50  C   UNL A   1      40.871  35.390  35.631  1.00  0.00     0.134 A 
ATOM     51  F   UNL A   1      38.780  32.748  36.979  1.00  0.00    -0.206 F 
ATOM     52  C   UNL A   1      39.410  34.808  37.917  1.00  0.00     0.040 A 
ATOM     53  C   UNL A   1      40.849  36.299  36.690  1.00  0.00     0.040 A 
ATOM     54  F   UNL A   1      41.594  35.704  34.547  1.00  0.00    -0.206 F 
ATOM     55  C   UNL A   1      40.111  36.011  37.836  1.00  0.00     0.006 A 
ENDBRANCH  27  48
BRANCH  39  56
ATOM     56  C   UNL A   1      44.346  28.751  34.286  1.00  0.00     0.057 A 
ATOM     57  C   UNL A   1      44.251  27.707  35.214  1.00  0.00     0.134 A 
ATOM     58  C   UNL A   1      45.626  29.237  33.987  1.00  0.00     0.134 A 
ATOM     59  F   UNL A   1      43.052  27.208  35.556  1.00  0.00    -0.206 F 
ATOM     60  C   UNL A   1      45.383  27.177  35.833  1.00  0.00     0.040 A 
ATOM     61  C   UNL A   1      46.768  28.696  34.579  1.00  0.00     0.040 A 
ATOM     62  F   UNL A   1      45.788  30.233  33.103  1.00  0.00    -0.206 F 
ATOM     63  C   UNL A   1      46.648  27.667  35.509  1.00  0.00     0.006 A 
ENDBRANCH  39  56
ENDBRANCH  13  14
ENDBRANCH   6   8
ENDBRANCH   3   4
ENDBRANCH   2   3
ENDBRANCH   1   2
BRANCH   1  64
ATOM     64  C   UNL A   1      30.285  30.241  24.287  1.00  0.00     0.002 C 
BRANCH  64  65
ATOM     65  C   UNL A   1      30.645  29.204  23.225  1.00  0.00     0.021 C 
BRANCH  65  66
ATOM     66  C   UNL A   1      32.101  29.192  22.743  1.00  0.00     0.116 C 
BRANCH  66  67
ATOM     67  N   UNL A   1      32.447  27.875  22.255  1.00  0.00    -0.351 N 
ATOM     68  C   UNL A   1      33.149  26.846  22.802  1.00  0.00     0.281 C 
ATOM     69  H   UNL A   1      32.109  27.687  21.350  1.00  0.00     0.163 HD
ATOM     70  O   UNL A   1      33.735  26.154  21.953  1.00  0.00    -0.268 OA
BRANCH  68  71
ATOM     71  C   UNL A   1      33.165  26.436  24.330  1.00  0.00     0.181 C 
ATOM     72  C   UNL A   1      31.802  26.125  24.971  1.00  0.00     0.079 C 
ATOM     73  C   UNL A   1      33.920  25.052  24.241  1.00  0.00     0.144 C 
ATOM     74  C   UNL A   1      31.904  25.374  26.305  1.00  0.00     0.013 C 
ATOM     75  C   UNL A   1      34.044  24.228  25.532  1.00  0.00     0.190 C 
ATOM     76  C   UNL A   1      32.658  24.051  26.174  1.00  0.00     0.065 C 
BRANCH  71  77
ATOM     77  N   UNL A   1      34.099  27.235  25.168  1.00  0.00    -0.331 N 
ATOM     78  H   UNL A   1      34.884  27.438  24.549  1.00  0.00     0.347 HD
ATOM     79  H   UNL A   1      34.125  26.619  25.981  1.00  0.00     0.347 HD
BRANCH  77  80
ATOM     80  C   UNL A   1      33.861  28.485  25.868  1.00  0.00     0.183 C 
ATOM     81  C   UNL A   1      33.434  28.560  27.285  1.00  0.00     0.071 C 
ATOM     82  C   UNL A   1      34.782  29.090  26.871  1.00  0.00     0.071 C 
ENDBRANCH  77  80
ENDBRANCH  71  77
BRANCH  75  83
ATOM     83  N   UNL A   1      34.831  22.982  25.399  1.00  0.00    -0.331 N 
ATOM     84  C   UNL A   1      34.831  22.345  24.073  1.00  0.00     0.278 C 
ATOM     85  C   UNL A   1      34.860  22.013  26.489  1.00  0.00     0.278 C 
ATOM     86  H   UNL A   1      35.737  23.436  25.513  1.00  0.00     0.348 HD
ATOM     87  C   UNL A   1      33.704  21.364  23.772  1.00  0.00     0.198 C 
ATOM     88  C   UNL A   1      33.647  21.112  26.559  1.00  0.00     0.198 C 
ATOM     89  S   UNL A   1      33.495  20.170  25.064  1.00  0.00     0.161 S 
ATOM     90  O   UNL A   1      32.126  19.679  25.001  1.00  0.00    -0.228 OA
ATOM     91  O   UNL A   1      34.604  19.241  25.002  1.00  0.00    -0.228 OA
ENDBRANCH  75  83
ENDBRANCH  68  71
ENDBRANCH  66  67
ENDBRANCH  65  66
ENDBRANCH  64  65
ENDBRANCH   1  64
TORSDOF 16
ENDMDL
