MODEL 1
REMARK VINA RESULT:     -12.1      0.000      0.000
REMARK SMILES Cn1c(=O)c(=O)n(C)c2cc(S(=O)(=O)N3CCC[C@H]3C(=O)NCCCCCCNC(=O)c3ccc(-c4c5nc(c(-c6c(F)cccc6F)c6ccc([nH]6)c(-c6c(F)cccc6F)c6nc(c(-c7c(F)cccc7F)c7ccc4[nH]7)C=C6)C=C5)cc3)ccc21
REMARK SMILES IDX 25 1 24 2 23 3 22 4 20 5 21 6 19 8 15 9 16 10 17 11 18 12
REMARK SMILES IDX 12 13 13 14 14 15 11 16 1 17 2 18 3 19 88 20 4 21 5 22 9 23
REMARK SMILES IDX 87 24 6 25 7 26 10 27 86 28 8 29 26 30 27 31 28 32 29 33
REMARK SMILES IDX 30 34 31 36 32 37 33 38 85 39 34 40 84 41 35 42 36 43 37 44
REMARK SMILES IDX 78 45 38 46 83 47 77 48 79 49 39 50 82 51 76 52 75 53 40 55
REMARK SMILES IDX 66 56 49 57 65 58 50 59 53 60 64 61 80 62 51 63 52 64 63 66
REMARK SMILES IDX 81 67 54 68 41 69 42 70 47 71 43 72 44 73 46 74 48 75 45 76
REMARK SMILES IDX 67 77 68 78 73 79 69 80 70 81 72 82 74 83 71 84 55 85 56 86
REMARK SMILES IDX 61 87 57 88 58 89 60 90 62 91 59 92
REMARK H PARENT 22 7 29 35 79 54 53 65
REMARK Flexibility Score: inf
ROOT
ATOM      1  C   UNL A   1      34.404  31.952  28.915  1.00  0.00     0.002 C 
ENDROOT
BRANCH   1   2
ATOM      2  C   UNL A   1      35.316  31.122  28.011  1.00  0.00     0.021 C 
BRANCH   2   3
ATOM      3  C   UNL A   1      34.657  29.993  27.229  1.00  0.00     0.116 C 
BRANCH   3   4
ATOM      4  N   UNL A   1      33.476  30.389  26.499  1.00  0.00    -0.355 N 
ATOM      5  C   UNL A   1      32.693  29.619  25.685  1.00  0.00     0.238 C 
ATOM      6  O   UNL A   1      31.584  30.064  25.379  1.00  0.00    -0.273 OA
ATOM      7  H   UNL A   1      33.199  31.329  26.600  1.00  0.00     0.163 HD
BRANCH   5   8
ATOM      8  C   UNL A   1      33.210  28.269  25.155  1.00  0.00     0.162 C 
ATOM      9  N   UNL A   1      32.111  27.387  24.713  1.00  0.00    -0.185 NA
ATOM     10  C   UNL A   1      31.826  27.631  23.295  1.00  0.00     0.103 C 
ATOM     11  C   UNL A   1      33.156  28.043  22.696  1.00  0.00     0.019 C 
ATOM     12  C   UNL A   1      34.024  28.505  23.862  1.00  0.00     0.032 C 
BRANCH   9  13
ATOM     13  S   UNL A   1      31.673  25.956  25.458  1.00  0.00     0.243 S 
ATOM     14  O   UNL A   1      30.597  25.351  24.711  1.00  0.00    -0.207 OA
ATOM     15  O   UNL A   1      31.528  26.228  26.875  1.00  0.00    -0.207 OA
BRANCH  13  16
ATOM     16  C   UNL A   1      33.055  24.834  25.338  1.00  0.00     0.084 A 
ATOM     17  C   UNL A   1      37.590  22.392  25.485  1.00  0.00     0.154 C 
ATOM     18  N   UNL A   1      36.206  21.996  25.278  1.00  0.00    -0.305 N 
ATOM     19  C   UNL A   1      35.978  20.641  25.043  1.00  0.00     0.316 A 
ATOM     20  C   UNL A   1      35.148  22.945  25.267  1.00  0.00     0.068 A 
ATOM     21  O   UNL A   1      36.879  19.807  24.984  1.00  0.00    -0.263 OA
ATOM     22  C   UNL A   1      34.533  20.179  24.842  1.00  0.00     0.316 A 
ATOM     23  C   UNL A   1      33.813  22.514  25.137  1.00  0.00     0.069 A 
ATOM     24  C   UNL A   1      35.406  24.323  25.375  1.00  0.00     0.030 A 
ATOM     25  O   UNL A   1      34.325  18.987  24.626  1.00  0.00    -0.263 OA
ATOM     26  N   UNL A   1      33.525  21.137  24.923  1.00  0.00    -0.305 N 
ATOM     27  C   UNL A   1      32.778  23.466  25.207  1.00  0.00     0.050 A 
ATOM     28  C   UNL A   1      34.369  25.263  25.390  1.00  0.00     0.024 A 
ATOM     29  C   UNL A   1      32.153  20.692  24.723  1.00  0.00     0.154 C 
ENDBRANCH  13  16
ENDBRANCH   9  13
ENDBRANCH   5   8
ENDBRANCH   3   4
ENDBRANCH   2   3
ENDBRANCH   1   2
BRANCH   1  30
ATOM     30  C   UNL A   1      34.690  33.454  28.991  1.00  0.00     0.002 C 
BRANCH  30  31
ATOM     31  C   UNL A   1      33.495  34.387  28.801  1.00  0.00     0.021 C 
BRANCH  31  32
ATOM     32  C   UNL A   1      33.588  35.748  29.482  1.00  0.00     0.116 C 
BRANCH  32  33
ATOM     33  N   UNL A   1      32.529  35.995  30.447  1.00  0.00    -0.352 N 
ATOM     34  C   UNL A   1      32.491  35.697  31.790  1.00  0.00     0.251 C 
ATOM     35  H   UNL A   1      31.727  36.438  30.089  1.00  0.00     0.163 HD
ATOM     36  O   UNL A   1      31.476  35.909  32.446  1.00  0.00    -0.269 OA
BRANCH  34  37
ATOM     37  C   UNL A   1      33.667  35.066  32.433  1.00  0.00     0.039 A 
ATOM     38  C   UNL A   1      34.878  35.754  32.549  1.00  0.00     0.014 A 
ATOM     39  C   UNL A   1      33.563  33.746  32.875  1.00  0.00     0.014 A 
ATOM     40  C   UNL A   1      36.024  35.066  32.940  1.00  0.00     0.010 A 
ATOM     41  C   UNL A   1      34.702  33.078  33.336  1.00  0.00     0.010 A 
ATOM     42  C   UNL A   1      35.953  33.715  33.313  1.00  0.00    -0.014 A 
BRANCH  42  43
ATOM     43  C   UNL A   1      37.198  32.962  33.620  1.00  0.00     0.031 A 
ATOM     44  C   UNL A   1      37.932  33.207  34.915  1.00  0.00     0.074 A 
ATOM     45  C   UNL A   1      37.653  32.033  32.758  1.00  0.00     0.049 A 
ATOM     46  N   UNL A   1      39.056  32.685  35.341  1.00  0.00    -0.248 NA
ATOM     47  C   UNL A   1      37.327  34.166  35.853  1.00  0.00     0.031 C 
ATOM     48  C   UNL A   1      37.026  31.683  31.483  1.00  0.00     0.029 A 
ATOM     49  N   UNL A   1      38.746  31.207  32.829  1.00  0.00    -0.354 N 
ATOM     50  C   UNL A   1      39.306  33.273  36.575  1.00  0.00     0.074 A 
ATOM     51  C   UNL A   1      38.227  34.204  36.826  1.00  0.00     0.031 C 
ATOM     52  C   UNL A   1      37.729  30.697  30.903  1.00  0.00     0.029 A 
ATOM     53  C   UNL A   1      38.886  30.385  31.737  1.00  0.00     0.049 A 
ATOM     54  H   UNL A   1      39.371  31.203  33.590  1.00  0.00     0.167 HD
ATOM     55  C   UNL A   1      40.336  33.052  37.426  1.00  0.00     0.037 A 
ATOM     56  C   UNL A   1      39.851  29.500  31.429  1.00  0.00     0.037 A 
ATOM     57  C   UNL A   1      41.388  32.097  37.201  1.00  0.00     0.049 A 
ATOM     58  C   UNL A   1      41.003  29.306  32.375  1.00  0.00     0.074 A 
ATOM     59  C   UNL A   1      42.451  31.772  38.027  1.00  0.00     0.029 A 
ATOM     60  N   UNL A   1      41.508  31.308  36.067  1.00  0.00    -0.354 N 
ATOM     61  N   UNL A   1      41.215  29.858  33.545  1.00  0.00    -0.248 NA
ATOM     62  C   UNL A   1      42.057  28.372  31.951  1.00  0.00     0.031 C 
ATOM     63  C   UNL A   1      43.234  30.812  37.377  1.00  0.00     0.029 A 
ATOM     64  C   UNL A   1      42.638  30.513  36.164  1.00  0.00     0.049 A 
ATOM     65  H   UNL A   1      40.882  31.312  35.307  1.00  0.00     0.167 HD
ATOM     66  C   UNL A   1      42.410  29.320  34.005  1.00  0.00     0.074 A 
ATOM     67  C   UNL A   1      42.869  28.388  32.997  1.00  0.00     0.031 C 
ATOM     68  C   UNL A   1      43.071  29.579  35.159  1.00  0.00     0.037 A 
BRANCH  55  69
ATOM     69  C   UNL A   1      40.391  33.866  38.685  1.00  0.00     0.057 A 
ATOM     70  C   UNL A   1      41.136  35.052  38.733  1.00  0.00     0.134 A 
ATOM     71  C   UNL A   1      39.765  33.448  39.865  1.00  0.00     0.134 A 
ATOM     72  F   UNL A   1      41.766  35.504  37.637  1.00  0.00    -0.206 F 
ATOM     73  C   UNL A   1      41.264  35.787  39.911  1.00  0.00     0.040 A 
ATOM     74  C   UNL A   1      39.868  34.186  41.046  1.00  0.00     0.040 A 
ATOM     75  F   UNL A   1      39.028  32.327  39.883  1.00  0.00    -0.206 F 
ATOM     76  C   UNL A   1      40.628  35.355  41.073  1.00  0.00     0.006 A 
ENDBRANCH  55  69
BRANCH  56  77
ATOM     77  C   UNL A   1      39.796  28.743  30.153  1.00  0.00     0.057 A 
ATOM     78  C   UNL A   1      39.116  27.522  30.060  1.00  0.00     0.134 A 
ATOM     79  C   UNL A   1      40.382  29.247  28.987  1.00  0.00     0.134 A 
ATOM     80  F   UNL A   1      38.535  26.987  31.144  1.00  0.00    -0.206 F 
ATOM     81  C   UNL A   1      39.022  26.830  28.854  1.00  0.00     0.040 A 
ATOM     82  C   UNL A   1      40.273  28.577  27.767  1.00  0.00     0.040 A 
ATOM     83  F   UNL A   1      41.026  30.423  29.009  1.00  0.00    -0.206 F 
ATOM     84  C   UNL A   1      39.593  27.363  27.700  1.00  0.00     0.006 A 
ENDBRANCH  56  77
BRANCH  68  85
ATOM     85  C   UNL A   1      44.335  28.814  35.408  1.00  0.00     0.057 A 
ATOM     86  C   UNL A   1      44.305  27.584  36.077  1.00  0.00     0.134 A 
ATOM     87  C   UNL A   1      45.585  29.306  35.008  1.00  0.00     0.134 A 
ATOM     88  F   UNL A   1      43.140  27.064  36.491  1.00  0.00    -0.206 F 
ATOM     89  C   UNL A   1      45.473  26.870  36.343  1.00  0.00     0.040 A 
ATOM     90  C   UNL A   1      46.758  28.589  35.248  1.00  0.00     0.040 A 
ATOM     91  F   UNL A   1      45.678  30.470  34.349  1.00  0.00    -0.206 F 
ATOM     92  C   UNL A   1      46.704  27.371  35.922  1.00  0.00     0.006 A 
ENDBRANCH  68  85
ENDBRANCH  42  43
ENDBRANCH  34  37
ENDBRANCH  32  33
ENDBRANCH  31  32
ENDBRANCH  30  31
ENDBRANCH   1  30
TORSDOF 15
ENDMDL
MODEL 2
REMARK VINA RESULT:     -12.0      7.462     12.721
REMARK SMILES Cn1c(=O)c(=O)n(C)c2cc(S(=O)(=O)N3CCC[C@H]3C(=O)NCCCCCCNC(=O)c3ccc(-c4c5nc(c(-c6c(F)cccc6F)c6ccc([nH]6)c(-c6c(F)cccc6F)c6nc(c(-c7c(F)cccc7F)c7ccc4[nH]7)C=C6)C=C5)cc3)ccc21
REMARK SMILES IDX 25 1 24 2 23 3 22 4 20 5 21 6 19 8 15 9 16 10 17 11 18 12
REMARK SMILES IDX 12 13 13 14 14 15 11 16 1 17 2 18 3 19 88 20 4 21 5 22 9 23
REMARK SMILES IDX 87 24 6 25 7 26 10 27 86 28 8 29 26 30 27 31 28 32 29 33
REMARK SMILES IDX 30 34 31 36 32 37 33 38 85 39 34 40 84 41 35 42 36 43 37 44
REMARK SMILES IDX 78 45 38 46 83 47 77 48 79 49 39 50 82 51 76 52 75 53 40 55
REMARK SMILES IDX 66 56 49 57 65 58 50 59 53 60 64 61 80 62 51 63 52 64 63 66
REMARK SMILES IDX 81 67 54 68 41 69 42 70 47 71 43 72 44 73 46 74 48 75 45 76
REMARK SMILES IDX 67 77 68 78 73 79 69 80 70 81 72 82 74 83 71 84 55 85 56 86
REMARK SMILES IDX 61 87 57 88 58 89 60 90 62 91 59 92
REMARK H PARENT 22 7 29 35 79 54 53 65
REMARK Flexibility Score: inf
ROOT
ATOM      1  C   UNL A   1      40.463  27.122  27.675  1.00  0.00     0.002 C 
ENDROOT
BRANCH   1   2
ATOM      2  C   UNL A   1      40.011  28.543  27.332  1.00  0.00     0.021 C 
BRANCH   2   3
ATOM      3  C   UNL A   1      39.469  29.382  28.481  1.00  0.00     0.116 C 
BRANCH   3   4
ATOM      4  N   UNL A   1      40.274  29.336  29.680  1.00  0.00    -0.355 N 
ATOM      5  C   UNL A   1      40.081  30.020  30.847  1.00  0.00     0.238 C 
ATOM      6  O   UNL A   1      40.710  29.639  31.837  1.00  0.00    -0.273 OA
ATOM      7  H   UNL A   1      41.056  28.739  29.653  1.00  0.00     0.163 HD
BRANCH   5   8
ATOM      8  C   UNL A   1      39.140  31.238  30.893  1.00  0.00     0.162 C 
ATOM      9  N   UNL A   1      38.641  31.504  32.257  1.00  0.00    -0.185 NA
ATOM     10  C   UNL A   1      39.561  32.416  32.947  1.00  0.00     0.103 C 
ATOM     11  C   UNL A   1      40.148  33.281  31.848  1.00  0.00     0.019 C 
ATOM     12  C   UNL A   1      39.938  32.515  30.545  1.00  0.00     0.032 C 
BRANCH   9  13
ATOM     13  S   UNL A   1      37.052  31.333  32.746  1.00  0.00     0.243 S 
ATOM     14  O   UNL A   1      36.890  31.955  34.037  1.00  0.00    -0.207 OA
ATOM     15  O   UNL A   1      36.678  29.947  32.540  1.00  0.00    -0.207 OA
BRANCH  13  16
ATOM     16  C   UNL A   1      36.030  32.263  31.616  1.00  0.00     0.084 A 
ATOM     17  C   UNL A   1      32.973  33.993  27.846  1.00  0.00     0.154 C 
ATOM     18  N   UNL A   1      33.385  34.481  29.152  1.00  0.00    -0.305 N 
ATOM     19  C   UNL A   1      32.876  35.721  29.540  1.00  0.00     0.316 A 
ATOM     20  C   UNL A   1      34.294  33.758  29.971  1.00  0.00     0.068 A 
ATOM     21  O   UNL A   1      32.139  36.397  28.827  1.00  0.00    -0.263 OA
ATOM     22  C   UNL A   1      33.268  36.260  30.917  1.00  0.00     0.316 A 
ATOM     23  C   UNL A   1      34.611  34.226  31.261  1.00  0.00     0.069 A 
ATOM     24  C   UNL A   1      34.900  32.574  29.515  1.00  0.00     0.030 A 
ATOM     25  O   UNL A   1      32.830  37.355  31.262  1.00  0.00    -0.263 OA
ATOM     26  N   UNL A   1      34.096  35.473  31.714  1.00  0.00    -0.305 N 
ATOM     27  C   UNL A   1      35.454  33.453  32.082  1.00  0.00     0.050 A 
ATOM     28  C   UNL A   1      35.777  31.842  30.322  1.00  0.00     0.024 A 
ATOM     29  C   UNL A   1      34.470  35.996  33.021  1.00  0.00     0.154 C 
ENDBRANCH  13  16
ENDBRANCH   9  13
ENDBRANCH   5   8
ENDBRANCH   3   4
ENDBRANCH   2   3
ENDBRANCH   1   2
BRANCH   1  30
ATOM     30  C   UNL A   1      39.478  26.257  28.465  1.00  0.00     0.002 C 
BRANCH  30  31
ATOM     31  C   UNL A   1      39.258  24.833  27.955  1.00  0.00     0.021 C 
BRANCH  31  32
ATOM     32  C   UNL A   1      39.671  24.565  26.512  1.00  0.00     0.116 C 
BRANCH  32  33
ATOM     33  N   UNL A   1      40.541  23.411  26.356  1.00  0.00    -0.352 N 
ATOM     34  C   UNL A   1      41.914  23.366  26.260  1.00  0.00     0.251 C 
ATOM     35  H   UNL A   1      40.085  22.540  26.314  1.00  0.00     0.163 HD
ATOM     36  O   UNL A   1      42.487  22.302  26.052  1.00  0.00    -0.269 OA
BRANCH  34  37
ATOM     37  C   UNL A   1      42.695  24.620  26.354  1.00  0.00     0.039 A 
ATOM     38  C   UNL A   1      42.890  25.431  25.233  1.00  0.00     0.014 A 
ATOM     39  C   UNL A   1      43.284  24.955  27.575  1.00  0.00     0.014 A 
ATOM     40  C   UNL A   1      43.814  26.472  25.289  1.00  0.00     0.010 A 
ATOM     41  C   UNL A   1      44.157  26.045  27.646  1.00  0.00     0.010 A 
ATOM     42  C   UNL A   1      44.475  26.774  26.489  1.00  0.00    -0.014 A 
BRANCH  42  43
ATOM     43  C   UNL A   1      45.540  27.812  26.510  1.00  0.00     0.031 A 
ATOM     44  C   UNL A   1      45.178  29.265  26.690  1.00  0.00     0.074 A 
ATOM     45  C   UNL A   1      46.833  27.452  26.406  1.00  0.00     0.049 A 
ATOM     46  N   UNL A   1      45.957  30.319  26.688  1.00  0.00    -0.248 NA
ATOM     47  C   UNL A   1      43.754  29.577  26.894  1.00  0.00     0.031 C 
ATOM     48  C   UNL A   1      47.320  26.081  26.251  1.00  0.00     0.029 A 
ATOM     49  N   UNL A   1      47.977  28.211  26.422  1.00  0.00    -0.354 N 
ATOM     50  C   UNL A   1      45.118  31.413  26.858  1.00  0.00     0.074 A 
ATOM     51  C   UNL A   1      43.768  30.902  26.945  1.00  0.00     0.031 C 
ATOM     52  C   UNL A   1      48.662  26.093  26.212  1.00  0.00     0.029 A 
ATOM     53  C   UNL A   1      49.127  27.474  26.282  1.00  0.00     0.049 A 
ATOM     54  H   UNL A   1      47.973  29.190  26.524  1.00  0.00     0.167 HD
ATOM     55  C   UNL A   1      45.444  32.725  26.944  1.00  0.00     0.037 A 
ATOM     56  C   UNL A   1      50.411  27.869  26.193  1.00  0.00     0.037 A 
ATOM     57  C   UNL A   1      46.789  33.235  26.901  1.00  0.00     0.049 A 
ATOM     58  C   UNL A   1      50.737  29.336  26.251  1.00  0.00     0.074 A 
ATOM     59  C   UNL A   1      47.219  34.546  27.024  1.00  0.00     0.029 A 
ATOM     60  N   UNL A   1      47.922  32.457  26.727  1.00  0.00    -0.354 N 
ATOM     61  N   UNL A   1      49.934  30.355  26.429  1.00  0.00    -0.248 NA
ATOM     62  C   UNL A   1      52.150  29.705  26.084  1.00  0.00     0.031 C 
ATOM     63  C   UNL A   1      48.611  34.565  26.888  1.00  0.00     0.029 A 
ATOM     64  C   UNL A   1      49.049  33.262  26.718  1.00  0.00     0.049 A 
ATOM     65  H   UNL A   1      47.925  31.478  26.625  1.00  0.00     0.167 HD
ATOM     66  C   UNL A   1      50.745  31.482  26.420  1.00  0.00     0.074 A 
ATOM     67  C   UNL A   1      52.104  31.020  26.234  1.00  0.00     0.031 C 
ATOM     68  C   UNL A   1      50.396  32.784  26.549  1.00  0.00     0.037 A 
BRANCH  55  69
ATOM     69  C   UNL A   1      44.326  33.717  27.080  1.00  0.00     0.057 A 
ATOM     70  C   UNL A   1      43.792  34.347  25.949  1.00  0.00     0.134 A 
ATOM     71  C   UNL A   1      43.823  34.097  28.330  1.00  0.00     0.134 A 
ATOM     72  F   UNL A   1      44.236  34.032  24.722  1.00  0.00    -0.206 F 
ATOM     73  C   UNL A   1      42.804  35.326  26.056  1.00  0.00     0.040 A 
ATOM     74  C   UNL A   1      42.819  35.061  28.449  1.00  0.00     0.040 A 
ATOM     75  F   UNL A   1      44.284  33.524  29.452  1.00  0.00    -0.206 F 
ATOM     76  C   UNL A   1      42.314  35.686  27.309  1.00  0.00     0.006 A 
ENDBRANCH  55  69
BRANCH  56  77
ATOM     77  C   UNL A   1      51.492  26.869  26.009  1.00  0.00     0.057 A 
ATOM     78  C   UNL A   1      51.863  26.425  24.733  1.00  0.00     0.134 A 
ATOM     79  C   UNL A   1      52.209  26.369  27.101  1.00  0.00     0.134 A 
ATOM     80  F   UNL A   1      51.212  26.866  23.647  1.00  0.00    -0.206 F 
ATOM     81  C   UNL A   1      52.908  25.520  24.551  1.00  0.00     0.040 A 
ATOM     82  C   UNL A   1      53.274  25.484  26.931  1.00  0.00     0.040 A 
ATOM     83  F   UNL A   1      51.915  26.776  28.344  1.00  0.00    -0.206 F 
ATOM     84  C   UNL A   1      53.624  25.055  25.651  1.00  0.00     0.006 A 
ENDBRANCH  56  77
BRANCH  68  85
ATOM     85  C   UNL A   1      51.504  33.793  26.536  1.00  0.00     0.057 A 
ATOM     86  C   UNL A   1      51.911  34.390  25.336  1.00  0.00     0.134 A 
ATOM     87  C   UNL A   1      52.185  34.154  27.706  1.00  0.00     0.134 A 
ATOM     88  F   UNL A   1      51.302  34.080  24.182  1.00  0.00    -0.206 F 
ATOM     89  C   UNL A   1      52.958  35.309  25.299  1.00  0.00     0.040 A 
ATOM     90  C   UNL A   1      53.220  35.090  27.684  1.00  0.00     0.040 A 
ATOM     91  F   UNL A   1      51.832  33.629  28.888  1.00  0.00    -0.206 F 
ATOM     92  C   UNL A   1      53.613  35.666  26.478  1.00  0.00     0.006 A 
ENDBRANCH  68  85
ENDBRANCH  42  43
ENDBRANCH  34  37
ENDBRANCH  32  33
ENDBRANCH  31  32
ENDBRANCH  30  31
ENDBRANCH   1  30
TORSDOF 15
ENDMDL
MODEL 3
REMARK VINA RESULT:     -12.0      1.771      2.767
REMARK SMILES Cn1c(=O)c(=O)n(C)c2cc(S(=O)(=O)N3CCC[C@H]3C(=O)NCCCCCCNC(=O)c3ccc(-c4c5nc(c(-c6c(F)cccc6F)c6ccc([nH]6)c(-c6c(F)cccc6F)c6nc(c(-c7c(F)cccc7F)c7ccc4[nH]7)C=C6)C=C5)cc3)ccc21
REMARK SMILES IDX 25 1 24 2 23 3 22 4 20 5 21 6 19 8 15 9 16 10 17 11 18 12
REMARK SMILES IDX 12 13 13 14 14 15 11 16 1 17 2 18 3 19 88 20 4 21 5 22 9 23
REMARK SMILES IDX 87 24 6 25 7 26 10 27 86 28 8 29 26 30 27 31 28 32 29 33
REMARK SMILES IDX 30 34 31 36 32 37 33 38 85 39 34 40 84 41 35 42 36 43 37 44
REMARK SMILES IDX 78 45 38 46 83 47 77 48 79 49 39 50 82 51 76 52 75 53 40 55
REMARK SMILES IDX 66 56 49 57 65 58 50 59 53 60 64 61 80 62 51 63 52 64 63 66
REMARK SMILES IDX 81 67 54 68 41 69 42 70 47 71 43 72 44 73 46 74 48 75 45 76
REMARK SMILES IDX 67 77 68 78 73 79 69 80 70 81 72 82 74 83 71 84 55 85 56 86
REMARK SMILES IDX 61 87 57 88 58 89 60 90 62 91 59 92
REMARK H PARENT 22 7 29 35 79 54 53 65
REMARK Flexibility Score: inf
ROOT
ATOM      1  C   UNL A   1      33.148  30.003  27.574  1.00  0.00     0.002 C 
ENDROOT
BRANCH   1   2
ATOM      2  C   UNL A   1      34.193  29.274  26.727  1.00  0.00     0.021 C 
BRANCH   2   3
ATOM      3  C   UNL A   1      33.985  27.779  26.525  1.00  0.00     0.116 C 
BRANCH   3   4
ATOM      4  N   UNL A   1      32.600  27.378  26.450  1.00  0.00    -0.355 N 
ATOM      5  C   UNL A   1      31.844  27.170  25.331  1.00  0.00     0.238 C 
ATOM      6  O   UNL A   1      30.776  26.570  25.471  1.00  0.00    -0.273 OA
ATOM      7  H   UNL A   1      32.143  27.237  27.311  1.00  0.00     0.163 HD
BRANCH   5   8
ATOM      8  C   UNL A   1      32.311  27.705  23.964  1.00  0.00     0.162 C 
ATOM      9  N   UNL A   1      31.745  26.930  22.841  1.00  0.00    -0.185 NA
ATOM     10  C   UNL A   1      30.465  27.520  22.433  1.00  0.00     0.103 C 
ATOM     11  C   UNL A   1      30.607  29.000  22.731  1.00  0.00     0.019 C 
ATOM     12  C   UNL A   1      31.738  29.124  23.747  1.00  0.00     0.032 C 
BRANCH   9  13
ATOM     13  S   UNL A   1      32.629  25.960  21.805  1.00  0.00     0.243 S 
ATOM     14  O   UNL A   1      33.960  26.500  21.681  1.00  0.00    -0.207 OA
ATOM     15  O   UNL A   1      31.815  25.723  20.628  1.00  0.00    -0.207 OA
BRANCH  13  16
ATOM     16  C   UNL A   1      32.809  24.361  22.576  1.00  0.00     0.084 A 
ATOM     17  C   UNL A   1      32.425  19.503  24.252  1.00  0.00     0.154 C 
ATOM     18  N   UNL A   1      33.477  20.507  24.215  1.00  0.00    -0.305 N 
ATOM     19  C   UNL A   1      34.705  20.137  24.762  1.00  0.00     0.316 A 
ATOM     20  C   UNL A   1      33.253  21.810  23.695  1.00  0.00     0.068 A 
ATOM     21  O   UNL A   1      34.910  19.040  25.276  1.00  0.00    -0.263 OA
ATOM     22  C   UNL A   1      35.846  21.157  24.723  1.00  0.00     0.316 A 
ATOM     23  C   UNL A   1      34.315  22.730  23.608  1.00  0.00     0.069 A 
ATOM     24  C   UNL A   1      31.975  22.213  23.265  1.00  0.00     0.030 A 
ATOM     25  O   UNL A   1      36.929  20.841  25.210  1.00  0.00    -0.263 OA
ATOM     26  N   UNL A   1      35.597  22.392  24.127  1.00  0.00    -0.305 N 
ATOM     27  C   UNL A   1      34.085  23.988  23.018  1.00  0.00     0.050 A 
ATOM     28  C   UNL A   1      31.750  23.484  22.729  1.00  0.00     0.024 A 
ATOM     29  C   UNL A   1      36.684  23.359  24.100  1.00  0.00     0.154 C 
ENDBRANCH  13  16
ENDBRANCH   9  13
ENDBRANCH   5   8
ENDBRANCH   3   4
ENDBRANCH   2   3
ENDBRANCH   1   2
BRANCH   1  30
ATOM     30  C   UNL A   1      31.890  30.488  26.850  1.00  0.00     0.002 C 
BRANCH  30  31
ATOM     31  C   UNL A   1      31.629  31.993  26.869  1.00  0.00     0.021 C 
BRANCH  31  32
ATOM     32  C   UNL A   1      32.790  32.872  27.321  1.00  0.00     0.116 C 
BRANCH  32  33
ATOM     33  N   UNL A   1      32.397  34.223  27.683  1.00  0.00    -0.352 N 
ATOM     34  C   UNL A   1      32.964  35.076  28.603  1.00  0.00     0.251 C 
ATOM     35  H   UNL A   1      31.615  34.580  27.202  1.00  0.00     0.163 HD
ATOM     36  O   UNL A   1      32.452  36.165  28.841  1.00  0.00    -0.269 OA
BRANCH  34  37
ATOM     37  C   UNL A   1      34.169  34.649  29.350  1.00  0.00     0.039 A 
ATOM     38  C   UNL A   1      35.441  34.751  28.781  1.00  0.00     0.014 A 
ATOM     39  C   UNL A   1      34.010  34.087  30.619  1.00  0.00     0.014 A 
ATOM     40  C   UNL A   1      36.524  34.133  29.401  1.00  0.00     0.010 A 
ATOM     41  C   UNL A   1      35.113  33.530  31.273  1.00  0.00     0.010 A 
ATOM     42  C   UNL A   1      36.366  33.494  30.641  1.00  0.00    -0.014 A 
BRANCH  42  43
ATOM     43  C   UNL A   1      37.501  32.742  31.240  1.00  0.00     0.031 A 
ATOM     44  C   UNL A   1      38.058  33.152  32.580  1.00  0.00     0.074 A 
ATOM     45  C   UNL A   1      38.009  31.671  30.603  1.00  0.00     0.049 A 
ATOM     46  N   UNL A   1      39.072  32.653  33.243  1.00  0.00    -0.248 NA
ATOM     47  C   UNL A   1      37.393  34.273  33.264  1.00  0.00     0.031 C 
ATOM     48  C   UNL A   1      37.547  31.155  29.313  1.00  0.00     0.029 A 
ATOM     49  N   UNL A   1      39.023  30.816  30.958  1.00  0.00    -0.354 N 
ATOM     50  C   UNL A   1      39.184  33.414  34.400  1.00  0.00     0.074 A 
ATOM     51  C   UNL A   1      38.147  34.421  34.346  1.00  0.00     0.031 C 
ATOM     52  C   UNL A   1      38.257  30.060  28.998  1.00  0.00     0.029 A 
ATOM     53  C   UNL A   1      39.259  29.829  30.033  1.00  0.00     0.049 A 
ATOM     54  H   UNL A   1      39.532  30.903  31.797  1.00  0.00     0.167 HD
ATOM     55  C   UNL A   1      40.066  33.282  35.419  1.00  0.00     0.037 A 
ATOM     56  C   UNL A   1      40.197  28.863  30.008  1.00  0.00     0.037 A 
ATOM     57  C   UNL A   1      41.072  32.256  35.498  1.00  0.00     0.049 A 
ATOM     58  C   UNL A   1      41.187  28.767  31.135  1.00  0.00     0.074 A 
ATOM     59  C   UNL A   1      41.982  32.016  36.515  1.00  0.00     0.029 A 
ATOM     60  N   UNL A   1      41.297  31.295  34.524  1.00  0.00    -0.354 N 
ATOM     61  N   UNL A   1      41.268  29.484  32.229  1.00  0.00    -0.248 NA
ATOM     62  C   UNL A   1      42.223  27.731  31.017  1.00  0.00     0.031 C 
ATOM     63  C   UNL A   1      42.783  30.932  36.139  1.00  0.00     0.029 A 
ATOM     64  C   UNL A   1      42.346  30.475  34.907  1.00  0.00     0.049 A 
ATOM     65  H   UNL A   1      40.788  31.210  33.687  1.00  0.00     0.167 HD
ATOM     66  C   UNL A   1      42.345  28.972  32.939  1.00  0.00     0.074 A 
ATOM     67  C   UNL A   1      42.878  27.874  32.159  1.00  0.00     0.031 C 
ATOM     68  C   UNL A   1      42.853  29.376  34.128  1.00  0.00     0.037 A 
BRANCH  55  69
ATOM     69  C   UNL A   1      39.997  34.279  36.538  1.00  0.00     0.057 A 
ATOM     70  C   UNL A   1      39.213  34.024  37.671  1.00  0.00     0.134 A 
ATOM     71  C   UNL A   1      40.652  35.515  36.469  1.00  0.00     0.134 A 
ATOM     72  F   UNL A   1      38.555  32.861  37.795  1.00  0.00    -0.206 F 
ATOM     73  C   UNL A   1      39.075  34.967  38.690  1.00  0.00     0.040 A 
ATOM     74  C   UNL A   1      40.538  36.458  37.492  1.00  0.00     0.040 A 
ATOM     75  F   UNL A   1      41.427  35.816  35.416  1.00  0.00    -0.206 F 
ATOM     76  C   UNL A   1      39.739  36.188  38.603  1.00  0.00     0.006 A 
ENDBRANCH  55  69
BRANCH  56  77
ATOM     77  C   UNL A   1      40.271  27.921  28.864  1.00  0.00     0.057 A 
ATOM     78  C   UNL A   1      39.589  26.697  28.884  1.00  0.00     0.134 A 
ATOM     79  C   UNL A   1      40.989  28.242  27.707  1.00  0.00     0.134 A 
ATOM     80  F   UNL A   1      38.886  26.332  29.966  1.00  0.00    -0.206 F 
ATOM     81  C   UNL A   1      39.619  25.828  27.794  1.00  0.00     0.040 A 
ATOM     82  C   UNL A   1      41.005  27.394  26.599  1.00  0.00     0.040 A 
ATOM     83  F   UNL A   1      41.642  29.410  27.621  1.00  0.00    -0.206 F 
ATOM     84  C   UNL A   1      40.320  26.180  26.643  1.00  0.00     0.006 A 
ENDBRANCH  56  77
BRANCH  68  85
ATOM     85  C   UNL A   1      44.013  28.603  34.674  1.00  0.00     0.057 A 
ATOM     86  C   UNL A   1      43.804  27.479  35.483  1.00  0.00     0.134 A 
ATOM     87  C   UNL A   1      45.337  28.985  34.421  1.00  0.00     0.134 A 
ATOM     88  F   UNL A   1      42.560  27.067  35.766  1.00  0.00    -0.206 F 
ATOM     89  C   UNL A   1      44.871  26.762  36.023  1.00  0.00     0.040 A 
ATOM     90  C   UNL A   1      46.413  28.262  34.939  1.00  0.00     0.040 A 
ATOM     91  F   UNL A   1      45.603  30.043  33.642  1.00  0.00    -0.206 F 
ATOM     92  C   UNL A   1      46.181  27.150  35.746  1.00  0.00     0.006 A 
ENDBRANCH  68  85
ENDBRANCH  42  43
ENDBRANCH  34  37
ENDBRANCH  32  33
ENDBRANCH  31  32
ENDBRANCH  30  31
ENDBRANCH   1  30
TORSDOF 15
ENDMDL
