MODEL 1
REMARK VINA RESULT:     -12.5      0.000      0.000
REMARK SMILES Cc1cc(OC(F)(F)F)cc2c1O[C@H](C(F)(F)F)C(C(=O)NCCCCCCNC(=O)c1ccc(-c3c4nc(c(-c5c(F)cccc5F)c5ccc([nH]5)c(-c5c(F)cccc5F)c5nc(c(-c6c(F)cccc6F)c6ccc3[nH]6)C=C5)C=C4)cc1)=C2
REMARK SMILES IDX 25 1 24 2 23 3 22 4 20 5 21 6 19 8 1 9 2 10 3 11 12 12 4 13
REMARK SMILES IDX 11 14 13 15 10 16 86 17 14 18 5 19 6 20 7 21 8 22 9 23 15 24
REMARK SMILES IDX 16 25 17 26 18 27 26 28 27 29 28 30 29 31 30 32 31 34 32 35
REMARK SMILES IDX 33 36 85 37 34 38 84 39 35 40 36 41 37 42 78 43 38 44 83 45
REMARK SMILES IDX 77 46 79 47 39 48 82 49 76 50 75 51 40 53 66 54 49 55 65 56
REMARK SMILES IDX 50 57 53 58 64 59 80 60 51 61 52 62 63 64 81 65 54 66 41 67
REMARK SMILES IDX 42 68 47 69 43 70 44 71 46 72 48 73 45 74 67 75 68 76 73 77
REMARK SMILES IDX 69 78 70 79 72 80 74 81 71 82 55 83 56 84 61 85 57 86 58 87
REMARK SMILES IDX 60 88 62 89 59 90
REMARK H PARENT 22 7 29 33 79 52 53 63
REMARK Flexibility Score: inf
ROOT
ATOM      1  C   UNL A   1      34.480  20.896  24.622  1.00  0.00     0.002 C 
ENDROOT
BRANCH   1   2
ATOM      2  C   UNL A   1      33.200  20.678  25.430  1.00  0.00     0.021 C 
BRANCH   2   3
ATOM      3  C   UNL A   1      32.050  21.572  24.981  1.00  0.00     0.116 C 
BRANCH   3   4
ATOM      4  N   UNL A   1      31.219  21.986  26.098  1.00  0.00    -0.352 N 
ATOM      5  C   UNL A   1      30.775  23.149  26.630  1.00  0.00     0.251 C 
ATOM      6  O   UNL A   1      30.026  23.034  27.605  1.00  0.00    -0.270 OA
ATOM      7  H   UNL A   1      30.891  21.210  26.608  1.00  0.00     0.163 HD
BRANCH   5   8
ATOM      8  C   UNL A   1      31.128  24.510  26.127  1.00  0.00     0.067 C 
ATOM      9  C   UNL A   1      32.922  29.264  25.563  1.00  0.00     0.048 C 
ATOM     10  C   UNL A   1      31.862  28.449  24.876  1.00  0.00    -0.005 A 
ATOM     11  C   UNL A   1      31.124  28.985  23.815  1.00  0.00     0.054 A 
ATOM     12  C   UNL A   1      31.588  27.146  25.301  1.00  0.00     0.131 A 
ATOM     13  C   UNL A   1      30.123  28.233  23.193  1.00  0.00     0.130 A 
ATOM     14  C   UNL A   1      30.589  26.381  24.697  1.00  0.00     0.021 A 
ATOM     15  O   UNL A   1      32.310  26.694  26.364  1.00  0.00    -0.475 OA
ATOM     16  C   UNL A   1      29.861  26.930  23.639  1.00  0.00     0.058 A 
ATOM     17  C   UNL A   1      30.295  25.048  25.216  1.00  0.00     0.025 C 
ATOM     18  C   UNL A   1      32.347  25.262  26.566  1.00  0.00     0.314 C 
BRANCH  13  19
ATOM     19  O   UNL A   1      29.332  28.649  22.158  1.00  0.00    -0.406 OA
BRANCH  19  20
ATOM     20  C   UNL A   1      28.164  29.385  22.482  1.00  0.00     0.573 C 
ATOM     21  F   UNL A   1      27.160  28.565  22.861  1.00  0.00    -0.132 F 
ATOM     22  F   UNL A   1      28.409  30.280  23.462  1.00  0.00    -0.132 F 
ATOM     23  F   UNL A   1      27.759  30.064  21.386  1.00  0.00    -0.132 F 
ENDBRANCH  19  20
ENDBRANCH  13  19
BRANCH  18  24
ATOM     24  C   UNL A   1      33.645  24.697  25.960  1.00  0.00     0.429 C 
ATOM     25  F   UNL A   1      33.425  24.254  24.697  1.00  0.00    -0.167 F 
ATOM     26  F   UNL A   1      34.627  25.625  25.871  1.00  0.00    -0.167 F 
ATOM     27  F   UNL A   1      34.146  23.663  26.673  1.00  0.00    -0.167 F 
ENDBRANCH  18  24
ENDBRANCH   5   8
ENDBRANCH   3   4
ENDBRANCH   2   3
ENDBRANCH   1   2
BRANCH   1  28
ATOM     28  C   UNL A   1      35.758  21.026  25.464  1.00  0.00     0.002 C 
BRANCH  28  29
ATOM     29  C   UNL A   1      36.989  20.322  24.884  1.00  0.00     0.021 C 
BRANCH  29  30
ATOM     30  C   UNL A   1      38.310  20.833  25.444  1.00  0.00     0.116 C 
BRANCH  30  31
ATOM     31  N   UNL A   1      39.274  19.753  25.586  1.00  0.00    -0.352 N 
ATOM     32  C   UNL A   1      40.594  19.828  25.939  1.00  0.00     0.251 C 
ATOM     33  H   UNL A   1      38.932  18.849  25.403  1.00  0.00     0.163 HD
ATOM     34  O   UNL A   1      41.347  18.873  25.766  1.00  0.00    -0.269 OA
BRANCH  32  35
ATOM     35  C   UNL A   1      41.104  21.072  26.541  1.00  0.00     0.039 A 
ATOM     36  C   UNL A   1      41.016  21.252  27.922  1.00  0.00     0.014 A 
ATOM     37  C   UNL A   1      41.653  22.066  25.722  1.00  0.00     0.014 A 
ATOM     38  C   UNL A   1      41.507  22.426  28.494  1.00  0.00     0.010 A 
ATOM     39  C   UNL A   1      42.192  23.208  26.298  1.00  0.00     0.010 A 
ATOM     40  C   UNL A   1      42.102  23.406  27.684  1.00  0.00    -0.014 A 
BRANCH  40  41
ATOM     41  C   UNL A   1      42.549  24.700  28.245  1.00  0.00     0.031 A 
ATOM     42  C   UNL A   1      41.540  25.796  28.431  1.00  0.00     0.074 A 
ATOM     43  C   UNL A   1      43.847  24.906  28.529  1.00  0.00     0.049 A 
ATOM     44  N   UNL A   1      41.720  27.035  28.807  1.00  0.00    -0.248 NA
ATOM     45  C   UNL A   1      40.139  25.453  28.134  1.00  0.00     0.031 C 
ATOM     46  C   UNL A   1      44.914  23.915  28.388  1.00  0.00     0.029 A 
ATOM     47  N   UNL A   1      44.489  26.030  28.981  1.00  0.00    -0.354 N 
ATOM     48  C   UNL A   1      40.460  27.617  28.789  1.00  0.00     0.074 A 
ATOM     49  C   UNL A   1      39.533  26.616  28.311  1.00  0.00     0.031 C 
ATOM     50  C   UNL A   1      46.081  24.476  28.750  1.00  0.00     0.029 A 
ATOM     51  C   UNL A   1      45.847  25.873  29.109  1.00  0.00     0.049 A 
ATOM     52  H   UNL A   1      44.021  26.870  29.194  1.00  0.00     0.167 HD
ATOM     53  C   UNL A   1      40.104  28.870  29.159  1.00  0.00     0.037 A 
ATOM     54  C   UNL A   1      46.793  26.766  29.459  1.00  0.00     0.037 A 
ATOM     55  C   UNL A   1      41.033  29.863  29.627  1.00  0.00     0.049 A 
ATOM     56  C   UNL A   1      46.381  28.178  29.788  1.00  0.00     0.074 A 
ATOM     57  C   UNL A   1      40.777  31.156  30.044  1.00  0.00     0.029 A 
ATOM     58  N   UNL A   1      42.403  29.671  29.730  1.00  0.00    -0.354 N 
ATOM     59  N   UNL A   1      45.183  28.709  29.810  1.00  0.00    -0.248 NA
ATOM     60  C   UNL A   1      47.457  29.115  30.144  1.00  0.00     0.031 C 
ATOM     61  C   UNL A   1      41.998  31.766  30.346  1.00  0.00     0.029 A 
ATOM     62  C   UNL A   1      43.008  30.832  30.180  1.00  0.00     0.049 A 
ATOM     63  H   UNL A   1      42.875  28.834  29.516  1.00  0.00     0.167 HD
ATOM     64  C   UNL A   1      45.355  30.025  30.224  1.00  0.00     0.074 A 
ATOM     65  C   UNL A   1      46.774  30.211  30.442  1.00  0.00     0.031 C 
ATOM     66  C   UNL A   1      44.422  30.990  30.413  1.00  0.00     0.037 A 
BRANCH  53  67
ATOM     67  C   UNL A   1      38.651  29.230  29.054  1.00  0.00     0.057 A 
ATOM     68  C   UNL A   1      37.808  29.135  30.168  1.00  0.00     0.134 A 
ATOM     69  C   UNL A   1      38.083  29.666  27.849  1.00  0.00     0.134 A 
ATOM     70  F   UNL A   1      38.285  28.720  31.351  1.00  0.00    -0.206 F 
ATOM     71  C   UNL A   1      36.455  29.466  30.089  1.00  0.00     0.040 A 
ATOM     72  C   UNL A   1      36.738  30.030  27.765  1.00  0.00     0.040 A 
ATOM     73  F   UNL A   1      38.839  29.794  26.748  1.00  0.00    -0.206 F 
ATOM     74  C   UNL A   1      35.918  29.924  28.887  1.00  0.00     0.006 A 
ENDBRANCH  53  67
BRANCH  54  75
ATOM     75  C   UNL A   1      48.221  26.364  29.523  1.00  0.00     0.057 A 
ATOM     76  C   UNL A   1      49.082  26.536  28.433  1.00  0.00     0.134 A 
ATOM     77  C   UNL A   1      48.768  25.835  30.698  1.00  0.00     0.134 A 
ATOM     78  F   UNL A   1      48.619  27.033  27.276  1.00  0.00    -0.206 F 
ATOM     79  C   UNL A   1      50.434  26.201  28.509  1.00  0.00     0.040 A 
ATOM     80  C   UNL A   1      50.124  25.520  30.797  1.00  0.00     0.040 A 
ATOM     81  F   UNL A   1      47.998  25.663  31.783  1.00  0.00    -0.206 F 
ATOM     82  C   UNL A   1      50.962  25.703  29.699  1.00  0.00     0.006 A 
ENDBRANCH  54  75
BRANCH  66  83
ATOM     83  C   UNL A   1      44.893  32.313  30.943  1.00  0.00     0.057 A 
ATOM     84  C   UNL A   1      45.291  33.325  30.059  1.00  0.00     0.134 A 
ATOM     85  C   UNL A   1      45.009  32.570  32.314  1.00  0.00     0.134 A 
ATOM     86  F   UNL A   1      45.215  33.140  28.732  1.00  0.00    -0.206 F 
ATOM     87  C   UNL A   1      45.798  34.540  30.520  1.00  0.00     0.040 A 
ATOM     88  C   UNL A   1      45.486  33.794  32.788  1.00  0.00     0.040 A 
ATOM     89  F   UNL A   1      44.632  31.648  33.213  1.00  0.00    -0.206 F 
ATOM     90  C   UNL A   1      45.892  34.779  31.888  1.00  0.00     0.006 A 
ENDBRANCH  66  83
ENDBRANCH  40  41
ENDBRANCH  32  35
ENDBRANCH  30  31
ENDBRANCH  29  30
ENDBRANCH  28  29
ENDBRANCH   1  28
TORSDOF 16
ENDMDL
MODEL 2
REMARK VINA RESULT:     -12.4      2.621      7.753
REMARK SMILES Cc1cc(OC(F)(F)F)cc2c1O[C@H](C(F)(F)F)C(C(=O)NCCCCCCNC(=O)c1ccc(-c3c4nc(c(-c5c(F)cccc5F)c5ccc([nH]5)c(-c5c(F)cccc5F)c5nc(c(-c6c(F)cccc6F)c6ccc3[nH]6)C=C5)C=C4)cc1)=C2
REMARK SMILES IDX 25 1 24 2 23 3 22 4 20 5 21 6 19 8 1 9 2 10 3 11 12 12 4 13
REMARK SMILES IDX 11 14 13 15 10 16 86 17 14 18 5 19 6 20 7 21 8 22 9 23 15 24
REMARK SMILES IDX 16 25 17 26 18 27 26 28 27 29 28 30 29 31 30 32 31 34 32 35
REMARK SMILES IDX 33 36 85 37 34 38 84 39 35 40 36 41 37 42 78 43 38 44 83 45
REMARK SMILES IDX 77 46 79 47 39 48 82 49 76 50 75 51 40 53 66 54 49 55 65 56
REMARK SMILES IDX 50 57 53 58 64 59 80 60 51 61 52 62 63 64 81 65 54 66 41 67
REMARK SMILES IDX 42 68 47 69 43 70 44 71 46 72 48 73 45 74 67 75 68 76 73 77
REMARK SMILES IDX 69 78 70 79 72 80 74 81 71 82 55 83 56 84 61 85 57 86 58 87
REMARK SMILES IDX 60 88 62 89 59 90
REMARK H PARENT 22 7 29 33 79 52 53 63
REMARK Flexibility Score: inf
ROOT
ATOM      1  C   UNL A   1      30.750  27.172  25.484  1.00  0.00     0.002 C 
ENDROOT
BRANCH   1   2
ATOM      2  C   UNL A   1      30.402  27.173  23.994  1.00  0.00     0.021 C 
BRANCH   2   3
ATOM      3  C   UNL A   1      30.500  25.792  23.356  1.00  0.00     0.116 C 
BRANCH   3   4
ATOM      4  N   UNL A   1      31.415  25.781  22.228  1.00  0.00    -0.352 N 
ATOM      5  C   UNL A   1      32.547  25.130  21.872  1.00  0.00     0.251 C 
ATOM      6  O   UNL A   1      32.995  25.416  20.757  1.00  0.00    -0.270 OA
ATOM      7  H   UNL A   1      31.137  26.423  21.535  1.00  0.00     0.163 HD
BRANCH   5   8
ATOM      8  C   UNL A   1      33.260  24.129  22.719  1.00  0.00     0.067 C 
ATOM      9  C   UNL A   1      36.724  21.467  25.375  1.00  0.00     0.048 C 
ATOM     10  C   UNL A   1      35.359  21.164  24.825  1.00  0.00    -0.005 A 
ATOM     11  C   UNL A   1      34.772  19.908  25.016  1.00  0.00     0.054 A 
ATOM     12  C   UNL A   1      34.661  22.133  24.097  1.00  0.00     0.131 A 
ATOM     13  C   UNL A   1      33.512  19.623  24.483  1.00  0.00     0.130 A 
ATOM     14  C   UNL A   1      33.404  21.866  23.552  1.00  0.00     0.021 A 
ATOM     15  O   UNL A   1      35.299  23.322  23.909  1.00  0.00    -0.475 OA
ATOM     16  C   UNL A   1      32.833  20.607  23.752  1.00  0.00     0.058 A 
ATOM     17  C   UNL A   1      32.740  22.887  22.746  1.00  0.00     0.025 C 
ATOM     18  C   UNL A   1      34.478  24.451  23.531  1.00  0.00     0.314 C 
BRANCH  13  19
ATOM     19  O   UNL A   1      32.844  18.435  24.594  1.00  0.00    -0.406 OA
BRANCH  19  20
ATOM     20  C   UNL A   1      33.229  17.383  23.725  1.00  0.00     0.573 C 
ATOM     21  F   UNL A   1      34.557  17.417  23.478  1.00  0.00    -0.132 F 
ATOM     22  F   UNL A   1      32.898  16.180  24.241  1.00  0.00    -0.132 F 
ATOM     23  F   UNL A   1      32.580  17.528  22.549  1.00  0.00    -0.132 F 
ENDBRANCH  19  20
ENDBRANCH  13  19
BRANCH  18  24
ATOM     24  C   UNL A   1      34.154  25.285  24.784  1.00  0.00     0.429 C 
ATOM     25  F   UNL A   1      33.006  24.847  25.361  1.00  0.00    -0.167 F 
ATOM     26  F   UNL A   1      35.114  25.195  25.735  1.00  0.00    -0.167 F 
ATOM     27  F   UNL A   1      33.995  26.599  24.509  1.00  0.00    -0.167 F 
ENDBRANCH  18  24
ENDBRANCH   5   8
ENDBRANCH   3   4
ENDBRANCH   2   3
ENDBRANCH   1   2
BRANCH   1  28
ATOM     28  C   UNL A   1      31.749  28.256  25.912  1.00  0.00     0.002 C 
BRANCH  28  29
ATOM     29  C   UNL A   1      32.539  27.941  27.186  1.00  0.00     0.021 C 
BRANCH  29  30
ATOM     30  C   UNL A   1      33.922  28.579  27.226  1.00  0.00     0.116 C 
BRANCH  30  31
ATOM     31  N   UNL A   1      33.848  29.970  27.640  1.00  0.00    -0.352 N 
ATOM     32  C   UNL A   1      34.759  30.696  28.359  1.00  0.00     0.251 C 
ATOM     33  H   UNL A   1      33.035  30.454  27.369  1.00  0.00     0.163 HD
ATOM     34  O   UNL A   1      34.450  31.776  28.857  1.00  0.00    -0.269 OA
BRANCH  32  35
ATOM     35  C   UNL A   1      36.124  30.169  28.524  1.00  0.00     0.039 A 
ATOM     36  C   UNL A   1      36.498  29.602  29.744  1.00  0.00     0.014 A 
ATOM     37  C   UNL A   1      37.036  30.258  27.466  1.00  0.00     0.014 A 
ATOM     38  C   UNL A   1      37.788  29.095  29.898  1.00  0.00     0.010 A 
ATOM     39  C   UNL A   1      38.301  29.702  27.602  1.00  0.00     0.010 A 
ATOM     40  C   UNL A   1      38.692  29.138  28.825  1.00  0.00    -0.014 A 
BRANCH  40  41
ATOM     41  C   UNL A   1      40.094  28.693  28.984  1.00  0.00     0.031 A 
ATOM     42  C   UNL A   1      41.108  29.667  29.511  1.00  0.00     0.074 A 
ATOM     43  C   UNL A   1      40.462  27.456  28.607  1.00  0.00     0.049 A 
ATOM     44  N   UNL A   1      42.402  29.531  29.636  1.00  0.00    -0.248 NA
ATOM     45  C   UNL A   1      40.595  30.979  29.938  1.00  0.00     0.031 C 
ATOM     46  C   UNL A   1      39.564  26.427  28.082  1.00  0.00     0.029 A 
ATOM     47  N   UNL A   1      41.697  26.862  28.595  1.00  0.00    -0.354 N 
ATOM     48  C   UNL A   1      42.856  30.738  30.152  1.00  0.00     0.074 A 
ATOM     49  C   UNL A   1      41.710  31.613  30.262  1.00  0.00     0.031 C 
ATOM     50  C   UNL A   1      40.280  25.325  27.801  1.00  0.00     0.029 A 
ATOM     51  C   UNL A   1      41.689  25.586  28.089  1.00  0.00     0.049 A 
ATOM     52  H   UNL A   1      42.513  27.308  28.918  1.00  0.00     0.167 HD
ATOM     53  C   UNL A   1      44.113  31.078  30.521  1.00  0.00     0.037 A 
ATOM     54  C   UNL A   1      42.710  24.735  27.868  1.00  0.00     0.037 A 
ATOM     55  C   UNL A   1      45.249  30.205  30.402  1.00  0.00     0.049 A 
ATOM     56  C   UNL A   1      44.111  25.167  28.211  1.00  0.00     0.074 A 
ATOM     57  C   UNL A   1      46.563  30.443  30.761  1.00  0.00     0.029 A 
ATOM     58  N   UNL A   1      45.203  28.924  29.871  1.00  0.00    -0.354 N 
ATOM     59  N   UNL A   1      44.526  26.294  28.738  1.00  0.00    -0.248 NA
ATOM     60  C   UNL A   1      45.188  24.206  27.930  1.00  0.00     0.031 C 
ATOM     61  C   UNL A   1      47.323  29.327  30.397  1.00  0.00     0.029 A 
ATOM     62  C   UNL A   1      46.471  28.369  29.871  1.00  0.00     0.049 A 
ATOM     63  H   UNL A   1      44.390  28.475  29.544  1.00  0.00     0.167 HD
ATOM     64  C   UNL A   1      45.901  26.160  28.893  1.00  0.00     0.074 A 
ATOM     65  C   UNL A   1      46.249  24.843  28.403  1.00  0.00     0.031 C 
ATOM     66  C   UNL A   1      46.794  27.045  29.400  1.00  0.00     0.037 A 
BRANCH  53  67
ATOM     67  C   UNL A   1      44.316  32.459  31.072  1.00  0.00     0.057 A 
ATOM     68  C   UNL A   1      44.216  32.703  32.446  1.00  0.00     0.134 A 
ATOM     69  C   UNL A   1      44.606  33.551  30.242  1.00  0.00     0.134 A 
ATOM     70  F   UNL A   1      43.936  31.705  33.298  1.00  0.00    -0.206 F 
ATOM     71  C   UNL A   1      44.402  33.981  32.977  1.00  0.00     0.040 A 
ATOM     72  C   UNL A   1      44.826  34.827  30.763  1.00  0.00     0.040 A 
ATOM     73  F   UNL A   1      44.731  33.383  28.916  1.00  0.00    -0.206 F 
ATOM     74  C   UNL A   1      44.717  35.045  32.135  1.00  0.00     0.006 A 
ENDBRANCH  53  67
BRANCH  54  75
ATOM     75  C   UNL A   1      42.456  23.388  27.297  1.00  0.00     0.057 A 
ATOM     76  C   UNL A   1      42.620  23.126  25.932  1.00  0.00     0.134 A 
ATOM     77  C   UNL A   1      42.082  22.316  28.117  1.00  0.00     0.134 A 
ATOM     78  F   UNL A   1      42.972  24.110  25.090  1.00  0.00    -0.206 F 
ATOM     79  C   UNL A   1      42.427  21.849  25.403  1.00  0.00     0.040 A 
ATOM     80  C   UNL A   1      41.912  21.028  27.607  1.00  0.00     0.040 A 
ATOM     81  F   UNL A   1      41.927  22.500  29.436  1.00  0.00    -0.206 F 
ATOM     82  C   UNL A   1      42.084  20.792  26.245  1.00  0.00     0.006 A 
ENDBRANCH  54  75
BRANCH  66  83
ATOM     83  C   UNL A   1      48.222  26.598  29.516  1.00  0.00     0.057 A 
ATOM     84  C   UNL A   1      48.666  25.955  30.680  1.00  0.00     0.134 A 
ATOM     85  C   UNL A   1      49.168  26.848  28.515  1.00  0.00     0.134 A 
ATOM     86  F   UNL A   1      47.814  25.694  31.683  1.00  0.00    -0.206 F 
ATOM     87  C   UNL A   1      50.002  25.588  30.847  1.00  0.00     0.040 A 
ATOM     88  C   UNL A   1      50.500  26.459  28.658  1.00  0.00     0.040 A 
ATOM     89  F   UNL A   1      48.804  27.448  27.371  1.00  0.00    -0.206 F 
ATOM     90  C   UNL A   1      50.922  25.836  29.832  1.00  0.00     0.006 A 
ENDBRANCH  66  83
ENDBRANCH  40  41
ENDBRANCH  32  35
ENDBRANCH  30  31
ENDBRANCH  29  30
ENDBRANCH  28  29
ENDBRANCH   1  28
TORSDOF 16
ENDMDL
MODEL 3
REMARK VINA RESULT:     -12.1      2.592      6.934
REMARK SMILES Cc1cc(OC(F)(F)F)cc2c1O[C@H](C(F)(F)F)C(C(=O)NCCCCCCNC(=O)c1ccc(-c3c4nc(c(-c5c(F)cccc5F)c5ccc([nH]5)c(-c5c(F)cccc5F)c5nc(c(-c6c(F)cccc6F)c6ccc3[nH]6)C=C5)C=C4)cc1)=C2
REMARK SMILES IDX 25 1 24 2 23 3 22 4 20 5 21 6 19 8 1 9 2 10 3 11 12 12 4 13
REMARK SMILES IDX 11 14 13 15 10 16 86 17 14 18 5 19 6 20 7 21 8 22 9 23 15 24
REMARK SMILES IDX 16 25 17 26 18 27 26 28 27 29 28 30 29 31 30 32 31 34 32 35
REMARK SMILES IDX 33 36 85 37 34 38 84 39 35 40 36 41 37 42 78 43 38 44 83 45
REMARK SMILES IDX 77 46 79 47 39 48 82 49 76 50 75 51 40 53 66 54 49 55 65 56
REMARK SMILES IDX 50 57 53 58 64 59 80 60 51 61 52 62 63 64 81 65 54 66 41 67
REMARK SMILES IDX 42 68 47 69 43 70 44 71 46 72 48 73 45 74 67 75 68 76 73 77
REMARK SMILES IDX 69 78 70 79 72 80 74 81 71 82 55 83 56 84 61 85 57 86 58 87
REMARK SMILES IDX 60 88 62 89 59 90
REMARK H PARENT 22 7 29 33 79 52 53 63
REMARK Flexibility Score: inf
ROOT
ATOM      1  C   UNL A   1      34.185  22.803  23.171  1.00  0.00     0.002 C 
ENDROOT
BRANCH   1   2
ATOM      2  C   UNL A   1      33.306  22.220  24.279  1.00  0.00     0.021 C 
BRANCH   2   3
ATOM      3  C   UNL A   1      31.826  22.533  24.094  1.00  0.00     0.116 C 
BRANCH   3   4
ATOM      4  N   UNL A   1      31.156  22.752  25.364  1.00  0.00    -0.352 N 
ATOM      5  C   UNL A   1      30.727  23.809  26.093  1.00  0.00     0.251 C 
ATOM      6  O   UNL A   1      30.150  23.526  27.148  1.00  0.00    -0.270 OA
ATOM      7  H   UNL A   1      30.963  21.900  25.819  1.00  0.00     0.163 HD
BRANCH   5   8
ATOM      8  C   UNL A   1      30.909  25.241  25.712  1.00  0.00     0.067 C 
ATOM      9  C   UNL A   1      31.912  30.253  25.646  1.00  0.00     0.048 C 
ATOM     10  C   UNL A   1      31.123  29.325  24.766  1.00  0.00    -0.005 A 
ATOM     11  C   UNL A   1      30.467  29.804  23.626  1.00  0.00     0.054 A 
ATOM     12  C   UNL A   1      31.020  27.968  25.085  1.00  0.00     0.131 A 
ATOM     13  C   UNL A   1      29.716  28.943  22.823  1.00  0.00     0.130 A 
ATOM     14  C   UNL A   1      30.269  27.092  24.298  1.00  0.00     0.021 A 
ATOM     15  O   UNL A   1      31.645  27.567  26.227  1.00  0.00    -0.475 OA
ATOM     16  C   UNL A   1      29.621  27.587  23.164  1.00  0.00     0.058 A 
ATOM     17  C   UNL A   1      30.138  25.696  24.706  1.00  0.00     0.025 C 
ATOM     18  C   UNL A   1      31.900  26.151  26.370  1.00  0.00     0.314 C 
BRANCH  13  19
ATOM     19  O   UNL A   1      29.025  29.294  21.696  1.00  0.00    -0.406 OA
BRANCH  19  20
ATOM     20  C   UNL A   1      28.286  30.503  21.731  1.00  0.00     0.573 C 
ATOM     21  F   UNL A   1      29.088  31.559  21.991  1.00  0.00    -0.132 F 
ATOM     22  F   UNL A   1      27.635  30.709  20.566  1.00  0.00    -0.132 F 
ATOM     23  F   UNL A   1      27.366  30.423  22.717  1.00  0.00    -0.132 F 
ENDBRANCH  19  20
ENDBRANCH  13  19
BRANCH  18  24
ATOM     24  C   UNL A   1      33.352  25.852  25.951  1.00  0.00     0.429 C 
ATOM     25  F   UNL A   1      34.172  26.864  26.330  1.00  0.00    -0.167 F 
ATOM     26  F   UNL A   1      33.841  24.730  26.530  1.00  0.00    -0.167 F 
ATOM     27  F   UNL A   1      33.488  25.697  24.615  1.00  0.00    -0.167 F 
ENDBRANCH  18  24
ENDBRANCH   5   8
ENDBRANCH   3   4
ENDBRANCH   2   3
ENDBRANCH   1   2
BRANCH   1  28
ATOM     28  C   UNL A   1      35.497  23.436  23.658  1.00  0.00     0.002 C 
BRANCH  28  29
ATOM     29  C   UNL A   1      35.952  22.992  25.052  1.00  0.00     0.021 C 
BRANCH  29  30
ATOM     30  C   UNL A   1      37.179  23.734  25.564  1.00  0.00     0.116 C 
BRANCH  30  31
ATOM     31  N   UNL A   1      38.305  22.832  25.740  1.00  0.00    -0.352 N 
ATOM     32  C   UNL A   1      39.561  23.114  26.205  1.00  0.00     0.251 C 
ATOM     33  H   UNL A   1      38.143  21.893  25.491  1.00  0.00     0.163 HD
ATOM     34  O   UNL A   1      40.482  22.315  26.055  1.00  0.00    -0.269 OA
BRANCH  32  35
ATOM     35  C   UNL A   1      39.796  24.391  26.900  1.00  0.00     0.039 A 
ATOM     36  C   UNL A   1      40.479  25.415  26.239  1.00  0.00     0.014 A 
ATOM     37  C   UNL A   1      39.351  24.559  28.216  1.00  0.00     0.014 A 
ATOM     38  C   UNL A   1      40.695  26.628  26.893  1.00  0.00     0.010 A 
ATOM     39  C   UNL A   1      39.517  25.786  28.844  1.00  0.00     0.010 A 
ATOM     40  C   UNL A   1      40.210  26.819  28.196  1.00  0.00    -0.014 A 
BRANCH  40  41
ATOM     41  C   UNL A   1      40.500  28.059  28.950  1.00  0.00     0.031 A 
ATOM     42  C   UNL A   1      41.814  28.179  29.666  1.00  0.00     0.074 A 
ATOM     43  C   UNL A   1      39.579  29.034  29.037  1.00  0.00     0.049 A 
ATOM     44  N   UNL A   1      42.240  29.121  30.466  1.00  0.00    -0.248 NA
ATOM     45  C   UNL A   1      42.771  27.077  29.469  1.00  0.00     0.031 C 
ATOM     46  C   UNL A   1      38.270  29.026  28.383  1.00  0.00     0.029 A 
ATOM     47  N   UNL A   1      39.602  30.218  29.728  1.00  0.00    -0.354 N 
ATOM     48  C   UNL A   1      43.509  28.725  30.867  1.00  0.00     0.074 A 
ATOM     49  C   UNL A   1      43.760  27.432  30.272  1.00  0.00     0.031 C 
ATOM     50  C   UNL A   1      37.615  30.155  28.705  1.00  0.00     0.029 A 
ATOM     51  C   UNL A   1      38.442  30.943  29.616  1.00  0.00     0.049 A 
ATOM     52  H   UNL A   1      40.376  30.519  30.257  1.00  0.00     0.167 HD
ATOM     53  C   UNL A   1      44.393  29.390  31.647  1.00  0.00     0.037 A 
ATOM     54  C   UNL A   1      38.086  32.104  30.199  1.00  0.00     0.037 A 
ATOM     55  C   UNL A   1      44.133  30.674  32.242  1.00  0.00     0.049 A 
ATOM     56  C   UNL A   1      39.057  32.785  31.128  1.00  0.00     0.074 A 
ATOM     57  C   UNL A   1      44.965  31.442  33.034  1.00  0.00     0.029 A 
ATOM     58  N   UNL A   1      42.941  31.371  32.115  1.00  0.00    -0.354 N 
ATOM     59  N   UNL A   1      40.270  32.425  31.468  1.00  0.00    -0.248 NA
ATOM     60  C   UNL A   1      38.607  34.038  31.752  1.00  0.00     0.031 C 
ATOM     61  C   UNL A   1      44.257  32.580  33.433  1.00  0.00     0.029 A 
ATOM     62  C   UNL A   1      43.006  32.550  32.836  1.00  0.00     0.049 A 
ATOM     63  H   UNL A   1      42.163  31.071  31.591  1.00  0.00     0.167 HD
ATOM     64  C   UNL A   1      40.745  33.426  32.308  1.00  0.00     0.074 A 
ATOM     65  C   UNL A   1      39.688  34.408  32.425  1.00  0.00     0.031 C 
ATOM     66  C   UNL A   1      41.950  33.527  32.922  1.00  0.00     0.037 A 
BRANCH  53  67
ATOM     67  C   UNL A   1      45.715  28.727  31.905  1.00  0.00     0.057 A 
ATOM     68  C   UNL A   1      46.794  28.918  31.036  1.00  0.00     0.134 A 
ATOM     69  C   UNL A   1      45.918  27.893  33.014  1.00  0.00     0.134 A 
ATOM     70  F   UNL A   1      46.667  29.700  29.953  1.00  0.00    -0.206 F 
ATOM     71  C   UNL A   1      48.030  28.310  31.260  1.00  0.00     0.040 A 
ATOM     72  C   UNL A   1      47.159  27.304  33.267  1.00  0.00     0.040 A 
ATOM     73  F   UNL A   1      44.929  27.679  33.895  1.00  0.00    -0.206 F 
ATOM     74  C   UNL A   1      48.217  27.508  32.384  1.00  0.00     0.006 A 
ENDBRANCH  53  67
BRANCH  54  75
ATOM     75  C   UNL A   1      36.755  32.705  29.928  1.00  0.00     0.057 A 
ATOM     76  C   UNL A   1      36.559  33.612  28.881  1.00  0.00     0.134 A 
ATOM     77  C   UNL A   1      35.635  32.348  30.689  1.00  0.00     0.134 A 
ATOM     78  F   UNL A   1      37.592  34.000  28.117  1.00  0.00    -0.206 F 
ATOM     79  C   UNL A   1      35.299  34.141  28.597  1.00  0.00     0.040 A 
ATOM     80  C   UNL A   1      34.364  32.848  30.400  1.00  0.00     0.040 A 
ATOM     81  F   UNL A   1      35.755  31.469  31.694  1.00  0.00    -0.206 F 
ATOM     82  C   UNL A   1      34.194  33.749  29.351  1.00  0.00     0.006 A 
ENDBRANCH  54  75
BRANCH  66  83
ATOM     83  C   UNL A   1      42.218  34.770  33.719  1.00  0.00     0.057 A 
ATOM     84  C   UNL A   1      42.872  35.860  33.127  1.00  0.00     0.134 A 
ATOM     85  C   UNL A   1      41.887  34.874  35.075  1.00  0.00     0.134 A 
ATOM     86  F   UNL A   1      43.226  35.822  31.834  1.00  0.00    -0.206 F 
ATOM     87  C   UNL A   1      43.197  37.002  33.859  1.00  0.00     0.040 A 
ATOM     88  C   UNL A   1      42.180  36.023  35.810  1.00  0.00     0.040 A 
ATOM     89  F   UNL A   1      41.248  33.872  35.698  1.00  0.00    -0.206 F 
ATOM     90  C   UNL A   1      42.846  37.088  35.204  1.00  0.00     0.006 A 
ENDBRANCH  66  83
ENDBRANCH  40  41
ENDBRANCH  32  35
ENDBRANCH  30  31
ENDBRANCH  29  30
ENDBRANCH  28  29
ENDBRANCH   1  28
TORSDOF 16
ENDMDL
