MODEL 1
REMARK VINA RESULT:     -12.2      0.000      0.000
REMARK SMILES CC1(C)S[C@H](c2ccc(-c3cccc([N+](=O)[O-])c3)o2)[NH2+][C@@H]1C(=O)NCCCCCCNC(=O)c1ccc(-c2c3nc(c(-c4c(F)cccc4F)c4ccc([nH]4)c(-c4c(F)cccc4F)c4nc(c(-c5c(F)cccc5F)c5ccc2[nH]5)C=C4)C=C3)cc1
REMARK SMILES IDX 27 1 26 2 25 3 24 4 22 5 23 6 21 8 1 9 2 10 3 11 4 12 5 13
REMARK SMILES IDX 20 14 6 17 7 18 19 19 8 20 9 21 10 22 11 23 18 24 12 25
REMARK SMILES IDX 14 26 13 27 15 28 16 29 17 30 28 31 29 32 30 33 31 34 32 35
REMARK SMILES IDX 33 37 34 38 35 39 87 40 36 41 86 42 37 43 38 44 39 45 80 46
REMARK SMILES IDX 40 47 85 48 79 49 81 50 41 51 84 52 78 53 77 54 42 56 68 57
REMARK SMILES IDX 51 58 67 59 52 60 55 61 66 62 82 63 53 64 54 65 65 67 83 68
REMARK SMILES IDX 56 69 43 70 44 71 49 72 45 73 46 74 48 75 50 76 47 77 69 78
REMARK SMILES IDX 70 79 75 80 71 81 72 82 74 83 76 84 73 85 57 86 58 87 63 88
REMARK SMILES IDX 59 89 60 90 62 91 64 92 61 93
REMARK H PARENT 24 7 20 15 20 16 31 36 81 55 55 66
REMARK Flexibility Score: inf
ROOT
ATOM      1  C   UNL A   1      33.017  29.998  27.019  1.00  0.00     0.002 C 
ENDROOT
BRANCH   1   2
ATOM      2  C   UNL A   1      32.853  28.534  27.428  1.00  0.00     0.021 C 
BRANCH   2   3
ATOM      3  C   UNL A   1      31.411  28.030  27.448  1.00  0.00     0.116 C 
BRANCH   3   4
ATOM      4  N   UNL A   1      31.255  26.721  26.842  1.00  0.00    -0.351 N 
ATOM      5  C   UNL A   1      31.480  26.372  25.533  1.00  0.00     0.279 C 
ATOM      6  O   UNL A   1      31.423  25.177  25.250  1.00  0.00    -0.268 OA
ATOM      7  H   UNL A   1      30.953  25.998  27.439  1.00  0.00     0.163 HD
BRANCH   5   8
ATOM      8  C   UNL A   1      31.671  27.507  24.497  1.00  0.00     0.289 C 
ATOM      9  C   UNL A   1      30.615  29.093  22.830  1.00  0.00     0.030 C 
ATOM     10  C   UNL A   1      30.670  27.630  23.322  1.00  0.00     0.078 C 
ATOM     11  C   UNL A   1      29.235  27.162  23.570  1.00  0.00     0.030 C 
ATOM     12  S   UNL A   1      31.416  26.613  22.003  1.00  0.00    -0.078 SA
ATOM     13  C   UNL A   1      33.050  26.571  22.766  1.00  0.00     0.311 C 
ATOM     14  N   UNL A   1      33.057  27.465  23.928  1.00  0.00    -0.317 N 
ATOM     15  H   UNL A   1      33.340  28.402  23.641  1.00  0.00     0.348 HD
ATOM     16  H   UNL A   1      33.715  27.126  24.630  1.00  0.00     0.348 HD
BRANCH  13  17
ATOM     17  C   UNL A   1      33.549  25.169  22.976  1.00  0.00     0.172 A 
ATOM     18  C   UNL A   1      33.128  23.988  22.391  1.00  0.00     0.054 A 
ATOM     19  O   UNL A   1      34.595  24.902  23.830  1.00  0.00    -0.454 OA
ATOM     20  C   UNL A   1      33.956  22.960  22.888  1.00  0.00     0.051 A 
ATOM     21  C   UNL A   1      34.839  23.554  23.763  1.00  0.00     0.134 A 
BRANCH  21  22
ATOM     22  C   UNL A   1      35.980  23.028  24.503  1.00  0.00     0.024 A 
ATOM     23  C   UNL A   1      36.853  23.861  25.219  1.00  0.00     0.012 A 
ATOM     24  C   UNL A   1      36.232  21.647  24.477  1.00  0.00     0.097 A 
ATOM     25  C   UNL A   1      37.961  23.326  25.894  1.00  0.00     0.008 A 
ATOM     26  C   UNL A   1      37.358  21.120  25.129  1.00  0.00     0.270 A 
ATOM     27  C   UNL A   1      38.220  21.953  25.850  1.00  0.00     0.085 A 
BRANCH  26  28
ATOM     28  N   UNL A   1      37.663  19.691  24.996  1.00  0.00     0.062 N 
ATOM     29  O   UNL A   1      36.713  18.914  24.829  1.00  0.00    -0.258 OA
ATOM     30  O   UNL A   1      38.854  19.351  25.057  1.00  0.00    -0.258 OA
ENDBRANCH  26  28
ENDBRANCH  21  22
ENDBRANCH  13  17
ENDBRANCH   5   8
ENDBRANCH   3   4
ENDBRANCH   2   3
ENDBRANCH   1   2
BRANCH   1  31
ATOM     31  C   UNL A   1      31.760  30.634  26.439  1.00  0.00     0.002 C 
BRANCH  31  32
ATOM     32  C   UNL A   1      31.481  32.080  26.817  1.00  0.00     0.021 C 
BRANCH  32  33
ATOM     33  C   UNL A   1      32.734  32.908  27.024  1.00  0.00     0.116 C 
BRANCH  33  34
ATOM     34  N   UNL A   1      32.480  34.195  27.658  1.00  0.00    -0.352 N 
ATOM     35  C   UNL A   1      33.123  34.770  28.727  1.00  0.00     0.251 C 
ATOM     36  H   UNL A   1      31.749  34.725  27.266  1.00  0.00     0.163 HD
ATOM     37  O   UNL A   1      32.729  35.830  29.191  1.00  0.00    -0.269 OA
BRANCH  35  38
ATOM     38  C   UNL A   1      34.293  34.084  29.315  1.00  0.00     0.039 A 
ATOM     39  C   UNL A   1      34.089  33.042  30.219  1.00  0.00     0.014 A 
ATOM     40  C   UNL A   1      35.588  34.462  28.954  1.00  0.00     0.014 A 
ATOM     41  C   UNL A   1      35.191  32.353  30.728  1.00  0.00     0.010 A 
ATOM     42  C   UNL A   1      36.670  33.698  29.362  1.00  0.00     0.010 A 
ATOM     43  C   UNL A   1      36.489  32.662  30.284  1.00  0.00    -0.014 A 
BRANCH  43  44
ATOM     44  C   UNL A   1      37.677  31.956  30.822  1.00  0.00     0.031 A 
ATOM     45  C   UNL A   1      38.176  32.285  32.204  1.00  0.00     0.074 A 
ATOM     46  C   UNL A   1      38.330  31.063  30.055  1.00  0.00     0.049 A 
ATOM     47  N   UNL A   1      39.211  31.806  32.847  1.00  0.00    -0.248 NA
ATOM     48  C   UNL A   1      37.440  33.320  32.952  1.00  0.00     0.031 C 
ATOM     49  C   UNL A   1      37.983  30.713  28.676  1.00  0.00     0.029 A 
ATOM     50  N   UNL A   1      39.423  30.284  30.330  1.00  0.00    -0.354 N 
ATOM     51  C   UNL A   1      39.253  32.489  34.056  1.00  0.00     0.074 A 
ATOM     52  C   UNL A   1      38.196  33.472  34.027  1.00  0.00     0.031 C 
ATOM     53  C   UNL A   1      38.819  29.757  28.242  1.00  0.00     0.029 A 
ATOM     54  C   UNL A   1      39.781  29.453  29.296  1.00  0.00     0.049 A 
ATOM     55  H   UNL A   1      39.908  30.316  31.187  1.00  0.00     0.167 HD
ATOM     56  C   UNL A   1      40.074  32.290  35.114  1.00  0.00     0.037 A 
ATOM     57  C   UNL A   1      40.770  28.543  29.216  1.00  0.00     0.037 A 
ATOM     58  C   UNL A   1      41.101  31.284  35.152  1.00  0.00     0.049 A 
ATOM     59  C   UNL A   1      41.657  28.327  30.412  1.00  0.00     0.074 A 
ATOM     60  C   UNL A   1      41.946  30.951  36.194  1.00  0.00     0.029 A 
ATOM     61  N   UNL A   1      41.419  30.445  34.092  1.00  0.00    -0.354 N 
ATOM     62  N   UNL A   1      41.636  28.925  31.579  1.00  0.00    -0.248 NA
ATOM     63  C   UNL A   1      42.698  27.300  30.281  1.00  0.00     0.031 C 
ATOM     64  C   UNL A   1      42.810  29.945  35.749  1.00  0.00     0.029 A 
ATOM     65  C   UNL A   1      42.464  29.611  34.449  1.00  0.00     0.049 A 
ATOM     66  H   UNL A   1      40.968  30.445  33.217  1.00  0.00     0.167 HD
ATOM     67  C   UNL A   1      42.640  28.328  32.330  1.00  0.00     0.074 A 
ATOM     68  C   UNL A   1      43.233  27.305  31.492  1.00  0.00     0.031 C 
ATOM     69  C   UNL A   1      43.041  28.601  33.597  1.00  0.00     0.037 A 
BRANCH  56  70
ATOM     70  C   UNL A   1      39.880  33.171  36.316  1.00  0.00     0.057 A 
ATOM     71  C   UNL A   1      40.592  34.367  36.484  1.00  0.00     0.134 A 
ATOM     72  C   UNL A   1      38.960  32.827  37.314  1.00  0.00     0.134 A 
ATOM     73  F   UNL A   1      41.502  34.750  35.574  1.00  0.00    -0.206 F 
ATOM     74  C   UNL A   1      40.420  35.171  37.611  1.00  0.00     0.040 A 
ATOM     75  C   UNL A   1      38.755  33.638  38.432  1.00  0.00     0.040 A 
ATOM     76  F   UNL A   1      38.242  31.698  37.219  1.00  0.00    -0.206 F 
ATOM     77  C   UNL A   1      39.494  34.810  38.587  1.00  0.00     0.006 A 
ENDBRANCH  56  70
BRANCH  57  78
ATOM     78  C   UNL A   1      40.948  27.741  27.979  1.00  0.00     0.057 A 
ATOM     79  C   UNL A   1      41.720  28.219  26.913  1.00  0.00     0.134 A 
ATOM     80  C   UNL A   1      40.345  26.488  27.824  1.00  0.00     0.134 A 
ATOM     81  F   UNL A   1      42.311  29.421  26.993  1.00  0.00    -0.206 F 
ATOM     82  C   UNL A   1      41.863  27.494  25.728  1.00  0.00     0.040 A 
ATOM     83  C   UNL A   1      40.502  25.739  26.657  1.00  0.00     0.040 A 
ATOM     84  F   UNL A   1      39.600  25.968  28.811  1.00  0.00    -0.206 F 
ATOM     85  C   UNL A   1      41.256  26.247  25.601  1.00  0.00     0.006 A 
ENDBRANCH  57  78
BRANCH  69  86
ATOM     86  C   UNL A   1      44.153  27.760  34.155  1.00  0.00     0.057 A 
ATOM     87  C   UNL A   1      45.492  28.164  34.089  1.00  0.00     0.134 A 
ATOM     88  C   UNL A   1      43.876  26.537  34.779  1.00  0.00     0.134 A 
ATOM     89  F   UNL A   1      45.826  29.321  33.496  1.00  0.00    -0.206 F 
ATOM     90  C   UNL A   1      46.520  27.364  34.588  1.00  0.00     0.040 A 
ATOM     91  C   UNL A   1      44.892  25.743  35.312  1.00  0.00     0.040 A 
ATOM     92  F   UNL A   1      42.613  26.097  34.889  1.00  0.00    -0.206 F 
ATOM     93  C   UNL A   1      46.220  26.151  35.206  1.00  0.00     0.006 A 
ENDBRANCH  69  86
ENDBRANCH  43  44
ENDBRANCH  35  38
ENDBRANCH  33  34
ENDBRANCH  32  33
ENDBRANCH  31  32
ENDBRANCH   1  31
TORSDOF 16
ENDMDL
MODEL 2
REMARK VINA RESULT:     -12.1      2.053      2.691
REMARK SMILES CC1(C)S[C@H](c2ccc(-c3cccc([N+](=O)[O-])c3)o2)[NH2+][C@@H]1C(=O)NCCCCCCNC(=O)c1ccc(-c2c3nc(c(-c4c(F)cccc4F)c4ccc([nH]4)c(-c4c(F)cccc4F)c4nc(c(-c5c(F)cccc5F)c5ccc2[nH]5)C=C4)C=C3)cc1
REMARK SMILES IDX 27 1 26 2 25 3 24 4 22 5 23 6 21 8 1 9 2 10 3 11 4 12 5 13
REMARK SMILES IDX 20 14 6 17 7 18 19 19 8 20 9 21 10 22 11 23 18 24 12 25
REMARK SMILES IDX 14 26 13 27 15 28 16 29 17 30 28 31 29 32 30 33 31 34 32 35
REMARK SMILES IDX 33 37 34 38 35 39 87 40 36 41 86 42 37 43 38 44 39 45 80 46
REMARK SMILES IDX 40 47 85 48 79 49 81 50 41 51 84 52 78 53 77 54 42 56 68 57
REMARK SMILES IDX 51 58 67 59 52 60 55 61 66 62 82 63 53 64 54 65 65 67 83 68
REMARK SMILES IDX 56 69 43 70 44 71 49 72 45 73 46 74 48 75 50 76 47 77 69 78
REMARK SMILES IDX 70 79 75 80 71 81 72 82 74 83 76 84 73 85 57 86 58 87 63 88
REMARK SMILES IDX 59 89 60 90 62 91 64 92 61 93
REMARK H PARENT 24 7 20 15 20 16 31 36 81 55 55 66
REMARK Flexibility Score: inf
ROOT
ATOM      1  C   UNL A   1      32.935  29.671  26.272  1.00  0.00     0.002 C 
ENDROOT
BRANCH   1   2
ATOM      2  C   UNL A   1      32.648  28.620  27.344  1.00  0.00     0.021 C 
BRANCH   2   3
ATOM      3  C   UNL A   1      31.311  27.897  27.193  1.00  0.00     0.116 C 
BRANCH   3   4
ATOM      4  N   UNL A   1      31.450  26.458  27.067  1.00  0.00    -0.351 N 
ATOM      5  C   UNL A   1      31.911  25.754  25.982  1.00  0.00     0.279 C 
ATOM      6  O   UNL A   1      32.083  24.545  26.126  1.00  0.00    -0.268 OA
ATOM      7  H   UNL A   1      31.183  25.924  27.850  1.00  0.00     0.163 HD
BRANCH   5   8
ATOM      8  C   UNL A   1      32.067  26.505  24.637  1.00  0.00     0.289 C 
ATOM      9  C   UNL A   1      31.067  27.130  22.397  1.00  0.00     0.030 C 
ATOM     10  C   UNL A   1      31.324  25.972  23.387  1.00  0.00     0.078 C 
ATOM     11  C   UNL A   1      30.000  25.242  23.615  1.00  0.00     0.030 C 
ATOM     12  S   UNL A   1      32.520  24.825  22.622  1.00  0.00    -0.078 SA
ATOM     13  C   UNL A   1      33.936  25.467  23.537  1.00  0.00     0.311 C 
ATOM     14  N   UNL A   1      33.518  26.655  24.290  1.00  0.00    -0.317 N 
ATOM     15  H   UNL A   1      33.651  27.489  23.720  1.00  0.00     0.348 HD
ATOM     16  H   UNL A   1      34.075  26.747  25.140  1.00  0.00     0.348 HD
BRANCH  13  17
ATOM     17  C   UNL A   1      34.663  24.394  24.297  1.00  0.00     0.172 A 
ATOM     18  C   UNL A   1      35.509  24.505  25.387  1.00  0.00     0.054 A 
ATOM     19  O   UNL A   1      34.519  23.065  23.971  1.00  0.00    -0.454 OA
ATOM     20  C   UNL A   1      35.884  23.198  25.756  1.00  0.00     0.051 A 
ATOM     21  C   UNL A   1      35.262  22.344  24.872  1.00  0.00     0.134 A 
BRANCH  21  22
ATOM     22  C   UNL A   1      35.193  20.889  24.806  1.00  0.00     0.024 A 
ATOM     23  C   UNL A   1      36.336  20.082  24.902  1.00  0.00     0.012 A 
ATOM     24  C   UNL A   1      33.945  20.274  24.611  1.00  0.00     0.097 A 
ATOM     25  C   UNL A   1      36.238  18.686  24.802  1.00  0.00     0.008 A 
ATOM     26  C   UNL A   1      33.856  18.879  24.482  1.00  0.00     0.270 A 
ATOM     27  C   UNL A   1      34.997  18.078  24.589  1.00  0.00     0.085 A 
BRANCH  26  28
ATOM     28  N   UNL A   1      32.560  18.267  24.168  1.00  0.00     0.062 N 
ATOM     29  O   UNL A   1      31.935  17.737  25.097  1.00  0.00    -0.258 OA
ATOM     30  O   UNL A   1      32.170  18.320  22.993  1.00  0.00    -0.258 OA
ENDBRANCH  26  28
ENDBRANCH  21  22
ENDBRANCH  13  17
ENDBRANCH   5   8
ENDBRANCH   3   4
ENDBRANCH   2   3
ENDBRANCH   1   2
BRANCH   1  31
ATOM     31  C   UNL A   1      31.764  30.597  25.969  1.00  0.00     0.002 C 
BRANCH  31  32
ATOM     32  C   UNL A   1      31.549  31.768  26.917  1.00  0.00     0.021 C 
BRANCH  32  33
ATOM     33  C   UNL A   1      32.716  32.734  26.967  1.00  0.00     0.116 C 
BRANCH  33  34
ATOM     34  N   UNL A   1      32.424  33.957  27.703  1.00  0.00    -0.352 N 
ATOM     35  C   UNL A   1      33.140  34.542  28.719  1.00  0.00     0.251 C 
ATOM     36  H   UNL A   1      31.603  34.429  27.434  1.00  0.00     0.163 HD
ATOM     37  O   UNL A   1      32.709  35.533  29.290  1.00  0.00    -0.269 OA
BRANCH  35  38
ATOM     38  C   UNL A   1      34.434  33.949  29.120  1.00  0.00     0.039 A 
ATOM     39  C   UNL A   1      34.478  33.081  30.210  1.00  0.00     0.014 A 
ATOM     40  C   UNL A   1      35.596  34.240  28.401  1.00  0.00     0.014 A 
ATOM     41  C   UNL A   1      35.687  32.473  30.552  1.00  0.00     0.010 A 
ATOM     42  C   UNL A   1      36.763  33.542  28.664  1.00  0.00     0.010 A 
ATOM     43  C   UNL A   1      36.834  32.682  29.766  1.00  0.00    -0.014 A 
BRANCH  43  44
ATOM     44  C   UNL A   1      38.134  32.061  30.116  1.00  0.00     0.031 A 
ATOM     45  C   UNL A   1      39.069  32.773  31.058  1.00  0.00     0.074 A 
ATOM     46  C   UNL A   1      38.490  30.891  29.555  1.00  0.00     0.049 A 
ATOM     47  N   UNL A   1      40.260  32.418  31.468  1.00  0.00    -0.248 NA
ATOM     48  C   UNL A   1      38.627  34.080  31.578  1.00  0.00     0.031 C 
ATOM     49  C   UNL A   1      37.700  30.142  28.577  1.00  0.00     0.029 A 
ATOM     50  N   UNL A   1      39.613  30.125  29.732  1.00  0.00    -0.354 N 
ATOM     51  C   UNL A   1      40.706  33.458  32.275  1.00  0.00     0.074 A 
ATOM     52  C   UNL A   1      39.701  34.493  32.231  1.00  0.00     0.031 C 
ATOM     53  C   UNL A   1      38.342  29.003  28.273  1.00  0.00     0.029 A 
ATOM     54  C   UNL A   1      39.602  28.958  29.006  1.00  0.00     0.049 A 
ATOM     55  H   UNL A   1      40.358  30.385  30.321  1.00  0.00     0.167 HD
ATOM     56  C   UNL A   1      41.836  33.529  33.019  1.00  0.00     0.037 A 
ATOM     57  C   UNL A   1      40.507  27.962  28.950  1.00  0.00     0.037 A 
ATOM     58  C   UNL A   1      42.816  32.479  33.088  1.00  0.00     0.049 A 
ATOM     59  C   UNL A   1      41.745  28.057  29.799  1.00  0.00     0.074 A 
ATOM     60  C   UNL A   1      43.962  32.418  33.857  1.00  0.00     0.029 A 
ATOM     61  N   UNL A   1      42.759  31.302  32.355  1.00  0.00    -0.354 N 
ATOM     62  N   UNL A   1      42.118  29.010  30.619  1.00  0.00    -0.248 NA
ATOM     63  C   UNL A   1      42.682  26.929  29.723  1.00  0.00     0.031 C 
ATOM     64  C   UNL A   1      44.626  31.225  33.554  1.00  0.00     0.029 A 
ATOM     65  C   UNL A   1      43.863  30.517  32.639  1.00  0.00     0.049 A 
ATOM     66  H   UNL A   1      42.040  31.061  31.727  1.00  0.00     0.167 HD
ATOM     67  C   UNL A   1      43.317  28.585  31.177  1.00  0.00     0.074 A 
ATOM     68  C   UNL A   1      43.594  27.277  30.619  1.00  0.00     0.031 C 
ATOM     69  C   UNL A   1      44.120  29.218  32.068  1.00  0.00     0.037 A 
BRANCH  56  70
ATOM     70  C   UNL A   1      42.057  34.780  33.823  1.00  0.00     0.057 A 
ATOM     71  C   UNL A   1      41.610  34.900  35.147  1.00  0.00     0.134 A 
ATOM     72  C   UNL A   1      42.736  35.873  33.273  1.00  0.00     0.134 A 
ATOM     73  F   UNL A   1      40.937  33.896  35.731  1.00  0.00    -0.206 F 
ATOM     74  C   UNL A   1      41.802  36.071  35.882  1.00  0.00     0.040 A 
ATOM     75  C   UNL A   1      42.962  37.039  34.008  1.00  0.00     0.040 A 
ATOM     76  F   UNL A   1      43.194  35.829  32.013  1.00  0.00    -0.206 F 
ATOM     77  C   UNL A   1      42.487  37.143  35.314  1.00  0.00     0.006 A 
ENDBRANCH  56  70
BRANCH  57  78
ATOM     78  C   UNL A   1      40.259  26.776  28.092  1.00  0.00     0.057 A 
ATOM     79  C   UNL A   1      40.807  26.686  26.807  1.00  0.00     0.134 A 
ATOM     80  C   UNL A   1      39.461  25.712  28.526  1.00  0.00     0.134 A 
ATOM     81  F   UNL A   1      41.568  27.681  26.326  1.00  0.00    -0.206 F 
ATOM     82  C   UNL A   1      40.550  25.595  25.974  1.00  0.00     0.040 A 
ATOM     83  C   UNL A   1      39.218  24.602  27.716  1.00  0.00     0.040 A 
ATOM     84  F   UNL A   1      38.913  25.731  29.750  1.00  0.00    -0.206 F 
ATOM     85  C   UNL A   1      39.755  24.546  26.431  1.00  0.00     0.006 A 
ENDBRANCH  57  78
BRANCH  69  86
ATOM     86  C   UNL A   1      45.356  28.487  32.509  1.00  0.00     0.057 A 
ATOM     87  C   UNL A   1      46.586  28.651  31.860  1.00  0.00     0.134 A 
ATOM     88  C   UNL A   1      45.315  27.619  33.608  1.00  0.00     0.134 A 
ATOM     89  F   UNL A   1      46.691  29.462  30.795  1.00  0.00    -0.206 F 
ATOM     90  C   UNL A   1      47.722  27.949  32.262  1.00  0.00     0.040 A 
ATOM     91  C   UNL A   1      46.451  26.936  34.040  1.00  0.00     0.040 A 
ATOM     92  F   UNL A   1      44.172  27.426  34.283  1.00  0.00    -0.206 F 
ATOM     93  C   UNL A   1      47.657  27.091  33.359  1.00  0.00     0.006 A 
ENDBRANCH  69  86
ENDBRANCH  43  44
ENDBRANCH  35  38
ENDBRANCH  33  34
ENDBRANCH  32  33
ENDBRANCH  31  32
ENDBRANCH   1  31
TORSDOF 16
ENDMDL
MODEL 3
REMARK VINA RESULT:     -12.0      4.417     10.348
REMARK SMILES CC1(C)S[C@H](c2ccc(-c3cccc([N+](=O)[O-])c3)o2)[NH2+][C@@H]1C(=O)NCCCCCCNC(=O)c1ccc(-c2c3nc(c(-c4c(F)cccc4F)c4ccc([nH]4)c(-c4c(F)cccc4F)c4nc(c(-c5c(F)cccc5F)c5ccc2[nH]5)C=C4)C=C3)cc1
REMARK SMILES IDX 27 1 26 2 25 3 24 4 22 5 23 6 21 8 1 9 2 10 3 11 4 12 5 13
REMARK SMILES IDX 20 14 6 17 7 18 19 19 8 20 9 21 10 22 11 23 18 24 12 25
REMARK SMILES IDX 14 26 13 27 15 28 16 29 17 30 28 31 29 32 30 33 31 34 32 35
REMARK SMILES IDX 33 37 34 38 35 39 87 40 36 41 86 42 37 43 38 44 39 45 80 46
REMARK SMILES IDX 40 47 85 48 79 49 81 50 41 51 84 52 78 53 77 54 42 56 68 57
REMARK SMILES IDX 51 58 67 59 52 60 55 61 66 62 82 63 53 64 54 65 65 67 83 68
REMARK SMILES IDX 56 69 43 70 44 71 49 72 45 73 46 74 48 75 50 76 47 77 69 78
REMARK SMILES IDX 70 79 75 80 71 81 72 82 74 83 76 84 73 85 57 86 58 87 63 88
REMARK SMILES IDX 59 89 60 90 62 91 64 92 61 93
REMARK H PARENT 24 7 20 15 20 16 31 36 81 55 55 66
REMARK Flexibility Score: inf
ROOT
ATOM      1  C   UNL A   1      37.008  21.826  24.971  1.00  0.00     0.002 C 
ENDROOT
BRANCH   1   2
ATOM      2  C   UNL A   1      36.713  22.491  23.627  1.00  0.00     0.021 C 
BRANCH   2   3
ATOM      3  C   UNL A   1      36.012  23.845  23.721  1.00  0.00     0.116 C 
BRANCH   3   4
ATOM      4  N   UNL A   1      34.678  23.839  23.150  1.00  0.00    -0.351 N 
ATOM      5  C   UNL A   1      33.485  24.004  23.810  1.00  0.00     0.279 C 
ATOM      6  O   UNL A   1      32.470  24.106  23.123  1.00  0.00    -0.268 OA
ATOM      7  H   UNL A   1      34.621  23.701  22.177  1.00  0.00     0.163 HD
BRANCH   5   8
ATOM      8  C   UNL A   1      33.490  23.934  25.357  1.00  0.00     0.289 C 
ATOM      9  C   UNL A   1      32.630  22.816  27.459  1.00  0.00     0.030 C 
ATOM     10  C   UNL A   1      32.230  23.411  26.090  1.00  0.00     0.078 C 
ATOM     11  C   UNL A   1      31.371  22.379  25.359  1.00  0.00     0.030 C 
ATOM     12  S   UNL A   1      31.242  24.915  26.391  1.00  0.00    -0.078 SA
ATOM     13  C   UNL A   1      32.616  26.047  26.097  1.00  0.00     0.311 C 
ATOM     14  N   UNL A   1      33.848  25.268  25.937  1.00  0.00    -0.317 N 
ATOM     15  H   UNL A   1      34.295  25.141  26.844  1.00  0.00     0.348 HD
ATOM     16  H   UNL A   1      34.496  25.758  25.319  1.00  0.00     0.348 HD
BRANCH  13  17
ATOM     17  C   UNL A   1      32.304  27.064  25.036  1.00  0.00     0.172 A 
ATOM     18  C   UNL A   1      33.108  27.553  24.021  1.00  0.00     0.054 A 
ATOM     19  O   UNL A   1      31.058  27.641  24.942  1.00  0.00    -0.454 OA
ATOM     20  C   UNL A   1      32.324  28.448  23.265  1.00  0.00     0.051 A 
ATOM     21  C   UNL A   1      31.079  28.477  23.855  1.00  0.00     0.134 A 
BRANCH  21  22
ATOM     22  C   UNL A   1      29.835  29.135  23.474  1.00  0.00     0.024 A 
ATOM     23  C   UNL A   1      28.665  28.414  23.193  1.00  0.00     0.012 A 
ATOM     24  C   UNL A   1      29.812  30.535  23.357  1.00  0.00     0.097 A 
ATOM     25  C   UNL A   1      27.493  29.078  22.798  1.00  0.00     0.008 A 
ATOM     26  C   UNL A   1      28.646  31.191  22.933  1.00  0.00     0.270 A 
ATOM     27  C   UNL A   1      27.479  30.469  22.663  1.00  0.00     0.085 A 
BRANCH  26  28
ATOM     28  N   UNL A   1      28.676  32.641  22.710  1.00  0.00     0.062 N 
ATOM     29  O   UNL A   1      28.079  33.082  21.718  1.00  0.00    -0.258 OA
ATOM     30  O   UNL A   1      29.297  33.333  23.529  1.00  0.00    -0.258 OA
ENDBRANCH  26  28
ENDBRANCH  21  22
ENDBRANCH  13  17
ENDBRANCH   5   8
ENDBRANCH   3   4
ENDBRANCH   2   3
ENDBRANCH   1   2
BRANCH   1  31
ATOM     31  C   UNL A   1      36.717  20.331  25.011  1.00  0.00     0.002 C 
BRANCH  31  32
ATOM     32  C   UNL A   1      37.915  19.394  24.980  1.00  0.00     0.021 C 
BRANCH  32  33
ATOM     33  C   UNL A   1      39.103  19.897  25.776  1.00  0.00     0.116 C 
BRANCH  33  34
ATOM     34  N   UNL A   1      40.206  18.948  25.832  1.00  0.00    -0.352 N 
ATOM     35  C   UNL A   1      41.529  19.181  26.119  1.00  0.00     0.251 C 
ATOM     36  H   UNL A   1      39.971  18.011  25.640  1.00  0.00     0.163 HD
ATOM     37  O   UNL A   1      42.350  18.278  26.042  1.00  0.00    -0.269 OA
BRANCH  35  38
ATOM     38  C   UNL A   1      41.950  20.543  26.511  1.00  0.00     0.039 A 
ATOM     39  C   UNL A   1      42.333  21.450  25.522  1.00  0.00     0.014 A 
ATOM     40  C   UNL A   1      41.944  20.925  27.854  1.00  0.00     0.014 A 
ATOM     41  C   UNL A   1      42.671  22.755  25.885  1.00  0.00     0.010 A 
ATOM     42  C   UNL A   1      42.158  22.250  28.197  1.00  0.00     0.010 A 
ATOM     43  C   UNL A   1      42.563  23.170  27.224  1.00  0.00    -0.014 A 
BRANCH  43  44
ATOM     44  C   UNL A   1      42.932  24.545  27.638  1.00  0.00     0.031 A 
ATOM     45  C   UNL A   1      44.381  24.957  27.647  1.00  0.00     0.074 A 
ATOM     46  C   UNL A   1      41.977  25.400  28.047  1.00  0.00     0.049 A 
ATOM     47  N   UNL A   1      44.915  26.098  28.002  1.00  0.00    -0.248 NA
ATOM     48  C   UNL A   1      45.367  23.939  27.244  1.00  0.00     0.031 C 
ATOM     49  C   UNL A   1      40.548  25.094  28.148  1.00  0.00     0.029 A 
ATOM     50  N   UNL A   1      42.066  26.706  28.454  1.00  0.00    -0.354 N 
ATOM     51  C   UNL A   1      46.289  25.925  27.877  1.00  0.00     0.074 A 
ATOM     52  C   UNL A   1      46.512  24.550  27.497  1.00  0.00     0.031 C 
ATOM     53  C   UNL A   1      39.891  26.195  28.545  1.00  0.00     0.029 A 
ATOM     54  C   UNL A   1      40.852  27.271  28.761  1.00  0.00     0.049 A 
ATOM     55  H   UNL A   1      42.918  27.195  28.520  1.00  0.00     0.167 HD
ATOM     56  C   UNL A   1      47.275  26.841  28.027  1.00  0.00     0.037 A 
ATOM     57  C   UNL A   1      40.552  28.521  29.162  1.00  0.00     0.037 A 
ATOM     58  C   UNL A   1      47.043  28.218  28.369  1.00  0.00     0.049 A 
ATOM     59  C   UNL A   1      41.664  29.524  29.305  1.00  0.00     0.074 A 
ATOM     60  C   UNL A   1      47.960  29.245  28.484  1.00  0.00     0.029 A 
ATOM     61  N   UNL A   1      45.796  28.759  28.652  1.00  0.00    -0.354 N 
ATOM     62  N   UNL A   1      42.951  29.370  29.107  1.00  0.00    -0.248 NA
ATOM     63  C   UNL A   1      41.277  30.880  29.714  1.00  0.00     0.031 C 
ATOM     64  C   UNL A   1      47.275  30.398  28.883  1.00  0.00     0.029 A 
ATOM     65  C   UNL A   1      45.924  30.101  28.962  1.00  0.00     0.049 A 
ATOM     66  H   UNL A   1      44.947  28.260  28.633  1.00  0.00     0.167 HD
ATOM     67  C   UNL A   1      43.523  30.614  29.340  1.00  0.00     0.074 A 
ATOM     68  C   UNL A   1      42.438  31.515  29.670  1.00  0.00     0.031 C 
ATOM     69  C   UNL A   1      44.829  30.980  29.291  1.00  0.00     0.037 A 
BRANCH  56  70
ATOM     70  C   UNL A   1      48.688  26.378  27.808  1.00  0.00     0.057 A 
ATOM     71  C   UNL A   1      49.485  25.902  28.859  1.00  0.00     0.134 A 
ATOM     72  C   UNL A   1      49.255  26.394  26.528  1.00  0.00     0.134 A 
ATOM     73  F   UNL A   1      49.011  25.874  30.114  1.00  0.00    -0.206 F 
ATOM     74  C   UNL A   1      50.803  25.491  28.651  1.00  0.00     0.040 A 
ATOM     75  C   UNL A   1      50.561  25.956  26.301  1.00  0.00     0.040 A 
ATOM     76  F   UNL A   1      48.551  26.834  25.475  1.00  0.00    -0.206 F 
ATOM     77  C   UNL A   1      51.342  25.511  27.367  1.00  0.00     0.006 A 
ENDBRANCH  56  70
BRANCH  57  78
ATOM     78  C   UNL A   1      39.140  28.904  29.419  1.00  0.00     0.057 A 
ATOM     79  C   UNL A   1      38.568  28.748  30.688  1.00  0.00     0.134 A 
ATOM     80  C   UNL A   1      38.325  29.421  28.406  1.00  0.00     0.134 A 
ATOM     81  F   UNL A   1      39.292  28.242  31.697  1.00  0.00    -0.206 F 
ATOM     82  C   UNL A   1      37.231  29.066  30.933  1.00  0.00     0.040 A 
ATOM     83  C   UNL A   1      36.996  29.771  28.644  1.00  0.00     0.040 A 
ATOM     84  F   UNL A   1      38.814  29.605  27.171  1.00  0.00    -0.206 F 
ATOM     85  C   UNL A   1      36.442  29.584  29.909  1.00  0.00     0.006 A 
ENDBRANCH  57  78
BRANCH  69  86
ATOM     86  C   UNL A   1      45.143  32.420  29.573  1.00  0.00     0.057 A 
ATOM     87  C   UNL A   1      45.186  33.383  28.556  1.00  0.00     0.134 A 
ATOM     88  C   UNL A   1      45.390  32.852  30.883  1.00  0.00     0.134 A 
ATOM     89  F   UNL A   1      44.968  33.034  27.279  1.00  0.00    -0.206 F 
ATOM     90  C   UNL A   1      45.503  34.715  28.826  1.00  0.00     0.040 A 
ATOM     91  C   UNL A   1      45.675  34.186  31.170  1.00  0.00     0.040 A 
ATOM     92  F   UNL A   1      45.351  31.984  31.906  1.00  0.00    -0.206 F 
ATOM     93  C   UNL A   1      45.744  35.120  30.137  1.00  0.00     0.006 A 
ENDBRANCH  69  86
ENDBRANCH  43  44
ENDBRANCH  35  38
ENDBRANCH  33  34
ENDBRANCH  32  33
ENDBRANCH  31  32
ENDBRANCH   1  31
TORSDOF 16
ENDMDL
