MODEL 1
REMARK VINA RESULT:     -12.4      0.000      0.000
REMARK SMILES N#C/C(=C/c1ccc(-c2cccc(C(=O)NCCCCCCNC(=O)c3ccc(-c4c5nc(c(-c6c(F)cccc6F)c6ccc([nH]6)c(-c6c(F)cccc6F)c6nc(c(-c7c(F)cccc7F)c7ccc4[nH]7)C=C6)C=C5)cc3)c2)o1)c1ccc(F)cc1
REMARK SMILES IDX 19 1 18 2 17 3 16 4 14 5 15 6 13 8 9 9 10 10 80 11 11 12
REMARK SMILES IDX 12 13 8 14 5 15 6 16 81 17 7 18 4 19 3 20 2 21 1 22 82 23
REMARK SMILES IDX 83 24 88 25 84 26 87 27 85 28 86 29 20 30 21 31 22 32 23 33
REMARK SMILES IDX 24 34 25 36 26 37 27 38 79 39 28 40 78 41 29 42 30 43 31 44
REMARK SMILES IDX 72 45 32 46 77 47 71 48 73 49 33 50 76 51 70 52 69 53 34 55
REMARK SMILES IDX 60 56 43 57 59 58 44 59 47 60 58 61 74 62 45 63 46 64 57 66
REMARK SMILES IDX 75 67 48 68 35 69 36 70 41 71 37 72 38 73 40 74 42 75 39 76
REMARK SMILES IDX 61 77 62 78 67 79 63 80 64 81 66 82 68 83 65 84 49 85 50 86
REMARK SMILES IDX 55 87 51 88 52 89 54 90 56 91 53 92
REMARK H PARENT 16 7 23 35 73 54 47 65
REMARK Flexibility Score: inf
ROOT
ATOM      1  C   UNL A   1      32.425  29.919  27.229  1.00  0.00     0.002 C 
ENDROOT
BRANCH   1   2
ATOM      2  C   UNL A   1      33.879  29.707  26.815  1.00  0.00     0.021 C 
BRANCH   2   3
ATOM      3  C   UNL A   1      34.151  28.556  25.855  1.00  0.00     0.116 C 
BRANCH   3   4
ATOM      4  N   UNL A   1      34.006  28.884  24.445  1.00  0.00    -0.352 N 
ATOM      5  C   UNL A   1      32.986  28.622  23.548  1.00  0.00     0.251 C 
ATOM      6  O   UNL A   1      33.112  28.995  22.383  1.00  0.00    -0.269 OA
ATOM      7  H   UNL A   1      34.766  29.379  24.062  1.00  0.00     0.163 HD
BRANCH   5   8
ATOM      8  C   UNL A   1      31.772  27.849  23.935  1.00  0.00     0.040 A 
ATOM      9  C   UNL A   1      30.808  25.851  24.932  1.00  0.00     0.018 A 
ATOM     10  C   UNL A   1      29.596  26.119  24.293  1.00  0.00     0.012 A 
ATOM     11  C   UNL A   1      31.835  26.800  24.847  1.00  0.00     0.025 A 
ATOM     12  C   UNL A   1      29.451  27.290  23.535  1.00  0.00     0.002 A 
ATOM     13  C   UNL A   1      30.549  28.131  23.323  1.00  0.00     0.014 A 
BRANCH   9  14
ATOM     14  C   UNL A   1      31.129  24.584  25.579  1.00  0.00     0.134 A 
ATOM     15  C   UNL A   1      31.727  22.437  25.553  1.00  0.00     0.128 A 
ATOM     16  C   UNL A   1      31.978  22.945  26.825  1.00  0.00     0.051 A 
ATOM     17  O   UNL A   1      31.233  23.474  24.784  1.00  0.00    -0.457 OA
ATOM     18  C   UNL A   1      31.544  24.283  26.855  1.00  0.00     0.051 A 
BRANCH  15  19
ATOM     19  C   UNL A   1      31.861  21.085  25.102  1.00  0.00     0.067 C 
ATOM     20  C   UNL A   1      33.031  20.631  24.605  1.00  0.00     0.063 C 
BRANCH  20  21
ATOM     21  C   UNL A   1      33.181  19.222  24.055  1.00  0.00     0.100 C 
ATOM     22  N   UNL A   1      33.306  18.053  23.598  1.00  0.00    -0.192 NA
ENDBRANCH  20  21
BRANCH  20  23
ATOM     23  C   UNL A   1      34.283  21.448  24.624  1.00  0.00    -0.007 A 
ATOM     24  C   UNL A   1      35.265  21.235  25.615  1.00  0.00     0.012 A 
ATOM     25  C   UNL A   1      34.480  22.482  23.696  1.00  0.00     0.012 A 
ATOM     26  C   UNL A   1      36.358  22.094  25.735  1.00  0.00     0.040 A 
ATOM     27  C   UNL A   1      35.593  23.322  23.802  1.00  0.00     0.040 A 
ATOM     28  C   UNL A   1      36.508  23.135  24.832  1.00  0.00     0.123 A 
ATOM     29  F   UNL A   1      37.541  23.977  24.961  1.00  0.00    -0.207 F 
ENDBRANCH  20  23
ENDBRANCH  15  19
ENDBRANCH   9  14
ENDBRANCH   5   8
ENDBRANCH   3   4
ENDBRANCH   2   3
ENDBRANCH   1   2
BRANCH   1  30
ATOM     30  C   UNL A   1      31.551  30.717  26.259  1.00  0.00     0.002 C 
BRANCH  30  31
ATOM     31  C   UNL A   1      31.430  32.218  26.530  1.00  0.00     0.021 C 
BRANCH  31  32
ATOM     32  C   UNL A   1      32.578  32.840  27.318  1.00  0.00     0.116 C 
BRANCH  32  33
ATOM     33  N   UNL A   1      32.342  34.235  27.648  1.00  0.00    -0.352 N 
ATOM     34  C   UNL A   1      32.956  35.026  28.589  1.00  0.00     0.251 C 
ATOM     35  H   UNL A   1      31.640  34.678  27.120  1.00  0.00     0.163 HD
ATOM     36  O   UNL A   1      32.513  36.139  28.843  1.00  0.00    -0.269 OA
BRANCH  34  37
ATOM     37  C   UNL A   1      34.142  34.522  29.316  1.00  0.00     0.039 A 
ATOM     38  C   UNL A   1      33.969  33.956  30.582  1.00  0.00     0.014 A 
ATOM     39  C   UNL A   1      35.419  34.613  28.756  1.00  0.00     0.014 A 
ATOM     40  C   UNL A   1      35.068  33.422  31.259  1.00  0.00     0.010 A 
ATOM     41  C   UNL A   1      36.500  34.012  29.395  1.00  0.00     0.010 A 
ATOM     42  C   UNL A   1      36.337  33.414  30.655  1.00  0.00    -0.014 A 
BRANCH  42  43
ATOM     43  C   UNL A   1      37.509  32.794  31.325  1.00  0.00     0.031 A 
ATOM     44  C   UNL A   1      38.174  31.591  30.715  1.00  0.00     0.074 A 
ATOM     45  C   UNL A   1      37.932  33.270  32.511  1.00  0.00     0.049 A 
ATOM     46  N   UNL A   1      39.152  30.859  31.185  1.00  0.00    -0.248 NA
ATOM     47  C   UNL A   1      37.654  31.136  29.417  1.00  0.00     0.031 C 
ATOM     48  C   UNL A   1      37.353  34.412  33.222  1.00  0.00     0.029 A 
ATOM     49  N   UNL A   1      38.944  32.847  33.335  1.00  0.00    -0.354 N 
ATOM     50  C   UNL A   1      39.356  29.854  30.247  1.00  0.00     0.074 A 
ATOM     51  C   UNL A   1      38.359  30.033  29.215  1.00  0.00     0.031 C 
ATOM     52  C   UNL A   1      38.036  34.615  34.359  1.00  0.00     0.029 A 
ATOM     53  C   UNL A   1      39.070  33.593  34.482  1.00  0.00     0.049 A 
ATOM     54  H   UNL A   1      39.526  32.082  33.125  1.00  0.00     0.167 HD
ATOM     55  C   UNL A   1      40.303  28.885  30.233  1.00  0.00     0.037 A 
ATOM     56  C   UNL A   1      39.919  33.462  35.520  1.00  0.00     0.037 A 
ATOM     57  C   UNL A   1      41.299  28.717  31.259  1.00  0.00     0.049 A 
ATOM     58  C   UNL A   1      40.931  32.350  35.505  1.00  0.00     0.074 A 
ATOM     59  C   UNL A   1      42.326  27.791  31.319  1.00  0.00     0.029 A 
ATOM     60  N   UNL A   1      41.389  29.489  32.408  1.00  0.00    -0.354 N 
ATOM     61  N   UNL A   1      41.148  31.440  34.586  1.00  0.00    -0.248 NA
ATOM     62  C   UNL A   1      41.820  32.248  36.671  1.00  0.00     0.031 C 
ATOM     63  C   UNL A   1      43.003  27.968  32.531  1.00  0.00     0.029 A 
ATOM     64  C   UNL A   1      42.438  29.044  33.196  1.00  0.00     0.049 A 
ATOM     65  H   UNL A   1      40.795  30.242  32.630  1.00  0.00     0.167 HD
ATOM     66  C   UNL A   1      42.219  30.684  35.044  1.00  0.00     0.074 A 
ATOM     67  C   UNL A   1      42.613  31.246  36.319  1.00  0.00     0.031 C 
ATOM     68  C   UNL A   1      42.826  29.622  34.458  1.00  0.00     0.037 A 
BRANCH  55  69
ATOM     69  C   UNL A   1      40.298  27.934  29.071  1.00  0.00     0.057 A 
ATOM     70  C   UNL A   1      39.527  26.763  29.075  1.00  0.00     0.134 A 
ATOM     71  C   UNL A   1      41.061  28.197  27.926  1.00  0.00     0.134 A 
ATOM     72  F   UNL A   1      38.781  26.444  30.144  1.00  0.00    -0.206 F 
ATOM     73  C   UNL A   1      39.545  25.870  28.001  1.00  0.00     0.040 A 
ATOM     74  C   UNL A   1      41.062  27.330  26.832  1.00  0.00     0.040 A 
ATOM     75  F   UNL A   1      41.817  29.302  27.849  1.00  0.00    -0.206 F 
ATOM     76  C   UNL A   1      40.309  26.157  26.872  1.00  0.00     0.006 A 
ENDBRANCH  55  69
BRANCH  56  77
ATOM     77  C   UNL A   1      39.867  34.423  36.652  1.00  0.00     0.057 A 
ATOM     78  C   UNL A   1      40.585  35.624  36.607  1.00  0.00     0.134 A 
ATOM     79  C   UNL A   1      39.114  34.166  37.804  1.00  0.00     0.134 A 
ATOM     80  F   UNL A   1      41.340  35.919  35.538  1.00  0.00    -0.206 F 
ATOM     81  C   UNL A   1      40.574  36.524  37.674  1.00  0.00     0.040 A 
ATOM     82  C   UNL A   1      39.071  35.070  38.867  1.00  0.00     0.040 A 
ATOM     83  F   UNL A   1      38.396  33.037  37.906  1.00  0.00    -0.206 F 
ATOM     84  C   UNL A   1      39.811  36.250  38.807  1.00  0.00     0.006 A 
ENDBRANCH  56  77
BRANCH  68  85
ATOM     85  C   UNL A   1      44.010  29.026  35.165  1.00  0.00     0.057 A 
ATOM     86  C   UNL A   1      45.319  29.459  34.918  1.00  0.00     0.134 A 
ATOM     87  C   UNL A   1      43.830  28.037  36.140  1.00  0.00     0.134 A 
ATOM     88  F   UNL A   1      45.562  30.393  33.986  1.00  0.00    -0.206 F 
ATOM     89  C   UNL A   1      46.408  28.914  35.601  1.00  0.00     0.040 A 
ATOM     90  C   UNL A   1      44.907  27.507  36.851  1.00  0.00     0.040 A 
ATOM     91  F   UNL A   1      42.601  27.583  36.432  1.00  0.00    -0.206 F 
ATOM     92  C   UNL A   1      46.202  27.941  36.578  1.00  0.00     0.006 A 
ENDBRANCH  68  85
ENDBRANCH  42  43
ENDBRANCH  34  37
ENDBRANCH  32  33
ENDBRANCH  31  32
ENDBRANCH  30  31
ENDBRANCH   1  30
TORSDOF 17
ENDMDL
MODEL 2
REMARK VINA RESULT:     -12.3      2.931      8.548
REMARK SMILES N#C/C(=C/c1ccc(-c2cccc(C(=O)NCCCCCCNC(=O)c3ccc(-c4c5nc(c(-c6c(F)cccc6F)c6ccc([nH]6)c(-c6c(F)cccc6F)c6nc(c(-c7c(F)cccc7F)c7ccc4[nH]7)C=C6)C=C5)cc3)c2)o1)c1ccc(F)cc1
REMARK SMILES IDX 19 1 18 2 17 3 16 4 14 5 15 6 13 8 9 9 10 10 80 11 11 12
REMARK SMILES IDX 12 13 8 14 5 15 6 16 81 17 7 18 4 19 3 20 2 21 1 22 82 23
REMARK SMILES IDX 83 24 88 25 84 26 87 27 85 28 86 29 20 30 21 31 22 32 23 33
REMARK SMILES IDX 24 34 25 36 26 37 27 38 79 39 28 40 78 41 29 42 30 43 31 44
REMARK SMILES IDX 72 45 32 46 77 47 71 48 73 49 33 50 76 51 70 52 69 53 34 55
REMARK SMILES IDX 60 56 43 57 59 58 44 59 47 60 58 61 74 62 45 63 46 64 57 66
REMARK SMILES IDX 75 67 48 68 35 69 36 70 41 71 37 72 38 73 40 74 42 75 39 76
REMARK SMILES IDX 61 77 62 78 67 79 63 80 64 81 66 82 68 83 65 84 49 85 50 86
REMARK SMILES IDX 55 87 51 88 52 89 54 90 56 91 53 92
REMARK H PARENT 16 7 23 35 73 54 47 65
REMARK Flexibility Score: inf
ROOT
ATOM      1  C   UNL A   1      40.031  21.848  26.940  1.00  0.00     0.002 C 
ENDROOT
BRANCH   1   2
ATOM      2  C   UNL A   1      38.918  21.481  25.962  1.00  0.00     0.021 C 
BRANCH   2   3
ATOM      3  C   UNL A   1      37.845  22.537  25.726  1.00  0.00     0.116 C 
BRANCH   3   4
ATOM      4  N   UNL A   1      37.551  22.813  24.328  1.00  0.00    -0.352 N 
ATOM      5  C   UNL A   1      36.373  22.726  23.609  1.00  0.00     0.251 C 
ATOM      6  O   UNL A   1      36.388  23.000  22.412  1.00  0.00    -0.269 OA
ATOM      7  H   UNL A   1      38.326  23.114  23.801  1.00  0.00     0.163 HD
BRANCH   5   8
ATOM      8  C   UNL A   1      35.103  22.249  24.228  1.00  0.00     0.040 A 
ATOM      9  C   UNL A   1      32.876  22.757  25.061  1.00  0.00     0.018 A 
ATOM     10  C   UNL A   1      32.875  21.563  25.783  1.00  0.00     0.012 A 
ATOM     11  C   UNL A   1      33.940  23.011  24.187  1.00  0.00     0.025 A 
ATOM     12  C   UNL A   1      33.957  20.679  25.670  1.00  0.00     0.002 A 
ATOM     13  C   UNL A   1      35.086  21.040  24.926  1.00  0.00     0.014 A 
BRANCH   9  14
ATOM     14  C   UNL A   1      31.904  23.829  25.250  1.00  0.00     0.134 A 
ATOM     15  C   UNL A   1      30.434  25.331  24.506  1.00  0.00     0.128 A 
ATOM     16  C   UNL A   1      30.186  25.110  25.859  1.00  0.00     0.051 A 
ATOM     17  O   UNL A   1      31.479  24.504  24.138  1.00  0.00    -0.457 OA
ATOM     18  C   UNL A   1      31.153  24.207  26.339  1.00  0.00     0.051 A 
BRANCH  15  19
ATOM     19  C   UNL A   1      29.808  26.282  23.639  1.00  0.00     0.067 C 
ATOM     20  C   UNL A   1      30.264  27.550  23.553  1.00  0.00     0.063 C 
BRANCH  20  21
ATOM     21  C   UNL A   1      29.576  28.598  22.694  1.00  0.00     0.100 C 
ATOM     22  N   UNL A   1      29.005  29.467  21.981  1.00  0.00    -0.192 NA
ENDBRANCH  20  21
BRANCH  20  23
ATOM     23  C   UNL A   1      31.517  28.001  24.233  1.00  0.00    -0.007 A 
ATOM     24  C   UNL A   1      32.775  27.800  23.627  1.00  0.00     0.012 A 
ATOM     25  C   UNL A   1      31.472  28.578  25.511  1.00  0.00     0.012 A 
ATOM     26  C   UNL A   1      33.955  28.073  24.321  1.00  0.00     0.040 A 
ATOM     27  C   UNL A   1      32.657  28.878  26.191  1.00  0.00     0.040 A 
ATOM     28  C   UNL A   1      33.885  28.602  25.600  1.00  0.00     0.123 A 
ATOM     29  F   UNL A   1      35.015  28.841  26.279  1.00  0.00    -0.207 F 
ENDBRANCH  20  23
ENDBRANCH  15  19
ENDBRANCH   9  14
ENDBRANCH   5   8
ENDBRANCH   3   4
ENDBRANCH   2   3
ENDBRANCH   1   2
BRANCH   1  30
ATOM     30  C   UNL A   1      41.237  20.907  26.981  1.00  0.00     0.002 C 
BRANCH  30  31
ATOM     31  C   UNL A   1      42.448  21.316  26.139  1.00  0.00     0.021 C 
BRANCH  31  32
ATOM     32  C   UNL A   1      42.297  22.616  25.356  1.00  0.00     0.116 C 
BRANCH  32  33
ATOM     33  N   UNL A   1      43.572  23.165  24.927  1.00  0.00    -0.352 N 
ATOM     34  C   UNL A   1      44.157  24.367  25.243  1.00  0.00     0.251 C 
ATOM     35  H   UNL A   1      44.092  22.591  24.320  1.00  0.00     0.163 HD
ATOM     36  O   UNL A   1      45.166  24.737  24.655  1.00  0.00    -0.269 OA
BRANCH  34  37
ATOM     37  C   UNL A   1      43.553  25.230  26.283  1.00  0.00     0.039 A 
ATOM     38  C   UNL A   1      42.760  24.642  27.272  1.00  0.00     0.014 A 
ATOM     39  C   UNL A   1      43.761  26.612  26.278  1.00  0.00     0.014 A 
ATOM     40  C   UNL A   1      42.228  25.432  28.294  1.00  0.00     0.010 A 
ATOM     41  C   UNL A   1      43.297  27.385  27.339  1.00  0.00     0.010 A 
ATOM     42  C   UNL A   1      42.522  26.804  28.356  1.00  0.00    -0.014 A 
BRANCH  42  43
ATOM     43  C   UNL A   1      42.025  27.654  29.469  1.00  0.00     0.031 A 
ATOM     44  C   UNL A   1      42.698  27.603  30.813  1.00  0.00     0.074 A 
ATOM     45  C   UNL A   1      40.932  28.418  29.289  1.00  0.00     0.049 A 
ATOM     46  N   UNL A   1      42.364  28.201  31.928  1.00  0.00    -0.248 NA
ATOM     47  C   UNL A   1      43.887  26.745  30.924  1.00  0.00     0.031 C 
ATOM     48  C   UNL A   1      40.171  28.533  28.043  1.00  0.00     0.029 A 
ATOM     49  N   UNL A   1      40.262  29.240  30.161  1.00  0.00    -0.354 N 
ATOM     50  C   UNL A   1      43.295  27.785  32.872  1.00  0.00     0.074 A 
ATOM     51  C   UNL A   1      44.166  26.835  32.215  1.00  0.00     0.031 C 
ATOM     52  C   UNL A   1      39.159  29.396  28.223  1.00  0.00     0.029 A 
ATOM     53  C   UNL A   1      39.169  29.860  29.606  1.00  0.00     0.049 A 
ATOM     54  H   UNL A   1      40.539  29.373  31.096  1.00  0.00     0.167 HD
ATOM     55  C   UNL A   1      43.428  28.177  34.162  1.00  0.00     0.037 A 
ATOM     56  C   UNL A   1      38.270  30.702  30.154  1.00  0.00     0.037 A 
ATOM     57  C   UNL A   1      42.564  29.129  34.809  1.00  0.00     0.049 A 
ATOM     58  C   UNL A   1      38.412  31.086  31.601  1.00  0.00     0.074 A 
ATOM     59  C   UNL A   1      42.638  29.622  36.100  1.00  0.00     0.029 A 
ATOM     60  N   UNL A   1      41.464  29.730  34.214  1.00  0.00    -0.354 N 
ATOM     61  N   UNL A   1      39.329  30.727  32.468  1.00  0.00    -0.248 NA
ATOM     62  C   UNL A   1      37.394  31.995  32.146  1.00  0.00     0.031 C 
ATOM     63  C   UNL A   1      41.551  30.479  36.304  1.00  0.00     0.029 A 
ATOM     64  C   UNL A   1      40.835  30.568  35.121  1.00  0.00     0.049 A 
ATOM     65  H   UNL A   1      41.174  29.582  33.286  1.00  0.00     0.167 HD
ATOM     66  C   UNL A   1      39.021  31.395  33.646  1.00  0.00     0.074 A 
ATOM     67  C   UNL A   1      37.837  32.186  33.381  1.00  0.00     0.031 C 
ATOM     68  C   UNL A   1      39.664  31.359  34.839  1.00  0.00     0.037 A 
BRANCH  55  69
ATOM     69  C   UNL A   1      44.550  27.568  34.955  1.00  0.00     0.057 A 
ATOM     70  C   UNL A   1      45.823  28.153  35.004  1.00  0.00     0.134 A 
ATOM     71  C   UNL A   1      44.354  26.393  35.690  1.00  0.00     0.134 A 
ATOM     72  F   UNL A   1      46.084  29.275  34.315  1.00  0.00    -0.206 F 
ATOM     73  C   UNL A   1      46.869  27.571  35.724  1.00  0.00     0.040 A 
ATOM     74  C   UNL A   1      45.382  25.819  36.441  1.00  0.00     0.040 A 
ATOM     75  F   UNL A   1      43.160  25.783  35.695  1.00  0.00    -0.206 F 
ATOM     76  C   UNL A   1      46.647  26.404  36.450  1.00  0.00     0.006 A 
ENDBRANCH  55  69
BRANCH  56  77
ATOM     77  C   UNL A   1      37.171  31.261  29.326  1.00  0.00     0.057 A 
ATOM     78  C   UNL A   1      37.258  32.552  28.793  1.00  0.00     0.134 A 
ATOM     79  C   UNL A   1      36.008  30.530  29.055  1.00  0.00     0.134 A 
ATOM     80  F   UNL A   1      38.340  33.308  29.033  1.00  0.00    -0.206 F 
ATOM     81  C   UNL A   1      36.222  33.106  28.041  1.00  0.00     0.040 A 
ATOM     82  C   UNL A   1      34.975  31.061  28.280  1.00  0.00     0.040 A 
ATOM     83  F   UNL A   1      35.865  29.283  29.528  1.00  0.00    -0.206 F 
ATOM     84  C   UNL A   1      35.077  32.357  27.777  1.00  0.00     0.006 A 
ENDBRANCH  56  77
BRANCH  68  85
ATOM     85  C   UNL A   1      39.133  32.237  35.937  1.00  0.00     0.057 A 
ATOM     86  C   UNL A   1      38.245  31.757  36.909  1.00  0.00     0.134 A 
ATOM     87  C   UNL A   1      39.555  33.567  36.048  1.00  0.00     0.134 A 
ATOM     88  F   UNL A   1      37.790  30.497  36.853  1.00  0.00    -0.206 F 
ATOM     89  C   UNL A   1      37.780  32.578  37.938  1.00  0.00     0.040 A 
ATOM     90  C   UNL A   1      39.121  34.388  37.090  1.00  0.00     0.040 A 
ATOM     91  F   UNL A   1      40.412  34.087  35.155  1.00  0.00    -0.206 F 
ATOM     92  C   UNL A   1      38.226  33.894  38.036  1.00  0.00     0.006 A 
ENDBRANCH  68  85
ENDBRANCH  42  43
ENDBRANCH  34  37
ENDBRANCH  32  33
ENDBRANCH  31  32
ENDBRANCH  30  31
ENDBRANCH   1  30
TORSDOF 17
ENDMDL
MODEL 3
REMARK VINA RESULT:     -12.2      1.915      2.862
REMARK SMILES N#C/C(=C/c1ccc(-c2cccc(C(=O)NCCCCCCNC(=O)c3ccc(-c4c5nc(c(-c6c(F)cccc6F)c6ccc([nH]6)c(-c6c(F)cccc6F)c6nc(c(-c7c(F)cccc7F)c7ccc4[nH]7)C=C6)C=C5)cc3)c2)o1)c1ccc(F)cc1
REMARK SMILES IDX 19 1 18 2 17 3 16 4 14 5 15 6 13 8 9 9 10 10 80 11 11 12
REMARK SMILES IDX 12 13 8 14 5 15 6 16 81 17 7 18 4 19 3 20 2 21 1 22 82 23
REMARK SMILES IDX 83 24 88 25 84 26 87 27 85 28 86 29 20 30 21 31 22 32 23 33
REMARK SMILES IDX 24 34 25 36 26 37 27 38 79 39 28 40 78 41 29 42 30 43 31 44
REMARK SMILES IDX 72 45 32 46 77 47 71 48 73 49 33 50 76 51 70 52 69 53 34 55
REMARK SMILES IDX 60 56 43 57 59 58 44 59 47 60 58 61 74 62 45 63 46 64 57 66
REMARK SMILES IDX 75 67 48 68 35 69 36 70 41 71 37 72 38 73 40 74 42 75 39 76
REMARK SMILES IDX 61 77 62 78 67 79 63 80 64 81 66 82 68 83 65 84 49 85 50 86
REMARK SMILES IDX 55 87 51 88 52 89 54 90 56 91 53 92
REMARK H PARENT 16 7 23 35 73 54 47 65
REMARK Flexibility Score: inf
ROOT
ATOM      1  C   UNL A   1      34.015  28.180  24.554  1.00  0.00     0.002 C 
ENDROOT
BRANCH   1   2
ATOM      2  C   UNL A   1      33.805  28.910  23.230  1.00  0.00     0.021 C 
BRANCH   2   3
ATOM      3  C   UNL A   1      32.653  28.423  22.361  1.00  0.00     0.116 C 
BRANCH   3   4
ATOM      4  N   UNL A   1      31.677  29.443  22.006  1.00  0.00    -0.352 N 
ATOM      5  C   UNL A   1      30.336  29.571  22.321  1.00  0.00     0.251 C 
ATOM      6  O   UNL A   1      29.713  30.531  21.875  1.00  0.00    -0.269 OA
ATOM      7  H   UNL A   1      32.033  30.168  21.444  1.00  0.00     0.163 HD
BRANCH   5   8
ATOM      8  C   UNL A   1      29.613  28.549  23.129  1.00  0.00     0.040 A 
ATOM      9  C   UNL A   1      29.700  26.588  24.565  1.00  0.00     0.018 A 
ATOM     10  C   UNL A   1      28.356  26.332  24.295  1.00  0.00     0.012 A 
ATOM     11  C   UNL A   1      30.268  27.774  24.081  1.00  0.00     0.025 A 
ATOM     12  C   UNL A   1      27.621  27.224  23.501  1.00  0.00     0.002 A 
ATOM     13  C   UNL A   1      28.259  28.308  22.887  1.00  0.00     0.014 A 
BRANCH   9  14
ATOM     14  C   UNL A   1      30.601  25.638  25.210  1.00  0.00     0.134 A 
ATOM     15  C   UNL A   1      32.603  24.978  25.934  1.00  0.00     0.128 A 
ATOM     16  C   UNL A   1      31.631  24.233  26.597  1.00  0.00     0.051 A 
ATOM     17  O   UNL A   1      31.946  25.867  25.104  1.00  0.00    -0.457 OA
ATOM     18  C   UNL A   1      30.372  24.610  26.094  1.00  0.00     0.051 A 
BRANCH  15  19
ATOM     19  C   UNL A   1      34.026  24.832  26.004  1.00  0.00     0.067 C 
ATOM     20  C   UNL A   1      34.664  23.888  25.281  1.00  0.00     0.063 C 
BRANCH  20  21
ATOM     21  C   UNL A   1      36.164  23.666  25.389  1.00  0.00     0.100 C 
ATOM     22  N   UNL A   1      37.408  23.482  25.479  1.00  0.00    -0.192 NA
ENDBRANCH  20  21
BRANCH  20  23
ATOM     23  C   UNL A   1      33.963  23.040  24.269  1.00  0.00    -0.007 A 
ATOM     24  C   UNL A   1      33.696  23.538  22.976  1.00  0.00     0.012 A 
ATOM     25  C   UNL A   1      33.502  21.757  24.601  1.00  0.00     0.012 A 
ATOM     26  C   UNL A   1      32.906  22.816  22.080  1.00  0.00     0.040 A 
ATOM     27  C   UNL A   1      32.735  21.024  23.690  1.00  0.00     0.040 A 
ATOM     28  C   UNL A   1      32.426  21.569  22.449  1.00  0.00     0.123 A 
ATOM     29  F   UNL A   1      31.646  20.885  21.602  1.00  0.00    -0.207 F 
ENDBRANCH  20  23
ENDBRANCH  15  19
ENDBRANCH   9  14
ENDBRANCH   5   8
ENDBRANCH   3   4
ENDBRANCH   2   3
ENDBRANCH   1   2
BRANCH   1  30
ATOM     30  C   UNL A   1      33.532  28.904  25.813  1.00  0.00     0.002 C 
BRANCH  30  31
ATOM     31  C   UNL A   1      32.578  30.082  25.596  1.00  0.00     0.021 C 
BRANCH  31  32
ATOM     32  C   UNL A   1      31.933  30.649  26.856  1.00  0.00     0.116 C 
BRANCH  32  33
ATOM     33  N   UNL A   1      31.920  32.102  26.875  1.00  0.00    -0.352 N 
ATOM     34  C   UNL A   1      32.791  32.977  27.478  1.00  0.00     0.251 C 
ATOM     35  H   UNL A   1      31.176  32.520  26.384  1.00  0.00     0.163 HD
ATOM     36  O   UNL A   1      32.530  34.172  27.529  1.00  0.00    -0.269 OA
BRANCH  34  37
ATOM     37  C   UNL A   1      34.039  32.469  28.091  1.00  0.00     0.039 A 
ATOM     38  C   UNL A   1      35.132  33.331  28.211  1.00  0.00     0.014 A 
ATOM     39  C   UNL A   1      34.134  31.149  28.537  1.00  0.00     0.014 A 
ATOM     40  C   UNL A   1      36.299  32.888  28.838  1.00  0.00     0.010 A 
ATOM     41  C   UNL A   1      35.266  30.732  29.232  1.00  0.00     0.010 A 
ATOM     42  C   UNL A   1      36.362  31.596  29.386  1.00  0.00    -0.014 A 
BRANCH  42  43
ATOM     43  C   UNL A   1      37.566  31.123  30.116  1.00  0.00     0.031 A 
ATOM     44  C   UNL A   1      38.536  30.190  29.445  1.00  0.00     0.074 A 
ATOM     45  C   UNL A   1      37.752  31.478  31.402  1.00  0.00     0.049 A 
ATOM     46  N   UNL A   1      39.595  29.601  29.938  1.00  0.00    -0.248 NA
ATOM     47  C   UNL A   1      38.262  29.853  28.039  1.00  0.00     0.031 C 
ATOM     48  C   UNL A   1      36.869  32.353  32.176  1.00  0.00     0.029 A 
ATOM     49  N   UNL A   1      38.742  31.139  32.289  1.00  0.00    -0.354 N 
ATOM     50  C   UNL A   1      40.107  28.820  28.909  1.00  0.00     0.074 A 
ATOM     51  C   UNL A   1      39.206  28.960  27.786  1.00  0.00     0.031 C 
ATOM     52  C   UNL A   1      37.372  32.504  33.411  1.00  0.00     0.029 A 
ATOM     53  C   UNL A   1      38.585  31.702  33.533  1.00  0.00     0.049 A 
ATOM     54  H   UNL A   1      39.494  30.548  32.057  1.00  0.00     0.167 HD
ATOM     55  C   UNL A   1      41.238  28.074  28.892  1.00  0.00     0.037 A 
ATOM     56  C   UNL A   1      39.331  31.578  34.648  1.00  0.00     0.037 A 
ATOM     57  C   UNL A   1      42.136  27.946  30.009  1.00  0.00     0.049 A 
ATOM     58  C   UNL A   1      40.556  30.706  34.619  1.00  0.00     0.074 A 
ATOM     59  C   UNL A   1      43.328  27.245  30.081  1.00  0.00     0.029 A 
ATOM     60  N   UNL A   1      41.938  28.527  31.254  1.00  0.00    -0.354 N 
ATOM     61  N   UNL A   1      41.058  30.017  33.622  1.00  0.00    -0.248 NA
ATOM     62  C   UNL A   1      41.321  30.598  35.869  1.00  0.00     0.031 C 
ATOM     63  C   UNL A   1      43.823  27.358  31.385  1.00  0.00     0.029 A 
ATOM     64  C   UNL A   1      42.973  28.179  32.107  1.00  0.00     0.049 A 
ATOM     65  H   UNL A   1      41.176  29.101  31.493  1.00  0.00     0.167 HD
ATOM     66  C   UNL A   1      42.216  29.426  34.113  1.00  0.00     0.074 A 
ATOM     67  C   UNL A   1      42.345  29.844  35.494  1.00  0.00     0.031 C 
ATOM     68  C   UNL A   1      43.094  28.613  33.477  1.00  0.00     0.037 A 
BRANCH  55  69
ATOM     69  C   UNL A   1      41.559  27.340  27.621  1.00  0.00     0.057 A 
ATOM     70  C   UNL A   1      41.167  26.009  27.416  1.00  0.00     0.134 A 
ATOM     71  C   UNL A   1      42.256  27.972  26.584  1.00  0.00     0.134 A 
ATOM     72  F   UNL A   1      40.506  25.340  28.373  1.00  0.00    -0.206 F 
ATOM     73  C   UNL A   1      41.488  25.324  26.243  1.00  0.00     0.040 A 
ATOM     74  C   UNL A   1      42.554  27.308  25.392  1.00  0.00     0.040 A 
ATOM     75  F   UNL A   1      42.656  29.246  26.708  1.00  0.00    -0.206 F 
ATOM     76  C   UNL A   1      42.179  25.976  25.224  1.00  0.00     0.006 A 
ENDBRANCH  55  69
BRANCH  56  77
ATOM     77  C   UNL A   1      38.956  32.316  35.882  1.00  0.00     0.057 A 
ATOM     78  C   UNL A   1      38.187  31.706  36.879  1.00  0.00     0.134 A 
ATOM     79  C   UNL A   1      39.345  33.645  36.091  1.00  0.00     0.134 A 
ATOM     80  F   UNL A   1      37.769  30.441  36.728  1.00  0.00    -0.206 F 
ATOM     81  C   UNL A   1      37.800  32.395  38.029  1.00  0.00     0.040 A 
ATOM     82  C   UNL A   1      38.989  34.337  37.250  1.00  0.00     0.040 A 
ATOM     83  F   UNL A   1      40.091  34.286  35.178  1.00  0.00    -0.206 F 
ATOM     84  C   UNL A   1      38.205  33.714  38.219  1.00  0.00     0.006 A 
ENDBRANCH  56  77
BRANCH  68  85
ATOM     85  C   UNL A   1      44.301  28.160  34.248  1.00  0.00     0.057 A 
ATOM     86  C   UNL A   1      45.479  28.916  34.299  1.00  0.00     0.134 A 
ATOM     87  C   UNL A   1      44.263  26.973  34.989  1.00  0.00     0.134 A 
ATOM     88  F   UNL A   1      45.586  30.056  33.601  1.00  0.00    -0.206 F 
ATOM     89  C   UNL A   1      46.584  28.495  35.041  1.00  0.00     0.040 A 
ATOM     90  C   UNL A   1      45.350  26.556  35.760  1.00  0.00     0.040 A 
ATOM     91  F   UNL A   1      43.162  26.205  34.993  1.00  0.00    -0.206 F 
ATOM     92  C   UNL A   1      46.517  27.316  35.782  1.00  0.00     0.006 A 
ENDBRANCH  68  85
ENDBRANCH  42  43
ENDBRANCH  34  37
ENDBRANCH  32  33
ENDBRANCH  31  32
ENDBRANCH  30  31
ENDBRANCH   1  30
TORSDOF 17
ENDMDL
