MODEL 1
REMARK VINA RESULT:     -12.4      0.000      0.000
REMARK SMILES Cc1c(CC(=O)NCCCCCCNC(=O)c2ccc(-c3c4nc(c(-c5c(F)cccc5F)c5ccc([nH]5)c(-c5c(F)cccc5F)c5nc(c(-c6c(F)cccc6F)c6ccc3[nH]6)C=C5)C=C4)cc2)cc(-c2ccc(S(C)(=O)=O)cc2)n1-c1ccccc1
REMARK SMILES IDX 10 1 9 2 8 3 7 4 5 5 6 6 4 8 3 9 1 10 2 11 83 12 71 13 72 14
REMARK SMILES IDX 84 15 85 16 89 17 86 18 88 19 87 20 73 21 74 22 82 23 75 24
REMARK SMILES IDX 81 25 76 26 77 27 78 28 79 29 80 30 11 31 12 32 13 33 14 34
REMARK SMILES IDX 15 35 16 37 17 38 18 39 70 40 19 41 69 42 20 43 21 44 22 45
REMARK SMILES IDX 63 46 23 47 68 48 62 49 64 50 24 51 67 52 61 53 60 54 25 56
REMARK SMILES IDX 51 57 34 58 50 59 35 60 38 61 49 62 65 63 36 64 37 65 48 67
REMARK SMILES IDX 66 68 39 69 26 70 27 71 32 72 28 73 29 74 31 75 33 76 30 77
REMARK SMILES IDX 52 78 53 79 58 80 54 81 55 82 57 83 59 84 56 85 40 86 41 87
REMARK SMILES IDX 46 88 42 89 43 90 45 91 47 92 44 93
REMARK H PARENT 7 7 14 36 64 55 38 66
REMARK Flexibility Score: inf
ROOT
ATOM      1  C   UNL A   1      31.379  28.376  25.929  1.00  0.00     0.002 C 
ENDROOT
BRANCH   1   2
ATOM      2  C   UNL A   1      31.290  29.298  24.706  1.00  0.00     0.021 C 
BRANCH   2   3
ATOM      3  C   UNL A   1      30.120  28.996  23.769  1.00  0.00     0.116 C 
BRANCH   3   4
ATOM      4  N   UNL A   1      30.561  28.316  22.566  1.00  0.00    -0.356 N 
ATOM      5  C   UNL A   1      30.780  26.982  22.360  1.00  0.00     0.224 C 
ATOM      6  O   UNL A   1      31.214  26.624  21.262  1.00  0.00    -0.275 OA
ATOM      7  H   UNL A   1      30.725  28.897  21.788  1.00  0.00     0.163 HD
BRANCH   5   8
ATOM      8  C   UNL A   1      30.443  25.971  23.442  1.00  0.00     0.137 C 
BRANCH   8   9
ATOM      9  C   UNL A   1      31.508  24.942  23.643  1.00  0.00    -0.017 A 
ATOM     10  C   UNL A   1      33.587  26.422  24.060  1.00  0.00     0.065 C 
ATOM     11  C   UNL A   1      32.851  25.128  23.952  1.00  0.00     0.024 A 
ATOM     12  N   UNL A   1      33.450  23.879  24.093  1.00  0.00    -0.314 N 
ATOM     13  C   UNL A   1      31.303  23.552  23.531  1.00  0.00     0.033 A 
ATOM     14  C   UNL A   1      32.481  22.911  23.849  1.00  0.00     0.053 A 
BRANCH  12  15
ATOM     15  C   UNL A   1      34.810  23.623  24.424  1.00  0.00     0.046 A 
ATOM     16  C   UNL A   1      35.677  23.100  23.454  1.00  0.00     0.026 A 
ATOM     17  C   UNL A   1      35.269  23.850  25.725  1.00  0.00     0.026 A 
ATOM     18  C   UNL A   1      37.002  22.816  23.786  1.00  0.00     0.002 A 
ATOM     19  C   UNL A   1      36.593  23.548  26.054  1.00  0.00     0.002 A 
ATOM     20  C   UNL A   1      37.458  23.037  25.085  1.00  0.00     0.000 A 
ENDBRANCH  12  15
BRANCH  14  21
ATOM     21  C   UNL A   1      32.651  21.473  23.978  1.00  0.00    -0.001 A 
ATOM     22  C   UNL A   1      33.232  20.910  25.121  1.00  0.00     0.011 A 
ATOM     23  C   UNL A   1      32.178  20.655  22.943  1.00  0.00     0.011 A 
ATOM     24  C   UNL A   1      33.384  19.534  25.199  1.00  0.00     0.021 A 
ATOM     25  C   UNL A   1      32.319  19.282  23.019  1.00  0.00     0.021 A 
ATOM     26  C   UNL A   1      32.937  18.741  24.136  1.00  0.00     0.067 A 
BRANCH  26  27
ATOM     27  S   UNL A   1      33.239  17.009  24.158  1.00  0.00     0.175 S 
ATOM     28  C   UNL A   1      34.807  16.974  25.005  1.00  0.00     0.163 C 
ATOM     29  O   UNL A   1      32.165  16.451  24.958  1.00  0.00    -0.224 OA
ATOM     30  O   UNL A   1      33.461  16.565  22.801  1.00  0.00    -0.224 OA
ENDBRANCH  26  27
ENDBRANCH  14  21
ENDBRANCH   8   9
ENDBRANCH   5   8
ENDBRANCH   3   4
ENDBRANCH   2   3
ENDBRANCH   1   2
BRANCH   1  31
ATOM     31  C   UNL A   1      31.756  29.055  27.252  1.00  0.00     0.002 C 
BRANCH  31  32
ATOM     32  C   UNL A   1      33.243  29.400  27.462  1.00  0.00     0.021 C 
BRANCH  32  33
ATOM     33  C   UNL A   1      33.775  30.729  26.877  1.00  0.00     0.116 C 
BRANCH  33  34
ATOM     34  N   UNL A   1      33.570  31.895  27.707  1.00  0.00    -0.352 N 
ATOM     35  C   UNL A   1      34.381  32.385  28.718  1.00  0.00     0.251 C 
ATOM     36  H   UNL A   1      32.748  32.407  27.531  1.00  0.00     0.163 HD
ATOM     37  O   UNL A   1      34.019  33.408  29.299  1.00  0.00    -0.269 OA
BRANCH  35  38
ATOM     38  C   UNL A   1      35.619  31.661  29.208  1.00  0.00     0.039 A 
ATOM     39  C   UNL A   1      36.751  31.741  28.422  1.00  0.00     0.014 A 
ATOM     40  C   UNL A   1      35.672  30.714  30.253  1.00  0.00     0.014 A 
ATOM     41  C   UNL A   1      37.902  30.950  28.723  1.00  0.00     0.010 A 
ATOM     42  C   UNL A   1      36.828  29.824  30.484  1.00  0.00     0.010 A 
ATOM     43  C   UNL A   1      38.001  29.889  29.710  1.00  0.00    -0.014 A 
BRANCH  43  44
ATOM     44  C   UNL A   1      39.246  28.794  29.475  1.00  0.00     0.031 A 
ATOM     45  C   UNL A   1      39.885  28.829  30.813  1.00  0.00     0.074 A 
ATOM     46  C   UNL A   1      40.046  28.074  28.562  1.00  0.00     0.049 A 
ATOM     47  N   UNL A   1      40.265  30.006  31.232  1.00  0.00    -0.248 NA
ATOM     48  C   UNL A   1      39.751  27.823  31.860  1.00  0.00     0.031 C 
ATOM     49  C   UNL A   1      40.112  28.214  27.103  1.00  0.00     0.029 A 
ATOM     50  N   UNL A   1      41.009  27.005  28.697  1.00  0.00    -0.354 N 
ATOM     51  C   UNL A   1      40.743  29.836  32.497  1.00  0.00     0.074 A 
ATOM     52  C   UNL A   1      40.177  28.551  32.905  1.00  0.00     0.031 C 
ATOM     53  C   UNL A   1      40.779  27.186  26.492  1.00  0.00     0.029 A 
ATOM     54  C   UNL A   1      41.378  26.292  27.476  1.00  0.00     0.049 A 
ATOM     55  H   UNL A   1      41.399  26.768  29.570  1.00  0.00     0.167 HD
ATOM     56  C   UNL A   1      42.011  30.319  32.643  1.00  0.00     0.037 A 
ATOM     57  C   UNL A   1      42.231  25.204  27.229  1.00  0.00     0.037 A 
ATOM     58  C   UNL A   1      42.980  29.265  32.518  1.00  0.00     0.049 A 
ATOM     59  C   UNL A   1      43.321  25.441  28.172  1.00  0.00     0.074 A 
ATOM     60  C   UNL A   1      43.007  27.967  32.990  1.00  0.00     0.029 A 
ATOM     61  N   UNL A   1      43.823  29.309  31.429  1.00  0.00    -0.354 N 
ATOM     62  N   UNL A   1      44.209  26.362  27.956  1.00  0.00    -0.248 NA
ATOM     63  C   UNL A   1      43.529  24.607  29.344  1.00  0.00     0.031 C 
ATOM     64  C   UNL A   1      43.391  27.201  31.872  1.00  0.00     0.029 A 
ATOM     65  C   UNL A   1      44.017  28.034  30.954  1.00  0.00     0.049 A 
ATOM     66  H   UNL A   1      44.222  30.126  31.051  1.00  0.00     0.167 HD
ATOM     67  C   UNL A   1      44.695  26.584  29.200  1.00  0.00     0.074 A 
ATOM     68  C   UNL A   1      44.483  25.339  29.922  1.00  0.00     0.031 C 
ATOM     69  C   UNL A   1      44.588  27.858  29.644  1.00  0.00     0.037 A 
BRANCH  56  70
ATOM     70  C   UNL A   1      42.166  31.707  32.056  1.00  0.00     0.057 A 
ATOM     71  C   UNL A   1      42.159  32.807  32.912  1.00  0.00     0.134 A 
ATOM     72  C   UNL A   1      42.118  31.983  30.670  1.00  0.00     0.134 A 
ATOM     73  F   UNL A   1      42.252  32.632  34.238  1.00  0.00    -0.206 F 
ATOM     74  C   UNL A   1      42.042  34.114  32.423  1.00  0.00     0.040 A 
ATOM     75  C   UNL A   1      41.931  33.274  30.175  1.00  0.00     0.040 A 
ATOM     76  F   UNL A   1      42.226  30.998  29.763  1.00  0.00    -0.206 F 
ATOM     77  C   UNL A   1      41.885  34.346  31.056  1.00  0.00     0.006 A 
ENDBRANCH  56  70
BRANCH  57  78
ATOM     78  C   UNL A   1      42.725  24.092  26.229  1.00  0.00     0.057 A 
ATOM     79  C   UNL A   1      43.735  24.353  25.233  1.00  0.00     0.134 A 
ATOM     80  C   UNL A   1      42.602  22.722  26.502  1.00  0.00     0.134 A 
ATOM     81  F   UNL A   1      43.980  25.592  24.782  1.00  0.00    -0.206 F 
ATOM     82  C   UNL A   1      44.608  23.388  24.684  1.00  0.00     0.040 A 
ATOM     83  C   UNL A   1      43.456  21.732  25.924  1.00  0.00     0.040 A 
ATOM     84  F   UNL A   1      41.711  22.294  27.403  1.00  0.00    -0.206 F 
ATOM     85  C   UNL A   1      44.488  22.065  25.049  1.00  0.00     0.006 A 
ENDBRANCH  57  78
BRANCH  69  86
ATOM     86  C   UNL A   1      44.955  28.969  28.676  1.00  0.00     0.057 A 
ATOM     87  C   UNL A   1      44.118  29.616  27.740  1.00  0.00     0.134 A 
ATOM     88  C   UNL A   1      46.301  29.355  28.640  1.00  0.00     0.134 A 
ATOM     89  F   UNL A   1      42.793  29.425  27.703  1.00  0.00    -0.206 F 
ATOM     90  C   UNL A   1      44.612  30.523  26.791  1.00  0.00     0.040 A 
ATOM     91  C   UNL A   1      46.798  30.293  27.730  1.00  0.00     0.040 A 
ATOM     92  F   UNL A   1      47.175  28.824  29.510  1.00  0.00    -0.206 F 
ATOM     93  C   UNL A   1      45.958  30.864  26.783  1.00  0.00     0.006 A 
ENDBRANCH  69  86
ENDBRANCH  43  44
ENDBRANCH  35  38
ENDBRANCH  33  34
ENDBRANCH  32  33
ENDBRANCH  31  32
ENDBRANCH   1  31
TORSDOF 17
ENDMDL
MODEL 2
REMARK VINA RESULT:     -11.8      3.075      8.625
REMARK SMILES Cc1c(CC(=O)NCCCCCCNC(=O)c2ccc(-c3c4nc(c(-c5c(F)cccc5F)c5ccc([nH]5)c(-c5c(F)cccc5F)c5nc(c(-c6c(F)cccc6F)c6ccc3[nH]6)C=C5)C=C4)cc2)cc(-c2ccc(S(C)(=O)=O)cc2)n1-c1ccccc1
REMARK SMILES IDX 10 1 9 2 8 3 7 4 5 5 6 6 4 8 3 9 1 10 2 11 83 12 71 13 72 14
REMARK SMILES IDX 84 15 85 16 89 17 86 18 88 19 87 20 73 21 74 22 82 23 75 24
REMARK SMILES IDX 81 25 76 26 77 27 78 28 79 29 80 30 11 31 12 32 13 33 14 34
REMARK SMILES IDX 15 35 16 37 17 38 18 39 70 40 19 41 69 42 20 43 21 44 22 45
REMARK SMILES IDX 63 46 23 47 68 48 62 49 64 50 24 51 67 52 61 53 60 54 25 56
REMARK SMILES IDX 51 57 34 58 50 59 35 60 38 61 49 62 65 63 36 64 37 65 48 67
REMARK SMILES IDX 66 68 39 69 26 70 27 71 32 72 28 73 29 74 31 75 33 76 30 77
REMARK SMILES IDX 52 78 53 79 58 80 54 81 55 82 57 83 59 84 56 85 40 86 41 87
REMARK SMILES IDX 46 88 42 89 43 90 45 91 47 92 44 93
REMARK H PARENT 7 7 14 36 64 55 38 66
REMARK Flexibility Score: inf
ROOT
ATOM      1  C   UNL A   1      35.558  20.454  25.277  1.00  0.00     0.002 C 
ENDROOT
BRANCH   1   2
ATOM      2  C   UNL A   1      34.369  20.716  24.343  1.00  0.00     0.021 C 
BRANCH   2   3
ATOM      3  C   UNL A   1      33.198  19.749  24.522  1.00  0.00     0.116 C 
BRANCH   3   4
ATOM      4  N   UNL A   1      32.128  20.344  25.298  1.00  0.00    -0.356 N 
ATOM      5  C   UNL A   1      31.501  21.546  25.124  1.00  0.00     0.224 C 
ATOM      6  O   UNL A   1      30.646  21.884  25.946  1.00  0.00    -0.275 OA
ATOM      7  H   UNL A   1      31.806  19.806  26.057  1.00  0.00     0.163 HD
BRANCH   5   8
ATOM      8  C   UNL A   1      31.819  22.412  23.917  1.00  0.00     0.137 C 
BRANCH   8   9
ATOM      9  C   UNL A   1      31.714  23.877  24.195  1.00  0.00    -0.017 A 
ATOM     10  C   UNL A   1      33.385  24.155  26.149  1.00  0.00     0.065 C 
ATOM     11  C   UNL A   1      32.416  24.640  25.122  1.00  0.00     0.024 A 
ATOM     12  N   UNL A   1      32.023  25.969  24.989  1.00  0.00    -0.314 N 
ATOM     13  C   UNL A   1      30.831  24.752  23.530  1.00  0.00     0.033 A 
ATOM     14  C   UNL A   1      31.057  26.031  23.991  1.00  0.00     0.053 A 
BRANCH  12  15
ATOM     15  C   UNL A   1      32.511  27.077  25.738  1.00  0.00     0.046 A 
ATOM     16  C   UNL A   1      33.774  27.612  25.449  1.00  0.00     0.026 A 
ATOM     17  C   UNL A   1      31.751  27.601  26.789  1.00  0.00     0.026 A 
ATOM     18  C   UNL A   1      34.269  28.675  26.205  1.00  0.00     0.002 A 
ATOM     19  C   UNL A   1      32.259  28.655  27.551  1.00  0.00     0.002 A 
ATOM     20  C   UNL A   1      33.513  29.193  27.257  1.00  0.00     0.000 A 
ENDBRANCH  12  15
BRANCH  14  21
ATOM     21  C   UNL A   1      30.441  27.238  23.465  1.00  0.00    -0.001 A 
ATOM     22  C   UNL A   1      31.208  28.240  22.858  1.00  0.00     0.011 A 
ATOM     23  C   UNL A   1      29.047  27.358  23.542  1.00  0.00     0.011 A 
ATOM     24  C   UNL A   1      30.581  29.379  22.377  1.00  0.00     0.021 A 
ATOM     25  C   UNL A   1      28.415  28.488  23.058  1.00  0.00     0.021 A 
ATOM     26  C   UNL A   1      29.192  29.492  22.499  1.00  0.00     0.067 A 
BRANCH  26  27
ATOM     27  S   UNL A   1      28.395  30.984  22.017  1.00  0.00     0.175 S 
ATOM     28  C   UNL A   1      27.306  31.221  23.408  1.00  0.00     0.163 C 
ATOM     29  O   UNL A   1      29.454  31.974  21.967  1.00  0.00    -0.224 OA
ATOM     30  O   UNL A   1      27.577  30.713  20.858  1.00  0.00    -0.224 OA
ENDBRANCH  26  27
ENDBRANCH  14  21
ENDBRANCH   8   9
ENDBRANCH   5   8
ENDBRANCH   3   4
ENDBRANCH   2   3
ENDBRANCH   1   2
BRANCH   1  31
ATOM     31  C   UNL A   1      36.344  21.694  25.722  1.00  0.00     0.002 C 
BRANCH  31  32
ATOM     32  C   UNL A   1      37.782  21.839  25.186  1.00  0.00     0.021 C 
BRANCH  32  33
ATOM     33  C   UNL A   1      38.891  22.263  26.175  1.00  0.00     0.116 C 
BRANCH  33  34
ATOM     34  N   UNL A   1      40.189  21.669  25.940  1.00  0.00    -0.352 N 
ATOM     35  C   UNL A   1      41.441  22.221  26.161  1.00  0.00     0.251 C 
ATOM     36  H   UNL A   1      40.181  20.755  25.576  1.00  0.00     0.163 HD
ATOM     37  O   UNL A   1      42.426  21.532  25.897  1.00  0.00    -0.269 OA
BRANCH  35  38
ATOM     38  C   UNL A   1      41.645  23.657  26.601  1.00  0.00     0.039 A 
ATOM     39  C   UNL A   1      41.348  23.965  27.913  1.00  0.00     0.014 A 
ATOM     40  C   UNL A   1      41.872  24.763  25.754  1.00  0.00     0.014 A 
ATOM     41  C   UNL A   1      41.348  25.321  28.359  1.00  0.00     0.010 A 
ATOM     42  C   UNL A   1      41.760  26.166  26.205  1.00  0.00     0.010 A 
ATOM     43  C   UNL A   1      41.471  26.513  27.537  1.00  0.00    -0.014 A 
BRANCH  43  44
ATOM     44  C   UNL A   1      40.900  27.930  28.223  1.00  0.00     0.031 A 
ATOM     45  C   UNL A   1      42.101  28.790  28.093  1.00  0.00     0.074 A 
ATOM     46  C   UNL A   1      39.925  28.557  29.027  1.00  0.00     0.049 A 
ATOM     47  N   UNL A   1      43.195  28.325  28.632  1.00  0.00    -0.248 NA
ATOM     48  C   UNL A   1      42.307  29.840  27.101  1.00  0.00     0.031 C 
ATOM     49  C   UNL A   1      38.874  27.933  29.839  1.00  0.00     0.029 A 
ATOM     50  N   UNL A   1      39.601  29.936  29.321  1.00  0.00    -0.354 N 
ATOM     51  C   UNL A   1      44.186  29.212  28.332  1.00  0.00     0.074 A 
ATOM     52  C   UNL A   1      43.639  29.966  27.205  1.00  0.00     0.031 C 
ATOM     53  C   UNL A   1      37.928  28.822  30.275  1.00  0.00     0.029 A 
ATOM     54  C   UNL A   1      38.301  30.191  29.936  1.00  0.00     0.049 A 
ATOM     55  H   UNL A   1      40.227  30.668  29.116  1.00  0.00     0.167 HD
ATOM     56  C   UNL A   1      44.841  29.655  29.445  1.00  0.00     0.037 A 
ATOM     57  C   UNL A   1      37.643  31.371  30.321  1.00  0.00     0.037 A 
ATOM     58  C   UNL A   1      44.324  30.925  29.875  1.00  0.00     0.049 A 
ATOM     59  C   UNL A   1      38.744  32.195  30.813  1.00  0.00     0.074 A 
ATOM     60  C   UNL A   1      43.941  32.056  29.179  1.00  0.00     0.029 A 
ATOM     61  N   UNL A   1      43.667  30.961  31.085  1.00  0.00    -0.354 N 
ATOM     62  N   UNL A   1      39.294  31.963  31.966  1.00  0.00    -0.248 NA
ATOM     63  C   UNL A   1      39.219  33.367  30.096  1.00  0.00     0.031 C 
ATOM     64  C   UNL A   1      42.693  32.397  29.737  1.00  0.00     0.029 A 
ATOM     65  C   UNL A   1      42.587  31.806  30.989  1.00  0.00     0.049 A 
ATOM     66  H   UNL A   1      43.929  30.459  31.890  1.00  0.00     0.167 HD
ATOM     67  C   UNL A   1      40.500  32.565  31.830  1.00  0.00     0.074 A 
ATOM     68  C   UNL A   1      40.296  33.615  30.845  1.00  0.00     0.031 C 
ATOM     69  C   UNL A   1      41.572  31.758  32.009  1.00  0.00     0.037 A 
BRANCH  56  70
ATOM     70  C   UNL A   1      45.224  28.521  30.373  1.00  0.00     0.057 A 
ATOM     71  C   UNL A   1      46.549  28.088  30.401  1.00  0.00     0.134 A 
ATOM     72  C   UNL A   1      44.285  27.730  31.075  1.00  0.00     0.134 A 
ATOM     73  F   UNL A   1      47.508  28.808  29.801  1.00  0.00    -0.206 F 
ATOM     74  C   UNL A   1      46.916  26.894  31.035  1.00  0.00     0.040 A 
ATOM     75  C   UNL A   1      44.626  26.505  31.650  1.00  0.00     0.040 A 
ATOM     76  F   UNL A   1      43.005  28.118  31.196  1.00  0.00    -0.206 F 
ATOM     77  C   UNL A   1      45.948  26.080  31.624  1.00  0.00     0.006 A 
ENDBRANCH  56  70
BRANCH  57  78
ATOM     78  C   UNL A   1      36.308  32.070  30.777  1.00  0.00     0.057 A 
ATOM     79  C   UNL A   1      35.896  32.102  32.159  1.00  0.00     0.134 A 
ATOM     80  C   UNL A   1      35.685  33.074  30.022  1.00  0.00     0.134 A 
ATOM     81  F   UNL A   1      36.329  31.197  33.048  1.00  0.00    -0.206 F 
ATOM     82  C   UNL A   1      35.077  33.095  32.743  1.00  0.00     0.040 A 
ATOM     83  C   UNL A   1      34.825  34.061  30.596  1.00  0.00     0.040 A 
ATOM     84  F   UNL A   1      35.948  33.193  28.716  1.00  0.00    -0.206 F 
ATOM     85  C   UNL A   1      34.554  34.102  31.963  1.00  0.00     0.006 A 
ENDBRANCH  57  78
BRANCH  69  86
ATOM     86  C   UNL A   1      41.536  30.799  33.185  1.00  0.00     0.057 A 
ATOM     87  C   UNL A   1      40.906  29.536  33.257  1.00  0.00     0.134 A 
ATOM     88  C   UNL A   1      42.129  31.239  34.376  1.00  0.00     0.134 A 
ATOM     89  F   UNL A   1      40.370  28.935  32.187  1.00  0.00    -0.206 F 
ATOM     90  C   UNL A   1      40.813  28.811  34.453  1.00  0.00     0.040 A 
ATOM     91  C   UNL A   1      42.084  30.503  35.564  1.00  0.00     0.040 A 
ATOM     92  F   UNL A   1      42.782  32.411  34.408  1.00  0.00    -0.206 F 
ATOM     93  C   UNL A   1      41.402  29.294  35.613  1.00  0.00     0.006 A 
ENDBRANCH  69  86
ENDBRANCH  43  44
ENDBRANCH  35  38
ENDBRANCH  33  34
ENDBRANCH  32  33
ENDBRANCH  31  32
ENDBRANCH   1  31
TORSDOF 17
ENDMDL
MODEL 3
REMARK VINA RESULT:     -11.7      3.236      8.794
REMARK SMILES Cc1c(CC(=O)NCCCCCCNC(=O)c2ccc(-c3c4nc(c(-c5c(F)cccc5F)c5ccc([nH]5)c(-c5c(F)cccc5F)c5nc(c(-c6c(F)cccc6F)c6ccc3[nH]6)C=C5)C=C4)cc2)cc(-c2ccc(S(C)(=O)=O)cc2)n1-c1ccccc1
REMARK SMILES IDX 10 1 9 2 8 3 7 4 5 5 6 6 4 8 3 9 1 10 2 11 83 12 71 13 72 14
REMARK SMILES IDX 84 15 85 16 89 17 86 18 88 19 87 20 73 21 74 22 82 23 75 24
REMARK SMILES IDX 81 25 76 26 77 27 78 28 79 29 80 30 11 31 12 32 13 33 14 34
REMARK SMILES IDX 15 35 16 37 17 38 18 39 70 40 19 41 69 42 20 43 21 44 22 45
REMARK SMILES IDX 63 46 23 47 68 48 62 49 64 50 24 51 67 52 61 53 60 54 25 56
REMARK SMILES IDX 51 57 34 58 50 59 35 60 38 61 49 62 65 63 36 64 37 65 48 67
REMARK SMILES IDX 66 68 39 69 26 70 27 71 32 72 28 73 29 74 31 75 33 76 30 77
REMARK SMILES IDX 52 78 53 79 58 80 54 81 55 82 57 83 59 84 56 85 40 86 41 87
REMARK SMILES IDX 46 88 42 89 43 90 45 91 47 92 44 93
REMARK H PARENT 7 7 14 36 64 55 38 66
REMARK Flexibility Score: inf
ROOT
ATOM      1  C   UNL A   1      35.257  23.251  23.099  1.00  0.00     0.002 C 
ENDROOT
BRANCH   1   2
ATOM      2  C   UNL A   1      34.317  23.601  24.259  1.00  0.00     0.021 C 
BRANCH   2   3
ATOM      3  C   UNL A   1      33.423  22.449  24.720  1.00  0.00     0.116 C 
BRANCH   3   4
ATOM      4  N   UNL A   1      33.466  22.284  26.160  1.00  0.00    -0.356 N 
ATOM      5  C   UNL A   1      32.596  22.748  27.108  1.00  0.00     0.224 C 
ATOM      6  O   UNL A   1      32.859  22.537  28.295  1.00  0.00    -0.275 OA
ATOM      7  H   UNL A   1      34.227  21.763  26.504  1.00  0.00     0.163 HD
BRANCH   5   8
ATOM      8  C   UNL A   1      31.317  23.456  26.697  1.00  0.00     0.137 C 
BRANCH   8   9
ATOM      9  C   UNL A   1      31.541  24.854  26.219  1.00  0.00    -0.017 A 
ATOM     10  C   UNL A   1      30.293  24.832  23.954  1.00  0.00     0.065 C 
ATOM     11  C   UNL A   1      31.067  25.464  25.063  1.00  0.00     0.024 A 
ATOM     12  N   UNL A   1      31.488  26.792  25.059  1.00  0.00    -0.314 N 
ATOM     13  C   UNL A   1      32.318  25.813  26.898  1.00  0.00     0.033 A 
ATOM     14  C   UNL A   1      32.245  27.003  26.206  1.00  0.00     0.053 A 
BRANCH  12  15
ATOM     15  C   UNL A   1      31.205  27.768  24.063  1.00  0.00     0.046 A 
ATOM     16  C   UNL A   1      29.924  28.332  23.983  1.00  0.00     0.026 A 
ATOM     17  C   UNL A   1      32.190  28.131  23.139  1.00  0.00     0.026 A 
ATOM     18  C   UNL A   1      29.635  29.264  22.986  1.00  0.00     0.002 A 
ATOM     19  C   UNL A   1      31.888  29.053  22.133  1.00  0.00     0.002 A 
ATOM     20  C   UNL A   1      30.615  29.621  22.061  1.00  0.00     0.000 A 
ENDBRANCH  12  15
BRANCH  14  21
ATOM     21  C   UNL A   1      32.803  28.271  26.646  1.00  0.00    -0.001 A 
ATOM     22  C   UNL A   1      34.178  28.422  26.861  1.00  0.00     0.011 A 
ATOM     23  C   UNL A   1      31.933  29.356  26.811  1.00  0.00     0.011 A 
ATOM     24  C   UNL A   1      34.668  29.647  27.290  1.00  0.00     0.021 A 
ATOM     25  C   UNL A   1      32.416  30.581  27.231  1.00  0.00     0.021 A 
ATOM     26  C   UNL A   1      33.774  30.706  27.483  1.00  0.00     0.067 A 
BRANCH  26  27
ATOM     27  S   UNL A   1      34.356  32.224  28.152  1.00  0.00     0.175 S 
ATOM     28  C   UNL A   1      33.010  33.302  27.701  1.00  0.00     0.163 C 
ATOM     29  O   UNL A   1      34.430  31.999  29.583  1.00  0.00    -0.224 OA
ATOM     30  O   UNL A   1      35.521  32.638  27.405  1.00  0.00    -0.224 OA
ENDBRANCH  26  27
ENDBRANCH  14  21
ENDBRANCH   8   9
ENDBRANCH   5   8
ENDBRANCH   3   4
ENDBRANCH   2   3
ENDBRANCH   1   2
BRANCH   1  31
ATOM     31  C   UNL A   1      36.716  22.972  23.483  1.00  0.00     0.002 C 
BRANCH  31  32
ATOM     32  C   UNL A   1      37.023  21.601  24.117  1.00  0.00     0.021 C 
BRANCH  32  33
ATOM     33  C   UNL A   1      37.292  21.542  25.637  1.00  0.00     0.116 C 
BRANCH  33  34
ATOM     34  N   UNL A   1      38.562  20.962  26.017  1.00  0.00    -0.352 N 
ATOM     35  C   UNL A   1      39.664  21.592  26.574  1.00  0.00     0.251 C 
ATOM     36  H   UNL A   1      38.655  19.995  25.860  1.00  0.00     0.163 HD
ATOM     37  O   UNL A   1      40.650  20.902  26.831  1.00  0.00    -0.269 OA
BRANCH  35  38
ATOM     38  C   UNL A   1      39.745  23.093  26.771  1.00  0.00     0.039 A 
ATOM     39  C   UNL A   1      40.751  23.570  27.587  1.00  0.00     0.014 A 
ATOM     40  C   UNL A   1      38.758  24.035  26.410  1.00  0.00     0.014 A 
ATOM     41  C   UNL A   1      40.792  24.947  27.961  1.00  0.00     0.010 A 
ATOM     42  C   UNL A   1      38.754  25.430  26.895  1.00  0.00     0.010 A 
ATOM     43  C   UNL A   1      39.770  25.951  27.716  1.00  0.00    -0.014 A 
BRANCH  43  44
ATOM     44  C   UNL A   1      39.823  27.296  28.712  1.00  0.00     0.031 A 
ATOM     45  C   UNL A   1      40.950  28.037  28.096  1.00  0.00     0.074 A 
ATOM     46  C   UNL A   1      39.448  27.890  29.936  1.00  0.00     0.049 A 
ATOM     47  N   UNL A   1      42.077  27.384  28.002  1.00  0.00    -0.248 NA
ATOM     48  C   UNL A   1      40.844  29.200  27.222  1.00  0.00     0.031 C 
ATOM     49  C   UNL A   1      38.805  27.261  31.094  1.00  0.00     0.029 A 
ATOM     50  N   UNL A   1      39.528  29.233  30.467  1.00  0.00    -0.354 N 
ATOM     51  C   UNL A   1      42.948  28.199  27.341  1.00  0.00     0.074 A 
ATOM     52  C   UNL A   1      42.074  29.170  26.685  1.00  0.00     0.031 C 
ATOM     53  C   UNL A   1      38.329  28.164  32.006  1.00  0.00     0.029 A 
ATOM     54  C   UNL A   1      38.722  29.523  31.650  1.00  0.00     0.049 A 
ATOM     55  H   UNL A   1      40.100  29.919  30.051  1.00  0.00     0.167 HD
ATOM     56  C   UNL A   1      44.106  28.394  28.037  1.00  0.00     0.037 A 
ATOM     57  C   UNL A   1      38.521  30.691  32.403  1.00  0.00     0.037 A 
ATOM     58  C   UNL A   1      44.063  29.628  28.772  1.00  0.00     0.049 A 
ATOM     59  C   UNL A   1      39.844  31.311  32.377  1.00  0.00     0.074 A 
ATOM     60  C   UNL A   1      43.594  30.887  28.446  1.00  0.00     0.029 A 
ATOM     61  N   UNL A   1      44.055  29.545  30.146  1.00  0.00    -0.354 N 
ATOM     62  N   UNL A   1      40.818  30.847  33.099  1.00  0.00    -0.248 NA
ATOM     63  C   UNL A   1      40.119  32.523  31.624  1.00  0.00     0.031 C 
ATOM     64  C   UNL A   1      42.821  31.265  29.561  1.00  0.00     0.029 A 
ATOM     65  C   UNL A   1      43.209  30.503  30.654  1.00  0.00     0.049 A 
ATOM     66  H   UNL A   1      44.573  28.901  30.680  1.00  0.00     0.167 HD
ATOM     67  C   UNL A   1      41.904  31.335  32.455  1.00  0.00     0.074 A 
ATOM     68  C   UNL A   1      41.444  32.540  31.784  1.00  0.00     0.031 C 
ATOM     69  C   UNL A   1      42.789  30.403  32.027  1.00  0.00     0.037 A 
BRANCH  56  70
ATOM     70  C   UNL A   1      44.681  27.096  28.566  1.00  0.00     0.057 A 
ATOM     71  C   UNL A   1      45.734  26.494  27.879  1.00  0.00     0.134 A 
ATOM     72  C   UNL A   1      44.091  26.342  29.606  1.00  0.00     0.134 A 
ATOM     73  F   UNL A   1      46.380  27.163  26.912  1.00  0.00    -0.206 F 
ATOM     74  C   UNL A   1      46.138  25.184  28.161  1.00  0.00     0.040 A 
ATOM     75  C   UNL A   1      44.438  25.012  29.850  1.00  0.00     0.040 A 
ATOM     76  F   UNL A   1      43.142  26.872  30.395  1.00  0.00    -0.206 F 
ATOM     77  C   UNL A   1      45.463  24.426  29.118  1.00  0.00     0.006 A 
ENDBRANCH  56  70
BRANCH  57  78
ATOM     78  C   UNL A   1      37.684  31.446  33.503  1.00  0.00     0.057 A 
ATOM     79  C   UNL A   1      38.007  31.356  34.906  1.00  0.00     0.134 A 
ATOM     80  C   UNL A   1      36.910  32.580  33.217  1.00  0.00     0.134 A 
ATOM     81  F   UNL A   1      38.695  30.321  35.407  1.00  0.00    -0.206 F 
ATOM     82  C   UNL A   1      37.716  32.342  35.875  1.00  0.00     0.040 A 
ATOM     83  C   UNL A   1      36.578  33.565  34.198  1.00  0.00     0.040 A 
ATOM     84  F   UNL A   1      36.515  32.825  31.962  1.00  0.00    -0.206 F 
ATOM     85  C   UNL A   1      37.016  33.473  35.517  1.00  0.00     0.006 A 
ENDBRANCH  57  78
BRANCH  69  86
ATOM     86  C   UNL A   1      43.144  29.283  32.988  1.00  0.00     0.057 A 
ATOM     87  C   UNL A   1      42.437  28.081  33.218  1.00  0.00     0.134 A 
ATOM     88  C   UNL A   1      44.260  29.486  33.809  1.00  0.00     0.134 A 
ATOM     89  F   UNL A   1      41.401  27.696  32.463  1.00  0.00    -0.206 F 
ATOM     90  C   UNL A   1      42.783  27.192  34.247  1.00  0.00     0.040 A 
ATOM     91  C   UNL A   1      44.644  28.584  34.806  1.00  0.00     0.040 A 
ATOM     92  F   UNL A   1      45.020  30.581  33.650  1.00  0.00    -0.206 F 
ATOM     93  C   UNL A   1      43.890  27.443  35.046  1.00  0.00     0.006 A 
ENDBRANCH  69  86
ENDBRANCH  43  44
ENDBRANCH  35  38
ENDBRANCH  33  34
ENDBRANCH  32  33
ENDBRANCH  31  32
ENDBRANCH   1  31
TORSDOF 17
ENDMDL
