MODEL 1
REMARK VINA RESULT:     -11.7      0.000      0.000
REMARK SMILES O=C(Cc1cccc(-c2ccn(C(F)F)c(=O)c2)c1)NCCCCCCNC(=O)c1ccc(-c2c3nc(c(-c4c(F)cccc4F)c4ccc([nH]4)c(-c4c(F)cccc4F)c4nc(c(-c5c(F)cccc5F)c5ccc2[nH]5)C=C4)C=C3)cc1
REMARK SMILES IDX 23 1 22 2 21 3 20 4 1 5 2 6 3 8 4 9 5 10 19 11 6 12 8 13
REMARK SMILES IDX 7 14 9 15 10 16 18 17 11 18 16 19 12 20 17 21 13 22 14 23
REMARK SMILES IDX 15 24 24 25 25 26 26 27 27 28 28 29 29 31 30 32 31 33 83 34
REMARK SMILES IDX 32 35 82 36 33 37 34 38 35 39 76 40 36 41 81 42 75 43 77 44
REMARK SMILES IDX 37 45 80 46 74 47 73 48 38 50 64 51 47 52 63 53 48 54 51 55
REMARK SMILES IDX 62 56 78 57 49 58 50 59 61 61 79 62 52 63 39 64 40 65 45 66
REMARK SMILES IDX 41 67 42 68 44 69 46 70 43 71 65 72 66 73 71 74 67 75 68 76
REMARK SMILES IDX 70 77 72 78 69 79 53 80 54 81 59 82 55 83 56 84 58 85 60 86
REMARK SMILES IDX 57 87
REMARK H PARENT 20 7 27 30 77 49 51 60
REMARK Flexibility Score: inf
ROOT
ATOM      1  C   UNL A   1      36.597  21.861  24.406  1.00  0.00     0.002 C 
ENDROOT
BRANCH   1   2
ATOM      2  C   UNL A   1      37.417  22.886  25.207  1.00  0.00     0.021 C 
BRANCH   2   3
ATOM      3  C   UNL A   1      36.598  24.009  25.843  1.00  0.00     0.116 C 
BRANCH   3   4
ATOM      4  N   UNL A   1      35.199  23.654  25.888  1.00  0.00    -0.356 N 
ATOM      5  O   UNL A   1      34.311  25.752  25.582  1.00  0.00    -0.275 OA
ATOM      6  C   UNL A   1      34.162  24.545  25.741  1.00  0.00     0.224 C 
ATOM      7  H   UNL A   1      34.972  22.707  26.034  1.00  0.00     0.163 HD
BRANCH   6   8
ATOM      8  C   UNL A   1      32.798  23.877  25.808  1.00  0.00     0.135 C 
BRANCH   8   9
ATOM      9  C   UNL A   1      32.579  22.885  24.690  1.00  0.00    -0.038 A 
ATOM     10  C   UNL A   1      32.228  23.299  23.396  1.00  0.00     0.004 A 
ATOM     11  C   UNL A   1      32.718  21.515  24.942  1.00  0.00     0.013 A 
ATOM     12  C   UNL A   1      31.981  22.364  22.391  1.00  0.00     0.001 A 
ATOM     13  C   UNL A   1      32.502  20.569  23.929  1.00  0.00    -0.018 A 
ATOM     14  C   UNL A   1      32.114  21.002  22.657  1.00  0.00     0.009 A 
BRANCH  13  15
ATOM     15  C   UNL A   1      32.712  19.140  24.223  1.00  0.00    -0.011 A 
ATOM     16  C   UNL A   1      32.411  18.553  25.514  1.00  0.00     0.027 A 
ATOM     17  C   UNL A   1      33.271  18.374  23.270  1.00  0.00     0.080 A 
ATOM     18  C   UNL A   1      32.714  17.275  25.765  1.00  0.00     0.095 A 
ATOM     19  C   UNL A   1      33.595  16.946  23.527  1.00  0.00     0.255 A 
ATOM     20  N   UNL A   1      33.302  16.479  24.798  1.00  0.00    -0.258 N 
ATOM     21  O   UNL A   1      34.099  16.289  22.623  1.00  0.00    -0.269 OA
BRANCH  20  22
ATOM     22  C   UNL A   1      33.658  15.117  25.090  1.00  0.00     0.451 C 
ATOM     23  F   UNL A   1      34.957  15.016  25.460  1.00  0.00    -0.185 F 
ATOM     24  F   UNL A   1      32.894  14.621  26.095  1.00  0.00    -0.185 F 
ENDBRANCH  20  22
ENDBRANCH  13  15
ENDBRANCH   8   9
ENDBRANCH   6   8
ENDBRANCH   3   4
ENDBRANCH   2   3
ENDBRANCH   1   2
BRANCH   1  25
ATOM     25  C   UNL A   1      36.525  20.459  25.015  1.00  0.00     0.002 C 
BRANCH  25  26
ATOM     26  C   UNL A   1      37.795  19.623  24.856  1.00  0.00     0.021 C 
BRANCH  26  27
ATOM     27  C   UNL A   1      38.966  20.065  25.725  1.00  0.00     0.116 C 
BRANCH  27  28
ATOM     28  N   UNL A   1      40.014  19.060  25.807  1.00  0.00    -0.352 N 
ATOM     29  C   UNL A   1      41.350  19.230  26.071  1.00  0.00     0.251 C 
ATOM     30  H   UNL A   1      39.727  18.132  25.653  1.00  0.00     0.163 HD
ATOM     31  O   UNL A   1      42.128  18.284  25.952  1.00  0.00    -0.269 OA
BRANCH  29  32
ATOM     32  C   UNL A   1      41.862  20.557  26.474  1.00  0.00     0.039 A 
ATOM     33  C   UNL A   1      42.245  21.463  25.483  1.00  0.00     0.014 A 
ATOM     34  C   UNL A   1      41.973  20.906  27.824  1.00  0.00     0.014 A 
ATOM     35  C   UNL A   1      42.696  22.736  25.842  1.00  0.00     0.010 A 
ATOM     36  C   UNL A   1      42.350  22.199  28.178  1.00  0.00     0.010 A 
ATOM     37  C   UNL A   1      42.729  23.123  27.192  1.00  0.00    -0.014 A 
BRANCH  37  38
ATOM     38  C   UNL A   1      43.195  24.475  27.594  1.00  0.00     0.031 A 
ATOM     39  C   UNL A   1      42.193  25.526  27.990  1.00  0.00     0.074 A 
ATOM     40  C   UNL A   1      44.509  24.774  27.562  1.00  0.00     0.049 A 
ATOM     41  N   UNL A   1      42.389  26.783  28.299  1.00  0.00    -0.248 NA
ATOM     42  C   UNL A   1      40.778  25.117  28.019  1.00  0.00     0.031 C 
ATOM     43  C   UNL A   1      45.578  23.858  27.160  1.00  0.00     0.029 A 
ATOM     44  N   UNL A   1      45.168  25.940  27.866  1.00  0.00    -0.354 N 
ATOM     45  C   UNL A   1      41.128  27.311  28.552  1.00  0.00     0.074 A 
ATOM     46  C   UNL A   1      40.169  26.258  28.299  1.00  0.00     0.031 C 
ATOM     47  C   UNL A   1      46.759  24.492  27.256  1.00  0.00     0.029 A 
ATOM     48  C   UNL A   1      46.529  25.866  27.692  1.00  0.00     0.049 A 
ATOM     49  H   UNL A   1      44.708  26.751  28.180  1.00  0.00     0.167 HD
ATOM     50  C   UNL A   1      40.799  28.550  28.990  1.00  0.00     0.037 A 
ATOM     51  C   UNL A   1      47.481  26.804  27.856  1.00  0.00     0.037 A 
ATOM     52  C   UNL A   1      41.753  29.593  29.261  1.00  0.00     0.049 A 
ATOM     53  C   UNL A   1      47.086  28.176  28.332  1.00  0.00     0.074 A 
ATOM     54  C   UNL A   1      41.520  30.877  29.719  1.00  0.00     0.029 A 
ATOM     55  N   UNL A   1      43.125  29.464  29.107  1.00  0.00    -0.354 N 
ATOM     56  N   UNL A   1      45.894  28.646  28.609  1.00  0.00    -0.248 NA
ATOM     57  C   UNL A   1      48.173  29.145  28.534  1.00  0.00     0.031 C 
ATOM     58  C   UNL A   1      42.749  31.538  29.815  1.00  0.00     0.029 A 
ATOM     59  C   UNL A   1      43.750  30.648  29.463  1.00  0.00     0.049 A 
ATOM     60  H   UNL A   1      43.586  28.653  28.792  1.00  0.00     0.167 HD
ATOM     61  C   UNL A   1      46.091  29.947  29.056  1.00  0.00     0.074 A 
ATOM     62  C   UNL A   1      47.518  30.187  29.025  1.00  0.00     0.031 C 
ATOM     63  C   UNL A   1      45.174  30.861  29.456  1.00  0.00     0.037 A 
BRANCH  50  64
ATOM     64  C   UNL A   1      39.346  28.837  29.227  1.00  0.00     0.057 A 
ATOM     65  C   UNL A   1      38.754  28.633  30.482  1.00  0.00     0.134 A 
ATOM     66  C   UNL A   1      38.539  29.367  28.212  1.00  0.00     0.134 A 
ATOM     67  F   UNL A   1      39.467  28.116  31.493  1.00  0.00    -0.206 F 
ATOM     68  C   UNL A   1      37.409  28.927  30.712  1.00  0.00     0.040 A 
ATOM     69  C   UNL A   1      37.200  29.690  28.438  1.00  0.00     0.040 A 
ATOM     70  F   UNL A   1      39.043  29.591  26.989  1.00  0.00    -0.206 F 
ATOM     71  C   UNL A   1      36.630  29.465  29.689  1.00  0.00     0.006 A 
ENDBRANCH  50  64
BRANCH  51  72
ATOM     72  C   UNL A   1      48.907  26.486  27.583  1.00  0.00     0.057 A 
ATOM     73  C   UNL A   1      49.450  26.622  26.299  1.00  0.00     0.134 A 
ATOM     74  C   UNL A   1      49.749  25.994  28.588  1.00  0.00     0.134 A 
ATOM     75  F   UNL A   1      48.689  27.071  25.290  1.00  0.00    -0.206 F 
ATOM     76  C   UNL A   1      50.763  26.243  26.015  1.00  0.00     0.040 A 
ATOM     77  C   UNL A   1      51.074  25.640  28.325  1.00  0.00     0.040 A 
ATOM     78  F   UNL A   1      49.296  25.850  29.842  1.00  0.00    -0.206 F 
ATOM     79  C   UNL A   1      51.579  25.752  27.031  1.00  0.00     0.006 A 
ENDBRANCH  51  72
BRANCH  63  80
ATOM     80  C   UNL A   1      45.689  32.177  29.961  1.00  0.00     0.057 A 
ATOM     81  C   UNL A   1      45.860  33.283  29.119  1.00  0.00     0.134 A 
ATOM     82  C   UNL A   1      45.988  32.346  31.319  1.00  0.00     0.134 A 
ATOM     83  F   UNL A   1      45.604  33.185  27.805  1.00  0.00    -0.206 F 
ATOM     84  C   UNL A   1      46.341  34.500  29.604  1.00  0.00     0.040 A 
ATOM     85  C   UNL A   1      46.439  33.566  31.821  1.00  0.00     0.040 A 
ATOM     86  F   UNL A   1      45.834  31.329  32.182  1.00  0.00    -0.206 F 
ATOM     87  C   UNL A   1      46.626  34.646  30.961  1.00  0.00     0.006 A 
ENDBRANCH  63  80
ENDBRANCH  37  38
ENDBRANCH  29  32
ENDBRANCH  27  28
ENDBRANCH  26  27
ENDBRANCH  25  26
ENDBRANCH   1  25
TORSDOF 16
ENDMDL
MODEL 2
REMARK VINA RESULT:     -11.3      3.112      7.977
REMARK SMILES O=C(Cc1cccc(-c2ccn(C(F)F)c(=O)c2)c1)NCCCCCCNC(=O)c1ccc(-c2c3nc(c(-c4c(F)cccc4F)c4ccc([nH]4)c(-c4c(F)cccc4F)c4nc(c(-c5c(F)cccc5F)c5ccc2[nH]5)C=C4)C=C3)cc1
REMARK SMILES IDX 23 1 22 2 21 3 20 4 1 5 2 6 3 8 4 9 5 10 19 11 6 12 8 13
REMARK SMILES IDX 7 14 9 15 10 16 18 17 11 18 16 19 12 20 17 21 13 22 14 23
REMARK SMILES IDX 15 24 24 25 25 26 26 27 27 28 28 29 29 31 30 32 31 33 83 34
REMARK SMILES IDX 32 35 82 36 33 37 34 38 35 39 76 40 36 41 81 42 75 43 77 44
REMARK SMILES IDX 37 45 80 46 74 47 73 48 38 50 64 51 47 52 63 53 48 54 51 55
REMARK SMILES IDX 62 56 78 57 49 58 50 59 61 61 79 62 52 63 39 64 40 65 45 66
REMARK SMILES IDX 41 67 42 68 44 69 46 70 43 71 65 72 66 73 71 74 67 75 68 76
REMARK SMILES IDX 70 77 72 78 69 79 53 80 54 81 59 82 55 83 56 84 58 85 60 86
REMARK SMILES IDX 57 87
REMARK H PARENT 20 7 27 30 77 49 51 60
REMARK Flexibility Score: inf
ROOT
ATOM      1  C   UNL A   1      37.138  21.771  24.285  1.00  0.00     0.002 C 
ENDROOT
BRANCH   1   2
ATOM      2  C   UNL A   1      36.561  22.966  25.061  1.00  0.00     0.021 C 
BRANCH   2   3
ATOM      3  C   UNL A   1      35.206  22.711  25.720  1.00  0.00     0.116 C 
BRANCH   3   4
ATOM      4  N   UNL A   1      34.132  23.098  24.837  1.00  0.00    -0.356 N 
ATOM      5  O   UNL A   1      33.337  21.000  24.338  1.00  0.00    -0.275 OA
ATOM      6  C   UNL A   1      33.270  22.218  24.223  1.00  0.00     0.224 C 
ATOM      7  H   UNL A   1      34.007  24.058  24.661  1.00  0.00     0.163 HD
BRANCH   6   8
ATOM      8  C   UNL A   1      32.223  22.919  23.372  1.00  0.00     0.135 C 
BRANCH   8   9
ATOM      9  C   UNL A   1      31.383  23.893  24.163  1.00  0.00    -0.038 A 
ATOM     10  C   UNL A   1      31.094  23.684  25.520  1.00  0.00     0.004 A 
ATOM     11  C   UNL A   1      30.866  25.032  23.534  1.00  0.00     0.013 A 
ATOM     12  C   UNL A   1      30.275  24.570  26.219  1.00  0.00     0.001 A 
ATOM     13  C   UNL A   1      30.067  25.945  24.237  1.00  0.00    -0.018 A 
ATOM     14  C   UNL A   1      29.759  25.695  25.579  1.00  0.00     0.009 A 
BRANCH  13  15
ATOM     15  C   UNL A   1      29.588  27.158  23.552  1.00  0.00    -0.011 A 
ATOM     16  C   UNL A   1      30.479  28.078  22.873  1.00  0.00     0.027 A 
ATOM     17  C   UNL A   1      28.278  27.451  23.626  1.00  0.00     0.080 A 
ATOM     18  C   UNL A   1      30.010  29.218  22.354  1.00  0.00     0.095 A 
ATOM     19  C   UNL A   1      27.738  28.704  23.035  1.00  0.00     0.255 A 
ATOM     20  N   UNL A   1      28.667  29.538  22.435  1.00  0.00    -0.258 N 
ATOM     21  O   UNL A   1      26.534  28.922  23.125  1.00  0.00    -0.269 OA
BRANCH  20  22
ATOM     22  C   UNL A   1      28.179  30.783  21.906  1.00  0.00     0.451 C 
ATOM     23  F   UNL A   1      29.145  31.733  21.912  1.00  0.00    -0.185 F 
ATOM     24  F   UNL A   1      27.746  30.631  20.630  1.00  0.00    -0.185 F 
ENDBRANCH  20  22
ENDBRANCH  13  15
ENDBRANCH   8   9
ENDBRANCH   6   8
ENDBRANCH   3   4
ENDBRANCH   2   3
ENDBRANCH   1   2
BRANCH   1  25
ATOM     25  C   UNL A   1      36.754  20.391  24.824  1.00  0.00     0.002 C 
BRANCH  25  26
ATOM     26  C   UNL A   1      37.923  19.422  25.001  1.00  0.00     0.021 C 
BRANCH  26  27
ATOM     27  C   UNL A   1      39.119  19.992  25.753  1.00  0.00     0.116 C 
BRANCH  27  28
ATOM     28  N   UNL A   1      40.223  19.050  25.849  1.00  0.00    -0.352 N 
ATOM     29  C   UNL A   1      41.553  19.302  26.073  1.00  0.00     0.251 C 
ATOM     30  H   UNL A   1      39.984  18.102  25.737  1.00  0.00     0.163 HD
ATOM     31  O   UNL A   1      42.379  18.396  25.972  1.00  0.00    -0.269 OA
BRANCH  29  32
ATOM     32  C   UNL A   1      42.000  20.670  26.412  1.00  0.00     0.039 A 
ATOM     33  C   UNL A   1      42.260  21.572  25.378  1.00  0.00     0.014 A 
ATOM     34  C   UNL A   1      42.171  21.062  27.743  1.00  0.00     0.014 A 
ATOM     35  C   UNL A   1      42.646  22.880  25.678  1.00  0.00     0.010 A 
ATOM     36  C   UNL A   1      42.483  22.386  28.043  1.00  0.00     0.010 A 
ATOM     37  C   UNL A   1      42.738  23.306  27.014  1.00  0.00    -0.014 A 
BRANCH  37  38
ATOM     38  C   UNL A   1      43.137  24.695  27.354  1.00  0.00     0.031 A 
ATOM     39  C   UNL A   1      44.582  25.106  27.253  1.00  0.00     0.074 A 
ATOM     40  C   UNL A   1      42.215  25.574  27.795  1.00  0.00     0.049 A 
ATOM     41  N   UNL A   1      45.144  26.243  27.576  1.00  0.00    -0.248 NA
ATOM     42  C   UNL A   1      45.525  24.095  26.746  1.00  0.00     0.031 C 
ATOM     43  C   UNL A   1      40.790  25.290  27.975  1.00  0.00     0.029 A 
ATOM     44  N   UNL A   1      42.343  26.886  28.181  1.00  0.00    -0.354 N 
ATOM     45  C   UNL A   1      46.500  26.082  27.315  1.00  0.00     0.074 A 
ATOM     46  C   UNL A   1      46.686  24.718  26.870  1.00  0.00     0.031 C 
ATOM     47  C   UNL A   1      40.175  26.398  28.422  1.00  0.00     0.029 A 
ATOM     48  C   UNL A   1      41.164  27.458  28.593  1.00  0.00     0.049 A 
ATOM     49  H   UNL A   1      43.200  27.370  28.164  1.00  0.00     0.167 HD
ATOM     50  C   UNL A   1      47.496  26.995  27.404  1.00  0.00     0.037 A 
ATOM     51  C   UNL A   1      40.912  28.694  29.064  1.00  0.00     0.037 A 
ATOM     52  C   UNL A   1      47.309  28.358  27.829  1.00  0.00     0.049 A 
ATOM     53  C   UNL A   1      42.040  29.686  29.164  1.00  0.00     0.074 A 
ATOM     54  C   UNL A   1      48.253  29.363  27.940  1.00  0.00     0.029 A 
ATOM     55  N   UNL A   1      46.093  28.907  28.201  1.00  0.00    -0.354 N 
ATOM     56  N   UNL A   1      43.309  29.530  28.872  1.00  0.00    -0.248 NA
ATOM     57  C   UNL A   1      41.698  31.032  29.645  1.00  0.00     0.031 C 
ATOM     58  C   UNL A   1      47.613  30.515  28.410  1.00  0.00     0.029 A 
ATOM     59  C   UNL A   1      46.262  30.238  28.542  1.00  0.00     0.049 A 
ATOM     60  H   UNL A   1      45.235  28.423  28.220  1.00  0.00     0.167 HD
ATOM     61  C   UNL A   1      43.905  30.765  29.093  1.00  0.00     0.074 A 
ATOM     62  C   UNL A   1      42.857  31.662  29.532  1.00  0.00     0.031 C 
ATOM     63  C   UNL A   1      45.203  31.126  28.947  1.00  0.00     0.037 A 
BRANCH  50  64
ATOM     64  C   UNL A   1      48.876  26.555  27.011  1.00  0.00     0.057 A 
ATOM     65  C   UNL A   1      49.703  25.857  27.902  1.00  0.00     0.134 A 
ATOM     66  C   UNL A   1      49.368  26.786  25.721  1.00  0.00     0.134 A 
ATOM     67  F   UNL A   1      49.298  25.614  29.158  1.00  0.00    -0.206 F 
ATOM     68  C   UNL A   1      50.976  25.421  27.530  1.00  0.00     0.040 A 
ATOM     69  C   UNL A   1      50.628  26.332  25.328  1.00  0.00     0.040 A 
ATOM     70  F   UNL A   1      48.626  27.444  24.817  1.00  0.00    -0.206 F 
ATOM     71  C   UNL A   1      51.437  25.652  26.235  1.00  0.00     0.006 A 
ENDBRANCH  50  64
BRANCH  51  72
ATOM     72  C   UNL A   1      39.535  29.080  29.469  1.00  0.00     0.057 A 
ATOM     73  C   UNL A   1      39.112  28.974  30.800  1.00  0.00     0.134 A 
ATOM     74  C   UNL A   1      38.596  29.520  28.528  1.00  0.00     0.134 A 
ATOM     75  F   UNL A   1      39.960  28.542  31.744  1.00  0.00    -0.206 F 
ATOM     76  C   UNL A   1      37.796  29.251  31.174  1.00  0.00     0.040 A 
ATOM     77  C   UNL A   1      37.285  29.830  28.894  1.00  0.00     0.040 A 
ATOM     78  F   UNL A   1      38.939  29.654  27.239  1.00  0.00    -0.206 F 
ATOM     79  C   UNL A   1      36.879  29.683  30.219  1.00  0.00     0.006 A 
ENDBRANCH  51  72
BRANCH  63  80
ATOM     80  C   UNL A   1      45.550  32.565  29.193  1.00  0.00     0.057 A 
ATOM     81  C   UNL A   1      45.971  33.027  30.446  1.00  0.00     0.134 A 
ATOM     82  C   UNL A   1      45.490  33.495  28.147  1.00  0.00     0.134 A 
ATOM     83  F   UNL A   1      46.039  32.190  31.492  1.00  0.00    -0.206 F 
ATOM     84  C   UNL A   1      46.289  34.370  30.658  1.00  0.00     0.040 A 
ATOM     85  C   UNL A   1      45.835  34.833  28.339  1.00  0.00     0.040 A 
ATOM     86  F   UNL A   1      45.106  33.116  26.918  1.00  0.00    -0.206 F 
ATOM     87  C   UNL A   1      46.228  35.276  29.600  1.00  0.00     0.006 A 
ENDBRANCH  63  80
ENDBRANCH  37  38
ENDBRANCH  29  32
ENDBRANCH  27  28
ENDBRANCH  26  27
ENDBRANCH  25  26
ENDBRANCH   1  25
TORSDOF 16
ENDMDL
MODEL 3
REMARK VINA RESULT:     -11.3      3.075      5.030
REMARK SMILES O=C(Cc1cccc(-c2ccn(C(F)F)c(=O)c2)c1)NCCCCCCNC(=O)c1ccc(-c2c3nc(c(-c4c(F)cccc4F)c4ccc([nH]4)c(-c4c(F)cccc4F)c4nc(c(-c5c(F)cccc5F)c5ccc2[nH]5)C=C4)C=C3)cc1
REMARK SMILES IDX 23 1 22 2 21 3 20 4 1 5 2 6 3 8 4 9 5 10 19 11 6 12 8 13
REMARK SMILES IDX 7 14 9 15 10 16 18 17 11 18 16 19 12 20 17 21 13 22 14 23
REMARK SMILES IDX 15 24 24 25 25 26 26 27 27 28 28 29 29 31 30 32 31 33 83 34
REMARK SMILES IDX 32 35 82 36 33 37 34 38 35 39 76 40 36 41 81 42 75 43 77 44
REMARK SMILES IDX 37 45 80 46 74 47 73 48 38 50 64 51 47 52 63 53 48 54 51 55
REMARK SMILES IDX 62 56 78 57 49 58 50 59 61 61 79 62 52 63 39 64 40 65 45 66
REMARK SMILES IDX 41 67 42 68 44 69 46 70 43 71 65 72 66 73 71 74 67 75 68 76
REMARK SMILES IDX 70 77 72 78 69 79 53 80 54 81 59 82 55 83 56 84 58 85 60 86
REMARK SMILES IDX 57 87
REMARK H PARENT 20 7 27 30 77 49 51 60
REMARK Flexibility Score: inf
ROOT
ATOM      1  C   UNL A   1      37.394  22.026  24.499  1.00  0.00     0.002 C 
ENDROOT
BRANCH   1   2
ATOM      2  C   UNL A   1      36.771  23.134  25.364  1.00  0.00     0.021 C 
BRANCH   2   3
ATOM      3  C   UNL A   1      35.405  22.794  25.958  1.00  0.00     0.116 C 
BRANCH   3   4
ATOM      4  N   UNL A   1      34.349  23.148  25.038  1.00  0.00    -0.356 N 
ATOM      5  O   UNL A   1      33.373  21.077  24.838  1.00  0.00    -0.275 OA
ATOM      6  C   UNL A   1      33.406  22.270  24.558  1.00  0.00     0.224 C 
ATOM      7  H   UNL A   1      34.302  24.082  24.733  1.00  0.00     0.163 HD
BRANCH   6   8
ATOM      8  C   UNL A   1      32.405  22.935  23.626  1.00  0.00     0.135 C 
BRANCH   8   9
ATOM      9  C   UNL A   1      31.459  23.862  24.352  1.00  0.00    -0.038 A 
ATOM     10  C   UNL A   1      31.064  23.623  25.677  1.00  0.00     0.004 A 
ATOM     11  C   UNL A   1      30.949  24.986  23.692  1.00  0.00     0.013 A 
ATOM     12  C   UNL A   1      30.150  24.464  26.311  1.00  0.00     0.001 A 
ATOM     13  C   UNL A   1      30.053  25.856  24.332  1.00  0.00    -0.018 A 
ATOM     14  C   UNL A   1      29.643  25.575  25.640  1.00  0.00     0.009 A 
BRANCH  13  15
ATOM     15  C   UNL A   1      29.583  27.057  23.620  1.00  0.00    -0.011 A 
ATOM     16  C   UNL A   1      30.479  27.947  22.908  1.00  0.00     0.027 A 
ATOM     17  C   UNL A   1      28.278  27.369  23.699  1.00  0.00     0.080 A 
ATOM     18  C   UNL A   1      30.020  29.079  22.363  1.00  0.00     0.095 A 
ATOM     19  C   UNL A   1      27.749  28.613  23.081  1.00  0.00     0.255 A 
ATOM     20  N   UNL A   1      28.682  29.418  22.449  1.00  0.00    -0.258 N 
ATOM     21  O   UNL A   1      26.549  28.849  23.177  1.00  0.00    -0.269 OA
BRANCH  20  22
ATOM     22  C   UNL A   1      28.205  30.655  21.893  1.00  0.00     0.451 C 
ATOM     23  F   UNL A   1      29.195  31.577  21.819  1.00  0.00    -0.185 F 
ATOM     24  F   UNL A   1      27.712  30.466  20.644  1.00  0.00    -0.185 F 
ENDBRANCH  20  22
ENDBRANCH  13  15
ENDBRANCH   8   9
ENDBRANCH   6   8
ENDBRANCH   3   4
ENDBRANCH   2   3
ENDBRANCH   1   2
BRANCH   1  25
ATOM     25  C   UNL A   1      36.847  20.617  24.745  1.00  0.00     0.002 C 
BRANCH  25  26
ATOM     26  C   UNL A   1      37.912  19.549  24.998  1.00  0.00     0.021 C 
BRANCH  26  27
ATOM     27  C   UNL A   1      39.151  20.043  25.736  1.00  0.00     0.116 C 
BRANCH  27  28
ATOM     28  N   UNL A   1      40.193  19.032  25.822  1.00  0.00    -0.352 N 
ATOM     29  C   UNL A   1      41.536  19.197  26.049  1.00  0.00     0.251 C 
ATOM     30  H   UNL A   1      39.895  18.103  25.699  1.00  0.00     0.163 HD
ATOM     31  O   UNL A   1      42.304  18.243  25.938  1.00  0.00    -0.269 OA
BRANCH  29  32
ATOM     32  C   UNL A   1      42.068  20.531  26.403  1.00  0.00     0.039 A 
ATOM     33  C   UNL A   1      42.388  21.425  25.379  1.00  0.00     0.014 A 
ATOM     34  C   UNL A   1      42.259  20.898  27.739  1.00  0.00     0.014 A 
ATOM     35  C   UNL A   1      42.856  22.703  25.694  1.00  0.00     0.010 A 
ATOM     36  C   UNL A   1      42.653  22.196  28.053  1.00  0.00     0.010 A 
ATOM     37  C   UNL A   1      42.970  23.108  27.035  1.00  0.00    -0.014 A 
BRANCH  37  38
ATOM     38  C   UNL A   1      43.455  24.466  27.390  1.00  0.00     0.031 A 
ATOM     39  C   UNL A   1      42.474  25.523  27.822  1.00  0.00     0.074 A 
ATOM     40  C   UNL A   1      44.765  24.764  27.284  1.00  0.00     0.049 A 
ATOM     41  N   UNL A   1      42.685  26.785  28.100  1.00  0.00    -0.248 NA
ATOM     42  C   UNL A   1      41.064  25.115  27.931  1.00  0.00     0.031 C 
ATOM     43  C   UNL A   1      45.812  23.842  26.841  1.00  0.00     0.029 A 
ATOM     44  N   UNL A   1      45.439  25.934  27.535  1.00  0.00    -0.354 N 
ATOM     45  C   UNL A   1      41.440  27.317  28.411  1.00  0.00     0.074 A 
ATOM     46  C   UNL A   1      40.469  26.260  28.225  1.00  0.00     0.031 C 
ATOM     47  C   UNL A   1      46.996  24.477  26.864  1.00  0.00     0.029 A 
ATOM     48  C   UNL A   1      46.789  25.858  27.290  1.00  0.00     0.049 A 
ATOM     49  H   UNL A   1      44.995  26.751  27.859  1.00  0.00     0.167 HD
ATOM     50  C   UNL A   1      41.133  28.562  28.847  1.00  0.00     0.037 A 
ATOM     51  C   UNL A   1      47.747  26.798  27.389  1.00  0.00     0.037 A 
ATOM     52  C   UNL A   1      42.100  29.609  29.050  1.00  0.00     0.049 A 
ATOM     53  C   UNL A   1      47.377  28.177  27.864  1.00  0.00     0.074 A 
ATOM     54  C   UNL A   1      41.890  30.901  29.500  1.00  0.00     0.029 A 
ATOM     55  N   UNL A   1      43.461  29.479  28.827  1.00  0.00    -0.354 N 
ATOM     56  N   UNL A   1      46.201  28.652  28.195  1.00  0.00    -0.248 NA
ATOM     57  C   UNL A   1      48.472  29.150  27.993  1.00  0.00     0.031 C 
ATOM     58  C   UNL A   1      43.122  31.563  29.521  1.00  0.00     0.029 A 
ATOM     59  C   UNL A   1      44.104  30.668  29.130  1.00  0.00     0.049 A 
ATOM     60  H   UNL A   1      43.905  28.663  28.500  1.00  0.00     0.167 HD
ATOM     61  C   UNL A   1      46.420  29.960  28.611  1.00  0.00     0.074 A 
ATOM     62  C   UNL A   1      47.843  30.199  28.501  1.00  0.00     0.031 C 
ATOM     63  C   UNL A   1      45.525  30.880  29.045  1.00  0.00     0.037 A 
BRANCH  50  64
ATOM     64  C   UNL A   1      39.694  28.854  29.155  1.00  0.00     0.057 A 
ATOM     65  C   UNL A   1      39.167  28.664  30.441  1.00  0.00     0.134 A 
ATOM     66  C   UNL A   1      38.836  29.373  28.178  1.00  0.00     0.134 A 
ATOM     67  F   UNL A   1      39.932  28.157  31.420  1.00  0.00    -0.206 F 
ATOM     68  C   UNL A   1      37.836  28.961  30.737  1.00  0.00     0.040 A 
ATOM     69  C   UNL A   1      37.511  29.700  28.469  1.00  0.00     0.040 A 
ATOM     70  F   UNL A   1      39.276  29.585  26.928  1.00  0.00    -0.206 F 
ATOM     71  C   UNL A   1      37.007  29.490  29.750  1.00  0.00     0.006 A 
ENDBRANCH  50  64
BRANCH  51  72
ATOM     72  C   UNL A   1      49.157  26.476  27.047  1.00  0.00     0.057 A 
ATOM     73  C   UNL A   1      49.629  26.584  25.732  1.00  0.00     0.134 A 
ATOM     74  C   UNL A   1      50.053  26.007  28.015  1.00  0.00     0.134 A 
ATOM     75  F   UNL A   1      48.814  27.010  24.756  1.00  0.00    -0.206 F 
ATOM     76  C   UNL A   1      50.926  26.200  25.386  1.00  0.00     0.040 A 
ATOM     77  C   UNL A   1      51.363  25.649  27.688  1.00  0.00     0.040 A 
ATOM     78  F   UNL A   1      49.669  25.891  29.294  1.00  0.00    -0.206 F 
ATOM     79  C   UNL A   1      51.797  25.733  26.367  1.00  0.00     0.006 A 
ENDBRANCH  51  72
BRANCH  63  80
ATOM     80  C   UNL A   1      46.065  32.204  29.501  1.00  0.00     0.057 A 
ATOM     81  C   UNL A   1      46.197  33.295  28.632  1.00  0.00     0.134 A 
ATOM     82  C   UNL A   1      46.429  32.396  30.840  1.00  0.00     0.134 A 
ATOM     83  F   UNL A   1      45.878  33.174  27.334  1.00  0.00    -0.206 F 
ATOM     84  C   UNL A   1      46.702  34.519  29.072  1.00  0.00     0.040 A 
ATOM     85  C   UNL A   1      46.905  33.624  31.299  1.00  0.00     0.040 A 
ATOM     86  F   UNL A   1      46.315  31.395  31.727  1.00  0.00    -0.206 F 
ATOM     87  C   UNL A   1      47.051  34.688  30.411  1.00  0.00     0.006 A 
ENDBRANCH  63  80
ENDBRANCH  37  38
ENDBRANCH  29  32
ENDBRANCH  27  28
ENDBRANCH  26  27
ENDBRANCH  25  26
ENDBRANCH   1  25
TORSDOF 16
ENDMDL
