MODEL 1
REMARK VINA RESULT:     -11.6      0.000      0.000
REMARK SMILES [NH3+][C@@H](Cc1cn(-c2nc(Cl)nc(N3CCOCC3)n2)c2ccccc12)C(=O)NCCCCCCNC(=O)c1ccc(-c2c3nc(c(-c4c(F)cccc4F)c4ccc([nH]4)c(-c4c(F)cccc4F)c4nc(c(-c5c(F)cccc5F)c5ccc2[nH]5)C=C4)C=C3)cc1
REMARK SMILES IDX 30 1 29 2 28 3 26 4 27 5 2 7 1 8 3 12 4 13 5 14 25 15 6 16
REMARK SMILES IDX 20 17 24 18 21 19 23 20 22 21 7 22 8 23 19 24 9 25 12 26
REMARK SMILES IDX 10 27 11 28 13 29 14 30 18 31 15 32 17 33 16 34 31 35 32 36
REMARK SMILES IDX 33 37 34 38 35 39 36 40 37 42 38 43 39 44 91 45 40 46 90 47
REMARK SMILES IDX 41 48 42 49 43 50 84 51 44 52 89 53 83 54 85 55 45 56 88 57
REMARK SMILES IDX 82 58 81 59 46 61 72 62 55 63 71 64 56 65 59 66 70 67 86 68
REMARK SMILES IDX 57 69 58 70 69 72 87 73 60 74 47 75 48 76 53 77 49 78 50 79
REMARK SMILES IDX 52 80 54 81 51 82 73 83 74 84 79 85 75 86 76 87 78 88 80 89
REMARK SMILES IDX 77 90 61 91 62 92 67 93 63 94 64 95 66 96 68 97 65 98
REMARK H PARENT 28 6 1 9 1 10 1 11 35 41 85 60 59 71
REMARK Flexibility Score: inf
ROOT
ATOM      1  C   UNL A   1      34.608  33.916  29.761  1.00  0.00     0.021 C 
ENDROOT
BRANCH   1   2
ATOM      2  C   UNL A   1      34.218  32.776  28.843  1.00  0.00     0.116 C 
BRANCH   2   3
ATOM      3  N   UNL A   1      34.811  31.502  29.152  1.00  0.00    -0.351 N 
ATOM      4  C   UNL A   1      34.913  30.390  28.364  1.00  0.00     0.278 C 
ATOM      5  O   UNL A   1      35.705  29.518  28.742  1.00  0.00    -0.268 OA
ATOM      6  H   UNL A   1      35.195  31.421  30.055  1.00  0.00     0.163 HD
BRANCH   4   7
ATOM      7  C   UNL A   1      34.095  30.184  27.059  1.00  0.00     0.275 C 
BRANCH   7   8
ATOM      8  N   UNL A   1      34.895  29.538  25.993  1.00  0.00    -0.347 N 
ATOM      9  H   UNL A   1      34.519  29.798  25.081  1.00  0.00     0.345 HD
ATOM     10  H   UNL A   1      34.853  28.525  26.102  1.00  0.00     0.345 HD
ATOM     11  H   UNL A   1      35.865  29.848  26.060  1.00  0.00     0.345 HD
ENDBRANCH   7   8
BRANCH   7  12
ATOM     12  C   UNL A   1      32.643  29.685  27.226  1.00  0.00     0.113 C 
BRANCH  12  13
ATOM     13  C   UNL A   1      32.201  28.469  26.460  1.00  0.00    -0.015 A 
ATOM     14  C   UNL A   1      32.464  27.143  26.751  1.00  0.00     0.099 A 
ATOM     15  C   UNL A   1      31.392  28.464  25.277  1.00  0.00     0.004 A 
ATOM     16  N   UNL A   1      31.767  26.327  25.874  1.00  0.00    -0.285 N 
ATOM     17  C   UNL A   1      31.170  27.128  24.903  1.00  0.00     0.056 A 
ATOM     18  C   UNL A   1      30.775  29.491  24.529  1.00  0.00     0.010 A 
ATOM     19  C   UNL A   1      30.348  26.807  23.805  1.00  0.00     0.027 A 
ATOM     20  C   UNL A   1      29.939  29.172  23.456  1.00  0.00     0.001 A 
ATOM     21  C   UNL A   1      29.730  27.845  23.101  1.00  0.00     0.002 A 
BRANCH  16  22
ATOM     22  C   UNL A   1      31.565  24.921  26.066  1.00  0.00     0.240 A 
ATOM     23  N   UNL A   1      30.469  24.512  26.686  1.00  0.00    -0.181 NA
ATOM     24  N   UNL A   1      32.553  24.106  25.664  1.00  0.00    -0.176 NA
ATOM     25  C   UNL A   1      30.406  23.193  26.803  1.00  0.00     0.228 A 
ATOM     26  C   UNL A   1      32.422  22.810  25.954  1.00  0.00     0.231 A 
ATOM     27  Cl  UNL A   1      28.939  22.573  27.420  1.00  0.00    -0.041 Cl
ATOM     28  N   UNL A   1      31.337  22.295  26.500  1.00  0.00    -0.182 NA
BRANCH  26  29
ATOM     29  N   UNL A   1      33.508  22.010  25.699  1.00  0.00    -0.336 N 
ATOM     30  C   UNL A   1      34.641  22.070  26.623  1.00  0.00     0.148 C 
ATOM     31  C   UNL A   1      33.262  20.640  25.255  1.00  0.00     0.148 C 
ATOM     32  C   UNL A   1      35.888  21.601  25.861  1.00  0.00     0.181 C 
ATOM     33  C   UNL A   1      34.547  20.133  24.565  1.00  0.00     0.181 C 
ATOM     34  O   UNL A   1      35.711  20.247  25.411  1.00  0.00    -0.378 OA
ENDBRANCH  26  29
ENDBRANCH  16  22
ENDBRANCH  12  13
ENDBRANCH   7  12
ENDBRANCH   4   7
ENDBRANCH   2   3
ENDBRANCH   1   2
BRANCH   1  35
ATOM     35  C   UNL A   1      34.373  33.678  31.254  1.00  0.00     0.002 C 
BRANCH  35  36
ATOM     36  C   UNL A   1      35.570  33.253  32.124  1.00  0.00     0.002 C 
BRANCH  36  37
ATOM     37  C   UNL A   1      36.401  34.350  32.800  1.00  0.00     0.021 C 
BRANCH  37  38
ATOM     38  C   UNL A   1      37.809  34.522  32.264  1.00  0.00     0.116 C 
BRANCH  38  39
ATOM     39  N   UNL A   1      37.959  34.531  30.831  1.00  0.00    -0.352 N 
ATOM     40  C   UNL A   1      38.339  33.604  29.899  1.00  0.00     0.251 C 
ATOM     41  H   UNL A   1      37.735  35.402  30.431  1.00  0.00     0.163 HD
ATOM     42  O   UNL A   1      38.056  33.852  28.734  1.00  0.00    -0.269 OA
BRANCH  40  43
ATOM     43  C   UNL A   1      39.146  32.394  30.207  1.00  0.00     0.039 A 
ATOM     44  C   UNL A   1      40.525  32.362  30.399  1.00  0.00     0.014 A 
ATOM     45  C   UNL A   1      38.429  31.182  30.235  1.00  0.00     0.014 A 
ATOM     46  C   UNL A   1      41.186  31.145  30.502  1.00  0.00     0.010 A 
ATOM     47  C   UNL A   1      39.085  29.962  30.356  1.00  0.00     0.010 A 
ATOM     48  C   UNL A   1      40.472  29.945  30.434  1.00  0.00    -0.014 A 
BRANCH  48  49
ATOM     49  C   UNL A   1      41.244  28.708  30.472  1.00  0.00     0.031 A 
ATOM     50  C   UNL A   1      41.818  28.330  31.794  1.00  0.00     0.074 A 
ATOM     51  C   UNL A   1      41.423  27.903  29.408  1.00  0.00     0.049 A 
ATOM     52  N   UNL A   1      43.067  28.228  32.122  1.00  0.00    -0.248 NA
ATOM     53  C   UNL A   1      40.883  28.104  32.903  1.00  0.00     0.031 C 
ATOM     54  C   UNL A   1      40.748  27.939  28.109  1.00  0.00     0.029 A 
ATOM     55  N   UNL A   1      42.227  26.804  29.312  1.00  0.00    -0.354 N 
ATOM     56  C   UNL A   1      43.085  27.768  33.438  1.00  0.00     0.074 A 
ATOM     57  C   UNL A   1      41.720  27.805  33.899  1.00  0.00     0.031 C 
ATOM     58  C   UNL A   1      41.018  26.798  27.438  1.00  0.00     0.029 A 
ATOM     59  C   UNL A   1      41.987  26.023  28.195  1.00  0.00     0.049 A 
ATOM     60  H   UNL A   1      42.917  26.586  29.980  1.00  0.00     0.167 HD
ATOM     61  C   UNL A   1      44.201  27.228  33.998  1.00  0.00     0.037 A 
ATOM     62  C   UNL A   1      42.511  24.803  27.934  1.00  0.00     0.037 A 
ATOM     63  C   UNL A   1      45.393  27.588  33.278  1.00  0.00     0.049 A 
ATOM     64  C   UNL A   1      43.742  24.646  28.743  1.00  0.00     0.074 A 
ATOM     65  C   UNL A   1      46.032  28.774  32.971  1.00  0.00     0.029 A 
ATOM     66  N   UNL A   1      45.989  26.639  32.488  1.00  0.00    -0.354 N 
ATOM     67  N   UNL A   1      44.854  25.288  28.519  1.00  0.00    -0.248 NA
ATOM     68  C   UNL A   1      43.626  24.045  30.063  1.00  0.00     0.031 C 
ATOM     69  C   UNL A   1      46.613  28.561  31.685  1.00  0.00     0.029 A 
ATOM     70  C   UNL A   1      46.305  27.255  31.305  1.00  0.00     0.049 A 
ATOM     71  H   UNL A   1      46.158  25.698  32.723  1.00  0.00     0.167 HD
ATOM     72  C   UNL A   1      45.379  25.535  29.778  1.00  0.00     0.074 A 
ATOM     73  C   UNL A   1      44.647  24.649  30.677  1.00  0.00     0.031 C 
ATOM     74  C   UNL A   1      46.164  26.627  30.015  1.00  0.00     0.037 A 
BRANCH  61  75
ATOM     75  C   UNL A   1      44.193  26.103  35.005  1.00  0.00     0.057 A 
ATOM     76  C   UNL A   1      43.867  24.770  34.687  1.00  0.00     0.134 A 
ATOM     77  C   UNL A   1      44.829  26.282  36.249  1.00  0.00     0.134 A 
ATOM     78  F   UNL A   1      43.322  24.428  33.513  1.00  0.00    -0.206 F 
ATOM     79  C   UNL A   1      44.182  23.693  35.522  1.00  0.00     0.040 A 
ATOM     80  C   UNL A   1      45.194  25.208  37.069  1.00  0.00     0.040 A 
ATOM     81  F   UNL A   1      45.197  27.503  36.666  1.00  0.00    -0.206 F 
ATOM     82  C   UNL A   1      44.880  23.906  36.700  1.00  0.00     0.006 A 
ENDBRANCH  61  75
BRANCH  62  83
ATOM     83  C   UNL A   1      41.890  23.679  27.205  1.00  0.00     0.057 A 
ATOM     84  C   UNL A   1      40.569  23.278  27.473  1.00  0.00     0.134 A 
ATOM     85  C   UNL A   1      42.651  22.809  26.415  1.00  0.00     0.134 A 
ATOM     86  F   UNL A   1      39.778  23.993  28.287  1.00  0.00    -0.206 F 
ATOM     87  C   UNL A   1      40.036  22.081  26.988  1.00  0.00     0.040 A 
ATOM     88  C   UNL A   1      42.133  21.600  25.930  1.00  0.00     0.040 A 
ATOM     89  F   UNL A   1      43.935  23.082  26.142  1.00  0.00    -0.206 F 
ATOM     90  C   UNL A   1      40.823  21.230  26.224  1.00  0.00     0.006 A 
ENDBRANCH  62  83
BRANCH  74  91
ATOM     91  C   UNL A   1      46.671  27.392  28.826  1.00  0.00     0.057 A 
ATOM     92  C   UNL A   1      45.854  28.369  28.247  1.00  0.00     0.134 A 
ATOM     93  C   UNL A   1      47.875  27.096  28.170  1.00  0.00     0.134 A 
ATOM     94  F   UNL A   1      44.658  28.658  28.784  1.00  0.00    -0.206 F 
ATOM     95  C   UNL A   1      46.226  29.040  27.080  1.00  0.00     0.040 A 
ATOM     96  C   UNL A   1      48.274  27.785  27.021  1.00  0.00     0.040 A 
ATOM     97  F   UNL A   1      48.666  26.101  28.590  1.00  0.00    -0.206 F 
ATOM     98  C   UNL A   1      47.447  28.758  26.470  1.00  0.00     0.006 A 
ENDBRANCH  74  91
ENDBRANCH  48  49
ENDBRANCH  40  43
ENDBRANCH  38  39
ENDBRANCH  37  38
ENDBRANCH  36  37
ENDBRANCH  35  36
ENDBRANCH   1  35
TORSDOF 18
ENDMDL
MODEL 2
REMARK VINA RESULT:     -11.4      4.590      8.656
REMARK SMILES [NH3+][C@@H](Cc1cn(-c2nc(Cl)nc(N3CCOCC3)n2)c2ccccc12)C(=O)NCCCCCCNC(=O)c1ccc(-c2c3nc(c(-c4c(F)cccc4F)c4ccc([nH]4)c(-c4c(F)cccc4F)c4nc(c(-c5c(F)cccc5F)c5ccc2[nH]5)C=C4)C=C3)cc1
REMARK SMILES IDX 30 1 29 2 28 3 26 4 27 5 2 7 1 8 3 12 4 13 5 14 25 15 6 16
REMARK SMILES IDX 20 17 24 18 21 19 23 20 22 21 7 22 8 23 19 24 9 25 12 26
REMARK SMILES IDX 10 27 11 28 13 29 14 30 18 31 15 32 17 33 16 34 31 35 32 36
REMARK SMILES IDX 33 37 34 38 35 39 36 40 37 42 38 43 39 44 91 45 40 46 90 47
REMARK SMILES IDX 41 48 42 49 43 50 84 51 44 52 89 53 83 54 85 55 45 56 88 57
REMARK SMILES IDX 82 58 81 59 46 61 72 62 55 63 71 64 56 65 59 66 70 67 86 68
REMARK SMILES IDX 57 69 58 70 69 72 87 73 60 74 47 75 48 76 53 77 49 78 50 79
REMARK SMILES IDX 52 80 54 81 51 82 73 83 74 84 79 85 75 86 76 87 78 88 80 89
REMARK SMILES IDX 77 90 61 91 62 92 67 93 63 94 64 95 66 96 68 97 65 98
REMARK H PARENT 28 6 1 9 1 10 1 11 35 41 85 60 59 71
REMARK Flexibility Score: inf
ROOT
ATOM      1  C   UNL A   1      38.512  32.700  35.714  1.00  0.00     0.021 C 
ENDROOT
BRANCH   1   2
ATOM      2  C   UNL A   1      38.118  31.292  36.111  1.00  0.00     0.116 C 
BRANCH   2   3
ATOM      3  N   UNL A   1      39.149  30.299  35.972  1.00  0.00    -0.351 N 
ATOM      4  C   UNL A   1      39.799  29.891  34.842  1.00  0.00     0.278 C 
ATOM      5  O   UNL A   1      40.834  29.234  35.008  1.00  0.00    -0.268 OA
ATOM      6  H   UNL A   1      39.424  29.852  36.806  1.00  0.00     0.163 HD
BRANCH   4   7
ATOM      7  C   UNL A   1      39.303  30.206  33.403  1.00  0.00     0.275 C 
BRANCH   7   8
ATOM      8  N   UNL A   1      40.418  30.303  32.433  1.00  0.00    -0.347 N 
ATOM      9  H   UNL A   1      41.257  30.632  32.912  1.00  0.00     0.345 HD
ATOM     10  H   UNL A   1      40.170  30.958  31.693  1.00  0.00     0.345 HD
ATOM     11  H   UNL A   1      40.597  29.383  32.029  1.00  0.00     0.345 HD
ENDBRANCH   7   8
BRANCH   7  12
ATOM     12  C   UNL A   1      38.042  29.451  32.928  1.00  0.00     0.113 C 
BRANCH  12  13
ATOM     13  C   UNL A   1      37.273  29.992  31.754  1.00  0.00    -0.015 A 
ATOM     14  C   UNL A   1      36.167  30.823  31.777  1.00  0.00     0.099 A 
ATOM     15  C   UNL A   1      37.567  29.759  30.371  1.00  0.00     0.004 A 
ATOM     16  N   UNL A   1      35.840  31.196  30.483  1.00  0.00    -0.285 N 
ATOM     17  C   UNL A   1      36.640  30.477  29.598  1.00  0.00     0.056 A 
ATOM     18  C   UNL A   1      38.591  29.041  29.713  1.00  0.00     0.010 A 
ATOM     19  C   UNL A   1      36.722  30.491  28.191  1.00  0.00     0.027 A 
ATOM     20  C   UNL A   1      38.687  29.076  28.320  1.00  0.00     0.001 A 
ATOM     21  C   UNL A   1      37.763  29.793  27.571  1.00  0.00     0.002 A 
BRANCH  16  22
ATOM     22  C   UNL A   1      34.953  32.273  30.153  1.00  0.00     0.240 A 
ATOM     23  N   UNL A   1      34.443  32.328  28.932  1.00  0.00    -0.181 NA
ATOM     24  N   UNL A   1      34.756  33.208  31.095  1.00  0.00    -0.176 NA
ATOM     25  C   UNL A   1      33.645  33.372  28.755  1.00  0.00     0.228 A 
ATOM     26  C   UNL A   1      34.032  34.273  30.748  1.00  0.00     0.231 A 
ATOM     27  Cl  UNL A   1      32.799  33.415  27.272  1.00  0.00    -0.041 Cl
ATOM     28  N   UNL A   1      33.421  34.386  29.583  1.00  0.00    -0.182 NA
BRANCH  26  29
ATOM     29  N   UNL A   1      33.980  35.304  31.652  1.00  0.00    -0.336 N 
ATOM     30  C   UNL A   1      33.103  36.438  31.357  1.00  0.00     0.148 C 
ATOM     31  C   UNL A   1      33.949  34.970  33.074  1.00  0.00     0.148 C 
ATOM     32  C   UNL A   1      33.635  37.652  32.129  1.00  0.00     0.181 C 
ATOM     33  C   UNL A   1      34.400  36.220  33.860  1.00  0.00     0.181 C 
ATOM     34  O   UNL A   1      33.613  37.387  33.542  1.00  0.00    -0.378 OA
ENDBRANCH  26  29
ENDBRANCH  16  22
ENDBRANCH  12  13
ENDBRANCH   7  12
ENDBRANCH   4   7
ENDBRANCH   2   3
ENDBRANCH   1   2
BRANCH   1  35
ATOM     35  C   UNL A   1      37.597  33.385  34.696  1.00  0.00     0.002 C 
BRANCH  35  36
ATOM     36  C   UNL A   1      38.216  34.417  33.736  1.00  0.00     0.002 C 
BRANCH  36  37
ATOM     37  C   UNL A   1      39.129  33.908  32.614  1.00  0.00     0.021 C 
BRANCH  37  38
ATOM     38  C   UNL A   1      40.594  33.768  32.982  1.00  0.00     0.116 C 
BRANCH  38  39
ATOM     39  N   UNL A   1      41.515  34.651  32.313  1.00  0.00    -0.352 N 
ATOM     40  C   UNL A   1      42.350  34.532  31.235  1.00  0.00     0.251 C 
ATOM     41  H   UNL A   1      41.551  35.545  32.725  1.00  0.00     0.163 HD
ATOM     42  O   UNL A   1      42.763  35.575  30.745  1.00  0.00    -0.269 OA
BRANCH  40  43
ATOM     43  C   UNL A   1      42.851  33.236  30.707  1.00  0.00     0.039 A 
ATOM     44  C   UNL A   1      42.174  32.400  29.823  1.00  0.00     0.014 A 
ATOM     45  C   UNL A   1      44.096  32.818  31.218  1.00  0.00     0.014 A 
ATOM     46  C   UNL A   1      42.669  31.133  29.544  1.00  0.00     0.010 A 
ATOM     47  C   UNL A   1      44.604  31.557  30.927  1.00  0.00     0.010 A 
ATOM     48  C   UNL A   1      43.860  30.694  30.131  1.00  0.00    -0.014 A 
BRANCH  48  49
ATOM     49  C   UNL A   1      44.274  29.325  29.851  1.00  0.00     0.031 A 
ATOM     50  C   UNL A   1      45.093  29.122  28.623  1.00  0.00     0.074 A 
ATOM     51  C   UNL A   1      43.990  28.277  30.648  1.00  0.00     0.049 A 
ATOM     52  N   UNL A   1      44.789  28.441  27.565  1.00  0.00    -0.248 NA
ATOM     53  C   UNL A   1      46.381  29.821  28.541  1.00  0.00     0.031 C 
ATOM     54  C   UNL A   1      43.439  28.282  32.004  1.00  0.00     0.029 A 
ATOM     55  N   UNL A   1      44.219  26.953  30.409  1.00  0.00    -0.354 N 
ATOM     56  C   UNL A   1      45.911  28.488  26.739  1.00  0.00     0.074 A 
ATOM     57  C   UNL A   1      46.819  29.430  27.343  1.00  0.00     0.031 C 
ATOM     58  C   UNL A   1      43.570  27.049  32.540  1.00  0.00     0.029 A 
ATOM     59  C   UNL A   1      44.079  26.144  31.523  1.00  0.00     0.049 A 
ATOM     60  H   UNL A   1      44.464  26.605  29.521  1.00  0.00     0.167 HD
ATOM     61  C   UNL A   1      46.083  27.619  25.706  1.00  0.00     0.037 A 
ATOM     62  C   UNL A   1      44.405  24.834  31.617  1.00  0.00     0.037 A 
ATOM     63  C   UNL A   1      44.847  26.998  25.312  1.00  0.00     0.049 A 
ATOM     64  C   UNL A   1      44.454  24.271  30.248  1.00  0.00     0.074 A 
ATOM     65  C   UNL A   1      43.634  27.449  24.827  1.00  0.00     0.029 A 
ATOM     66  N   UNL A   1      44.633  25.690  25.665  1.00  0.00    -0.354 N 
ATOM     67  N   UNL A   1      43.406  24.065  29.501  1.00  0.00    -0.248 NA
ATOM     68  C   UNL A   1      45.727  24.287  29.541  1.00  0.00     0.031 C 
ATOM     69  C   UNL A   1      42.662  26.559  25.372  1.00  0.00     0.029 A 
ATOM     70  C   UNL A   1      43.348  25.616  26.136  1.00  0.00     0.049 A 
ATOM     71  H   UNL A   1      45.276  24.948  25.594  1.00  0.00     0.167 HD
ATOM     72  C   UNL A   1      43.828  24.348  28.212  1.00  0.00     0.074 A 
ATOM     73  C   UNL A   1      45.285  24.363  28.283  1.00  0.00     0.031 C 
ATOM     74  C   UNL A   1      42.957  24.815  27.269  1.00  0.00     0.037 A 
BRANCH  61  75
ATOM     75  C   UNL A   1      47.419  27.076  25.260  1.00  0.00     0.057 A 
ATOM     76  C   UNL A   1      48.019  27.388  24.025  1.00  0.00     0.134 A 
ATOM     77  C   UNL A   1      48.278  26.484  26.208  1.00  0.00     0.134 A 
ATOM     78  F   UNL A   1      47.355  28.015  23.047  1.00  0.00    -0.206 F 
ATOM     79  C   UNL A   1      49.375  27.166  23.763  1.00  0.00     0.040 A 
ATOM     80  C   UNL A   1      49.646  26.304  25.975  1.00  0.00     0.040 A 
ATOM     81  F   UNL A   1      47.830  26.145  27.427  1.00  0.00    -0.206 F 
ATOM     82  C   UNL A   1      50.201  26.656  24.752  1.00  0.00     0.006 A 
ENDBRANCH  61  75
BRANCH  62  83
ATOM     83  C   UNL A   1      44.901  24.098  32.798  1.00  0.00     0.057 A 
ATOM     84  C   UNL A   1      44.124  23.101  33.413  1.00  0.00     0.134 A 
ATOM     85  C   UNL A   1      46.030  24.527  33.506  1.00  0.00     0.134 A 
ATOM     86  F   UNL A   1      42.976  22.677  32.864  1.00  0.00    -0.206 F 
ATOM     87  C   UNL A   1      44.448  22.562  34.661  1.00  0.00     0.040 A 
ATOM     88  C   UNL A   1      46.362  24.002  34.763  1.00  0.00     0.040 A 
ATOM     89  F   UNL A   1      46.808  25.506  33.023  1.00  0.00    -0.206 F 
ATOM     90  C   UNL A   1      45.563  23.022  35.347  1.00  0.00     0.006 A 
ENDBRANCH  62  83
BRANCH  74  91
ATOM     91  C   UNL A   1      41.490  24.745  27.580  1.00  0.00     0.057 A 
ATOM     92  C   UNL A   1      40.716  23.743  26.987  1.00  0.00     0.134 A 
ATOM     93  C   UNL A   1      40.811  25.712  28.336  1.00  0.00     0.134 A 
ATOM     94  F   UNL A   1      41.290  22.821  26.197  1.00  0.00    -0.206 F 
ATOM     95  C   UNL A   1      39.330  23.689  27.154  1.00  0.00     0.040 A 
ATOM     96  C   UNL A   1      39.430  25.649  28.539  1.00  0.00     0.040 A 
ATOM     97  F   UNL A   1      41.455  26.768  28.849  1.00  0.00    -0.206 F 
ATOM     98  C   UNL A   1      38.684  24.637  27.945  1.00  0.00     0.006 A 
ENDBRANCH  74  91
ENDBRANCH  48  49
ENDBRANCH  40  43
ENDBRANCH  38  39
ENDBRANCH  37  38
ENDBRANCH  36  37
ENDBRANCH  35  36
ENDBRANCH   1  35
TORSDOF 18
ENDMDL
MODEL 3
REMARK VINA RESULT:     -11.0      3.066      4.359
REMARK SMILES [NH3+][C@@H](Cc1cn(-c2nc(Cl)nc(N3CCOCC3)n2)c2ccccc12)C(=O)NCCCCCCNC(=O)c1ccc(-c2c3nc(c(-c4c(F)cccc4F)c4ccc([nH]4)c(-c4c(F)cccc4F)c4nc(c(-c5c(F)cccc5F)c5ccc2[nH]5)C=C4)C=C3)cc1
REMARK SMILES IDX 30 1 29 2 28 3 26 4 27 5 2 7 1 8 3 12 4 13 5 14 25 15 6 16
REMARK SMILES IDX 20 17 24 18 21 19 23 20 22 21 7 22 8 23 19 24 9 25 12 26
REMARK SMILES IDX 10 27 11 28 13 29 14 30 18 31 15 32 17 33 16 34 31 35 32 36
REMARK SMILES IDX 33 37 34 38 35 39 36 40 37 42 38 43 39 44 91 45 40 46 90 47
REMARK SMILES IDX 41 48 42 49 43 50 84 51 44 52 89 53 83 54 85 55 45 56 88 57
REMARK SMILES IDX 82 58 81 59 46 61 72 62 55 63 71 64 56 65 59 66 70 67 86 68
REMARK SMILES IDX 57 69 58 70 69 72 87 73 60 74 47 75 48 76 53 77 49 78 50 79
REMARK SMILES IDX 52 80 54 81 51 82 73 83 74 84 79 85 75 86 76 87 78 88 80 89
REMARK SMILES IDX 77 90 61 91 62 92 67 93 63 94 64 95 66 96 68 97 65 98
REMARK H PARENT 28 6 1 9 1 10 1 11 35 41 85 60 59 71
REMARK Flexibility Score: inf
ROOT
ATOM      1  C   UNL A   1      35.733  32.265  28.000  1.00  0.00     0.021 C 
ENDROOT
BRANCH   1   2
ATOM      2  C   UNL A   1      34.839  31.046  27.891  1.00  0.00     0.116 C 
BRANCH   2   3
ATOM      3  N   UNL A   1      33.797  31.131  26.903  1.00  0.00    -0.351 N 
ATOM      4  C   UNL A   1      33.084  30.121  26.320  1.00  0.00     0.278 C 
ATOM      5  O   UNL A   1      32.057  30.450  25.715  1.00  0.00    -0.268 OA
ATOM      6  H   UNL A   1      33.566  32.042  26.606  1.00  0.00     0.163 HD
BRANCH   4   7
ATOM      7  C   UNL A   1      33.504  28.626  26.383  1.00  0.00     0.275 C 
BRANCH   7   8
ATOM      8  N   UNL A   1      32.964  27.942  27.581  1.00  0.00    -0.347 N 
ATOM      9  H   UNL A   1      32.183  28.480  27.956  1.00  0.00     0.345 HD
ATOM     10  H   UNL A   1      33.695  27.866  28.288  1.00  0.00     0.345 HD
ATOM     11  H   UNL A   1      32.641  27.009  27.323  1.00  0.00     0.345 HD
ENDBRANCH   7   8
BRANCH   7  12
ATOM     12  C   UNL A   1      33.445  27.837  25.056  1.00  0.00     0.113 C 
BRANCH  12  13
ATOM     13  C   UNL A   1      33.319  26.339  25.109  1.00  0.00    -0.015 A 
ATOM     14  C   UNL A   1      34.292  25.397  24.828  1.00  0.00     0.099 A 
ATOM     15  C   UNL A   1      32.151  25.602  25.491  1.00  0.00     0.004 A 
ATOM     16  N   UNL A   1      33.813  24.131  25.124  1.00  0.00    -0.285 N 
ATOM     17  C   UNL A   1      32.462  24.234  25.451  1.00  0.00     0.056 A 
ATOM     18  C   UNL A   1      30.866  25.995  25.929  1.00  0.00     0.010 A 
ATOM     19  C   UNL A   1      31.520  23.261  25.841  1.00  0.00     0.027 A 
ATOM     20  C   UNL A   1      29.941  25.033  26.341  1.00  0.00     0.001 A 
ATOM     21  C   UNL A   1      30.267  23.683  26.296  1.00  0.00     0.002 A 
BRANCH  16  22
ATOM     22  C   UNL A   1      34.635  22.963  25.242  1.00  0.00     0.240 A 
ATOM     23  N   UNL A   1      35.940  23.114  25.409  1.00  0.00    -0.181 NA
ATOM     24  N   UNL A   1      34.026  21.776  25.097  1.00  0.00    -0.176 NA
ATOM     25  C   UNL A   1      36.584  21.959  25.498  1.00  0.00     0.228 A 
ATOM     26  C   UNL A   1      34.806  20.694  25.081  1.00  0.00     0.231 A 
ATOM     27  Cl  UNL A   1      38.240  22.063  25.903  1.00  0.00    -0.041 Cl
ATOM     28  N   UNL A   1      36.105  20.734  25.314  1.00  0.00    -0.182 NA
BRANCH  26  29
ATOM     29  N   UNL A   1      34.204  19.505  24.759  1.00  0.00    -0.336 N 
ATOM     30  C   UNL A   1      33.081  19.531  23.821  1.00  0.00     0.148 C 
ATOM     31  C   UNL A   1      35.058  18.343  24.524  1.00  0.00     0.148 C 
ATOM     32  C   UNL A   1      32.234  18.277  24.072  1.00  0.00     0.181 C 
ATOM     33  C   UNL A   1      34.187  17.078  24.689  1.00  0.00     0.181 C 
ATOM     34  O   UNL A   1      33.020  17.096  23.839  1.00  0.00    -0.378 OA
ENDBRANCH  26  29
ENDBRANCH  16  22
ENDBRANCH  12  13
ENDBRANCH   7  12
ENDBRANCH   4   7
ENDBRANCH   2   3
ENDBRANCH   1   2
BRANCH   1  35
ATOM     35  C   UNL A   1      35.020  33.590  28.277  1.00  0.00     0.002 C 
BRANCH  35  36
ATOM     36  C   UNL A   1      34.009  33.648  29.437  1.00  0.00     0.002 C 
BRANCH  36  37
ATOM     37  C   UNL A   1      33.159  34.915  29.596  1.00  0.00     0.021 C 
BRANCH  37  38
ATOM     38  C   UNL A   1      33.764  35.998  30.468  1.00  0.00     0.116 C 
BRANCH  38  39
ATOM     39  N   UNL A   1      33.763  35.760  31.889  1.00  0.00    -0.352 N 
ATOM     40  C   UNL A   1      34.609  35.125  32.758  1.00  0.00     0.251 C 
ATOM     41  H   UNL A   1      32.975  36.142  32.338  1.00  0.00     0.163 HD
ATOM     42  O   UNL A   1      34.462  35.377  33.947  1.00  0.00    -0.269 OA
BRANCH  40  43
ATOM     43  C   UNL A   1      35.601  34.094  32.353  1.00  0.00     0.039 A 
ATOM     44  C   UNL A   1      35.446  32.717  32.489  1.00  0.00     0.014 A 
ATOM     45  C   UNL A   1      36.819  34.594  31.853  1.00  0.00     0.014 A 
ATOM     46  C   UNL A   1      36.516  31.867  32.239  1.00  0.00     0.010 A 
ATOM     47  C   UNL A   1      37.887  33.746  31.585  1.00  0.00     0.010 A 
ATOM     48  C   UNL A   1      37.749  32.385  31.832  1.00  0.00    -0.014 A 
BRANCH  48  49
ATOM     49  C   UNL A   1      38.846  31.438  31.666  1.00  0.00     0.031 A 
ATOM     50  C   UNL A   1      39.624  31.109  32.893  1.00  0.00     0.074 A 
ATOM     51  C   UNL A   1      39.151  30.842  30.498  1.00  0.00     0.049 A 
ATOM     52  N   UNL A   1      40.873  31.349  33.134  1.00  0.00    -0.248 NA
ATOM     53  C   UNL A   1      38.901  30.496  34.014  1.00  0.00     0.031 C 
ATOM     54  C   UNL A   1      38.378  30.815  29.255  1.00  0.00     0.029 A 
ATOM     55  N   UNL A   1      40.225  30.050  30.215  1.00  0.00    -0.354 N 
ATOM     56  C   UNL A   1      41.145  30.777  34.375  1.00  0.00     0.074 A 
ATOM     57  C   UNL A   1      39.876  30.356  34.914  1.00  0.00     0.031 C 
ATOM     58  C   UNL A   1      38.903  29.885  28.427  1.00  0.00     0.029 A 
ATOM     59  C   UNL A   1      40.120  29.358  29.021  1.00  0.00     0.049 A 
ATOM     60  H   UNL A   1      41.008  29.977  30.809  1.00  0.00     0.167 HD
ATOM     61  C   UNL A   1      42.417  30.537  34.797  1.00  0.00     0.037 A 
ATOM     62  C   UNL A   1      40.948  28.384  28.574  1.00  0.00     0.037 A 
ATOM     63  C   UNL A   1      43.382  31.311  34.064  1.00  0.00     0.049 A 
ATOM     64  C   UNL A   1      42.240  28.516  29.286  1.00  0.00     0.074 A 
ATOM     65  C   UNL A   1      43.620  32.660  33.878  1.00  0.00     0.029 A 
ATOM     66  N   UNL A   1      44.151  30.673  33.125  1.00  0.00    -0.354 N 
ATOM     67  N   UNL A   1      43.094  29.480  29.085  1.00  0.00    -0.248 NA
ATOM     68  C   UNL A   1      42.425  27.769  30.522  1.00  0.00     0.031 C 
ATOM     69  C   UNL A   1      44.116  32.768  32.544  1.00  0.00     0.029 A 
ATOM     70  C   UNL A   1      44.165  31.479  32.017  1.00  0.00     0.049 A 
ATOM     71  H   UNL A   1      44.606  29.806  33.226  1.00  0.00     0.167 HD
ATOM     72  C   UNL A   1      43.639  29.735  30.334  1.00  0.00     0.074 A 
ATOM     73  C   UNL A   1      43.280  28.580  31.150  1.00  0.00     0.031 C 
ATOM     74  C   UNL A   1      44.093  30.980  30.665  1.00  0.00     0.037 A 
BRANCH  61  75
ATOM     75  C   UNL A   1      42.826  29.359  35.648  1.00  0.00     0.057 A 
ATOM     76  C   UNL A   1      42.650  28.016  35.264  1.00  0.00     0.134 A 
ATOM     77  C   UNL A   1      43.703  29.559  36.732  1.00  0.00     0.134 A 
ATOM     78  F   UNL A   1      41.902  27.667  34.210  1.00  0.00    -0.206 F 
ATOM     79  C   UNL A   1      43.321  26.956  35.882  1.00  0.00     0.040 A 
ATOM     80  C   UNL A   1      44.419  28.512  37.325  1.00  0.00     0.040 A 
ATOM     81  F   UNL A   1      43.962  30.794  37.192  1.00  0.00    -0.206 F 
ATOM     82  C   UNL A   1      44.236  27.206  36.892  1.00  0.00     0.006 A 
ENDBRANCH  61  75
BRANCH  62  83
ATOM     83  C   UNL A   1      40.613  27.212  27.742  1.00  0.00     0.057 A 
ATOM     84  C   UNL A   1      39.884  26.130  28.266  1.00  0.00     0.134 A 
ATOM     85  C   UNL A   1      41.216  27.003  26.495  1.00  0.00     0.134 A 
ATOM     86  F   UNL A   1      39.337  26.190  29.490  1.00  0.00    -0.206 F 
ATOM     87  C   UNL A   1      39.762  24.911  27.594  1.00  0.00     0.040 A 
ATOM     88  C   UNL A   1      41.110  25.783  25.813  1.00  0.00     0.040 A 
ATOM     89  F   UNL A   1      41.969  27.959  25.933  1.00  0.00    -0.206 F 
ATOM     90  C   UNL A   1      40.388  24.730  26.368  1.00  0.00     0.006 A 
ENDBRANCH  62  83
BRANCH  74  91
ATOM     91  C   UNL A   1      44.245  31.984  29.560  1.00  0.00     0.057 A 
ATOM     92  C   UNL A   1      45.496  32.147  28.956  1.00  0.00     0.134 A 
ATOM     93  C   UNL A   1      43.231  32.874  29.176  1.00  0.00     0.134 A 
ATOM     94  F   UNL A   1      46.531  31.373  29.321  1.00  0.00    -0.206 F 
ATOM     95  C   UNL A   1      45.726  33.135  27.996  1.00  0.00     0.040 A 
ATOM     96  C   UNL A   1      43.439  33.845  28.192  1.00  0.00     0.040 A 
ATOM     97  F   UNL A   1      42.036  32.864  29.779  1.00  0.00    -0.206 F 
ATOM     98  C   UNL A   1      44.691  33.980  27.601  1.00  0.00     0.006 A 
ENDBRANCH  74  91
ENDBRANCH  48  49
ENDBRANCH  40  43
ENDBRANCH  38  39
ENDBRANCH  37  38
ENDBRANCH  36  37
ENDBRANCH  35  36
ENDBRANCH   1  35
TORSDOF 18
ENDMDL
