MODEL 1
REMARK VINA RESULT:     -11.6      0.000      0.000
REMARK SMILES C[C@@H](C(=O)NCCCCCCNC(=O)c1ccc(-c2c3nc(c(-c4c(F)cccc4F)c4ccc([nH]4)c(-c4c(F)cccc4F)c4nc(c(-c5c(F)cccc5F)c5ccc2[nH]5)C=C4)C=C3)cc1)c1ccccc1-c1ccn(C(F)F)c(=O)c1
REMARK SMILES IDX 8 1 7 2 6 3 5 4 3 5 4 6 2 8 1 9 69 10 70 11 74 12 71 13
REMARK SMILES IDX 73 14 72 15 75 16 76 17 84 18 77 19 82 20 78 21 83 22 79 23
REMARK SMILES IDX 80 24 81 25 9 26 10 27 11 28 12 29 13 30 14 32 15 33 16 34
REMARK SMILES IDX 68 35 17 36 67 37 18 38 19 39 20 40 61 41 21 42 66 43 60 44
REMARK SMILES IDX 62 45 22 46 65 47 59 48 58 49 23 51 49 52 32 53 48 54 33 55
REMARK SMILES IDX 36 56 47 57 63 58 34 59 35 60 46 62 64 63 37 64 24 65 25 66
REMARK SMILES IDX 30 67 26 68 27 69 29 70 31 71 28 72 50 73 51 74 56 75 52 76
REMARK SMILES IDX 53 77 55 78 57 79 54 80 38 81 39 82 44 83 40 84 41 85 43 86
REMARK SMILES IDX 45 87 42 88
REMARK H PARENT 5 7 12 31 62 50 36 61
REMARK Flexibility Score: inf
ROOT
ATOM      1  C   UNL A   1      35.659  21.915  24.380  1.00  0.00     0.002 C 
ENDROOT
BRANCH   1   2
ATOM      2  C   UNL A   1      36.022  23.206  25.129  1.00  0.00     0.021 C 
BRANCH   2   3
ATOM      3  C   UNL A   1      34.829  23.898  25.790  1.00  0.00     0.116 C 
BRANCH   3   4
ATOM      4  N   UNL A   1      34.325  23.087  26.875  1.00  0.00    -0.356 N 
ATOM      5  C   UNL A   1      33.043  22.768  27.210  1.00  0.00     0.227 C 
ATOM      6  O   UNL A   1      32.883  22.232  28.310  1.00  0.00    -0.274 OA
ATOM      7  H   UNL A   1      35.015  22.704  27.463  1.00  0.00     0.163 HD
BRANCH   5   8
ATOM      8  C   UNL A   1      31.893  23.020  26.220  1.00  0.00     0.106 C 
ATOM      9  C   UNL A   1      30.523  22.951  26.906  1.00  0.00     0.023 C 
BRANCH   8  10
ATOM     10  C   UNL A   1      32.009  22.068  25.022  1.00  0.00    -0.028 A 
ATOM     11  C   UNL A   1      32.187  20.686  25.242  1.00  0.00     0.005 A 
ATOM     12  C   UNL A   1      32.028  22.542  23.687  1.00  0.00    -0.014 A 
ATOM     13  C   UNL A   1      32.353  19.796  24.182  1.00  0.00     0.000 A 
ATOM     14  C   UNL A   1      32.210  21.632  22.630  1.00  0.00     0.009 A 
ATOM     15  C   UNL A   1      32.366  20.268  22.877  1.00  0.00     0.001 A 
BRANCH  12  16
ATOM     16  C   UNL A   1      31.860  23.974  23.349  1.00  0.00    -0.011 A 
ATOM     17  C   UNL A   1      30.676  24.739  23.689  1.00  0.00     0.027 A 
ATOM     18  C   UNL A   1      32.848  24.573  22.662  1.00  0.00     0.080 A 
ATOM     19  C   UNL A   1      30.528  25.994  23.250  1.00  0.00     0.095 A 
ATOM     20  C   UNL A   1      32.719  25.985  22.207  1.00  0.00     0.255 A 
ATOM     21  N   UNL A   1      31.517  26.607  22.503  1.00  0.00    -0.258 N 
ATOM     22  O   UNL A   1      33.652  26.489  21.592  1.00  0.00    -0.269 OA
BRANCH  21  23
ATOM     23  C   UNL A   1      31.336  27.944  22.001  1.00  0.00     0.451 C 
ATOM     24  F   UNL A   1      30.029  28.303  22.011  1.00  0.00    -0.185 F 
ATOM     25  F   UNL A   1      32.024  28.840  22.753  1.00  0.00    -0.185 F 
ENDBRANCH  21  23
ENDBRANCH  12  16
ENDBRANCH   8  10
ENDBRANCH   5   8
ENDBRANCH   3   4
ENDBRANCH   2   3
ENDBRANCH   1   2
BRANCH   1  26
ATOM     26  C   UNL A   1      36.174  20.625  25.025  1.00  0.00     0.002 C 
BRANCH  26  27
ATOM     27  C   UNL A   1      37.597  20.231  24.627  1.00  0.00     0.021 C 
BRANCH  27  28
ATOM     28  C   UNL A   1      38.655  20.532  25.683  1.00  0.00     0.116 C 
BRANCH  28  29
ATOM     29  N   UNL A   1      39.667  19.490  25.755  1.00  0.00    -0.352 N 
ATOM     30  C   UNL A   1      41.002  19.600  26.051  1.00  0.00     0.251 C 
ATOM     31  H   UNL A   1      39.350  18.578  25.564  1.00  0.00     0.163 HD
ATOM     32  O   UNL A   1      41.757  18.646  25.876  1.00  0.00    -0.269 OA
BRANCH  30  33
ATOM     33  C   UNL A   1      41.537  20.879  26.562  1.00  0.00     0.039 A 
ATOM     34  C   UNL A   1      42.024  21.822  25.653  1.00  0.00     0.014 A 
ATOM     35  C   UNL A   1      41.557  21.148  27.933  1.00  0.00     0.014 A 
ATOM     36  C   UNL A   1      42.474  23.059  26.116  1.00  0.00     0.010 A 
ATOM     37  C   UNL A   1      41.938  22.408  28.386  1.00  0.00     0.010 A 
ATOM     38  C   UNL A   1      42.404  23.375  27.482  1.00  0.00    -0.014 A 
BRANCH  38  39
ATOM     39  C   UNL A   1      42.807  24.712  27.984  1.00  0.00     0.031 A 
ATOM     40  C   UNL A   1      41.770  25.770  28.238  1.00  0.00     0.074 A 
ATOM     41  C   UNL A   1      44.114  24.993  28.154  1.00  0.00     0.049 A 
ATOM     42  N   UNL A   1      41.932  27.015  28.610  1.00  0.00    -0.248 NA
ATOM     43  C   UNL A   1      40.366  25.385  28.021  1.00  0.00     0.031 C 
ATOM     44  C   UNL A   1      45.220  24.067  27.905  1.00  0.00     0.029 A 
ATOM     45  N   UNL A   1      44.734  26.146  28.570  1.00  0.00    -0.354 N 
ATOM     46  C   UNL A   1      40.656  27.561  28.662  1.00  0.00     0.074 A 
ATOM     47  C   UNL A   1      39.737  26.532  28.229  1.00  0.00     0.031 C 
ATOM     48  C   UNL A   1      46.379  24.677  28.197  1.00  0.00     0.029 A 
ATOM     49  C   UNL A   1      46.104  26.048  28.614  1.00  0.00     0.049 A 
ATOM     50  H   UNL A   1      44.244  26.964  28.813  1.00  0.00     0.167 HD
ATOM     51  C   UNL A   1      40.282  28.801  29.059  1.00  0.00     0.037 A 
ATOM     52  C   UNL A   1      47.034  26.964  28.945  1.00  0.00     0.037 A 
ATOM     53  C   UNL A   1      41.197  29.819  29.506  1.00  0.00     0.049 A 
ATOM     54  C   UNL A   1      46.594  28.341  29.358  1.00  0.00     0.074 A 
ATOM     55  C   UNL A   1      40.913  31.091  29.970  1.00  0.00     0.029 A 
ATOM     56  N   UNL A   1      42.577  29.680  29.539  1.00  0.00    -0.354 N 
ATOM     57  N   UNL A   1      45.381  28.826  29.458  1.00  0.00    -0.248 NA
ATOM     58  C   UNL A   1      47.654  29.297  29.708  1.00  0.00     0.031 C 
ATOM     59  C   UNL A   1      42.121  31.738  30.243  1.00  0.00     0.029 A 
ATOM     60  C   UNL A   1      43.158  30.851  29.998  1.00  0.00     0.049 A 
ATOM     61  H   UNL A   1      43.070  28.870  29.277  1.00  0.00     0.167 HD
ATOM     62  C   UNL A   1      45.529  30.131  29.912  1.00  0.00     0.074 A 
ATOM     63  C   UNL A   1      46.950  30.357  30.078  1.00  0.00     0.031 C 
ATOM     64  C   UNL A   1      44.574  31.059  30.167  1.00  0.00     0.037 A 
BRANCH  51  65
ATOM     65  C   UNL A   1      38.815  29.124  29.032  1.00  0.00     0.057 A 
ATOM     66  C   UNL A   1      38.017  29.021  30.179  1.00  0.00     0.134 A 
ATOM     67  C   UNL A   1      38.201  29.574  27.857  1.00  0.00     0.134 A 
ATOM     68  F   UNL A   1      38.539  28.585  31.335  1.00  0.00    -0.206 F 
ATOM     69  C   UNL A   1      36.654  29.328  30.151  1.00  0.00     0.040 A 
ATOM     70  C   UNL A   1      36.847  29.911  27.823  1.00  0.00     0.040 A 
ATOM     71  F   UNL A   1      38.908  29.701  26.724  1.00  0.00    -0.206 F 
ATOM     72  C   UNL A   1      36.068  29.782  28.972  1.00  0.00     0.006 A 
ENDBRANCH  51  65
BRANCH  52  73
ATOM     73  C   UNL A   1      48.474  26.603  28.925  1.00  0.00     0.057 A 
ATOM     74  C   UNL A   1      49.082  26.005  30.036  1.00  0.00     0.134 A 
ATOM     75  C   UNL A   1      49.278  26.855  27.807  1.00  0.00     0.134 A 
ATOM     76  F   UNL A   1      48.367  25.755  31.143  1.00  0.00    -0.206 F 
ATOM     77  C   UNL A   1      50.441  25.688  30.043  1.00  0.00     0.040 A 
ATOM     78  C   UNL A   1      50.634  26.519  27.791  1.00  0.00     0.040 A 
ATOM     79  F   UNL A   1      48.754  27.418  26.709  1.00  0.00    -0.206 F 
ATOM     80  C   UNL A   1      51.220  25.941  28.915  1.00  0.00     0.006 A 
ENDBRANCH  52  73
BRANCH  64  81
ATOM     81  C   UNL A   1      45.029  32.389  30.693  1.00  0.00     0.057 A 
ATOM     82  C   UNL A   1      45.204  32.624  32.062  1.00  0.00     0.134 A 
ATOM     83  C   UNL A   1      45.333  33.436  29.812  1.00  0.00     0.134 A 
ATOM     84  F   UNL A   1      44.918  31.668  32.958  1.00  0.00    -0.206 F 
ATOM     85  C   UNL A   1      45.645  33.861  32.538  1.00  0.00     0.040 A 
ATOM     86  C   UNL A   1      45.801  34.666  30.275  1.00  0.00     0.040 A 
ATOM     87  F   UNL A   1      45.195  33.273  28.487  1.00  0.00    -0.206 F 
ATOM     88  C   UNL A   1      45.951  34.883  31.642  1.00  0.00     0.006 A 
ENDBRANCH  64  81
ENDBRANCH  38  39
ENDBRANCH  30  33
ENDBRANCH  28  29
ENDBRANCH  27  28
ENDBRANCH  26  27
ENDBRANCH   1  26
TORSDOF 16
ENDMDL
MODEL 2
REMARK VINA RESULT:     -11.6      0.574      6.202
REMARK SMILES C[C@@H](C(=O)NCCCCCCNC(=O)c1ccc(-c2c3nc(c(-c4c(F)cccc4F)c4ccc([nH]4)c(-c4c(F)cccc4F)c4nc(c(-c5c(F)cccc5F)c5ccc2[nH]5)C=C4)C=C3)cc1)c1ccccc1-c1ccn(C(F)F)c(=O)c1
REMARK SMILES IDX 8 1 7 2 6 3 5 4 3 5 4 6 2 8 1 9 69 10 70 11 74 12 71 13
REMARK SMILES IDX 73 14 72 15 75 16 76 17 84 18 77 19 82 20 78 21 83 22 79 23
REMARK SMILES IDX 80 24 81 25 9 26 10 27 11 28 12 29 13 30 14 32 15 33 16 34
REMARK SMILES IDX 68 35 17 36 67 37 18 38 19 39 20 40 61 41 21 42 66 43 60 44
REMARK SMILES IDX 62 45 22 46 65 47 59 48 58 49 23 51 49 52 32 53 48 54 33 55
REMARK SMILES IDX 36 56 47 57 63 58 34 59 35 60 46 62 64 63 37 64 24 65 25 66
REMARK SMILES IDX 30 67 26 68 27 69 29 70 31 71 28 72 50 73 51 74 56 75 52 76
REMARK SMILES IDX 53 77 55 78 57 79 54 80 38 81 39 82 44 83 40 84 41 85 43 86
REMARK SMILES IDX 45 87 42 88
REMARK H PARENT 5 7 12 31 62 50 36 61
REMARK Flexibility Score: inf
ROOT
ATOM      1  C   UNL A   1      36.473  21.929  25.590  1.00  0.00     0.002 C 
ENDROOT
BRANCH   1   2
ATOM      2  C   UNL A   1      35.657  23.031  24.899  1.00  0.00     0.021 C 
BRANCH   2   3
ATOM      3  C   UNL A   1      34.862  23.913  25.865  1.00  0.00     0.116 C 
BRANCH   3   4
ATOM      4  N   UNL A   1      34.324  23.111  26.941  1.00  0.00    -0.356 N 
ATOM      5  C   UNL A   1      33.030  22.837  27.268  1.00  0.00     0.227 C 
ATOM      6  O   UNL A   1      32.847  22.297  28.362  1.00  0.00    -0.274 OA
ATOM      7  H   UNL A   1      34.998  22.696  27.527  1.00  0.00     0.163 HD
BRANCH   5   8
ATOM      8  C   UNL A   1      31.894  23.143  26.277  1.00  0.00     0.106 C 
ATOM      9  C   UNL A   1      30.516  23.056  26.944  1.00  0.00     0.023 C 
BRANCH   8  10
ATOM     10  C   UNL A   1      32.016  22.243  25.039  1.00  0.00    -0.028 A 
ATOM     11  C   UNL A   1      32.215  20.856  25.200  1.00  0.00     0.005 A 
ATOM     12  C   UNL A   1      32.020  22.774  23.726  1.00  0.00    -0.014 A 
ATOM     13  C   UNL A   1      32.387  20.014  24.103  1.00  0.00     0.000 A 
ATOM     14  C   UNL A   1      32.209  21.911  22.631  1.00  0.00     0.009 A 
ATOM     15  C   UNL A   1      32.385  20.540  22.819  1.00  0.00     0.001 A 
BRANCH  12  16
ATOM     16  C   UNL A   1      31.829  24.216  23.449  1.00  0.00    -0.011 A 
ATOM     17  C   UNL A   1      30.634  24.947  23.822  1.00  0.00     0.027 A 
ATOM     18  C   UNL A   1      32.807  24.859  22.787  1.00  0.00     0.080 A 
ATOM     19  C   UNL A   1      30.466  26.217  23.436  1.00  0.00     0.095 A 
ATOM     20  C   UNL A   1      32.656  26.287  22.393  1.00  0.00     0.255 A 
ATOM     21  N   UNL A   1      31.445  26.877  22.716  1.00  0.00    -0.258 N 
ATOM     22  O   UNL A   1      33.580  26.831  21.799  1.00  0.00    -0.269 OA
BRANCH  21  23
ATOM     23  C   UNL A   1      31.242  28.231  22.271  1.00  0.00     0.451 C 
ATOM     24  F   UNL A   1      29.942  28.461  21.964  1.00  0.00    -0.185 F 
ATOM     25  F   UNL A   1      31.609  29.116  23.233  1.00  0.00    -0.185 F 
ENDBRANCH  21  23
ENDBRANCH  12  16
ENDBRANCH   8  10
ENDBRANCH   5   8
ENDBRANCH   3   4
ENDBRANCH   2   3
ENDBRANCH   1   2
BRANCH   1  26
ATOM     26  C   UNL A   1      36.301  20.526  24.999  1.00  0.00     0.002 C 
BRANCH  26  27
ATOM     27  C   UNL A   1      37.602  19.746  24.806  1.00  0.00     0.021 C 
BRANCH  27  28
ATOM     28  C   UNL A   1      38.782  20.278  25.611  1.00  0.00     0.116 C 
BRANCH  28  29
ATOM     29  N   UNL A   1      39.858  19.304  25.713  1.00  0.00    -0.352 N 
ATOM     30  C   UNL A   1      41.172  19.499  26.055  1.00  0.00     0.251 C 
ATOM     31  H   UNL A   1      39.608  18.374  25.508  1.00  0.00     0.163 HD
ATOM     32  O   UNL A   1      41.993  18.597  25.901  1.00  0.00    -0.269 OA
BRANCH  30  33
ATOM     33  C   UNL A   1      41.605  20.806  26.589  1.00  0.00     0.039 A 
ATOM     34  C   UNL A   1      42.135  21.755  25.711  1.00  0.00     0.014 A 
ATOM     35  C   UNL A   1      41.487  21.096  27.951  1.00  0.00     0.014 A 
ATOM     36  C   UNL A   1      42.490  23.017  26.191  1.00  0.00     0.010 A 
ATOM     37  C   UNL A   1      41.772  22.377  28.413  1.00  0.00     0.010 A 
ATOM     38  C   UNL A   1      42.280  23.350  27.539  1.00  0.00    -0.014 A 
BRANCH  38  39
ATOM     39  C   UNL A   1      42.581  24.710  28.052  1.00  0.00     0.031 A 
ATOM     40  C   UNL A   1      43.980  25.071  28.463  1.00  0.00     0.074 A 
ATOM     41  C   UNL A   1      41.582  25.601  28.203  1.00  0.00     0.049 A 
ATOM     42  N   UNL A   1      44.426  26.180  28.997  1.00  0.00    -0.248 NA
ATOM     43  C   UNL A   1      45.013  24.039  28.274  1.00  0.00     0.031 C 
ATOM     44  C   UNL A   1      40.175  25.360  27.878  1.00  0.00     0.029 A 
ATOM     45  N   UNL A   1      41.596  26.889  28.679  1.00  0.00    -0.354 N 
ATOM     46  C   UNL A   1      45.782  25.976  29.214  1.00  0.00     0.074 A 
ATOM     47  C   UNL A   1      46.077  24.619  28.808  1.00  0.00     0.031 C 
ATOM     48  C   UNL A   1      39.466  26.471  28.138  1.00  0.00     0.029 A 
ATOM     49  C   UNL A   1      40.359  27.487  28.687  1.00  0.00     0.049 A 
ATOM     50  H   UNL A   1      42.415  27.341  28.985  1.00  0.00     0.167 HD
ATOM     51  C   UNL A   1      46.705  26.849  29.685  1.00  0.00     0.037 A 
ATOM     52  C   UNL A   1      39.985  28.714  29.097  1.00  0.00     0.037 A 
ATOM     53  C   UNL A   1      46.414  28.205  30.073  1.00  0.00     0.049 A 
ATOM     54  C   UNL A   1      41.025  29.655  29.639  1.00  0.00     0.074 A 
ATOM     55  C   UNL A   1      47.287  29.180  30.520  1.00  0.00     0.029 A 
ATOM     56  N   UNL A   1      45.149  28.774  30.062  1.00  0.00    -0.354 N 
ATOM     57  N   UNL A   1      42.314  29.469  29.785  1.00  0.00    -0.248 NA
ATOM     58  C   UNL A   1      40.557  30.979  30.072  1.00  0.00     0.031 C 
ATOM     59  C   UNL A   1      46.546  30.326  30.822  1.00  0.00     0.029 A 
ATOM     60  C   UNL A   1      45.216  30.082  30.515  1.00  0.00     0.049 A 
ATOM     61  H   UNL A   1      44.326  28.317  29.776  1.00  0.00     0.167 HD
ATOM     62  C   UNL A   1      42.815  30.660  30.294  1.00  0.00     0.074 A 
ATOM     63  C   UNL A   1      41.692  31.566  30.422  1.00  0.00     0.031 C 
ATOM     64  C   UNL A   1      44.091  30.975  30.627  1.00  0.00     0.037 A 
BRANCH  51  65
ATOM     65  C   UNL A   1      48.121  26.363  29.803  1.00  0.00     0.057 A 
ATOM     66  C   UNL A   1      49.040  26.507  28.754  1.00  0.00     0.134 A 
ATOM     67  C   UNL A   1      48.582  25.775  30.988  1.00  0.00     0.134 A 
ATOM     68  F   UNL A   1      48.661  27.051  27.587  1.00  0.00    -0.206 F 
ATOM     69  C   UNL A   1      50.358  26.059  28.870  1.00  0.00     0.040 A 
ATOM     70  C   UNL A   1      49.905  25.350  31.126  1.00  0.00     0.040 A 
ATOM     71  F   UNL A   1      47.758  25.612  32.033  1.00  0.00    -0.206 F 
ATOM     72  C   UNL A   1      50.795  25.485  30.062  1.00  0.00     0.006 A 
ENDBRANCH  51  65
BRANCH  52  73
ATOM     73  C   UNL A   1      38.565  29.134  28.988  1.00  0.00     0.057 A 
ATOM     74  C   UNL A   1      38.051  29.628  27.783  1.00  0.00     0.134 A 
ATOM     75  C   UNL A   1      37.694  29.065  30.081  1.00  0.00     0.134 A 
ATOM     76  F   UNL A   1      38.843  29.736  26.706  1.00  0.00    -0.206 F 
ATOM     77  C   UNL A   1      36.727  30.056  27.673  1.00  0.00     0.040 A 
ATOM     78  C   UNL A   1      36.360  29.465  29.978  1.00  0.00     0.040 A 
ATOM     79  F   UNL A   1      38.123  28.593  31.261  1.00  0.00    -0.206 F 
ATOM     80  C   UNL A   1      35.876  29.970  28.774  1.00  0.00     0.006 A 
ENDBRANCH  52  73
BRANCH  64  81
ATOM     81  C   UNL A   1      44.350  32.369  31.122  1.00  0.00     0.057 A 
ATOM     82  C   UNL A   1      44.629  33.425  30.247  1.00  0.00     0.134 A 
ATOM     83  C   UNL A   1      44.279  32.663  32.490  1.00  0.00     0.134 A 
ATOM     84  F   UNL A   1      44.724  33.208  28.926  1.00  0.00    -0.206 F 
ATOM     85  C   UNL A   1      44.851  34.721  30.717  1.00  0.00     0.040 A 
ATOM     86  C   UNL A   1      44.471  33.959  32.969  1.00  0.00     0.040 A 
ATOM     87  F   UNL A   1      44.007  31.696  33.381  1.00  0.00    -0.206 F 
ATOM     88  C   UNL A   1      44.766  34.991  32.082  1.00  0.00     0.006 A 
ENDBRANCH  64  81
ENDBRANCH  38  39
ENDBRANCH  30  33
ENDBRANCH  28  29
ENDBRANCH  27  28
ENDBRANCH  26  27
ENDBRANCH   1  26
TORSDOF 16
ENDMDL
MODEL 3
REMARK VINA RESULT:     -11.5      1.268      2.114
REMARK SMILES C[C@@H](C(=O)NCCCCCCNC(=O)c1ccc(-c2c3nc(c(-c4c(F)cccc4F)c4ccc([nH]4)c(-c4c(F)cccc4F)c4nc(c(-c5c(F)cccc5F)c5ccc2[nH]5)C=C4)C=C3)cc1)c1ccccc1-c1ccn(C(F)F)c(=O)c1
REMARK SMILES IDX 8 1 7 2 6 3 5 4 3 5 4 6 2 8 1 9 69 10 70 11 74 12 71 13
REMARK SMILES IDX 73 14 72 15 75 16 76 17 84 18 77 19 82 20 78 21 83 22 79 23
REMARK SMILES IDX 80 24 81 25 9 26 10 27 11 28 12 29 13 30 14 32 15 33 16 34
REMARK SMILES IDX 68 35 17 36 67 37 18 38 19 39 20 40 61 41 21 42 66 43 60 44
REMARK SMILES IDX 62 45 22 46 65 47 59 48 58 49 23 51 49 52 32 53 48 54 33 55
REMARK SMILES IDX 36 56 47 57 63 58 34 59 35 60 46 62 64 63 37 64 24 65 25 66
REMARK SMILES IDX 30 67 26 68 27 69 29 70 31 71 28 72 50 73 51 74 56 75 52 76
REMARK SMILES IDX 53 77 55 78 57 79 54 80 38 81 39 82 44 83 40 84 41 85 43 86
REMARK SMILES IDX 45 87 42 88
REMARK H PARENT 5 7 12 31 62 50 36 61
REMARK Flexibility Score: inf
ROOT
ATOM      1  C   UNL A   1      37.072  22.074  24.273  1.00  0.00     0.002 C 
ENDROOT
BRANCH   1   2
ATOM      2  C   UNL A   1      35.940  23.110  24.202  1.00  0.00     0.021 C 
BRANCH   2   3
ATOM      3  C   UNL A   1      35.675  23.832  25.525  1.00  0.00     0.116 C 
BRANCH   3   4
ATOM      4  N   UNL A   1      35.289  22.878  26.541  1.00  0.00    -0.356 N 
ATOM      5  C   UNL A   1      34.050  22.510  26.973  1.00  0.00     0.227 C 
ATOM      6  O   UNL A   1      34.010  21.829  28.001  1.00  0.00    -0.274 OA
ATOM      7  H   UNL A   1      36.037  22.423  26.990  1.00  0.00     0.163 HD
BRANCH   5   8
ATOM      8  C   UNL A   1      32.798  22.888  26.163  1.00  0.00     0.106 C 
ATOM      9  C   UNL A   1      31.561  23.033  27.058  1.00  0.00     0.023 C 
BRANCH   8  10
ATOM     10  C   UNL A   1      32.590  21.891  25.015  1.00  0.00    -0.028 A 
ATOM     11  C   UNL A   1      32.812  20.515  25.234  1.00  0.00     0.005 A 
ATOM     12  C   UNL A   1      32.261  22.317  23.704  1.00  0.00    -0.014 A 
ATOM     13  C   UNL A   1      32.690  19.585  24.203  1.00  0.00     0.000 A 
ATOM     14  C   UNL A   1      32.156  21.366  22.673  1.00  0.00     0.009 A 
ATOM     15  C   UNL A   1      32.363  20.009  22.923  1.00  0.00     0.001 A 
BRANCH  12  16
ATOM     16  C   UNL A   1      32.019  23.737  23.366  1.00  0.00    -0.011 A 
ATOM     17  C   UNL A   1      30.807  24.446  23.729  1.00  0.00     0.027 A 
ATOM     18  C   UNL A   1      32.962  24.380  22.656  1.00  0.00     0.080 A 
ATOM     19  C   UNL A   1      30.591  25.692  23.290  1.00  0.00     0.095 A 
ATOM     20  C   UNL A   1      32.757  25.783  22.201  1.00  0.00     0.255 A 
ATOM     21  N   UNL A   1      31.533  26.349  22.521  1.00  0.00    -0.258 N 
ATOM     22  O   UNL A   1      33.652  26.329  21.564  1.00  0.00    -0.269 OA
BRANCH  21  23
ATOM     23  C   UNL A   1      31.278  27.673  22.019  1.00  0.00     0.451 C 
ATOM     24  F   UNL A   1      29.973  28.011  22.157  1.00  0.00    -0.185 F 
ATOM     25  F   UNL A   1      32.022  28.594  22.684  1.00  0.00    -0.185 F 
ENDBRANCH  21  23
ENDBRANCH  12  16
ENDBRANCH   8  10
ENDBRANCH   5   8
ENDBRANCH   3   4
ENDBRANCH   2   3
ENDBRANCH   1   2
BRANCH   1  26
ATOM     26  C   UNL A   1      36.694  20.743  24.930  1.00  0.00     0.002 C 
BRANCH  26  27
ATOM     27  C   UNL A   1      37.822  19.713  24.988  1.00  0.00     0.021 C 
BRANCH  27  28
ATOM     28  C   UNL A   1      39.059  20.172  25.752  1.00  0.00     0.116 C 
BRANCH  28  29
ATOM     29  N   UNL A   1      40.037  19.106  25.900  1.00  0.00    -0.352 N 
ATOM     30  C   UNL A   1      41.390  19.196  26.109  1.00  0.00     0.251 C 
ATOM     31  H   UNL A   1      39.678  18.191  25.844  1.00  0.00     0.163 HD
ATOM     32  O   UNL A   1      42.099  18.196  26.015  1.00  0.00    -0.269 OA
BRANCH  30  33
ATOM     33  C   UNL A   1      41.999  20.504  26.425  1.00  0.00     0.039 A 
ATOM     34  C   UNL A   1      42.396  21.337  25.376  1.00  0.00     0.014 A 
ATOM     35  C   UNL A   1      42.175  20.909  27.751  1.00  0.00     0.014 A 
ATOM     36  C   UNL A   1      42.915  22.602  25.658  1.00  0.00     0.010 A 
ATOM     37  C   UNL A   1      42.623  22.196  28.028  1.00  0.00     0.010 A 
ATOM     38  C   UNL A   1      43.000  23.055  26.985  1.00  0.00    -0.014 A 
BRANCH  38  39
ATOM     39  C   UNL A   1      43.478  24.424  27.301  1.00  0.00     0.031 A 
ATOM     40  C   UNL A   1      42.508  25.478  27.757  1.00  0.00     0.074 A 
ATOM     41  C   UNL A   1      44.776  24.736  27.118  1.00  0.00     0.049 A 
ATOM     42  N   UNL A   1      42.721  26.744  28.014  1.00  0.00    -0.248 NA
ATOM     43  C   UNL A   1      41.107  25.059  27.925  1.00  0.00     0.031 C 
ATOM     44  C   UNL A   1      45.810  23.815  26.641  1.00  0.00     0.029 A 
ATOM     45  N   UNL A   1      45.447  25.920  27.304  1.00  0.00    -0.354 N 
ATOM     46  C   UNL A   1      41.485  27.272  28.362  1.00  0.00     0.074 A 
ATOM     47  C   UNL A   1      40.517  26.205  28.229  1.00  0.00     0.031 C 
ATOM     48  C   UNL A   1      46.987  24.459  26.597  1.00  0.00     0.029 A 
ATOM     49  C   UNL A   1      46.786  25.847  27.002  1.00  0.00     0.049 A 
ATOM     50  H   UNL A   1      45.011  26.742  27.623  1.00  0.00     0.167 HD
ATOM     51  C   UNL A   1      41.187  28.526  28.779  1.00  0.00     0.037 A 
ATOM     52  C   UNL A   1      47.741  26.795  27.039  1.00  0.00     0.037 A 
ATOM     53  C   UNL A   1      42.155  29.582  28.927  1.00  0.00     0.049 A 
ATOM     54  C   UNL A   1      47.379  28.185  27.482  1.00  0.00     0.074 A 
ATOM     55  C   UNL A   1      41.960  30.873  29.385  1.00  0.00     0.029 A 
ATOM     56  N   UNL A   1      43.501  29.467  28.614  1.00  0.00    -0.354 N 
ATOM     57  N   UNL A   1      46.217  28.656  27.864  1.00  0.00    -0.248 NA
ATOM     58  C   UNL A   1      48.464  29.177  27.502  1.00  0.00     0.031 C 
ATOM     59  C   UNL A   1      43.178  31.553  29.308  1.00  0.00     0.029 A 
ATOM     60  C   UNL A   1      44.145  30.671  28.851  1.00  0.00     0.049 A 
ATOM     61  H   UNL A   1      43.936  28.652  28.275  1.00  0.00     0.167 HD
ATOM     62  C   UNL A   1      46.437  29.986  28.200  1.00  0.00     0.074 A 
ATOM     63  C   UNL A   1      47.846  30.244  27.986  1.00  0.00     0.031 C 
ATOM     64  C   UNL A   1      45.551  30.911  28.643  1.00  0.00     0.037 A 
BRANCH  51  65
ATOM     65  C   UNL A   1      39.752  28.822  29.111  1.00  0.00     0.057 A 
ATOM     66  C   UNL A   1      38.846  29.260  28.135  1.00  0.00     0.134 A 
ATOM     67  C   UNL A   1      39.262  28.636  30.409  1.00  0.00     0.134 A 
ATOM     68  F   UNL A   1      39.253  29.472  26.874  1.00  0.00    -0.206 F 
ATOM     69  C   UNL A   1      37.511  29.529  28.446  1.00  0.00     0.040 A 
ATOM     70  C   UNL A   1      37.924  28.872  30.725  1.00  0.00     0.040 A 
ATOM     71  F   UNL A   1      40.074  28.212  31.390  1.00  0.00    -0.206 F 
ATOM     72  C   UNL A   1      37.045  29.327  29.743  1.00  0.00     0.006 A 
ENDBRANCH  51  65
BRANCH  52  73
ATOM     73  C   UNL A   1      49.139  26.456  26.671  1.00  0.00     0.057 A 
ATOM     74  C   UNL A   1      49.612  26.668  25.370  1.00  0.00     0.134 A 
ATOM     75  C   UNL A   1      50.030  25.906  27.600  1.00  0.00     0.134 A 
ATOM     76  F   UNL A   1      48.799  27.175  24.431  1.00  0.00    -0.206 F 
ATOM     77  C   UNL A   1      50.914  26.326  25.000  1.00  0.00     0.040 A 
ATOM     78  C   UNL A   1      51.344  25.585  27.250  1.00  0.00     0.040 A 
ATOM     79  F   UNL A   1      49.642  25.687  28.864  1.00  0.00    -0.206 F 
ATOM     80  C   UNL A   1      51.785  25.787  25.944  1.00  0.00     0.006 A 
ENDBRANCH  52  73
BRANCH  64  81
ATOM     81  C   UNL A   1      46.084  32.276  28.969  1.00  0.00     0.057 A 
ATOM     82  C   UNL A   1      46.086  33.314  28.029  1.00  0.00     0.134 A 
ATOM     83  C   UNL A   1      46.568  32.563  30.252  1.00  0.00     0.134 A 
ATOM     84  F   UNL A   1      45.649  33.100  26.779  1.00  0.00    -0.206 F 
ATOM     85  C   UNL A   1      46.569  34.584  28.349  1.00  0.00     0.040 A 
ATOM     86  C   UNL A   1      47.027  33.836  30.591  1.00  0.00     0.040 A 
ATOM     87  F   UNL A   1      46.586  31.614  31.201  1.00  0.00    -0.206 F 
ATOM     88  C   UNL A   1      47.035  34.849  29.635  1.00  0.00     0.006 A 
ENDBRANCH  64  81
ENDBRANCH  38  39
ENDBRANCH  30  33
ENDBRANCH  28  29
ENDBRANCH  27  28
ENDBRANCH  26  27
ENDBRANCH   1  26
TORSDOF 16
ENDMDL
