MODEL 1
REMARK VINA RESULT:     -12.7      0.000      0.000
REMARK SMILES NC(=O)c1c(-c2ccc(Cl)cc2)csc1NC(=O)[C@H]1[C@@H](C(=O)NCCCCCCNC(=O)c2ccc(-c3c4nc(c(-c5c(F)cccc5F)c5ccc([nH]5)c(-c5c(F)cccc5F)c5nc(c(-c6c(F)cccc6F)c6ccc3[nH]6)C=C5)C=C4)cc2)[C@@H]2CC[C@H]1O2
REMARK SMILES IDX 26 1 25 2 24 3 23 4 21 5 22 6 20 8 19 9 90 10 87 11 89 12
REMARK SMILES IDX 91 13 88 14 17 15 16 16 18 18 15 19 4 20 5 21 13 22 14 23
REMARK SMILES IDX 2 24 1 25 3 28 6 29 7 30 12 31 8 32 11 33 9 34 10 35 27 36
REMARK SMILES IDX 28 37 29 38 30 39 31 40 32 42 33 43 34 44 86 45 35 46 85 47
REMARK SMILES IDX 36 48 37 49 38 50 79 51 39 52 84 53 78 54 80 55 40 56 83 57
REMARK SMILES IDX 77 58 76 59 41 61 67 62 50 63 66 64 51 65 54 66 65 67 81 68
REMARK SMILES IDX 52 69 53 70 64 72 82 73 55 74 42 75 43 76 48 77 44 78 45 79
REMARK SMILES IDX 47 80 49 81 46 82 68 83 69 84 74 85 70 86 71 87 73 88 75 89
REMARK SMILES IDX 72 90 56 91 57 92 62 93 58 94 59 95 61 96 63 97 60 98
REMARK H PARENT 23 7 16 17 1 26 1 27 30 41 80 60 54 71
REMARK Flexibility Score: inf
ROOT
ATOM      1  C   UNL A   1      34.655  32.368  27.883  1.00  0.00     0.002 C 
ENDROOT
BRANCH   1   2
ATOM      2  C   UNL A   1      33.994  30.987  27.980  1.00  0.00     0.021 C 
BRANCH   2   3
ATOM      3  C   UNL A   1      33.163  30.542  26.785  1.00  0.00     0.116 C 
BRANCH   3   4
ATOM      4  N   UNL A   1      33.852  29.745  25.810  1.00  0.00    -0.356 N 
ATOM      5  C   UNL A   1      33.359  29.101  24.726  1.00  0.00     0.226 C 
ATOM      6  O   UNL A   1      34.210  28.633  23.955  1.00  0.00    -0.275 OA
ATOM      7  H   UNL A   1      34.822  29.653  25.951  1.00  0.00     0.163 HD
BRANCH   5   8
ATOM      8  C   UNL A   1      31.891  28.772  24.461  1.00  0.00     0.122 C 
ATOM      9  C   UNL A   1      30.963  27.797  25.222  1.00  0.00     0.123 C 
ATOM     10  C   UNL A   1      30.220  27.144  24.072  1.00  0.00     0.132 C 
ATOM     11  C   UNL A   1      31.683  28.345  22.997  1.00  0.00     0.132 C 
ATOM     12  C   UNL A   1      29.341  28.126  23.287  1.00  0.00     0.035 C 
ATOM     13  O   UNL A   1      31.299  26.960  23.126  1.00  0.00    -0.373 OA
ATOM     14  C   UNL A   1      30.367  28.896  22.452  1.00  0.00     0.035 C 
BRANCH   9  15
ATOM     15  C   UNL A   1      31.527  27.019  26.410  1.00  0.00     0.231 C 
ATOM     16  N   UNL A   1      32.140  25.811  26.518  1.00  0.00    -0.317 N 
ATOM     17  H   UNL A   1      32.204  25.548  27.465  1.00  0.00     0.170 HD
ATOM     18  O   UNL A   1      31.379  27.586  27.513  1.00  0.00    -0.274 OA
BRANCH  16  19
ATOM     19  C   UNL A   1      32.708  24.828  25.713  1.00  0.00     0.108 A 
ATOM     20  C   UNL A   1      32.543  23.437  25.840  1.00  0.00     0.082 A 
ATOM     21  C   UNL A   1      33.238  22.732  24.766  1.00  0.00     0.007 A 
ATOM     22  C   UNL A   1      33.891  23.614  23.932  1.00  0.00     0.076 A 
ATOM     23  S   UNL A   1      33.838  25.178  24.523  1.00  0.00    -0.125 S 
BRANCH  20  24
ATOM     24  C   UNL A   1      31.769  22.868  26.948  1.00  0.00     0.252 C 
ATOM     25  N   UNL A   1      30.472  22.529  26.692  1.00  0.00    -0.365 N 
ATOM     26  H   UNL A   1      29.914  22.143  27.406  1.00  0.00     0.159 HD
ATOM     27  H   UNL A   1      30.094  22.669  25.794  1.00  0.00     0.159 HD
ATOM     28  O   UNL A   1      32.260  22.622  28.041  1.00  0.00    -0.269 OA
ENDBRANCH  20  24
BRANCH  21  29
ATOM     29  C   UNL A   1      33.354  21.315  24.433  1.00  0.00    -0.017 A 
ATOM     30  C   UNL A   1      32.385  20.734  23.594  1.00  0.00     0.010 A 
ATOM     31  C   UNL A   1      34.352  20.507  24.985  1.00  0.00     0.010 A 
ATOM     32  C   UNL A   1      32.400  19.367  23.328  1.00  0.00     0.021 A 
ATOM     33  C   UNL A   1      34.380  19.138  24.698  1.00  0.00     0.021 A 
ATOM     34  C   UNL A   1      33.400  18.573  23.879  1.00  0.00     0.041 A 
ATOM     35  Cl  UNL A   1      33.416  16.886  23.551  1.00  0.00    -0.084 Cl
ENDBRANCH  21  29
ENDBRANCH  16  19
ENDBRANCH   9  15
ENDBRANCH   5   8
ENDBRANCH   3   4
ENDBRANCH   2   3
ENDBRANCH   1   2
BRANCH   1  36
ATOM     36  C   UNL A   1      34.349  33.385  28.988  1.00  0.00     0.002 C 
BRANCH  36  37
ATOM     37  C   UNL A   1      33.177  34.344  28.762  1.00  0.00     0.021 C 
BRANCH  37  38
ATOM     38  C   UNL A   1      33.333  35.759  29.306  1.00  0.00     0.116 C 
BRANCH  38  39
ATOM     39  N   UNL A   1      32.502  36.033  30.463  1.00  0.00    -0.352 N 
ATOM     40  C   UNL A   1      32.679  35.688  31.781  1.00  0.00     0.251 C 
ATOM     41  H   UNL A   1      31.684  36.547  30.274  1.00  0.00     0.163 HD
ATOM     42  O   UNL A   1      31.799  35.942  32.600  1.00  0.00    -0.269 OA
BRANCH  40  43
ATOM     43  C   UNL A   1      33.905  34.986  32.232  1.00  0.00     0.039 A 
ATOM     44  C   UNL A   1      33.762  33.745  32.862  1.00  0.00     0.014 A 
ATOM     45  C   UNL A   1      35.178  35.544  32.082  1.00  0.00     0.014 A 
ATOM     46  C   UNL A   1      34.892  33.036  33.280  1.00  0.00     0.010 A 
ATOM     47  C   UNL A   1      36.308  34.813  32.451  1.00  0.00     0.010 A 
ATOM     48  C   UNL A   1      36.177  33.549  33.047  1.00  0.00    -0.014 A 
BRANCH  48  49
ATOM     49  C   UNL A   1      37.391  32.769  33.407  1.00  0.00     0.031 A 
ATOM     50  C   UNL A   1      38.137  33.057  34.680  1.00  0.00     0.074 A 
ATOM     51  C   UNL A   1      37.862  31.836  32.554  1.00  0.00     0.049 A 
ATOM     52  N   UNL A   1      39.261  32.543  35.113  1.00  0.00    -0.248 NA
ATOM     53  C   UNL A   1      37.554  34.071  35.572  1.00  0.00     0.031 C 
ATOM     54  C   UNL A   1      37.250  31.473  31.275  1.00  0.00     0.029 A 
ATOM     55  N   UNL A   1      38.971  31.032  32.632  1.00  0.00    -0.354 N 
ATOM     56  C   UNL A   1      39.529  33.182  36.318  1.00  0.00     0.074 A 
ATOM     57  C   UNL A   1      38.470  34.147  36.527  1.00  0.00     0.031 C 
ATOM     58  C   UNL A   1      37.986  30.511  30.694  1.00  0.00     0.029 A 
ATOM     59  C   UNL A   1      39.137  30.214  31.541  1.00  0.00     0.049 A 
ATOM     60  H   UNL A   1      39.591  31.041  33.397  1.00  0.00     0.167 HD
ATOM     61  C   UNL A   1      40.551  32.969  37.180  1.00  0.00     0.037 A 
ATOM     62  C   UNL A   1      40.110  29.330  31.249  1.00  0.00     0.037 A 
ATOM     63  C   UNL A   1      41.587  31.987  36.994  1.00  0.00     0.049 A 
ATOM     64  C   UNL A   1      41.243  29.124  32.214  1.00  0.00     0.074 A 
ATOM     65  C   UNL A   1      42.626  31.657  37.849  1.00  0.00     0.029 A 
ATOM     66  N   UNL A   1      41.715  31.177  35.878  1.00  0.00    -0.354 N 
ATOM     67  N   UNL A   1      41.453  29.699  33.373  1.00  0.00    -0.248 NA
ATOM     68  C   UNL A   1      42.273  28.147  31.832  1.00  0.00     0.031 C 
ATOM     69  C   UNL A   1      43.406  30.674  37.232  1.00  0.00     0.029 A 
ATOM     70  C   UNL A   1      42.831  30.366  36.009  1.00  0.00     0.049 A 
ATOM     71  H   UNL A   1      41.105  31.178  35.106  1.00  0.00     0.167 HD
ATOM     72  C   UNL A   1      42.624  29.140  33.868  1.00  0.00     0.074 A 
ATOM     73  C   UNL A   1      43.074  28.172  32.888  1.00  0.00     0.031 C 
ATOM     74  C   UNL A   1      43.268  29.405  35.030  1.00  0.00     0.037 A 
BRANCH  61  75
ATOM     75  C   UNL A   1      40.601  33.819  38.416  1.00  0.00     0.057 A 
ATOM     76  C   UNL A   1      39.915  33.464  39.584  1.00  0.00     0.134 A 
ATOM     77  C   UNL A   1      41.380  34.983  38.450  1.00  0.00     0.134 A 
ATOM     78  F   UNL A   1      39.145  32.367  39.612  1.00  0.00    -0.206 F 
ATOM     79  C   UNL A   1      39.984  34.249  40.737  1.00  0.00     0.040 A 
ATOM     80  C   UNL A   1      41.474  35.763  39.604  1.00  0.00     0.040 A 
ATOM     81  F   UNL A   1      42.070  35.375  37.369  1.00  0.00    -0.206 F 
ATOM     82  C   UNL A   1      40.770  35.398  40.751  1.00  0.00     0.006 A 
ENDBRANCH  61  75
BRANCH  62  83
ATOM     83  C   UNL A   1      40.056  28.564  29.979  1.00  0.00     0.057 A 
ATOM     84  C   UNL A   1      40.730  29.012  28.837  1.00  0.00     0.134 A 
ATOM     85  C   UNL A   1      39.325  27.375  29.874  1.00  0.00     0.134 A 
ATOM     86  F   UNL A   1      41.429  30.157  28.872  1.00  0.00    -0.206 F 
ATOM     87  C   UNL A   1      40.670  28.312  27.632  1.00  0.00     0.040 A 
ATOM     88  C   UNL A   1      39.274  26.652  28.682  1.00  0.00     0.040 A 
ATOM     89  F   UNL A   1      38.661  26.895  30.936  1.00  0.00    -0.206 F 
ATOM     90  C   UNL A   1      39.943  27.124  27.554  1.00  0.00     0.006 A 
ENDBRANCH  62  83
BRANCH  74  91
ATOM     91  C   UNL A   1      44.517  28.627  35.317  1.00  0.00     0.057 A 
ATOM     92  C   UNL A   1      45.781  29.098  34.943  1.00  0.00     0.134 A 
ATOM     93  C   UNL A   1      44.457  27.414  36.016  1.00  0.00     0.134 A 
ATOM     94  F   UNL A   1      45.901  30.246  34.259  1.00  0.00    -0.206 F 
ATOM     95  C   UNL A   1      46.942  28.384  35.240  1.00  0.00     0.040 A 
ATOM     96  C   UNL A   1      45.613  26.702  36.338  1.00  0.00     0.040 A 
ATOM     97  F   UNL A   1      43.278  26.911  36.408  1.00  0.00    -0.206 F 
ATOM     98  C   UNL A   1      46.860  27.185  35.946  1.00  0.00     0.006 A 
ENDBRANCH  74  91
ENDBRANCH  48  49
ENDBRANCH  40  43
ENDBRANCH  38  39
ENDBRANCH  37  38
ENDBRANCH  36  37
ENDBRANCH   1  36
TORSDOF 17
ENDMDL
MODEL 2
REMARK VINA RESULT:     -12.6      2.746      7.617
REMARK SMILES NC(=O)c1c(-c2ccc(Cl)cc2)csc1NC(=O)[C@H]1[C@@H](C(=O)NCCCCCCNC(=O)c2ccc(-c3c4nc(c(-c5c(F)cccc5F)c5ccc([nH]5)c(-c5c(F)cccc5F)c5nc(c(-c6c(F)cccc6F)c6ccc3[nH]6)C=C5)C=C4)cc2)[C@@H]2CC[C@H]1O2
REMARK SMILES IDX 26 1 25 2 24 3 23 4 21 5 22 6 20 8 19 9 90 10 87 11 89 12
REMARK SMILES IDX 91 13 88 14 17 15 16 16 18 18 15 19 4 20 5 21 13 22 14 23
REMARK SMILES IDX 2 24 1 25 3 28 6 29 7 30 12 31 8 32 11 33 9 34 10 35 27 36
REMARK SMILES IDX 28 37 29 38 30 39 31 40 32 42 33 43 34 44 86 45 35 46 85 47
REMARK SMILES IDX 36 48 37 49 38 50 79 51 39 52 84 53 78 54 80 55 40 56 83 57
REMARK SMILES IDX 77 58 76 59 41 61 67 62 50 63 66 64 51 65 54 66 65 67 81 68
REMARK SMILES IDX 52 69 53 70 64 72 82 73 55 74 42 75 43 76 48 77 44 78 45 79
REMARK SMILES IDX 47 80 49 81 46 82 68 83 69 84 74 85 70 86 71 87 73 88 75 89
REMARK SMILES IDX 72 90 56 91 57 92 62 93 58 94 59 95 61 96 63 97 60 98
REMARK H PARENT 23 7 16 17 1 26 1 27 30 41 80 60 54 71
REMARK Flexibility Score: inf
ROOT
ATOM      1  C   UNL A   1      33.341  29.780  26.656  1.00  0.00     0.002 C 
ENDROOT
BRANCH   1   2
ATOM      2  C   UNL A   1      33.760  28.306  26.608  1.00  0.00     0.021 C 
BRANCH   2   3
ATOM      3  C   UNL A   1      32.938  27.391  25.712  1.00  0.00     0.116 C 
BRANCH   3   4
ATOM      4  N   UNL A   1      32.201  26.360  26.387  1.00  0.00    -0.356 N 
ATOM      5  C   UNL A   1      32.512  25.053  26.551  1.00  0.00     0.226 C 
ATOM      6  O   UNL A   1      31.779  24.427  27.331  1.00  0.00    -0.275 OA
ATOM      7  H   UNL A   1      31.347  26.644  26.786  1.00  0.00     0.163 HD
BRANCH   5   8
ATOM      8  C   UNL A   1      33.557  24.266  25.762  1.00  0.00     0.122 C 
ATOM      9  C   UNL A   1      33.366  23.399  24.496  1.00  0.00     0.123 C 
ATOM     10  C   UNL A   1      34.257  22.214  24.816  1.00  0.00     0.132 C 
ATOM     11  C   UNL A   1      34.344  23.321  26.688  1.00  0.00     0.132 C 
ATOM     12  C   UNL A   1      35.742  22.587  24.921  1.00  0.00     0.035 C 
ATOM     13  O   UNL A   1      33.948  22.017  26.216  1.00  0.00    -0.373 OA
ATOM     14  C   UNL A   1      35.817  23.271  26.287  1.00  0.00     0.035 C 
BRANCH   9  15
ATOM     15  C   UNL A   1      31.965  23.263  23.901  1.00  0.00     0.231 C 
ATOM     16  N   UNL A   1      31.102  24.159  23.354  1.00  0.00    -0.317 N 
ATOM     17  H   UNL A   1      30.213  23.747  23.242  1.00  0.00     0.170 HD
ATOM     18  O   UNL A   1      31.498  22.105  23.941  1.00  0.00    -0.274 OA
BRANCH  16  19
ATOM     19  C   UNL A   1      31.076  25.474  22.899  1.00  0.00     0.108 A 
ATOM     20  C   UNL A   1      30.207  26.494  23.325  1.00  0.00     0.082 A 
ATOM     21  C   UNL A   1      30.532  27.759  22.671  1.00  0.00     0.007 A 
ATOM     22  C   UNL A   1      31.584  27.610  21.793  1.00  0.00     0.076 A 
ATOM     23  S   UNL A   1      32.019  26.004  21.617  1.00  0.00    -0.125 S 
BRANCH  20  24
ATOM     24  C   UNL A   1      29.138  26.220  24.291  1.00  0.00     0.252 C 
ATOM     25  N   UNL A   1      27.853  26.334  23.847  1.00  0.00    -0.365 N 
ATOM     26  H   UNL A   1      27.103  26.159  24.460  1.00  0.00     0.159 HD
ATOM     27  H   UNL A   1      27.675  26.590  22.913  1.00  0.00     0.159 HD
ATOM     28  O   UNL A   1      29.358  25.828  25.429  1.00  0.00    -0.269 OA
ENDBRANCH  20  24
BRANCH  21  29
ATOM     29  C   UNL A   1      29.964  29.099  22.783  1.00  0.00    -0.017 A 
ATOM     30  C   UNL A   1      29.365  29.680  21.650  1.00  0.00     0.010 A 
ATOM     31  C   UNL A   1      30.070  29.849  23.959  1.00  0.00     0.010 A 
ATOM     32  C   UNL A   1      28.898  30.992  21.684  1.00  0.00     0.021 A 
ATOM     33  C   UNL A   1      29.579  31.159  23.999  1.00  0.00     0.021 A 
ATOM     34  C   UNL A   1      29.004  31.726  22.860  1.00  0.00     0.041 A 
ATOM     35  Cl  UNL A   1      28.429  33.345  22.899  1.00  0.00    -0.084 Cl
ENDBRANCH  21  29
ENDBRANCH  16  19
ENDBRANCH   9  15
ENDBRANCH   5   8
ENDBRANCH   3   4
ENDBRANCH   2   3
ENDBRANCH   1   2
BRANCH   1  36
ATOM     36  C   UNL A   1      31.906  30.100  27.091  1.00  0.00     0.002 C 
BRANCH  36  37
ATOM     37  C   UNL A   1      31.447  31.557  26.994  1.00  0.00     0.021 C 
BRANCH  37  38
ATOM     38  C   UNL A   1      32.505  32.587  26.618  1.00  0.00     0.116 C 
BRANCH  38  39
ATOM     39  N   UNL A   1      32.348  33.859  27.299  1.00  0.00    -0.352 N 
ATOM     40  C   UNL A   1      33.057  34.396  28.347  1.00  0.00     0.251 C 
ATOM     41  H   UNL A   1      31.620  34.426  26.956  1.00  0.00     0.163 HD
ATOM     42  O   UNL A   1      32.699  35.461  28.841  1.00  0.00    -0.269 OA
BRANCH  40  43
ATOM     43  C   UNL A   1      34.234  33.695  28.914  1.00  0.00     0.039 A 
ATOM     44  C   UNL A   1      35.496  34.275  28.740  1.00  0.00     0.014 A 
ATOM     45  C   UNL A   1      34.121  32.468  29.573  1.00  0.00     0.014 A 
ATOM     46  C   UNL A   1      36.630  33.662  29.281  1.00  0.00     0.010 A 
ATOM     47  C   UNL A   1      35.246  31.883  30.158  1.00  0.00     0.010 A 
ATOM     48  C   UNL A   1      36.510  32.478  30.025  1.00  0.00    -0.014 A 
BRANCH  48  49
ATOM     49  C   UNL A   1      37.694  31.860  30.679  1.00  0.00     0.031 A 
ATOM     50  C   UNL A   1      38.495  30.802  29.972  1.00  0.00     0.074 A 
ATOM     51  C   UNL A   1      38.015  32.207  31.942  1.00  0.00     0.049 A 
ATOM     52  N   UNL A   1      39.499  30.090  30.418  1.00  0.00    -0.248 NA
ATOM     53  C   UNL A   1      38.101  30.489  28.590  1.00  0.00     0.031 C 
ATOM     54  C   UNL A   1      37.309  33.202  32.751  1.00  0.00     0.029 A 
ATOM     55  N   UNL A   1      39.012  31.753  32.768  1.00  0.00    -0.354 N 
ATOM     56  C   UNL A   1      39.846  29.234  29.381  1.00  0.00     0.074 A 
ATOM     57  C   UNL A   1      38.921  29.490  28.297  1.00  0.00     0.031 C 
ATOM     58  C   UNL A   1      37.903  33.290  33.953  1.00  0.00     0.029 A 
ATOM     59  C   UNL A   1      39.007  32.337  34.011  1.00  0.00     0.049 A 
ATOM     60  H   UNL A   1      39.670  31.073  32.496  1.00  0.00     0.167 HD
ATOM     61  C   UNL A   1      40.856  28.333  29.327  1.00  0.00     0.037 A 
ATOM     62  C   UNL A   1      39.795  32.124  35.082  1.00  0.00     0.037 A 
ATOM     63  C   UNL A   1      41.800  28.100  30.388  1.00  0.00     0.049 A 
ATOM     64  C   UNL A   1      40.898  31.107  35.004  1.00  0.00     0.074 A 
ATOM     65  C   UNL A   1      42.896  27.252  30.397  1.00  0.00     0.029 A 
ATOM     66  N   UNL A   1      41.761  28.714  31.629  1.00  0.00    -0.354 N 
ATOM     67  N   UNL A   1      41.245  30.343  33.998  1.00  0.00    -0.248 NA
ATOM     68  C   UNL A   1      41.719  30.922  36.210  1.00  0.00     0.031 C 
ATOM     69  C   UNL A   1      43.497  27.325  31.657  1.00  0.00     0.029 A 
ATOM     70  C   UNL A   1      42.798  28.246  32.420  1.00  0.00     0.049 A 
ATOM     71  H   UNL A   1      41.095  29.383  31.908  1.00  0.00     0.167 HD
ATOM     72  C   UNL A   1      42.335  29.604  34.439  1.00  0.00     0.074 A 
ATOM     73  C   UNL A   1      42.599  30.018  35.801  1.00  0.00     0.031 C 
ATOM     74  C   UNL A   1      43.052  28.667  33.774  1.00  0.00     0.037 A 
BRANCH  61  75
ATOM     75  C   UNL A   1      40.996  27.525  28.070  1.00  0.00     0.057 A 
ATOM     76  C   UNL A   1      40.319  26.312  27.894  1.00  0.00     0.134 A 
ATOM     77  C   UNL A   1      41.783  27.988  27.009  1.00  0.00     0.134 A 
ATOM     78  F   UNL A   1      39.557  25.809  28.877  1.00  0.00    -0.206 F 
ATOM     79  C   UNL A   1      40.437  25.576  26.713  1.00  0.00     0.040 A 
ATOM     80  C   UNL A   1      41.891  27.272  25.815  1.00  0.00     0.040 A 
ATOM     81  F   UNL A   1      42.450  29.147  27.109  1.00  0.00    -0.206 F 
ATOM     82  C   UNL A   1      41.220  26.059  25.667  1.00  0.00     0.006 A 
ENDBRANCH  61  75
BRANCH  62  83
ATOM     83  C   UNL A   1      39.571  32.897  36.330  1.00  0.00     0.057 A 
ATOM     84  C   UNL A   1      38.664  32.454  37.299  1.00  0.00     0.134 A 
ATOM     85  C   UNL A   1      40.251  34.095  36.578  1.00  0.00     0.134 A 
ATOM     86  F   UNL A   1      37.968  31.324  37.105  1.00  0.00    -0.206 F 
ATOM     87  C   UNL A   1      38.430  33.182  38.466  1.00  0.00     0.040 A 
ATOM     88  C   UNL A   1      40.044  34.821  37.750  1.00  0.00     0.040 A 
ATOM     89  F   UNL A   1      41.135  34.567  35.687  1.00  0.00    -0.206 F 
ATOM     90  C   UNL A   1      39.126  34.368  38.696  1.00  0.00     0.006 A 
ENDBRANCH  62  83
BRANCH  74  91
ATOM     91  C   UNL A   1      44.202  28.037  34.501  1.00  0.00     0.057 A 
ATOM     92  C   UNL A   1      44.057  26.842  35.214  1.00  0.00     0.134 A 
ATOM     93  C   UNL A   1      45.480  28.611  34.449  1.00  0.00     0.134 A 
ATOM     94  F   UNL A   1      42.856  26.252  35.312  1.00  0.00    -0.206 F 
ATOM     95  C   UNL A   1      45.138  26.244  35.863  1.00  0.00     0.040 A 
ATOM     96  C   UNL A   1      46.573  28.012  35.076  1.00  0.00     0.040 A 
ATOM     97  F   UNL A   1      45.687  29.753  33.778  1.00  0.00    -0.206 F 
ATOM     98  C   UNL A   1      46.403  26.827  35.789  1.00  0.00     0.006 A 
ENDBRANCH  74  91
ENDBRANCH  48  49
ENDBRANCH  40  43
ENDBRANCH  38  39
ENDBRANCH  37  38
ENDBRANCH  36  37
ENDBRANCH   1  36
TORSDOF 17
ENDMDL
MODEL 3
REMARK VINA RESULT:     -12.5      0.427      5.840
REMARK SMILES NC(=O)c1c(-c2ccc(Cl)cc2)csc1NC(=O)[C@H]1[C@@H](C(=O)NCCCCCCNC(=O)c2ccc(-c3c4nc(c(-c5c(F)cccc5F)c5ccc([nH]5)c(-c5c(F)cccc5F)c5nc(c(-c6c(F)cccc6F)c6ccc3[nH]6)C=C5)C=C4)cc2)[C@@H]2CC[C@H]1O2
REMARK SMILES IDX 26 1 25 2 24 3 23 4 21 5 22 6 20 8 19 9 90 10 87 11 89 12
REMARK SMILES IDX 91 13 88 14 17 15 16 16 18 18 15 19 4 20 5 21 13 22 14 23
REMARK SMILES IDX 2 24 1 25 3 28 6 29 7 30 12 31 8 32 11 33 9 34 10 35 27 36
REMARK SMILES IDX 28 37 29 38 30 39 31 40 32 42 33 43 34 44 86 45 35 46 85 47
REMARK SMILES IDX 36 48 37 49 38 50 79 51 39 52 84 53 78 54 80 55 40 56 83 57
REMARK SMILES IDX 77 58 76 59 41 61 67 62 50 63 66 64 51 65 54 66 65 67 81 68
REMARK SMILES IDX 52 69 53 70 64 72 82 73 55 74 42 75 43 76 48 77 44 78 45 79
REMARK SMILES IDX 47 80 49 81 46 82 68 83 69 84 74 85 70 86 71 87 73 88 75 89
REMARK SMILES IDX 72 90 56 91 57 92 62 93 58 94 59 95 61 96 63 97 60 98
REMARK H PARENT 23 7 16 17 1 26 1 27 30 41 80 60 54 71
REMARK Flexibility Score: inf
ROOT
ATOM      1  C   UNL A   1      34.747  32.189  27.914  1.00  0.00     0.002 C 
ENDROOT
BRANCH   1   2
ATOM      2  C   UNL A   1      34.014  30.842  27.918  1.00  0.00     0.021 C 
BRANCH   2   3
ATOM      3  C   UNL A   1      33.197  30.505  26.678  1.00  0.00     0.116 C 
BRANCH   3   4
ATOM      4  N   UNL A   1      33.876  29.731  25.678  1.00  0.00    -0.356 N 
ATOM      5  C   UNL A   1      33.364  29.063  24.618  1.00  0.00     0.226 C 
ATOM      6  O   UNL A   1      34.199  28.625  23.813  1.00  0.00    -0.275 OA
ATOM      7  H   UNL A   1      34.854  29.678  25.778  1.00  0.00     0.163 HD
BRANCH   5   8
ATOM      8  C   UNL A   1      31.900  28.675  24.415  1.00  0.00     0.122 C 
ATOM      9  C   UNL A   1      31.033  27.698  25.243  1.00  0.00     0.123 C 
ATOM     10  C   UNL A   1      30.275  26.978  24.144  1.00  0.00     0.132 C 
ATOM     11  C   UNL A   1      31.659  28.186  22.976  1.00  0.00     0.132 C 
ATOM     12  C   UNL A   1      29.336  27.900  23.355  1.00  0.00     0.035 C 
ATOM     13  O   UNL A   1      31.328  26.795  23.169  1.00  0.00    -0.373 OA
ATOM     14  C   UNL A   1      30.307  28.672  22.458  1.00  0.00     0.035 C 
BRANCH   9  15
ATOM     15  C   UNL A   1      31.663  26.985  26.439  1.00  0.00     0.231 C 
ATOM     16  N   UNL A   1      32.285  25.785  26.577  1.00  0.00    -0.317 N 
ATOM     17  H   UNL A   1      32.400  25.572  27.533  1.00  0.00     0.170 HD
ATOM     18  O   UNL A   1      31.573  27.610  27.517  1.00  0.00    -0.274 OA
BRANCH  16  19
ATOM     19  C   UNL A   1      32.812  24.760  25.796  1.00  0.00     0.108 A 
ATOM     20  C   UNL A   1      32.620  23.380  25.978  1.00  0.00     0.082 A 
ATOM     21  C   UNL A   1      33.274  22.620  24.915  1.00  0.00     0.007 A 
ATOM     22  C   UNL A   1      33.925  23.457  24.035  1.00  0.00     0.076 A 
ATOM     23  S   UNL A   1      33.921  25.042  24.569  1.00  0.00    -0.125 S 
BRANCH  20  24
ATOM     24  C   UNL A   1      31.860  22.868  27.123  1.00  0.00     0.252 C 
ATOM     25  N   UNL A   1      32.523  22.058  27.998  1.00  0.00    -0.365 N 
ATOM     26  H   UNL A   1      32.053  21.691  28.782  1.00  0.00     0.159 HD
ATOM     27  H   UNL A   1      33.470  21.839  27.847  1.00  0.00     0.159 HD
ATOM     28  O   UNL A   1      30.705  23.200  27.354  1.00  0.00    -0.269 OA
ENDBRANCH  20  24
BRANCH  21  29
ATOM     29  C   UNL A   1      33.350  21.191  24.631  1.00  0.00    -0.017 A 
ATOM     30  C   UNL A   1      34.507  20.484  25.009  1.00  0.00     0.010 A 
ATOM     31  C   UNL A   1      32.343  20.524  23.926  1.00  0.00     0.010 A 
ATOM     32  C   UNL A   1      34.664  19.142  24.672  1.00  0.00     0.021 A 
ATOM     33  C   UNL A   1      32.492  19.169  23.609  1.00  0.00     0.021 A 
ATOM     34  C   UNL A   1      33.654  18.488  23.975  1.00  0.00     0.041 A 
ATOM     35  Cl  UNL A   1      33.851  16.832  23.559  1.00  0.00    -0.084 Cl
ENDBRANCH  21  29
ENDBRANCH  16  19
ENDBRANCH   9  15
ENDBRANCH   5   8
ENDBRANCH   3   4
ENDBRANCH   2   3
ENDBRANCH   1   2
BRANCH   1  36
ATOM     36  C   UNL A   1      34.387  33.201  29.008  1.00  0.00     0.002 C 
BRANCH  36  37
ATOM     37  C   UNL A   1      33.265  34.197  28.708  1.00  0.00     0.021 C 
BRANCH  37  38
ATOM     38  C   UNL A   1      33.365  35.565  29.373  1.00  0.00     0.116 C 
BRANCH  38  39
ATOM     39  N   UNL A   1      32.492  35.720  30.522  1.00  0.00    -0.352 N 
ATOM     40  C   UNL A   1      32.682  35.352  31.832  1.00  0.00     0.251 C 
ATOM     41  H   UNL A   1      31.631  36.158  30.333  1.00  0.00     0.163 HD
ATOM     42  O   UNL A   1      31.768  35.492  32.641  1.00  0.00    -0.269 OA
BRANCH  40  43
ATOM     43  C   UNL A   1      33.963  34.758  32.284  1.00  0.00     0.039 A 
ATOM     44  C   UNL A   1      33.943  33.460  32.805  1.00  0.00     0.014 A 
ATOM     45  C   UNL A   1      35.166  35.470  32.242  1.00  0.00     0.014 A 
ATOM     46  C   UNL A   1      35.132  32.852  33.220  1.00  0.00     0.010 A 
ATOM     47  C   UNL A   1      36.360  34.844  32.606  1.00  0.00     0.010 A 
ATOM     48  C   UNL A   1      36.356  33.526  33.091  1.00  0.00    -0.014 A 
BRANCH  48  49
ATOM     49  C   UNL A   1      37.638  32.863  33.446  1.00  0.00     0.031 A 
ATOM     50  C   UNL A   1      38.235  31.819  32.544  1.00  0.00     0.074 A 
ATOM     51  C   UNL A   1      38.239  33.156  34.617  1.00  0.00     0.049 A 
ATOM     52  N   UNL A   1      39.295  31.073  32.733  1.00  0.00    -0.248 NA
ATOM     53  C   UNL A   1      37.539  31.566  31.275  1.00  0.00     0.031 C 
ATOM     54  C   UNL A   1      37.755  34.131  35.596  1.00  0.00     0.029 A 
ATOM     55  N   UNL A   1      39.382  32.653  35.186  1.00  0.00    -0.354 N 
ATOM     56  C   UNL A   1      39.383  30.251  31.616  1.00  0.00     0.074 A 
ATOM     57  C   UNL A   1      38.248  30.565  30.774  1.00  0.00     0.031 C 
ATOM     58  C   UNL A   1      38.602  34.163  36.639  1.00  0.00     0.029 A 
ATOM     59  C   UNL A   1      39.666  33.189  36.419  1.00  0.00     0.049 A 
ATOM     60  H   UNL A   1      39.946  31.972  34.753  1.00  0.00     0.167 HD
ATOM     61  C   UNL A   1      40.332  29.335  31.311  1.00  0.00     0.037 A 
ATOM     62  C   UNL A   1      40.666  32.921  37.281  1.00  0.00     0.037 A 
ATOM     63  C   UNL A   1      41.480  29.045  32.128  1.00  0.00     0.049 A 
ATOM     64  C   UNL A   1      41.698  31.889  36.926  1.00  0.00     0.074 A 
ATOM     65  C   UNL A   1      42.529  28.178  31.865  1.00  0.00     0.029 A 
ATOM     66  N   UNL A   1      41.733  29.612  33.366  1.00  0.00    -0.354 N 
ATOM     67  N   UNL A   1      41.794  31.158  35.843  1.00  0.00    -0.248 NA
ATOM     68  C   UNL A   1      42.760  31.643  37.914  1.00  0.00     0.031 C 
ATOM     69  C   UNL A   1      43.395  28.192  32.963  1.00  0.00     0.029 A 
ATOM     70  C   UNL A   1      42.906  29.096  33.892  1.00  0.00     0.049 A 
ATOM     71  H   UNL A   1      41.162  30.281  33.807  1.00  0.00     0.167 HD
ATOM     72  C   UNL A   1      42.935  30.383  36.007  1.00  0.00     0.074 A 
ATOM     73  C   UNL A   1      43.504  30.740  37.290  1.00  0.00     0.031 C 
ATOM     74  C   UNL A   1      43.464  29.460  35.169  1.00  0.00     0.037 A 
BRANCH  61  75
ATOM     75  C   UNL A   1      40.170  28.573  30.028  1.00  0.00     0.057 A 
ATOM     76  C   UNL A   1      40.799  28.981  28.844  1.00  0.00     0.134 A 
ATOM     77  C   UNL A   1      39.413  27.396  29.987  1.00  0.00     0.134 A 
ATOM     78  F   UNL A   1      41.529  30.105  28.815  1.00  0.00    -0.206 F 
ATOM     79  C   UNL A   1      40.661  28.255  27.659  1.00  0.00     0.040 A 
ATOM     80  C   UNL A   1      39.287  26.650  28.814  1.00  0.00     0.040 A 
ATOM     81  F   UNL A   1      38.794  26.945  31.088  1.00  0.00    -0.206 F 
ATOM     82  C   UNL A   1      39.909  27.083  27.644  1.00  0.00     0.006 A 
ENDBRANCH  61  75
BRANCH  62  83
ATOM     83  C   UNL A   1      40.743  33.649  38.572  1.00  0.00     0.057 A 
ATOM     84  C   UNL A   1      41.626  34.721  38.744  1.00  0.00     0.134 A 
ATOM     85  C   UNL A   1      39.943  33.288  39.663  1.00  0.00     0.134 A 
ATOM     86  F   UNL A   1      42.432  35.098  37.740  1.00  0.00    -0.206 F 
ATOM     87  C   UNL A   1      41.722  35.400  39.959  1.00  0.00     0.040 A 
ATOM     88  C   UNL A   1      40.013  33.972  40.876  1.00  0.00     0.040 A 
ATOM     89  F   UNL A   1      39.075  32.271  39.557  1.00  0.00    -0.206 F 
ATOM     90  C   UNL A   1      40.909  35.029  41.029  1.00  0.00     0.006 A 
ENDBRANCH  62  83
BRANCH  74  91
ATOM     91  C   UNL A   1      44.729  28.782  35.601  1.00  0.00     0.057 A 
ATOM     92  C   UNL A   1      45.989  29.312  35.297  1.00  0.00     0.134 A 
ATOM     93  C   UNL A   1      44.686  27.610  36.368  1.00  0.00     0.134 A 
ATOM     94  F   UNL A   1      46.096  30.424  34.554  1.00  0.00    -0.206 F 
ATOM     95  C   UNL A   1      47.163  28.694  35.728  1.00  0.00     0.040 A 
ATOM     96  C   UNL A   1      45.853  26.995  36.823  1.00  0.00     0.040 A 
ATOM     97  F   UNL A   1      43.511  27.055  36.698  1.00  0.00    -0.206 F 
ATOM     98  C   UNL A   1      47.096  27.534  36.499  1.00  0.00     0.006 A 
ENDBRANCH  74  91
ENDBRANCH  48  49
ENDBRANCH  40  43
ENDBRANCH  38  39
ENDBRANCH  37  38
ENDBRANCH  36  37
ENDBRANCH   1  36
TORSDOF 17
ENDMDL
