MODEL 1
REMARK VINA RESULT:     -11.9      0.000      0.000
REMARK SMILES CC(C)c1ccc([C@]2(C(=O)NCCCCCCNC(=O)c3ccc(-c4c5nc(c(-c6c(F)cccc6F)c6ccc([nH]6)c(-c6c(F)cccc6F)c6nc(c(-c7c(F)cccc7F)c7ccc4[nH]7)C=C6)C=C5)cc3)CCC[C@@H]2C)cc1
REMARK SMILES IDX 14 1 13 2 12 3 11 4 9 5 10 6 8 8 75 9 78 10 76 11 77 12
REMARK SMILES IDX 79 13 7 14 4 15 5 16 81 17 6 18 80 19 2 20 1 21 3 22 15 23
REMARK SMILES IDX 16 24 17 25 18 26 19 27 20 29 21 30 22 31 74 32 23 33 73 34
REMARK SMILES IDX 24 35 25 36 26 37 67 38 27 39 72 40 66 41 68 42 28 43 71 44
REMARK SMILES IDX 65 45 64 46 29 48 55 49 38 50 54 51 39 52 42 53 53 54 69 55
REMARK SMILES IDX 40 56 41 57 52 59 70 60 43 61 30 62 31 63 36 64 32 65 33 66
REMARK SMILES IDX 35 67 37 68 34 69 56 70 57 71 62 72 58 73 59 74 61 75 63 76
REMARK SMILES IDX 60 77 44 78 45 79 50 80 46 81 47 82 49 83 51 84 48 85
REMARK H PARENT 11 7 18 28 68 47 42 58
REMARK Flexibility Score: inf
ROOT
ATOM      1  C   UNL A   1      32.298  29.768  26.861  1.00  0.00     0.002 C 
ENDROOT
BRANCH   1   2
ATOM      2  C   UNL A   1      31.532  28.594  27.462  1.00  0.00     0.021 C 
BRANCH   2   3
ATOM      3  C   UNL A   1      32.132  27.223  27.194  1.00  0.00     0.116 C 
BRANCH   3   4
ATOM      4  N   UNL A   1      31.228  26.253  26.641  1.00  0.00    -0.355 N 
ATOM      5  C   UNL A   1      31.147  25.672  25.413  1.00  0.00     0.230 C 
ATOM      6  O   UNL A   1      30.527  24.597  25.439  1.00  0.00    -0.274 OA
ATOM      7  H   UNL A   1      30.534  25.950  27.270  1.00  0.00     0.163 HD
BRANCH   5   8
ATOM      8  C   UNL A   1      31.728  26.253  24.038  1.00  0.00     0.077 C 
ATOM      9  C   UNL A   1      33.131  26.900  24.206  1.00  0.00     0.022 C 
ATOM     10  C   UNL A   1      31.997  25.153  22.934  1.00  0.00     0.006 C 
ATOM     11  C   UNL A   1      34.181  25.948  23.617  1.00  0.00     0.002 C 
ATOM     12  C   UNL A   1      33.446  24.697  23.143  1.00  0.00     0.005 C 
ATOM     13  C   UNL A   1      31.958  25.576  21.445  1.00  0.00     0.009 C 
BRANCH   8  14
ATOM     14  C   UNL A   1      30.674  27.315  23.600  1.00  0.00    -0.032 A 
ATOM     15  C   UNL A   1      28.771  29.282  22.809  1.00  0.00    -0.045 A 
ATOM     16  C   UNL A   1      30.142  29.524  22.694  1.00  0.00     0.004 A 
ATOM     17  C   UNL A   1      28.358  28.017  23.241  1.00  0.00     0.004 A 
ATOM     18  C   UNL A   1      31.070  28.538  23.032  1.00  0.00     0.005 A 
ATOM     19  C   UNL A   1      29.295  27.048  23.630  1.00  0.00     0.005 A 
BRANCH  15  20
ATOM     20  C   UNL A   1      27.751  30.351  22.467  1.00  0.00     0.013 C 
ATOM     21  C   UNL A   1      27.638  31.384  23.593  1.00  0.00     0.012 C 
ATOM     22  C   UNL A   1      28.072  31.033  21.135  1.00  0.00     0.012 C 
ENDBRANCH  15  20
ENDBRANCH   8  14
ENDBRANCH   5   8
ENDBRANCH   3   4
ENDBRANCH   2   3
ENDBRANCH   1   2
BRANCH   1  23
ATOM     23  C   UNL A   1      31.479  30.719  25.978  1.00  0.00     0.002 C 
BRANCH  23  24
ATOM     24  C   UNL A   1      31.339  32.159  26.486  1.00  0.00     0.021 C 
BRANCH  24  25
ATOM     25  C   UNL A   1      32.528  32.686  27.284  1.00  0.00     0.116 C 
BRANCH  25  26
ATOM     26  N   UNL A   1      32.393  34.099  27.598  1.00  0.00    -0.352 N 
ATOM     27  C   UNL A   1      33.032  34.857  28.546  1.00  0.00     0.251 C 
ATOM     28  H   UNL A   1      31.741  34.587  27.044  1.00  0.00     0.163 HD
ATOM     29  O   UNL A   1      32.628  35.984  28.810  1.00  0.00    -0.269 OA
BRANCH  27  30
ATOM     30  C   UNL A   1      34.202  34.308  29.261  1.00  0.00     0.039 A 
ATOM     31  C   UNL A   1      33.997  33.605  30.451  1.00  0.00     0.014 A 
ATOM     32  C   UNL A   1      35.497  34.498  28.768  1.00  0.00     0.014 A 
ATOM     33  C   UNL A   1      35.085  33.024  31.107  1.00  0.00     0.010 A 
ATOM     34  C   UNL A   1      36.571  33.866  29.388  1.00  0.00     0.010 A 
ATOM     35  C   UNL A   1      36.374  33.113  30.556  1.00  0.00    -0.014 A 
BRANCH  35  36
ATOM     36  C   UNL A   1      37.521  32.387  31.159  1.00  0.00     0.031 A 
ATOM     37  C   UNL A   1      38.158  32.886  32.424  1.00  0.00     0.074 A 
ATOM     38  C   UNL A   1      38.044  31.330  30.506  1.00  0.00     0.049 A 
ATOM     39  N   UNL A   1      39.228  32.447  33.037  1.00  0.00    -0.248 NA
ATOM     40  C   UNL A   1      37.526  34.045  33.077  1.00  0.00     0.031 C 
ATOM     41  C   UNL A   1      37.543  30.783  29.242  1.00  0.00     0.029 A 
ATOM     42  N   UNL A   1      39.128  30.540  30.799  1.00  0.00    -0.354 N 
ATOM     43  C   UNL A   1      39.410  33.284  34.130  1.00  0.00     0.074 A 
ATOM     44  C   UNL A   1      38.359  34.279  34.082  1.00  0.00     0.031 C 
ATOM     45  C   UNL A   1      38.313  29.748  28.874  1.00  0.00     0.029 A 
ATOM     46  C   UNL A   1      39.389  29.585  29.846  1.00  0.00     0.049 A 
ATOM     47  H   UNL A   1      39.667  30.648  31.617  1.00  0.00     0.167 HD
ATOM     48  C   UNL A   1      40.359  33.219  35.092  1.00  0.00     0.037 A 
ATOM     49  C   UNL A   1      40.395  28.695  29.751  1.00  0.00     0.037 A 
ATOM     50  C   UNL A   1      41.380  32.206  35.153  1.00  0.00     0.049 A 
ATOM     51  C   UNL A   1      41.444  28.658  30.828  1.00  0.00     0.074 A 
ATOM     52  C   UNL A   1      42.322  31.994  36.145  1.00  0.00     0.029 A 
ATOM     53  N   UNL A   1      41.600  31.245  34.180  1.00  0.00    -0.354 N 
ATOM     54  N   UNL A   1      41.541  29.391  31.912  1.00  0.00    -0.248 NA
ATOM     55  C   UNL A   1      42.526  27.676  30.671  1.00  0.00     0.031 C 
ATOM     56  C   UNL A   1      43.153  30.946  35.741  1.00  0.00     0.029 A 
ATOM     57  C   UNL A   1      42.695  30.469  34.524  1.00  0.00     0.049 A 
ATOM     58  H   UNL A   1      41.060  31.131  33.364  1.00  0.00     0.167 HD
ATOM     59  C   UNL A   1      42.679  28.944  32.571  1.00  0.00     0.074 A 
ATOM     60  C   UNL A   1      43.226  27.863  31.780  1.00  0.00     0.031 C 
ATOM     61  C   UNL A   1      43.225  29.393  33.727  1.00  0.00     0.037 A 
BRANCH  48  62
ATOM     62  C   UNL A   1      40.355  34.269  36.165  1.00  0.00     0.057 A 
ATOM     63  C   UNL A   1      41.070  35.465  36.033  1.00  0.00     0.134 A 
ATOM     64  C   UNL A   1      39.554  34.115  37.303  1.00  0.00     0.134 A 
ATOM     65  F   UNL A   1      41.862  35.673  34.970  1.00  0.00    -0.206 F 
ATOM     66  C   UNL A   1      40.996  36.468  37.002  1.00  0.00     0.040 A 
ATOM     67  C   UNL A   1      39.452  35.120  38.266  1.00  0.00     0.040 A 
ATOM     68  F   UNL A   1      38.838  32.995  37.487  1.00  0.00    -0.206 F 
ATOM     69  C   UNL A   1      40.176  36.302  38.117  1.00  0.00     0.006 A 
ENDBRANCH  48  62
BRANCH  49  70
ATOM     70  C   UNL A   1      40.482  27.780  28.583  1.00  0.00     0.057 A 
ATOM     71  C   UNL A   1      41.210  28.129  27.440  1.00  0.00     0.134 A 
ATOM     72  C   UNL A   1      39.808  26.553  28.566  1.00  0.00     0.134 A 
ATOM     73  F   UNL A   1      41.861  29.301  27.387  1.00  0.00    -0.206 F 
ATOM     74  C   UNL A   1      41.241  27.308  26.312  1.00  0.00     0.040 A 
ATOM     75  C   UNL A   1      39.855  25.707  27.456  1.00  0.00     0.040 A 
ATOM     76  F   UNL A   1      39.098  26.153  29.631  1.00  0.00    -0.206 F 
ATOM     77  C   UNL A   1      40.563  26.091  26.319  1.00  0.00     0.006 A 
ENDBRANCH  49  70
BRANCH  61  78
ATOM     78  C   UNL A   1      44.469  28.710  34.214  1.00  0.00     0.057 A 
ATOM     79  C   UNL A   1      44.413  27.559  35.008  1.00  0.00     0.134 A 
ATOM     80  C   UNL A   1      45.735  29.178  33.839  1.00  0.00     0.134 A 
ATOM     81  F   UNL A   1      43.231  27.069  35.413  1.00  0.00    -0.206 F 
ATOM     82  C   UNL A   1      45.572  26.903  35.424  1.00  0.00     0.040 A 
ATOM     83  C   UNL A   1      46.901  28.515  34.225  1.00  0.00     0.040 A 
ATOM     84  F   UNL A   1      45.859  30.273  33.072  1.00  0.00    -0.206 F 
ATOM     85  C   UNL A   1      46.821  27.376  35.023  1.00  0.00     0.006 A 
ENDBRANCH  61  78
ENDBRANCH  35  36
ENDBRANCH  27  30
ENDBRANCH  25  26
ENDBRANCH  24  25
ENDBRANCH  23  24
ENDBRANCH   1  23
TORSDOF 15
ENDMDL
MODEL 2
REMARK VINA RESULT:     -11.8      4.961      9.439
REMARK SMILES CC(C)c1ccc([C@]2(C(=O)NCCCCCCNC(=O)c3ccc(-c4c5nc(c(-c6c(F)cccc6F)c6ccc([nH]6)c(-c6c(F)cccc6F)c6nc(c(-c7c(F)cccc7F)c7ccc4[nH]7)C=C6)C=C5)cc3)CCC[C@@H]2C)cc1
REMARK SMILES IDX 14 1 13 2 12 3 11 4 9 5 10 6 8 8 75 9 78 10 76 11 77 12
REMARK SMILES IDX 79 13 7 14 4 15 5 16 81 17 6 18 80 19 2 20 1 21 3 22 15 23
REMARK SMILES IDX 16 24 17 25 18 26 19 27 20 29 21 30 22 31 74 32 23 33 73 34
REMARK SMILES IDX 24 35 25 36 26 37 67 38 27 39 72 40 66 41 68 42 28 43 71 44
REMARK SMILES IDX 65 45 64 46 29 48 55 49 38 50 54 51 39 52 42 53 53 54 69 55
REMARK SMILES IDX 40 56 41 57 52 59 70 60 43 61 30 62 31 63 36 64 32 65 33 66
REMARK SMILES IDX 35 67 37 68 34 69 56 70 57 71 62 72 58 73 59 74 61 75 63 76
REMARK SMILES IDX 60 77 44 78 45 79 50 80 46 81 47 82 49 83 51 84 48 85
REMARK H PARENT 11 7 18 28 68 47 42 58
REMARK Flexibility Score: inf
ROOT
ATOM      1  C   UNL A   1      36.281  21.335  24.616  1.00  0.00     0.002 C 
ENDROOT
BRANCH   1   2
ATOM      2  C   UNL A   1      36.033  22.298  25.772  1.00  0.00     0.021 C 
BRANCH   2   3
ATOM      3  C   UNL A   1      35.942  23.766  25.385  1.00  0.00     0.116 C 
BRANCH   3   4
ATOM      4  N   UNL A   1      35.499  24.021  24.043  1.00  0.00    -0.355 N 
ATOM      5  C   UNL A   1      34.288  24.368  23.529  1.00  0.00     0.230 C 
ATOM      6  O   UNL A   1      34.384  24.910  22.416  1.00  0.00    -0.274 OA
ATOM      7  H   UNL A   1      36.207  23.928  23.364  1.00  0.00     0.163 HD
BRANCH   5   8
ATOM      8  C   UNL A   1      32.855  24.115  24.198  1.00  0.00     0.077 C 
ATOM      9  C   UNL A   1      32.762  24.674  25.645  1.00  0.00     0.022 C 
ATOM     10  C   UNL A   1      31.663  24.861  23.475  1.00  0.00     0.006 C 
ATOM     11  C   UNL A   1      31.920  25.957  25.619  1.00  0.00     0.002 C 
ATOM     12  C   UNL A   1      31.543  26.225  24.165  1.00  0.00     0.005 C 
ATOM     13  C   UNL A   1      30.238  24.265  23.593  1.00  0.00     0.009 C 
BRANCH   8  14
ATOM     14  C   UNL A   1      32.701  22.564  24.190  1.00  0.00    -0.032 A 
ATOM     15  C   UNL A   1      32.439  19.727  24.206  1.00  0.00    -0.045 A 
ATOM     16  C   UNL A   1      32.467  20.451  25.400  1.00  0.00     0.004 A 
ATOM     17  C   UNL A   1      32.455  20.440  23.002  1.00  0.00     0.004 A 
ATOM     18  C   UNL A   1      32.542  21.845  25.387  1.00  0.00     0.005 A 
ATOM     19  C   UNL A   1      32.584  21.836  22.994  1.00  0.00     0.005 A 
BRANCH  15  20
ATOM     20  C   UNL A   1      32.380  18.211  24.205  1.00  0.00     0.013 C 
ATOM     21  C   UNL A   1      33.306  17.626  23.133  1.00  0.00     0.012 C 
ATOM     22  C   UNL A   1      32.711  17.632  25.583  1.00  0.00     0.012 C 
ENDBRANCH  15  20
ENDBRANCH   8  14
ENDBRANCH   5   8
ENDBRANCH   3   4
ENDBRANCH   2   3
ENDBRANCH   1   2
BRANCH   1  23
ATOM     23  C   UNL A   1      36.208  19.842  24.962  1.00  0.00     0.002 C 
BRANCH  23  24
ATOM     24  C   UNL A   1      37.537  19.078  24.942  1.00  0.00     0.021 C 
BRANCH  24  25
ATOM     25  C   UNL A   1      38.754  19.878  25.398  1.00  0.00     0.116 C 
BRANCH  25  26
ATOM     26  N   UNL A   1      39.898  19.024  25.672  1.00  0.00    -0.352 N 
ATOM     27  C   UNL A   1      41.161  19.352  26.097  1.00  0.00     0.251 C 
ATOM     28  H   UNL A   1      39.743  18.062  25.529  1.00  0.00     0.163 HD
ATOM     29  O   UNL A   1      42.058  18.518  26.062  1.00  0.00    -0.269 OA
BRANCH  27  30
ATOM     30  C   UNL A   1      41.442  20.716  26.587  1.00  0.00     0.039 A 
ATOM     31  C   UNL A   1      41.599  20.921  27.960  1.00  0.00     0.014 A 
ATOM     32  C   UNL A   1      41.538  21.791  25.699  1.00  0.00     0.014 A 
ATOM     33  C   UNL A   1      41.929  22.192  28.437  1.00  0.00     0.010 A 
ATOM     34  C   UNL A   1      41.929  23.042  26.167  1.00  0.00     0.010 A 
ATOM     35  C   UNL A   1      42.140  23.252  27.539  1.00  0.00    -0.014 A 
BRANCH  35  36
ATOM     36  C   UNL A   1      42.628  24.573  28.009  1.00  0.00     0.031 A 
ATOM     37  C   UNL A   1      41.656  25.670  28.339  1.00  0.00     0.074 A 
ATOM     38  C   UNL A   1      43.955  24.808  28.045  1.00  0.00     0.049 A 
ATOM     39  N   UNL A   1      41.898  26.916  28.661  1.00  0.00    -0.248 NA
ATOM     40  C   UNL A   1      40.224  25.333  28.277  1.00  0.00     0.031 C 
ATOM     41  C   UNL A   1      44.996  23.836  27.699  1.00  0.00     0.029 A 
ATOM     42  N   UNL A   1      44.658  25.943  28.365  1.00  0.00    -0.354 N 
ATOM     43  C   UNL A   1      40.654  27.515  28.818  1.00  0.00     0.074 A 
ATOM     44  C   UNL A   1      39.658  26.507  28.526  1.00  0.00     0.031 C 
ATOM     45  C   UNL A   1      46.199  24.414  27.830  1.00  0.00     0.029 A 
ATOM     46  C   UNL A   1      46.018  25.807  28.222  1.00  0.00     0.049 A 
ATOM     47  H   UNL A   1      44.227  26.775  28.668  1.00  0.00     0.167 HD
ATOM     48  C   UNL A   1      40.374  28.787  29.186  1.00  0.00     0.037 A 
ATOM     49  C   UNL A   1      47.007  26.710  28.365  1.00  0.00     0.037 A 
ATOM     50  C   UNL A   1      41.370  29.774  29.510  1.00  0.00     0.049 A 
ATOM     51  C   UNL A   1      46.660  28.120  28.759  1.00  0.00     0.074 A 
ATOM     52  C   UNL A   1      41.182  31.057  29.994  1.00  0.00     0.029 A 
ATOM     53  N   UNL A   1      42.736  29.594  29.371  1.00  0.00    -0.354 N 
ATOM     54  N   UNL A   1      45.484  28.643  29.006  1.00  0.00    -0.248 NA
ATOM     55  C   UNL A   1      47.777  29.068  28.891  1.00  0.00     0.031 C 
ATOM     56  C   UNL A   1      42.432  31.675  30.087  1.00  0.00     0.029 A 
ATOM     57  C   UNL A   1      43.401  30.759  29.713  1.00  0.00     0.049 A 
ATOM     58  H   UNL A   1      43.170  28.762  29.073  1.00  0.00     0.167 HD
ATOM     59  C   UNL A   1      45.720  29.969  29.341  1.00  0.00     0.074 A 
ATOM     60  C   UNL A   1      47.152  30.167  29.289  1.00  0.00     0.031 C 
ATOM     61  C   UNL A   1      44.829  30.939  29.659  1.00  0.00     0.037 A 
BRANCH  48  62
ATOM     62  C   UNL A   1      38.933  29.201  29.260  1.00  0.00     0.057 A 
ATOM     63  C   UNL A   1      38.215  29.594  28.124  1.00  0.00     0.134 A 
ATOM     64  C   UNL A   1      38.234  29.118  30.471  1.00  0.00     0.134 A 
ATOM     65  F   UNL A   1      38.827  29.701  26.935  1.00  0.00    -0.206 F 
ATOM     66  C   UNL A   1      36.855  29.902  28.192  1.00  0.00     0.040 A 
ATOM     67  C   UNL A   1      36.868  29.399  30.547  1.00  0.00     0.040 A 
ATOM     68  F   UNL A   1      38.860  28.740  31.596  1.00  0.00    -0.206 F 
ATOM     69  C   UNL A   1      36.175  29.794  29.404  1.00  0.00     0.006 A 
ENDBRANCH  48  62
BRANCH  49  70
ATOM     70  C   UNL A   1      48.420  26.325  28.110  1.00  0.00     0.057 A 
ATOM     71  C   UNL A   1      49.000  26.488  26.848  1.00  0.00     0.134 A 
ATOM     72  C   UNL A   1      49.211  25.748  29.112  1.00  0.00     0.134 A 
ATOM     73  F   UNL A   1      48.289  27.016  25.841  1.00  0.00    -0.206 F 
ATOM     74  C   UNL A   1      50.304  26.066  26.581  1.00  0.00     0.040 A 
ATOM     75  C   UNL A   1      50.526  25.349  28.867  1.00  0.00     0.040 A 
ATOM     76  F   UNL A   1      48.719  25.570  30.347  1.00  0.00    -0.206 F 
ATOM     77  C   UNL A   1      51.071  25.496  27.594  1.00  0.00     0.006 A 
ENDBRANCH  49  70
BRANCH  61  78
ATOM     78  C   UNL A   1      45.375  32.298  29.987  1.00  0.00     0.057 A 
ATOM     79  C   UNL A   1      45.476  33.304  29.019  1.00  0.00     0.134 A 
ATOM     80  C   UNL A   1      45.753  32.619  31.297  1.00  0.00     0.134 A 
ATOM     81  F   UNL A   1      45.143  33.055  27.743  1.00  0.00    -0.206 F 
ATOM     82  C   UNL A   1      45.945  34.579  29.338  1.00  0.00     0.040 A 
ATOM     83  C   UNL A   1      46.198  33.898  31.635  1.00  0.00     0.040 A 
ATOM     84  F   UNL A   1      45.675  31.702  32.274  1.00  0.00    -0.206 F 
ATOM     85  C   UNL A   1      46.299  34.881  30.653  1.00  0.00     0.006 A 
ENDBRANCH  61  78
ENDBRANCH  35  36
ENDBRANCH  27  30
ENDBRANCH  25  26
ENDBRANCH  24  25
ENDBRANCH  23  24
ENDBRANCH   1  23
TORSDOF 15
ENDMDL
MODEL 3
REMARK VINA RESULT:     -11.8      1.024      6.392
REMARK SMILES CC(C)c1ccc([C@]2(C(=O)NCCCCCCNC(=O)c3ccc(-c4c5nc(c(-c6c(F)cccc6F)c6ccc([nH]6)c(-c6c(F)cccc6F)c6nc(c(-c7c(F)cccc7F)c7ccc4[nH]7)C=C6)C=C5)cc3)CCC[C@@H]2C)cc1
REMARK SMILES IDX 14 1 13 2 12 3 11 4 9 5 10 6 8 8 75 9 78 10 76 11 77 12
REMARK SMILES IDX 79 13 7 14 4 15 5 16 81 17 6 18 80 19 2 20 1 21 3 22 15 23
REMARK SMILES IDX 16 24 17 25 18 26 19 27 20 29 21 30 22 31 74 32 23 33 73 34
REMARK SMILES IDX 24 35 25 36 26 37 67 38 27 39 72 40 66 41 68 42 28 43 71 44
REMARK SMILES IDX 65 45 64 46 29 48 55 49 38 50 54 51 39 52 42 53 53 54 69 55
REMARK SMILES IDX 40 56 41 57 52 59 70 60 43 61 30 62 31 63 36 64 32 65 33 66
REMARK SMILES IDX 35 67 37 68 34 69 56 70 57 71 62 72 58 73 59 74 61 75 63 76
REMARK SMILES IDX 60 77 44 78 45 79 50 80 46 81 47 82 49 83 51 84 48 85
REMARK H PARENT 11 7 18 28 68 47 42 58
REMARK Flexibility Score: inf
ROOT
ATOM      1  C   UNL A   1      32.720  29.883  26.886  1.00  0.00     0.002 C 
ENDROOT
BRANCH   1   2
ATOM      2  C   UNL A   1      33.704  29.218  25.929  1.00  0.00     0.021 C 
BRANCH   2   3
ATOM      3  C   UNL A   1      33.607  27.703  25.849  1.00  0.00     0.116 C 
BRANCH   3   4
ATOM      4  N   UNL A   1      33.738  27.147  24.530  1.00  0.00    -0.355 N 
ATOM      5  C   UNL A   1      32.826  26.651  23.651  1.00  0.00     0.230 C 
ATOM      6  O   UNL A   1      33.242  26.664  22.481  1.00  0.00    -0.274 OA
ATOM      7  H   UNL A   1      34.665  27.120  24.199  1.00  0.00     0.163 HD
BRANCH   5   8
ATOM      8  C   UNL A   1      31.375  26.069  24.001  1.00  0.00     0.077 C 
ATOM      9  C   UNL A   1      31.035  24.785  23.196  1.00  0.00     0.022 C 
ATOM     10  C   UNL A   1      31.220  25.576  25.496  1.00  0.00     0.006 C 
ATOM     11  C   UNL A   1      31.150  23.575  24.134  1.00  0.00     0.002 C 
ATOM     12  C   UNL A   1      31.616  24.095  25.491  1.00  0.00     0.005 C 
ATOM     13  C   UNL A   1      29.808  25.577  26.131  1.00  0.00     0.009 C 
BRANCH   8  14
ATOM     14  C   UNL A   1      30.402  27.230  23.635  1.00  0.00    -0.032 A 
ATOM     15  C   UNL A   1      28.603  29.329  22.947  1.00  0.00    -0.045 A 
ATOM     16  C   UNL A   1      28.146  28.019  23.113  1.00  0.00     0.004 A 
ATOM     17  C   UNL A   1      29.950  29.597  23.213  1.00  0.00     0.004 A 
ATOM     18  C   UNL A   1      29.021  27.004  23.502  1.00  0.00     0.005 A 
ATOM     19  C   UNL A   1      30.836  28.564  23.552  1.00  0.00     0.005 A 
BRANCH  15  20
ATOM     20  C   UNL A   1      27.668  30.438  22.503  1.00  0.00     0.013 C 
ATOM     21  C   UNL A   1      27.653  31.585  23.520  1.00  0.00     0.012 C 
ATOM     22  C   UNL A   1      28.028  30.956  21.108  1.00  0.00     0.012 C 
ENDBRANCH  15  20
ENDBRANCH   8  14
ENDBRANCH   5   8
ENDBRANCH   3   4
ENDBRANCH   2   3
ENDBRANCH   1   2
BRANCH   1  23
ATOM     23  C   UNL A   1      31.553  30.632  26.230  1.00  0.00     0.002 C 
BRANCH  23  24
ATOM     24  C   UNL A   1      31.404  32.112  26.604  1.00  0.00     0.021 C 
BRANCH  24  25
ATOM     25  C   UNL A   1      32.621  32.737  27.279  1.00  0.00     0.116 C 
BRANCH  25  26
ATOM     26  N   UNL A   1      32.405  34.136  27.608  1.00  0.00    -0.352 N 
ATOM     27  C   UNL A   1      32.994  34.917  28.570  1.00  0.00     0.251 C 
ATOM     28  H   UNL A   1      31.731  34.595  27.055  1.00  0.00     0.163 HD
ATOM     29  O   UNL A   1      32.526  36.016  28.844  1.00  0.00    -0.269 OA
BRANCH  27  30
ATOM     30  C   UNL A   1      34.188  34.426  29.287  1.00  0.00     0.039 A 
ATOM     31  C   UNL A   1      34.022  33.798  30.524  1.00  0.00     0.014 A 
ATOM     32  C   UNL A   1      35.467  34.596  28.750  1.00  0.00     0.014 A 
ATOM     33  C   UNL A   1      35.132  33.270  31.187  1.00  0.00     0.010 A 
ATOM     34  C   UNL A   1      36.564  34.015  29.380  1.00  0.00     0.010 A 
ATOM     35  C   UNL A   1      36.405  33.336  30.598  1.00  0.00    -0.014 A 
BRANCH  35  36
ATOM     36  C   UNL A   1      37.575  32.661  31.216  1.00  0.00     0.031 A 
ATOM     37  C   UNL A   1      38.237  31.503  30.525  1.00  0.00     0.074 A 
ATOM     38  C   UNL A   1      37.976  33.037  32.447  1.00  0.00     0.049 A 
ATOM     39  N   UNL A   1      39.198  30.725  30.957  1.00  0.00    -0.248 NA
ATOM     40  C   UNL A   1      37.742  31.155  29.183  1.00  0.00     0.031 C 
ATOM     41  C   UNL A   1      37.379  34.115  33.239  1.00  0.00     0.029 A 
ATOM     42  N   UNL A   1      38.964  32.540  33.260  1.00  0.00    -0.354 N 
ATOM     43  C   UNL A   1      39.407  29.787  29.954  1.00  0.00     0.074 A 
ATOM     44  C   UNL A   1      38.452  30.070  28.904  1.00  0.00     0.031 C 
ATOM     45  C   UNL A   1      38.014  34.201  34.417  1.00  0.00     0.029 A 
ATOM     46  C   UNL A   1      39.030  33.157  34.487  1.00  0.00     0.049 A 
ATOM     47  H   UNL A   1      39.569  31.811  32.990  1.00  0.00     0.167 HD
ATOM     48  C   UNL A   1      40.321  28.790  29.911  1.00  0.00     0.037 A 
ATOM     49  C   UNL A   1      39.804  32.895  35.558  1.00  0.00     0.037 A 
ATOM     50  C   UNL A   1      41.291  28.537  30.945  1.00  0.00     0.049 A 
ATOM     51  C   UNL A   1      40.799  31.769  35.484  1.00  0.00     0.074 A 
ATOM     52  C   UNL A   1      42.325  27.618  30.945  1.00  0.00     0.029 A 
ATOM     53  N   UNL A   1      41.338  29.194  32.163  1.00  0.00    -0.354 N 
ATOM     54  N   UNL A   1      41.056  30.958  34.486  1.00  0.00    -0.248 NA
ATOM     55  C   UNL A   1      41.611  31.519  36.683  1.00  0.00     0.031 C 
ATOM     56  C   UNL A   1      42.959  27.674  32.189  1.00  0.00     0.029 A 
ATOM     57  C   UNL A   1      42.354  28.666  32.943  1.00  0.00     0.049 A 
ATOM     58  H   UNL A   1      40.739  29.927  32.435  1.00  0.00     0.167 HD
ATOM     59  C   UNL A   1      42.069  30.118  34.930  1.00  0.00     0.074 A 
ATOM     60  C   UNL A   1      42.397  30.532  36.278  1.00  0.00     0.031 C 
ATOM     61  C   UNL A   1      42.670  29.091  34.282  1.00  0.00     0.037 A 
BRANCH  48  62
ATOM     62  C   UNL A   1      40.328  27.886  28.714  1.00  0.00     0.057 A 
ATOM     63  C   UNL A   1      41.082  28.175  27.570  1.00  0.00     0.134 A 
ATOM     64  C   UNL A   1      39.639  26.666  28.744  1.00  0.00     0.134 A 
ATOM     65  F   UNL A   1      41.759  29.330  27.475  1.00  0.00    -0.206 F 
ATOM     66  C   UNL A   1      41.142  27.288  26.493  1.00  0.00     0.040 A 
ATOM     67  C   UNL A   1      39.712  25.760  27.684  1.00  0.00     0.040 A 
ATOM     68  F   UNL A   1      38.903  26.324  29.813  1.00  0.00    -0.206 F 
ATOM     69  C   UNL A   1      40.465  26.071  26.553  1.00  0.00     0.006 A 
ENDBRANCH  48  62
BRANCH  49  70
ATOM     70  C   UNL A   1      39.657  33.690  36.804  1.00  0.00     0.057 A 
ATOM     71  C   UNL A   1      38.784  33.289  37.822  1.00  0.00     0.134 A 
ATOM     72  C   UNL A   1      40.356  34.889  36.992  1.00  0.00     0.134 A 
ATOM     73  F   UNL A   1      38.071  32.161  37.693  1.00  0.00    -0.206 F 
ATOM     74  C   UNL A   1      38.587  34.065  38.966  1.00  0.00     0.040 A 
ATOM     75  C   UNL A   1      40.192  35.659  38.144  1.00  0.00     0.040 A 
ATOM     76  F   UNL A   1      41.215  35.327  36.060  1.00  0.00    -0.206 F 
ATOM     77  C   UNL A   1      39.295  35.253  39.130  1.00  0.00     0.006 A 
ENDBRANCH  49  70
BRANCH  61  78
ATOM     78  C   UNL A   1      43.751  28.352  35.013  1.00  0.00     0.057 A 
ATOM     79  C   UNL A   1      45.085  28.777  34.978  1.00  0.00     0.134 A 
ATOM     80  C   UNL A   1      43.447  27.237  35.804  1.00  0.00     0.134 A 
ATOM     81  F   UNL A   1      45.444  29.830  34.227  1.00  0.00    -0.206 F 
ATOM     82  C   UNL A   1      46.081  28.111  35.693  1.00  0.00     0.040 A 
ATOM     83  C   UNL A   1      44.429  26.579  36.545  1.00  0.00     0.040 A 
ATOM     84  F   UNL A   1      42.187  26.783  35.887  1.00  0.00    -0.206 F 
ATOM     85  C   UNL A   1      45.752  27.013  36.488  1.00  0.00     0.006 A 
ENDBRANCH  61  78
ENDBRANCH  35  36
ENDBRANCH  27  30
ENDBRANCH  25  26
ENDBRANCH  24  25
ENDBRANCH  23  24
ENDBRANCH   1  23
TORSDOF 15
ENDMDL
