MODEL 1
REMARK VINA RESULT:     -11.5      0.000      0.000
REMARK SMILES Cn1ccc(NC(=O)[C@@H]2CCCC[C@@H]2C(=O)NCCCCCCNC(=O)c2ccc(-c3c4nc(c(-c5c(F)cccc5F)c5ccc([nH]5)c(-c5c(F)cccc5F)c5nc(c(-c6c(F)cccc6F)c6ccc3[nH]6)C=C5)C=C4)cc2)n1
REMARK SMILES IDX 20 1 19 2 18 3 17 4 15 5 16 6 14 8 9 9 10 10 11 11 13 12
REMARK SMILES IDX 12 13 7 14 6 15 8 17 5 18 1 19 2 20 3 21 81 22 4 23 21 24
REMARK SMILES IDX 22 25 23 26 24 27 25 28 26 30 27 31 28 32 80 33 29 34 79 35
REMARK SMILES IDX 30 36 31 37 32 38 73 39 33 40 78 41 72 42 74 43 34 44 77 45
REMARK SMILES IDX 71 46 70 47 35 49 61 50 44 51 60 52 45 53 48 54 59 55 75 56
REMARK SMILES IDX 46 57 47 58 58 60 76 61 49 62 36 63 37 64 42 65 38 66 39 67
REMARK SMILES IDX 41 68 43 69 40 70 62 71 63 72 68 73 64 74 65 75 67 76 69 77
REMARK SMILES IDX 66 78 50 79 51 80 56 81 52 82 53 83 55 84 57 85 54 86
REMARK H PARENT 17 7 6 16 24 29 74 48 48 59
REMARK Flexibility Score: inf
ROOT
ATOM      1  C   UNL A   1      32.921  30.167  26.893  1.00  0.00     0.002 C 
ENDROOT
BRANCH   1   2
ATOM      2  C   UNL A   1      32.885  28.786  27.553  1.00  0.00     0.021 C 
BRANCH   2   3
ATOM      3  C   UNL A   1      31.485  28.176  27.565  1.00  0.00     0.116 C 
BRANCH   3   4
ATOM      4  N   UNL A   1      31.473  26.943  26.821  1.00  0.00    -0.356 N 
ATOM      5  C   UNL A   1      31.301  26.705  25.496  1.00  0.00     0.223 C 
ATOM      6  O   UNL A   1      31.364  25.520  25.161  1.00  0.00    -0.275 OA
ATOM      7  H   UNL A   1      31.612  26.136  27.366  1.00  0.00     0.163 HD
BRANCH   5   8
ATOM      8  C   UNL A   1      31.143  27.852  24.481  1.00  0.00     0.091 C 
ATOM      9  C   UNL A   1      30.248  27.610  23.238  1.00  0.00     0.091 C 
ATOM     10  C   UNL A   1      30.766  26.375  22.484  1.00  0.00     0.014 C 
ATOM     11  C   UNL A   1      32.176  26.634  21.950  1.00  0.00     0.001 C 
ATOM     12  C   UNL A   1      32.540  28.239  23.928  1.00  0.00     0.014 C 
ATOM     13  C   UNL A   1      33.145  27.178  22.997  1.00  0.00     0.001 C 
BRANCH   9  14
ATOM     14  C   UNL A   1      28.727  27.591  23.401  1.00  0.00     0.229 C 
ATOM     15  N   UNL A   1      27.937  28.653  23.068  1.00  0.00    -0.309 N 
ATOM     16  H   UNL A   1      26.969  28.510  23.180  1.00  0.00     0.171 HD
ATOM     17  O   UNL A   1      28.145  26.596  23.854  1.00  0.00    -0.274 OA
BRANCH  15  18
ATOM     18  C   UNL A   1      28.294  29.894  22.598  1.00  0.00     0.154 A 
ATOM     19  C   UNL A   1      28.990  33.273  23.070  1.00  0.00     0.173 C 
ATOM     20  N   UNL A   1      28.733  31.963  22.525  1.00  0.00    -0.274 N 
ATOM     21  C   UNL A   1      28.378  31.651  21.248  1.00  0.00     0.110 A 
ATOM     22  N   UNL A   1      28.732  30.902  23.348  1.00  0.00    -0.155 NA
ATOM     23  C   UNL A   1      28.146  30.294  21.248  1.00  0.00     0.068 A 
ENDBRANCH  15  18
ENDBRANCH   9  14
ENDBRANCH   5   8
ENDBRANCH   3   4
ENDBRANCH   2   3
ENDBRANCH   1   2
BRANCH   1  24
ATOM     24  C   UNL A   1      31.538  30.730  26.545  1.00  0.00     0.002 C 
BRANCH  24  25
ATOM     25  C   UNL A   1      31.366  32.232  26.799  1.00  0.00     0.021 C 
BRANCH  25  26
ATOM     26  C   UNL A   1      32.674  33.019  26.848  1.00  0.00     0.116 C 
BRANCH  26  27
ATOM     27  N   UNL A   1      32.541  34.235  27.637  1.00  0.00    -0.352 N 
ATOM     28  C   UNL A   1      33.179  34.608  28.789  1.00  0.00     0.251 C 
ATOM     29  H   UNL A   1      31.894  34.889  27.288  1.00  0.00     0.163 HD
ATOM     30  O   UNL A   1      32.759  35.560  29.447  1.00  0.00    -0.269 OA
BRANCH  28  31
ATOM     31  C   UNL A   1      34.365  33.864  29.255  1.00  0.00     0.039 A 
ATOM     32  C   UNL A   1      35.636  34.366  28.963  1.00  0.00     0.014 A 
ATOM     33  C   UNL A   1      34.226  32.666  29.962  1.00  0.00     0.014 A 
ATOM     34  C   UNL A   1      36.767  33.704  29.443  1.00  0.00     0.010 A 
ATOM     35  C   UNL A   1      35.351  32.041  30.493  1.00  0.00     0.010 A 
ATOM     36  C   UNL A   1      36.630  32.560  30.246  1.00  0.00    -0.014 A 
BRANCH  36  37
ATOM     37  C   UNL A   1      37.813  31.917  30.870  1.00  0.00     0.031 A 
ATOM     38  C   UNL A   1      38.571  30.842  30.146  1.00  0.00     0.074 A 
ATOM     39  C   UNL A   1      38.155  32.257  32.127  1.00  0.00     0.049 A 
ATOM     40  N   UNL A   1      39.581  30.121  30.563  1.00  0.00    -0.248 NA
ATOM     41  C   UNL A   1      38.122  30.518  28.783  1.00  0.00     0.031 C 
ATOM     42  C   UNL A   1      37.467  33.254  32.951  1.00  0.00     0.029 A 
ATOM     43  N   UNL A   1      39.158  31.792  32.940  1.00  0.00    -0.354 N 
ATOM     44  C   UNL A   1      39.882  29.254  29.521  1.00  0.00     0.074 A 
ATOM     45  C   UNL A   1      38.920  29.507  28.470  1.00  0.00     0.031 C 
ATOM     46  C   UNL A   1      38.077  33.337  34.143  1.00  0.00     0.029 A 
ATOM     47  C   UNL A   1      39.173  32.375  34.184  1.00  0.00     0.049 A 
ATOM     48  H   UNL A   1      39.806  31.106  32.658  1.00  0.00     0.167 HD
ATOM     49  C   UNL A   1      40.882  28.344  29.442  1.00  0.00     0.037 A 
ATOM     50  C   UNL A   1      39.973  32.150  35.243  1.00  0.00     0.037 A 
ATOM     51  C   UNL A   1      41.847  28.106  30.484  1.00  0.00     0.049 A 
ATOM     52  C   UNL A   1      41.063  31.121  35.135  1.00  0.00     0.074 A 
ATOM     53  C   UNL A   1      42.935  27.252  30.473  1.00  0.00     0.029 A 
ATOM     54  N   UNL A   1      41.833  28.720  31.728  1.00  0.00    -0.354 N 
ATOM     55  N   UNL A   1      41.381  30.359  34.117  1.00  0.00    -0.248 NA
ATOM     56  C   UNL A   1      41.906  30.924  36.321  1.00  0.00     0.031 C 
ATOM     57  C   UNL A   1      43.555  27.315  31.726  1.00  0.00     0.029 A 
ATOM     58  C   UNL A   1      42.879  28.243  32.502  1.00  0.00     0.049 A 
ATOM     59  H   UNL A   1      41.178  29.396  32.018  1.00  0.00     0.167 HD
ATOM     60  C   UNL A   1      42.471  29.608  34.532  1.00  0.00     0.074 A 
ATOM     61  C   UNL A   1      42.773  30.019  35.887  1.00  0.00     0.031 C 
ATOM     62  C   UNL A   1      43.162  28.660  33.852  1.00  0.00     0.037 A 
BRANCH  49  63
ATOM     63  C   UNL A   1      40.985  27.535  28.182  1.00  0.00     0.057 A 
ATOM     64  C   UNL A   1      40.327  26.307  28.039  1.00  0.00     0.134 A 
ATOM     65  C   UNL A   1      41.713  28.009  27.084  1.00  0.00     0.134 A 
ATOM     66  F   UNL A   1      39.620  25.792  29.056  1.00  0.00    -0.206 F 
ATOM     67  C   UNL A   1      40.406  25.568  26.856  1.00  0.00     0.040 A 
ATOM     68  C   UNL A   1      41.780  27.293  25.888  1.00  0.00     0.040 A 
ATOM     69  F   UNL A   1      42.362  29.181  27.151  1.00  0.00    -0.206 F 
ATOM     70  C   UNL A   1      41.130  26.065  25.774  1.00  0.00     0.006 A 
ENDBRANCH  49  63
BRANCH  50  71
ATOM     71  C   UNL A   1      39.779  32.922  36.495  1.00  0.00     0.057 A 
ATOM     72  C   UNL A   1      38.827  32.532  37.443  1.00  0.00     0.134 A 
ATOM     73  C   UNL A   1      40.534  34.068  36.772  1.00  0.00     0.134 A 
ATOM     74  F   UNL A   1      38.059  31.453  37.225  1.00  0.00    -0.206 F 
ATOM     75  C   UNL A   1      38.618  33.263  38.614  1.00  0.00     0.040 A 
ATOM     76  C   UNL A   1      40.354  34.794  37.950  1.00  0.00     0.040 A 
ATOM     77  F   UNL A   1      41.469  34.489  35.907  1.00  0.00    -0.206 F 
ATOM     78  C   UNL A   1      39.388  34.396  38.872  1.00  0.00     0.006 A 
ENDBRANCH  50  71
BRANCH  62  79
ATOM     79  C   UNL A   1      44.318  28.018  34.559  1.00  0.00     0.057 A 
ATOM     80  C   UNL A   1      44.169  26.831  35.288  1.00  0.00     0.134 A 
ATOM     81  C   UNL A   1      45.601  28.577  34.487  1.00  0.00     0.134 A 
ATOM     82  F   UNL A   1      42.964  26.254  35.409  1.00  0.00    -0.206 F 
ATOM     83  C   UNL A   1      45.251  26.234  35.938  1.00  0.00     0.040 A 
ATOM     84  C   UNL A   1      46.694  27.976  35.111  1.00  0.00     0.040 A 
ATOM     85  F   UNL A   1      45.812  29.709  33.799  1.00  0.00    -0.206 F 
ATOM     86  C   UNL A   1      46.519  26.804  35.844  1.00  0.00     0.006 A 
ENDBRANCH  62  79
ENDBRANCH  36  37
ENDBRANCH  28  31
ENDBRANCH  26  27
ENDBRANCH  25  26
ENDBRANCH  24  25
ENDBRANCH   1  24
TORSDOF 15
ENDMDL
MODEL 2
REMARK VINA RESULT:     -11.3      0.785      6.327
REMARK SMILES Cn1ccc(NC(=O)[C@@H]2CCCC[C@@H]2C(=O)NCCCCCCNC(=O)c2ccc(-c3c4nc(c(-c5c(F)cccc5F)c5ccc([nH]5)c(-c5c(F)cccc5F)c5nc(c(-c6c(F)cccc6F)c6ccc3[nH]6)C=C5)C=C4)cc2)n1
REMARK SMILES IDX 20 1 19 2 18 3 17 4 15 5 16 6 14 8 9 9 10 10 11 11 13 12
REMARK SMILES IDX 12 13 7 14 6 15 8 17 5 18 1 19 2 20 3 21 81 22 4 23 21 24
REMARK SMILES IDX 22 25 23 26 24 27 25 28 26 30 27 31 28 32 80 33 29 34 79 35
REMARK SMILES IDX 30 36 31 37 32 38 73 39 33 40 78 41 72 42 74 43 34 44 77 45
REMARK SMILES IDX 71 46 70 47 35 49 61 50 44 51 60 52 45 53 48 54 59 55 75 56
REMARK SMILES IDX 46 57 47 58 58 60 76 61 49 62 36 63 37 64 42 65 38 66 39 67
REMARK SMILES IDX 41 68 43 69 40 70 62 71 63 72 68 73 64 74 65 75 67 76 69 77
REMARK SMILES IDX 66 78 50 79 51 80 56 81 52 82 53 83 55 84 57 85 54 86
REMARK H PARENT 17 7 6 16 24 29 74 48 48 59
REMARK Flexibility Score: inf
ROOT
ATOM      1  C   UNL A   1      32.828  30.166  26.804  1.00  0.00     0.002 C 
ENDROOT
BRANCH   1   2
ATOM      2  C   UNL A   1      32.791  28.829  27.549  1.00  0.00     0.021 C 
BRANCH   2   3
ATOM      3  C   UNL A   1      31.392  28.219  27.595  1.00  0.00     0.116 C 
BRANCH   3   4
ATOM      4  N   UNL A   1      31.362  26.986  26.852  1.00  0.00    -0.356 N 
ATOM      5  C   UNL A   1      31.193  26.750  25.526  1.00  0.00     0.223 C 
ATOM      6  O   UNL A   1      31.236  25.564  25.193  1.00  0.00    -0.275 OA
ATOM      7  H   UNL A   1      31.484  26.177  27.398  1.00  0.00     0.163 HD
BRANCH   5   8
ATOM      8  C   UNL A   1      31.061  27.898  24.509  1.00  0.00     0.091 C 
ATOM      9  C   UNL A   1      30.162  27.675  23.266  1.00  0.00     0.091 C 
ATOM     10  C   UNL A   1      30.653  26.427  22.514  1.00  0.00     0.014 C 
ATOM     11  C   UNL A   1      32.068  26.655  21.981  1.00  0.00     0.001 C 
ATOM     12  C   UNL A   1      32.466  28.255  23.957  1.00  0.00     0.014 C 
ATOM     13  C   UNL A   1      33.049  27.179  23.029  1.00  0.00     0.001 C 
BRANCH   9  14
ATOM     14  C   UNL A   1      28.640  27.688  23.428  1.00  0.00     0.229 C 
ATOM     15  N   UNL A   1      27.874  28.769  23.097  1.00  0.00    -0.309 N 
ATOM     16  H   UNL A   1      26.903  28.647  23.209  1.00  0.00     0.171 HD
ATOM     17  O   UNL A   1      28.036  26.705  23.877  1.00  0.00    -0.274 OA
BRANCH  15  18
ATOM     18  C   UNL A   1      28.259  30.003  22.633  1.00  0.00     0.154 A 
ATOM     19  C   UNL A   1      29.092  33.348  23.126  1.00  0.00     0.173 C 
ATOM     20  N   UNL A   1      28.769  32.056  22.572  1.00  0.00    -0.274 N 
ATOM     21  C   UNL A   1      28.360  31.776  21.304  1.00  0.00     0.110 A 
ATOM     22  N   UNL A   1      28.759  30.985  23.380  1.00  0.00    -0.155 NA
ATOM     23  C   UNL A   1      28.080  30.428  21.294  1.00  0.00     0.068 A 
ENDBRANCH  15  18
ENDBRANCH   9  14
ENDBRANCH   5   8
ENDBRANCH   3   4
ENDBRANCH   2   3
ENDBRANCH   1   2
BRANCH   1  24
ATOM     24  C   UNL A   1      31.447  30.789  26.568  1.00  0.00     0.002 C 
BRANCH  24  25
ATOM     25  C   UNL A   1      31.392  32.315  26.707  1.00  0.00     0.021 C 
BRANCH  25  26
ATOM     26  C   UNL A   1      32.687  32.952  27.206  1.00  0.00     0.116 C 
BRANCH  26  27
ATOM     27  N   UNL A   1      32.473  34.313  27.674  1.00  0.00    -0.352 N 
ATOM     28  C   UNL A   1      33.029  34.974  28.735  1.00  0.00     0.251 C 
ATOM     29  H   UNL A   1      31.829  34.838  27.147  1.00  0.00     0.163 HD
ATOM     30  O   UNL A   1      32.543  36.036  29.125  1.00  0.00    -0.269 OA
BRANCH  28  31
ATOM     31  C   UNL A   1      34.206  34.413  29.426  1.00  0.00     0.039 A 
ATOM     32  C   UNL A   1      34.026  33.755  30.645  1.00  0.00     0.014 A 
ATOM     33  C   UNL A   1      35.487  34.550  28.882  1.00  0.00     0.014 A 
ATOM     34  C   UNL A   1      35.122  33.172  31.283  1.00  0.00     0.010 A 
ATOM     35  C   UNL A   1      36.568  33.914  29.486  1.00  0.00     0.010 A 
ATOM     36  C   UNL A   1      36.393  33.212  30.688  1.00  0.00    -0.014 A 
BRANCH  36  37
ATOM     37  C   UNL A   1      37.542  32.489  31.286  1.00  0.00     0.031 A 
ATOM     38  C   UNL A   1      38.176  32.978  32.557  1.00  0.00     0.074 A 
ATOM     39  C   UNL A   1      38.059  31.429  30.636  1.00  0.00     0.049 A 
ATOM     40  N   UNL A   1      39.228  32.518  33.183  1.00  0.00    -0.248 NA
ATOM     41  C   UNL A   1      37.561  34.153  33.194  1.00  0.00     0.031 C 
ATOM     42  C   UNL A   1      37.560  30.888  29.370  1.00  0.00     0.029 A 
ATOM     43  N   UNL A   1      39.128  30.626  30.941  1.00  0.00    -0.354 N 
ATOM     44  C   UNL A   1      39.407  33.349  34.282  1.00  0.00     0.074 A 
ATOM     45  C   UNL A   1      38.383  34.369  34.211  1.00  0.00     0.031 C 
ATOM     46  C   UNL A   1      38.310  29.834  29.015  1.00  0.00     0.029 A 
ATOM     47  C   UNL A   1      39.365  29.647  30.006  1.00  0.00     0.049 A 
ATOM     48  H   UNL A   1      39.674  30.739  31.752  1.00  0.00     0.167 HD
ATOM     49  C   UNL A   1      40.331  33.257  35.269  1.00  0.00     0.037 A 
ATOM     50  C   UNL A   1      40.332  28.712  29.947  1.00  0.00     0.037 A 
ATOM     51  C   UNL A   1      41.339  32.231  35.343  1.00  0.00     0.049 A 
ATOM     52  C   UNL A   1      41.354  28.644  31.046  1.00  0.00     0.074 A 
ATOM     53  C   UNL A   1      42.277  32.015  36.336  1.00  0.00     0.029 A 
ATOM     54  N   UNL A   1      41.544  31.253  34.380  1.00  0.00    -0.354 N 
ATOM     55  N   UNL A   1      41.468  29.392  32.116  1.00  0.00    -0.248 NA
ATOM     56  C   UNL A   1      42.381  27.599  30.929  1.00  0.00     0.031 C 
ATOM     57  C   UNL A   1      43.080  30.934  35.954  1.00  0.00     0.029 A 
ATOM     58  C   UNL A   1      42.612  30.449  34.744  1.00  0.00     0.049 A 
ATOM     59  H   UNL A   1      41.009  31.147  33.561  1.00  0.00     0.167 HD
ATOM     60  C   UNL A   1      42.564  28.898  32.810  1.00  0.00     0.074 A 
ATOM     61  C   UNL A   1      43.069  27.773  32.050  1.00  0.00     0.031 C 
ATOM     62  C   UNL A   1      43.105  29.336  33.973  1.00  0.00     0.037 A 
BRANCH  49  63
ATOM     63  C   UNL A   1      40.293  34.295  36.352  1.00  0.00     0.057 A 
ATOM     64  C   UNL A   1      41.044  35.475  36.269  1.00  0.00     0.134 A 
ATOM     65  C   UNL A   1      39.464  34.134  37.469  1.00  0.00     0.134 A 
ATOM     66  F   UNL A   1      41.865  35.686  35.229  1.00  0.00    -0.206 F 
ATOM     67  C   UNL A   1      40.989  36.448  37.268  1.00  0.00     0.040 A 
ATOM     68  C   UNL A   1      39.380  35.111  38.462  1.00  0.00     0.040 A 
ATOM     69  F   UNL A   1      38.713  33.031  37.608  1.00  0.00    -0.206 F 
ATOM     70  C   UNL A   1      40.149  36.270  38.366  1.00  0.00     0.006 A 
ENDBRANCH  49  63
BRANCH  50  71
ATOM     71  C   UNL A   1      40.371  27.758  28.812  1.00  0.00     0.057 A 
ATOM     72  C   UNL A   1      41.131  28.028  27.668  1.00  0.00     0.134 A 
ATOM     73  C   UNL A   1      39.651  26.558  28.839  1.00  0.00     0.134 A 
ATOM     74  F   UNL A   1      41.828  29.171  27.576  1.00  0.00    -0.206 F 
ATOM     75  C   UNL A   1      41.158  27.150  26.584  1.00  0.00     0.040 A 
ATOM     76  C   UNL A   1      39.688  25.658  27.773  1.00  0.00     0.040 A 
ATOM     77  F   UNL A   1      38.911  26.236  29.911  1.00  0.00    -0.206 F 
ATOM     78  C   UNL A   1      40.438  25.957  26.638  1.00  0.00     0.006 A 
ENDBRANCH  50  71
BRANCH  62  79
ATOM     79  C   UNL A   1      44.293  28.587  34.499  1.00  0.00     0.057 A 
ATOM     80  C   UNL A   1      45.604  29.003  34.231  1.00  0.00     0.134 A 
ATOM     81  C   UNL A   1      44.125  27.454  35.305  1.00  0.00     0.134 A 
ATOM     82  F   UNL A   1      45.833  30.072  33.453  1.00  0.00    -0.206 F 
ATOM     83  C   UNL A   1      46.706  28.306  34.729  1.00  0.00     0.040 A 
ATOM     84  C   UNL A   1      45.219  26.764  35.830  1.00  0.00     0.040 A 
ATOM     85  F   UNL A   1      42.896  27.007  35.604  1.00  0.00    -0.206 F 
ATOM     86  C   UNL A   1      46.514  27.187  35.537  1.00  0.00     0.006 A 
ENDBRANCH  62  79
ENDBRANCH  36  37
ENDBRANCH  28  31
ENDBRANCH  26  27
ENDBRANCH  25  26
ENDBRANCH  24  25
ENDBRANCH   1  24
TORSDOF 15
ENDMDL
MODEL 3
REMARK VINA RESULT:     -11.3      5.421     10.200
REMARK SMILES Cn1ccc(NC(=O)[C@@H]2CCCC[C@@H]2C(=O)NCCCCCCNC(=O)c2ccc(-c3c4nc(c(-c5c(F)cccc5F)c5ccc([nH]5)c(-c5c(F)cccc5F)c5nc(c(-c6c(F)cccc6F)c6ccc3[nH]6)C=C5)C=C4)cc2)n1
REMARK SMILES IDX 20 1 19 2 18 3 17 4 15 5 16 6 14 8 9 9 10 10 11 11 13 12
REMARK SMILES IDX 12 13 7 14 6 15 8 17 5 18 1 19 2 20 3 21 81 22 4 23 21 24
REMARK SMILES IDX 22 25 23 26 24 27 25 28 26 30 27 31 28 32 80 33 29 34 79 35
REMARK SMILES IDX 30 36 31 37 32 38 73 39 33 40 78 41 72 42 74 43 34 44 77 45
REMARK SMILES IDX 71 46 70 47 35 49 61 50 44 51 60 52 45 53 48 54 59 55 75 56
REMARK SMILES IDX 46 57 47 58 58 60 76 61 49 62 36 63 37 64 42 65 38 66 39 67
REMARK SMILES IDX 41 68 43 69 40 70 62 71 63 72 68 73 64 74 65 75 67 76 69 77
REMARK SMILES IDX 66 78 50 79 51 80 56 81 52 82 53 83 55 84 57 85 54 86
REMARK H PARENT 17 7 6 16 24 29 74 48 48 59
REMARK Flexibility Score: inf
ROOT
ATOM      1  C   UNL A   1      37.159  21.897  25.632  1.00  0.00     0.002 C 
ENDROOT
BRANCH   1   2
ATOM      2  C   UNL A   1      36.878  23.128  24.768  1.00  0.00     0.021 C 
BRANCH   2   3
ATOM      3  C   UNL A   1      35.967  24.138  25.461  1.00  0.00     0.116 C 
BRANCH   3   4
ATOM      4  N   UNL A   1      35.191  23.488  26.485  1.00  0.00    -0.356 N 
ATOM      5  C   UNL A   1      33.857  23.262  26.582  1.00  0.00     0.223 C 
ATOM      6  O   UNL A   1      33.497  22.652  27.592  1.00  0.00    -0.275 OA
ATOM      7  H   UNL A   1      35.718  23.151  27.245  1.00  0.00     0.163 HD
BRANCH   5   8
ATOM      8  C   UNL A   1      32.885  23.653  25.454  1.00  0.00     0.091 C 
ATOM      9  C   UNL A   1      31.445  23.080  25.497  1.00  0.00     0.091 C 
ATOM     10  C   UNL A   1      31.521  21.546  25.549  1.00  0.00     0.014 C 
ATOM     11  C   UNL A   1      32.155  21.004  24.268  1.00  0.00     0.001 C 
ATOM     12  C   UNL A   1      33.478  23.205  24.092  1.00  0.00     0.014 C 
ATOM     13  C   UNL A   1      33.472  21.682  23.894  1.00  0.00     0.001 C 
BRANCH   9  14
ATOM     14  C   UNL A   1      30.443  23.643  26.509  1.00  0.00     0.229 C 
ATOM     15  N   UNL A   1      29.924  24.902  26.409  1.00  0.00    -0.309 N 
ATOM     16  H   UNL A   1      29.260  25.139  27.096  1.00  0.00     0.171 HD
ATOM     17  O   UNL A   1      30.064  22.969  27.475  1.00  0.00    -0.274 OA
BRANCH  15  18
ATOM     18  C   UNL A   1      30.193  25.887  25.489  1.00  0.00     0.154 A 
ATOM     19  C   UNL A   1      31.408  29.033  24.626  1.00  0.00     0.173 C 
ATOM     20  N   UNL A   1      30.796  27.727  24.638  1.00  0.00    -0.274 N 
ATOM     21  C   UNL A   1      29.905  27.221  23.742  1.00  0.00     0.110 A 
ATOM     22  N   UNL A   1      31.018  26.913  25.681  1.00  0.00    -0.155 NA
ATOM     23  C   UNL A   1      29.540  25.989  24.237  1.00  0.00     0.068 A 
ENDBRANCH  15  18
ENDBRANCH   9  14
ENDBRANCH   5   8
ENDBRANCH   3   4
ENDBRANCH   2   3
ENDBRANCH   1   2
BRANCH   1  24
ATOM     24  C   UNL A   1      36.906  20.562  24.921  1.00  0.00     0.002 C 
BRANCH  24  25
ATOM     25  C   UNL A   1      38.060  19.556  25.001  1.00  0.00     0.021 C 
BRANCH  25  26
ATOM     26  C   UNL A   1      39.297  20.068  25.735  1.00  0.00     0.116 C 
BRANCH  26  27
ATOM     27  N   UNL A   1      40.306  19.029  25.880  1.00  0.00    -0.352 N 
ATOM     28  C   UNL A   1      41.660  19.138  26.049  1.00  0.00     0.251 C 
ATOM     29  H   UNL A   1      39.962  18.108  25.854  1.00  0.00     0.163 HD
ATOM     30  O   UNL A   1      42.382  18.151  25.904  1.00  0.00    -0.269 OA
BRANCH  28  31
ATOM     31  C   UNL A   1      42.263  20.440  26.392  1.00  0.00     0.039 A 
ATOM     32  C   UNL A   1      42.850  21.202  25.379  1.00  0.00     0.014 A 
ATOM     33  C   UNL A   1      42.267  20.900  27.712  1.00  0.00     0.014 A 
ATOM     34  C   UNL A   1      43.377  22.459  25.678  1.00  0.00     0.010 A 
ATOM     35  C   UNL A   1      42.735  22.180  27.998  1.00  0.00     0.010 A 
ATOM     36  C   UNL A   1      43.286  22.974  26.982  1.00  0.00    -0.014 A 
BRANCH  36  37
ATOM     37  C   UNL A   1      43.723  24.358  27.291  1.00  0.00     0.031 A 
ATOM     38  C   UNL A   1      42.724  25.402  27.700  1.00  0.00     0.074 A 
ATOM     39  C   UNL A   1      45.019  24.686  27.128  1.00  0.00     0.049 A 
ATOM     40  N   UNL A   1      42.913  26.675  27.937  1.00  0.00    -0.248 NA
ATOM     41  C   UNL A   1      41.326  24.964  27.837  1.00  0.00     0.031 C 
ATOM     42  C   UNL A   1      46.075  23.772  26.690  1.00  0.00     0.029 A 
ATOM     43  N   UNL A   1      45.667  25.884  27.296  1.00  0.00    -0.354 N 
ATOM     44  C   UNL A   1      41.661  27.192  28.243  1.00  0.00     0.074 A 
ATOM     45  C   UNL A   1      40.713  26.106  28.116  1.00  0.00     0.031 C 
ATOM     46  C   UNL A   1      47.240  24.435  26.641  1.00  0.00     0.029 A 
ATOM     47  C   UNL A   1      47.008  25.829  27.004  1.00  0.00     0.049 A 
ATOM     48  H   UNL A   1      45.214  26.705  27.598  1.00  0.00     0.167 HD
ATOM     49  C   UNL A   1      41.335  28.454  28.613  1.00  0.00     0.037 A 
ATOM     50  C   UNL A   1      47.944  26.797  27.017  1.00  0.00     0.037 A 
ATOM     51  C   UNL A   1      42.284  29.528  28.752  1.00  0.00     0.049 A 
ATOM     52  C   UNL A   1      47.553  28.192  27.414  1.00  0.00     0.074 A 
ATOM     53  C   UNL A   1      42.062  30.823  29.184  1.00  0.00     0.029 A 
ATOM     54  N   UNL A   1      43.635  29.433  28.453  1.00  0.00    -0.354 N 
ATOM     55  N   UNL A   1      46.377  28.650  27.771  1.00  0.00    -0.248 NA
ATOM     56  C   UNL A   1      48.618  29.203  27.414  1.00  0.00     0.031 C 
ATOM     57  C   UNL A   1      43.270  31.526  29.105  1.00  0.00     0.029 A 
ATOM     58  C   UNL A   1      44.253  30.655  28.666  1.00  0.00     0.049 A 
ATOM     59  H   UNL A   1      44.088  28.617  28.137  1.00  0.00     0.167 HD
ATOM     60  C   UNL A   1      46.564  29.995  28.055  1.00  0.00     0.074 A 
ATOM     61  C   UNL A   1      47.971  30.275  27.850  1.00  0.00     0.031 C 
ATOM     62  C   UNL A   1      45.654  30.918  28.452  1.00  0.00     0.037 A 
BRANCH  49  63
ATOM     63  C   UNL A   1      39.890  28.742  28.896  1.00  0.00     0.057 A 
ATOM     64  C   UNL A   1      39.351  28.614  30.183  1.00  0.00     0.134 A 
ATOM     65  C   UNL A   1      39.038  29.196  27.882  1.00  0.00     0.134 A 
ATOM     66  F   UNL A   1      40.112  28.176  31.198  1.00  0.00    -0.206 F 
ATOM     67  C   UNL A   1      38.012  28.906  30.447  1.00  0.00     0.040 A 
ATOM     68  C   UNL A   1      37.703  29.515  28.137  1.00  0.00     0.040 A 
ATOM     69  F   UNL A   1      39.491  29.348  26.628  1.00  0.00    -0.206 F 
ATOM     70  C   UNL A   1      37.185  29.365  29.423  1.00  0.00     0.006 A 
ENDBRANCH  49  63
BRANCH  50  71
ATOM     71  C   UNL A   1      49.346  26.476  26.652  1.00  0.00     0.057 A 
ATOM     72  C   UNL A   1      49.807  26.645  25.341  1.00  0.00     0.134 A 
ATOM     73  C   UNL A   1      50.256  25.990  27.598  1.00  0.00     0.134 A 
ATOM     74  F   UNL A   1      48.976  27.090  24.386  1.00  0.00    -0.206 F 
ATOM     75  C   UNL A   1      51.116  26.326  24.980  1.00  0.00     0.040 A 
ATOM     76  C   UNL A   1      51.575  25.690  27.256  1.00  0.00     0.040 A 
ATOM     77  F   UNL A   1      49.878  25.814  28.873  1.00  0.00    -0.206 F 
ATOM     78  C   UNL A   1      52.006  25.851  25.941  1.00  0.00     0.006 A 
ENDBRANCH  50  71
BRANCH  62  79
ATOM     79  C   UNL A   1      46.155  32.309  28.703  1.00  0.00     0.057 A 
ATOM     80  C   UNL A   1      46.144  33.288  27.701  1.00  0.00     0.134 A 
ATOM     81  C   UNL A   1      46.628  32.682  29.968  1.00  0.00     0.134 A 
ATOM     82  F   UNL A   1      45.718  32.990  26.463  1.00  0.00    -0.206 F 
ATOM     83  C   UNL A   1      46.605  34.583  27.942  1.00  0.00     0.040 A 
ATOM     84  C   UNL A   1      47.067  33.980  30.228  1.00  0.00     0.040 A 
ATOM     85  F   UNL A   1      46.658  31.793  30.972  1.00  0.00    -0.206 F 
ATOM     86  C   UNL A   1      47.062  34.933  29.212  1.00  0.00     0.006 A 
ENDBRANCH  62  79
ENDBRANCH  36  37
ENDBRANCH  28  31
ENDBRANCH  26  27
ENDBRANCH  25  26
ENDBRANCH  24  25
ENDBRANCH   1  24
TORSDOF 15
ENDMDL
