MODEL 1
REMARK VINA RESULT:      -8.7      0.000      0.000
REMARK SMILES CC[C@H](NC(=O)N1CCO[C@@H](CC(=O)NCCCCCCNC(=O)c2ccc(-c3c4nc(c(-c5c(F)cccc5F)c5ccc([nH]5)c(-c5c(F)cccc5F)c5nc(c(-c6c(F)cccc6F)c6ccc3[nH]6)C=C5)C=C4)cc2)C1)c1cccs1
REMARK SMILES IDX 17 1 16 2 15 3 13 4 14 5 12 7 11 8 7 9 8 10 79 11 9 12 10 13
REMARK SMILES IDX 5 14 4 15 6 17 3 18 2 19 1 20 80 21 81 22 84 23 82 24 83 25
REMARK SMILES IDX 18 26 19 27 20 28 21 29 22 30 23 31 24 33 25 34 26 35 78 36
REMARK SMILES IDX 27 37 77 38 28 39 29 40 30 41 71 42 31 43 76 44 70 45 72 46
REMARK SMILES IDX 32 47 75 48 69 49 68 50 33 52 59 53 42 54 58 55 43 56 46 57
REMARK SMILES IDX 57 58 73 59 44 60 45 61 56 63 74 64 47 65 34 66 35 67 40 68
REMARK SMILES IDX 36 69 37 70 39 71 41 72 38 73 60 74 61 75 66 76 62 77 63 78
REMARK SMILES IDX 65 79 67 80 64 81 48 82 49 83 54 84 50 85 51 86 53 87 55 88
REMARK SMILES IDX 52 89
REMARK H PARENT 15 6 4 16 22 32 72 51 46 62
REMARK Flexibility Score: inf
ROOT
ATOM      1  C   UNL A   1      35.877  34.971  33.307  1.00  0.00     0.021 C 
ENDROOT
BRANCH   1   2
ATOM      2  C   UNL A   1      36.569  34.171  34.418  1.00  0.00     0.116 C 
BRANCH   2   3
ATOM      3  N   UNL A   1      36.511  32.752  34.106  1.00  0.00    -0.356 N 
ATOM      4  C   UNL A   1      37.516  31.830  34.043  1.00  0.00     0.222 C 
ATOM      5  O   UNL A   1      37.289  30.741  33.518  1.00  0.00    -0.275 OA
ATOM      6  H   UNL A   1      35.612  32.403  33.912  1.00  0.00     0.163 HD
BRANCH   4   7
ATOM      7  C   UNL A   1      38.866  32.142  34.642  1.00  0.00     0.133 C 
BRANCH   7   8
ATOM      8  C   UNL A   1      39.662  30.946  35.173  1.00  0.00     0.147 C 
ATOM      9  N   UNL A   1      41.158  29.046  34.429  1.00  0.00    -0.320 N 
ATOM     10  C   UNL A   1      42.264  29.735  35.082  1.00  0.00     0.150 C 
ATOM     11  C   UNL A   1      40.059  29.936  34.078  1.00  0.00     0.154 C 
ATOM     12  C   UNL A   1      41.755  30.554  36.258  1.00  0.00     0.182 C 
ATOM     13  O   UNL A   1      40.829  31.543  35.794  1.00  0.00    -0.374 OA
BRANCH   9  14
ATOM     14  C   UNL A   1      41.363  27.932  33.653  1.00  0.00     0.318 C 
ATOM     15  N   UNL A   1      42.532  27.246  33.806  1.00  0.00    -0.330 N 
ATOM     16  H   UNL A   1      43.253  27.364  33.145  1.00  0.00     0.166 HD
ATOM     17  O   UNL A   1      40.577  27.566  32.779  1.00  0.00    -0.249 OA
BRANCH  15  18
ATOM     18  C   UNL A   1      42.734  26.333  34.939  1.00  0.00     0.124 C 
BRANCH  18  19
ATOM     19  C   UNL A   1      41.486  25.472  35.285  1.00  0.00     0.027 C 
ATOM     20  C   UNL A   1      41.167  25.291  36.761  1.00  0.00     0.006 C 
ENDBRANCH  18  19
BRANCH  18  21
ATOM     21  C   UNL A   1      43.896  25.401  34.665  1.00  0.00     0.027 A 
ATOM     22  C   UNL A   1      44.114  24.603  33.553  1.00  0.00     0.017 A 
ATOM     23  S   UNL A   1      45.138  25.186  35.829  1.00  0.00    -0.147 S 
ATOM     24  C   UNL A   1      45.340  23.886  33.621  1.00  0.00     0.012 A 
ATOM     25  C   UNL A   1      45.997  24.113  34.808  1.00  0.00     0.065 A 
ENDBRANCH  18  21
ENDBRANCH  15  18
ENDBRANCH   9  14
ENDBRANCH   7   8
ENDBRANCH   4   7
ENDBRANCH   2   3
ENDBRANCH   1   2
BRANCH   1  26
ATOM     26  C   UNL A   1      34.382  35.175  33.540  1.00  0.00     0.002 C 
BRANCH  26  27
ATOM     27  C   UNL A   1      33.881  36.575  33.176  1.00  0.00     0.002 C 
BRANCH  27  28
ATOM     28  C   UNL A   1      32.896  36.635  32.004  1.00  0.00     0.021 C 
BRANCH  28  29
ATOM     29  C   UNL A   1      33.537  36.534  30.621  1.00  0.00     0.116 C 
BRANCH  29  30
ATOM     30  N   UNL A   1      32.756  35.692  29.728  1.00  0.00    -0.352 N 
ATOM     31  C   UNL A   1      33.146  34.605  28.988  1.00  0.00     0.251 C 
ATOM     32  H   UNL A   1      31.806  35.937  29.644  1.00  0.00     0.163 HD
ATOM     33  O   UNL A   1      32.426  34.168  28.098  1.00  0.00    -0.269 OA
BRANCH  31  34
ATOM     34  C   UNL A   1      34.447  33.962  29.263  1.00  0.00     0.039 A 
ATOM     35  C   UNL A   1      35.531  34.236  28.426  1.00  0.00     0.014 A 
ATOM     36  C   UNL A   1      34.584  33.066  30.327  1.00  0.00     0.014 A 
ATOM     37  C   UNL A   1      36.770  33.649  28.686  1.00  0.00     0.010 A 
ATOM     38  C   UNL A   1      35.835  32.534  30.626  1.00  0.00     0.010 A 
ATOM     39  C   UNL A   1      36.937  32.813  29.803  1.00  0.00    -0.014 A 
BRANCH  39  40
ATOM     40  C   UNL A   1      38.254  32.210  30.121  1.00  0.00     0.031 A 
ATOM     41  C   UNL A   1      39.238  32.960  30.975  1.00  0.00     0.074 A 
ATOM     42  C   UNL A   1      38.588  31.020  29.589  1.00  0.00     0.049 A 
ATOM     43  N   UNL A   1      40.457  32.628  31.317  1.00  0.00    -0.248 NA
ATOM     44  C   UNL A   1      38.805  34.269  31.487  1.00  0.00     0.031 C 
ATOM     45  C   UNL A   1      37.734  30.216  28.714  1.00  0.00     0.029 A 
ATOM     46  N   UNL A   1      39.739  30.283  29.702  1.00  0.00    -0.354 N 
ATOM     47  C   UNL A   1      40.942  33.693  32.065  1.00  0.00     0.074 A 
ATOM     48  C   UNL A   1      39.905  34.701  32.085  1.00  0.00     0.031 C 
ATOM     49  C   UNL A   1      38.378  29.081  28.397  1.00  0.00     0.029 A 
ATOM     50  C   UNL A   1      39.701  29.095  29.015  1.00  0.00     0.049 A 
ATOM     51  H   UNL A   1      40.518  30.577  30.227  1.00  0.00     0.167 HD
ATOM     52  C   UNL A   1      42.136  33.811  32.695  1.00  0.00     0.037 A 
ATOM     53  C   UNL A   1      40.628  28.127  28.899  1.00  0.00     0.037 A 
ATOM     54  C   UNL A   1      43.153  32.793  32.697  1.00  0.00     0.049 A 
ATOM     55  C   UNL A   1      41.948  28.284  29.598  1.00  0.00     0.074 A 
ATOM     56  C   UNL A   1      44.361  32.781  33.369  1.00  0.00     0.029 A 
ATOM     57  N   UNL A   1      43.079  31.604  31.985  1.00  0.00    -0.354 N 
ATOM     58  N   UNL A   1      42.367  29.264  30.363  1.00  0.00    -0.248 NA
ATOM     59  C   UNL A   1      42.924  27.200  29.419  1.00  0.00     0.031 C 
ATOM     60  C   UNL A   1      45.040  31.605  33.028  1.00  0.00     0.029 A 
ATOM     61  C   UNL A   1      44.234  30.864  32.179  1.00  0.00     0.049 A 
ATOM     62  H   UNL A   1      42.317  31.327  31.426  1.00  0.00     0.167 HD
ATOM     63  C   UNL A   1      43.641  28.902  30.780  1.00  0.00     0.074 A 
ATOM     64  C   UNL A   1      43.922  27.610  30.189  1.00  0.00     0.031 C 
ATOM     65  C   UNL A   1      44.498  29.578  31.584  1.00  0.00     0.037 A 
BRANCH  52  66
ATOM     66  C   UNL A   1      42.402  35.096  33.425  1.00  0.00     0.057 A 
ATOM     67  C   UNL A   1      41.951  35.312  34.735  1.00  0.00     0.134 A 
ATOM     68  C   UNL A   1      43.124  36.128  32.813  1.00  0.00     0.134 A 
ATOM     69  F   UNL A   1      41.244  34.369  35.375  1.00  0.00    -0.206 F 
ATOM     70  C   UNL A   1      42.175  36.523  35.394  1.00  0.00     0.040 A 
ATOM     71  C   UNL A   1      43.378  37.332  33.472  1.00  0.00     0.040 A 
ATOM     72  F   UNL A   1      43.590  35.986  31.563  1.00  0.00    -0.206 F 
ATOM     73  C   UNL A   1      42.895  37.535  34.763  1.00  0.00     0.006 A 
ENDBRANCH  52  66
BRANCH  53  74
ATOM     74  C   UNL A   1      40.319  26.899  28.125  1.00  0.00     0.057 A 
ATOM     75  C   UNL A   1      39.499  25.903  28.666  1.00  0.00     0.134 A 
ATOM     76  C   UNL A   1      40.818  26.696  26.833  1.00  0.00     0.134 A 
ATOM     77  F   UNL A   1      39.007  26.034  29.907  1.00  0.00    -0.206 F 
ATOM     78  C   UNL A   1      39.193  24.742  27.955  1.00  0.00     0.040 A 
ATOM     79  C   UNL A   1      40.502  25.549  26.102  1.00  0.00     0.040 A 
ATOM     80  F   UNL A   1      41.603  27.618  26.258  1.00  0.00    -0.206 F 
ATOM     81  C   UNL A   1      39.690  24.567  26.665  1.00  0.00     0.006 A 
ENDBRANCH  53  74
BRANCH  65  82
ATOM     82  C   UNL A   1      45.807  28.917  31.896  1.00  0.00     0.057 A 
ATOM     83  C   UNL A   1      46.038  28.274  33.120  1.00  0.00     0.134 A 
ATOM     84  C   UNL A   1      46.838  28.895  30.948  1.00  0.00     0.134 A 
ATOM     85  F   UNL A   1      45.098  28.274  34.075  1.00  0.00    -0.206 F 
ATOM     86  C   UNL A   1      47.256  27.650  33.394  1.00  0.00     0.040 A 
ATOM     87  C   UNL A   1      48.050  28.251  31.202  1.00  0.00     0.040 A 
ATOM     88  F   UNL A   1      46.678  29.486  29.754  1.00  0.00    -0.206 F 
ATOM     89  C   UNL A   1      48.263  27.631  32.431  1.00  0.00     0.006 A 
ENDBRANCH  65  82
ENDBRANCH  39  40
ENDBRANCH  31  34
ENDBRANCH  29  30
ENDBRANCH  28  29
ENDBRANCH  27  28
ENDBRANCH  26  27
ENDBRANCH   1  26
TORSDOF 18
ENDMDL
MODEL 2
REMARK VINA RESULT:      -8.6      4.731      7.921
REMARK SMILES CC[C@H](NC(=O)N1CCO[C@@H](CC(=O)NCCCCCCNC(=O)c2ccc(-c3c4nc(c(-c5c(F)cccc5F)c5ccc([nH]5)c(-c5c(F)cccc5F)c5nc(c(-c6c(F)cccc6F)c6ccc3[nH]6)C=C5)C=C4)cc2)C1)c1cccs1
REMARK SMILES IDX 17 1 16 2 15 3 13 4 14 5 12 7 11 8 7 9 8 10 79 11 9 12 10 13
REMARK SMILES IDX 5 14 4 15 6 17 3 18 2 19 1 20 80 21 81 22 84 23 82 24 83 25
REMARK SMILES IDX 18 26 19 27 20 28 21 29 22 30 23 31 24 33 25 34 26 35 78 36
REMARK SMILES IDX 27 37 77 38 28 39 29 40 30 41 71 42 31 43 76 44 70 45 72 46
REMARK SMILES IDX 32 47 75 48 69 49 68 50 33 52 59 53 42 54 58 55 43 56 46 57
REMARK SMILES IDX 57 58 73 59 44 60 45 61 56 63 74 64 47 65 34 66 35 67 40 68
REMARK SMILES IDX 36 69 37 70 39 71 41 72 38 73 60 74 61 75 66 76 62 77 63 78
REMARK SMILES IDX 65 79 67 80 64 81 48 82 49 83 54 84 50 85 51 86 53 87 55 88
REMARK SMILES IDX 52 89
REMARK H PARENT 15 6 4 16 22 32 72 51 46 62
REMARK Flexibility Score: inf
ROOT
ATOM      1  C   UNL A   1      34.829  31.933  28.485  1.00  0.00     0.021 C 
ENDROOT
BRANCH   1   2
ATOM      2  C   UNL A   1      33.656  31.440  27.628  1.00  0.00     0.116 C 
BRANCH   2   3
ATOM      3  N   UNL A   1      33.629  29.986  27.626  1.00  0.00    -0.356 N 
ATOM      4  C   UNL A   1      32.649  29.131  27.211  1.00  0.00     0.222 C 
ATOM      5  O   UNL A   1      32.725  27.944  27.527  1.00  0.00    -0.275 OA
ATOM      6  H   UNL A   1      34.440  29.553  27.978  1.00  0.00     0.163 HD
BRANCH   4   7
ATOM      7  C   UNL A   1      31.519  29.639  26.349  1.00  0.00     0.133 C 
BRANCH   7   8
ATOM      8  C   UNL A   1      31.724  29.532  24.835  1.00  0.00     0.147 C 
ATOM      9  N   UNL A   1      32.451  27.924  23.020  1.00  0.00    -0.320 N 
ATOM     10  C   UNL A   1      31.065  27.895  22.569  1.00  0.00     0.150 C 
ATOM     11  C   UNL A   1      32.589  28.326  24.414  1.00  0.00     0.154 C 
ATOM     12  C   UNL A   1      30.379  29.215  22.885  1.00  0.00     0.182 C 
ATOM     13  O   UNL A   1      30.379  29.434  24.300  1.00  0.00    -0.374 OA
BRANCH   9  14
ATOM     14  C   UNL A   1      33.397  27.081  22.492  1.00  0.00     0.318 C 
ATOM     15  N   UNL A   1      33.711  25.949  23.186  1.00  0.00    -0.330 N 
ATOM     16  H   UNL A   1      34.540  25.921  23.717  1.00  0.00     0.166 HD
ATOM     17  O   UNL A   1      34.024  27.333  21.464  1.00  0.00    -0.249 OA
BRANCH  15  18
ATOM     18  C   UNL A   1      32.833  24.772  23.155  1.00  0.00     0.124 C 
BRANCH  18  19
ATOM     19  C   UNL A   1      33.508  23.498  22.572  1.00  0.00     0.027 C 
ATOM     20  C   UNL A   1      34.844  23.092  23.176  1.00  0.00     0.006 C 
ENDBRANCH  18  19
BRANCH  18  21
ATOM     21  C   UNL A   1      32.328  24.452  24.546  1.00  0.00     0.027 A 
ATOM     22  C   UNL A   1      32.801  24.923  25.761  1.00  0.00     0.017 A 
ATOM     23  S   UNL A   1      31.043  23.340  24.777  1.00  0.00    -0.147 S 
ATOM     24  C   UNL A   1      32.053  24.440  26.868  1.00  0.00     0.012 A 
ATOM     25  C   UNL A   1      31.064  23.568  26.473  1.00  0.00     0.065 A 
ENDBRANCH  18  21
ENDBRANCH  15  18
ENDBRANCH   9  14
ENDBRANCH   7   8
ENDBRANCH   4   7
ENDBRANCH   2   3
ENDBRANCH   1   2
BRANCH   1  26
ATOM     26  C   UNL A   1      35.419  33.258  28.010  1.00  0.00     0.002 C 
BRANCH  26  27
ATOM     27  C   UNL A   1      35.366  34.374  29.057  1.00  0.00     0.002 C 
BRANCH  27  28
ATOM     28  C   UNL A   1      34.177  35.333  28.933  1.00  0.00     0.021 C 
BRANCH  28  29
ATOM     29  C   UNL A   1      32.884  34.841  29.580  1.00  0.00     0.116 C 
BRANCH  29  30
ATOM     30  N   UNL A   1      32.476  35.700  30.681  1.00  0.00    -0.352 N 
ATOM     31  C   UNL A   1      32.890  35.700  31.989  1.00  0.00     0.251 C 
ATOM     32  H   UNL A   1      31.803  36.381  30.455  1.00  0.00     0.163 HD
ATOM     33  O   UNL A   1      32.262  36.319  32.839  1.00  0.00    -0.269 OA
BRANCH  31  34
ATOM     34  C   UNL A   1      34.099  34.944  32.373  1.00  0.00     0.039 A 
ATOM     35  C   UNL A   1      33.966  33.619  32.796  1.00  0.00     0.014 A 
ATOM     36  C   UNL A   1      35.356  35.554  32.346  1.00  0.00     0.014 A 
ATOM     37  C   UNL A   1      35.103  32.888  33.144  1.00  0.00     0.010 A 
ATOM     38  C   UNL A   1      36.495  34.805  32.627  1.00  0.00     0.010 A 
ATOM     39  C   UNL A   1      36.378  33.469  33.038  1.00  0.00    -0.014 A 
BRANCH  39  40
ATOM     40  C   UNL A   1      37.603  32.698  33.365  1.00  0.00     0.031 A 
ATOM     41  C   UNL A   1      38.351  32.977  34.638  1.00  0.00     0.074 A 
ATOM     42  C   UNL A   1      38.075  31.795  32.485  1.00  0.00     0.049 A 
ATOM     43  N   UNL A   1      39.467  32.450  35.073  1.00  0.00    -0.248 NA
ATOM     44  C   UNL A   1      37.784  34.004  35.526  1.00  0.00     0.031 C 
ATOM     45  C   UNL A   1      37.460  31.466  31.199  1.00  0.00     0.029 A 
ATOM     46  N   UNL A   1      39.187  30.994  32.540  1.00  0.00    -0.354 N 
ATOM     47  C   UNL A   1      39.746  33.096  36.271  1.00  0.00     0.074 A 
ATOM     48  C   UNL A   1      38.710  34.085  36.469  1.00  0.00     0.031 C 
ATOM     49  C   UNL A   1      38.184  30.506  30.600  1.00  0.00     0.029 A 
ATOM     50  C   UNL A   1      39.332  30.181  31.443  1.00  0.00     0.049 A 
ATOM     51  H   UNL A   1      39.820  31.000  33.293  1.00  0.00     0.167 HD
ATOM     52  C   UNL A   1      40.763  32.870  37.137  1.00  0.00     0.037 A 
ATOM     53  C   UNL A   1      40.283  29.274  31.151  1.00  0.00     0.037 A 
ATOM     54  C   UNL A   1      41.775  31.864  36.951  1.00  0.00     0.049 A 
ATOM     55  C   UNL A   1      41.405  29.047  32.123  1.00  0.00     0.074 A 
ATOM     56  C   UNL A   1      42.800  31.501  37.806  1.00  0.00     0.029 A 
ATOM     57  N   UNL A   1      41.891  31.062  35.824  1.00  0.00    -0.354 N 
ATOM     58  N   UNL A   1      41.618  29.613  33.287  1.00  0.00    -0.248 NA
ATOM     59  C   UNL A   1      42.421  28.056  31.739  1.00  0.00     0.031 C 
ATOM     60  C   UNL A   1      43.565  30.512  37.177  1.00  0.00     0.029 A 
ATOM     61  C   UNL A   1      42.989  30.226  35.949  1.00  0.00     0.049 A 
ATOM     62  H   UNL A   1      41.283  31.084  35.051  1.00  0.00     0.167 HD
ATOM     63  C   UNL A   1      42.772  29.025  33.789  1.00  0.00     0.074 A 
ATOM     64  C   UNL A   1      43.209  28.056  32.805  1.00  0.00     0.031 C 
ATOM     65  C   UNL A   1      43.409  29.265  34.961  1.00  0.00     0.037 A 
BRANCH  52  66
ATOM     66  C   UNL A   1      40.828  33.738  38.361  1.00  0.00     0.057 A 
ATOM     67  C   UNL A   1      40.087  33.450  39.516  1.00  0.00     0.134 A 
ATOM     68  C   UNL A   1      41.646  34.875  38.387  1.00  0.00     0.134 A 
ATOM     69  F   UNL A   1      39.276  32.383  39.555  1.00  0.00    -0.206 F 
ATOM     70  C   UNL A   1      40.129  34.282  40.637  1.00  0.00     0.040 A 
ATOM     71  C   UNL A   1      41.717  35.698  39.511  1.00  0.00     0.040 A 
ATOM     72  F   UNL A   1      42.386  35.207  37.318  1.00  0.00    -0.206 F 
ATOM     73  C   UNL A   1      40.950  35.408  40.637  1.00  0.00     0.006 A 
ENDBRANCH  52  66
BRANCH  53  74
ATOM     74  C   UNL A   1      40.185  28.478  29.903  1.00  0.00     0.057 A 
ATOM     75  C   UNL A   1      39.421  27.307  29.862  1.00  0.00     0.134 A 
ATOM     76  C   UNL A   1      40.834  28.868  28.726  1.00  0.00     0.134 A 
ATOM     77  F   UNL A   1      38.790  26.874  30.965  1.00  0.00    -0.206 F 
ATOM     78  C   UNL A   1      39.312  26.544  28.699  1.00  0.00     0.040 A 
ATOM     79  C   UNL A   1      40.716  28.127  27.549  1.00  0.00     0.040 A 
ATOM     80  F   UNL A   1      41.575  29.985  28.701  1.00  0.00    -0.206 F 
ATOM     81  C   UNL A   1      39.956  26.959  27.535  1.00  0.00     0.006 A 
ENDBRANCH  53  74
BRANCH  65  82
ATOM     82  C   UNL A   1      44.629  28.444  35.257  1.00  0.00     0.057 A 
ATOM     83  C   UNL A   1      44.546  27.209  35.915  1.00  0.00     0.134 A 
ATOM     84  C   UNL A   1      45.897  28.878  34.849  1.00  0.00     0.134 A 
ATOM     85  F   UNL A   1      43.364  26.746  36.346  1.00  0.00    -0.206 F 
ATOM     86  C   UNL A   1      45.687  26.446  36.173  1.00  0.00     0.040 A 
ATOM     87  C   UNL A   1      47.039  28.110  35.078  1.00  0.00     0.040 A 
ATOM     88  F   UNL A   1      46.043  30.047  34.207  1.00  0.00    -0.206 F 
ATOM     89  C   UNL A   1      46.936  26.893  35.748  1.00  0.00     0.006 A 
ENDBRANCH  65  82
ENDBRANCH  39  40
ENDBRANCH  31  34
ENDBRANCH  29  30
ENDBRANCH  28  29
ENDBRANCH  27  28
ENDBRANCH  26  27
ENDBRANCH   1  26
TORSDOF 18
ENDMDL
MODEL 3
REMARK VINA RESULT:      -8.5      5.488     10.475
REMARK SMILES CC[C@H](NC(=O)N1CCO[C@@H](CC(=O)NCCCCCCNC(=O)c2ccc(-c3c4nc(c(-c5c(F)cccc5F)c5ccc([nH]5)c(-c5c(F)cccc5F)c5nc(c(-c6c(F)cccc6F)c6ccc3[nH]6)C=C5)C=C4)cc2)C1)c1cccs1
REMARK SMILES IDX 17 1 16 2 15 3 13 4 14 5 12 7 11 8 7 9 8 10 79 11 9 12 10 13
REMARK SMILES IDX 5 14 4 15 6 17 3 18 2 19 1 20 80 21 81 22 84 23 82 24 83 25
REMARK SMILES IDX 18 26 19 27 20 28 21 29 22 30 23 31 24 33 25 34 26 35 78 36
REMARK SMILES IDX 27 37 77 38 28 39 29 40 30 41 71 42 31 43 76 44 70 45 72 46
REMARK SMILES IDX 32 47 75 48 69 49 68 50 33 52 59 53 42 54 58 55 43 56 46 57
REMARK SMILES IDX 57 58 73 59 44 60 45 61 56 63 74 64 47 65 34 66 35 67 40 68
REMARK SMILES IDX 36 69 37 70 39 71 41 72 38 73 60 74 61 75 66 76 62 77 63 78
REMARK SMILES IDX 65 79 67 80 64 81 48 82 49 83 54 84 50 85 51 86 53 87 55 88
REMARK SMILES IDX 52 89
REMARK H PARENT 15 6 4 16 22 32 72 51 46 62
REMARK Flexibility Score: inf
ROOT
ATOM      1  C   UNL A   1      34.604  31.187  28.134  1.00  0.00     0.021 C 
ENDROOT
BRANCH   1   2
ATOM      2  C   UNL A   1      33.787  30.471  27.052  1.00  0.00     0.116 C 
BRANCH   2   3
ATOM      3  N   UNL A   1      33.032  29.381  27.650  1.00  0.00    -0.356 N 
ATOM      4  C   UNL A   1      31.954  28.697  27.168  1.00  0.00     0.222 C 
ATOM      5  O   UNL A   1      31.313  27.983  27.938  1.00  0.00    -0.275 OA
ATOM      6  H   UNL A   1      33.347  29.093  28.537  1.00  0.00     0.163 HD
BRANCH   4   7
ATOM      7  C   UNL A   1      31.588  28.797  25.707  1.00  0.00     0.133 C 
BRANCH   7   8
ATOM      8  C   UNL A   1      32.269  27.793  24.771  1.00  0.00     0.147 C 
ATOM      9  N   UNL A   1      31.886  25.602  23.563  1.00  0.00    -0.320 N 
ATOM     10  C   UNL A   1      31.874  26.357  22.316  1.00  0.00     0.150 C 
ATOM     11  C   UNL A   1      31.568  26.420  24.727  1.00  0.00     0.154 C 
ATOM     12  C   UNL A   1      32.751  27.594  22.439  1.00  0.00     0.182 C 
ATOM     13  O   UNL A   1      32.245  28.444  23.474  1.00  0.00    -0.374 OA
BRANCH   9  14
ATOM     14  C   UNL A   1      31.561  24.269  23.600  1.00  0.00     0.318 C 
ATOM     15  N   UNL A   1      32.577  23.358  23.592  1.00  0.00    -0.330 N 
ATOM     16  H   UNL A   1      32.796  22.885  22.756  1.00  0.00     0.166 HD
ATOM     17  O   UNL A   1      30.402  23.857  23.568  1.00  0.00    -0.249 OA
BRANCH  15  18
ATOM     18  C   UNL A   1      33.348  23.070  24.808  1.00  0.00     0.124 C 
BRANCH  18  19
ATOM     19  C   UNL A   1      32.814  21.858  25.622  1.00  0.00     0.027 C 
ATOM     20  C   UNL A   1      32.160  20.736  24.831  1.00  0.00     0.006 C 
ENDBRANCH  18  19
BRANCH  18  21
ATOM     21  C   UNL A   1      34.800  22.812  24.464  1.00  0.00     0.027 A 
ATOM     22  C   UNL A   1      35.461  23.077  23.275  1.00  0.00     0.017 A 
ATOM     23  S   UNL A   1      35.846  22.053  25.592  1.00  0.00    -0.147 S 
ATOM     24  C   UNL A   1      36.841  22.739  23.324  1.00  0.00     0.012 A 
ATOM     25  C   UNL A   1      37.183  22.172  24.530  1.00  0.00     0.065 A 
ENDBRANCH  18  21
ENDBRANCH  15  18
ENDBRANCH   9  14
ENDBRANCH   7   8
ENDBRANCH   4   7
ENDBRANCH   2   3
ENDBRANCH   1   2
BRANCH   1  26
ATOM     26  C   UNL A   1      34.782  32.681  27.879  1.00  0.00     0.002 C 
BRANCH  26  27
ATOM     27  C   UNL A   1      35.271  33.467  29.098  1.00  0.00     0.002 C 
BRANCH  27  28
ATOM     28  C   UNL A   1      36.793  33.581  29.238  1.00  0.00     0.021 C 
BRANCH  28  29
ATOM     29  C   UNL A   1      37.343  33.188  30.608  1.00  0.00     0.116 C 
BRANCH  29  30
ATOM     30  N   UNL A   1      36.618  32.062  31.174  1.00  0.00    -0.352 N 
ATOM     31  C   UNL A   1      36.862  30.717  31.054  1.00  0.00     0.251 C 
ATOM     32  H   UNL A   1      35.838  32.298  31.725  1.00  0.00     0.163 HD
ATOM     33  O   UNL A   1      36.011  29.900  31.383  1.00  0.00    -0.269 OA
BRANCH  31  34
ATOM     34  C   UNL A   1      38.159  30.254  30.521  1.00  0.00     0.039 A 
ATOM     35  C   UNL A   1      38.339  30.186  29.137  1.00  0.00     0.014 A 
ATOM     36  C   UNL A   1      39.182  29.857  31.387  1.00  0.00     0.014 A 
ATOM     37  C   UNL A   1      39.566  29.766  28.621  1.00  0.00     0.010 A 
ATOM     38  C   UNL A   1      40.426  29.505  30.872  1.00  0.00     0.010 A 
ATOM     39  C   UNL A   1      40.627  29.447  29.485  1.00  0.00    -0.014 A 
BRANCH  39  40
ATOM     40  C   UNL A   1      41.951  29.038  28.957  1.00  0.00     0.031 A 
ATOM     41  C   UNL A   1      42.172  27.627  28.489  1.00  0.00     0.074 A 
ATOM     42  C   UNL A   1      42.970  29.918  28.961  1.00  0.00     0.049 A 
ATOM     43  N   UNL A   1      43.268  27.065  28.048  1.00  0.00    -0.248 NA
ATOM     44  C   UNL A   1      41.014  26.722  28.551  1.00  0.00     0.031 C 
ATOM     45  C   UNL A   1      42.890  31.302  29.428  1.00  0.00     0.029 A 
ATOM     46  N   UNL A   1      44.275  29.774  28.564  1.00  0.00    -0.354 N 
ATOM     47  C   UNL A   1      42.938  25.738  27.802  1.00  0.00     0.074 A 
ATOM     48  C   UNL A   1      41.554  25.569  28.188  1.00  0.00     0.031 C 
ATOM     49  C   UNL A   1      44.085  31.891  29.259  1.00  0.00     0.029 A 
ATOM     50  C   UNL A   1      45.022  30.916  28.708  1.00  0.00     0.049 A 
ATOM     51  H   UNL A   1      44.640  28.932  28.209  1.00  0.00     0.167 HD
ATOM     52  C   UNL A   1      43.712  24.756  27.281  1.00  0.00     0.037 A 
ATOM     53  C   UNL A   1      46.317  31.151  28.426  1.00  0.00     0.037 A 
ATOM     54  C   UNL A   1      45.079  24.936  26.870  1.00  0.00     0.049 A 
ATOM     55  C   UNL A   1      47.158  30.044  27.858  1.00  0.00     0.074 A 
ATOM     56  C   UNL A   1      45.925  24.028  26.259  1.00  0.00     0.029 A 
ATOM     57  N   UNL A   1      45.804  26.108  27.036  1.00  0.00    -0.354 N 
ATOM     58  N   UNL A   1      46.815  28.813  27.562  1.00  0.00    -0.248 NA
ATOM     59  C   UNL A   1      48.567  30.358  27.587  1.00  0.00     0.031 C 
ATOM     60  C   UNL A   1      47.175  24.635  26.097  1.00  0.00     0.029 A 
ATOM     61  C   UNL A   1      47.095  25.937  26.565  1.00  0.00     0.049 A 
ATOM     62  H   UNL A   1      45.451  26.939  27.430  1.00  0.00     0.167 HD
ATOM     63  C   UNL A   1      47.954  28.216  27.041  1.00  0.00     0.074 A 
ATOM     64  C   UNL A   1      48.997  29.221  27.056  1.00  0.00     0.031 C 
ATOM     65  C   UNL A   1      48.121  26.949  26.586  1.00  0.00     0.037 A 
BRANCH  52  66
ATOM     66  C   UNL A   1      43.091  23.396  27.139  1.00  0.00     0.057 A 
ATOM     67  C   UNL A   1      42.946  22.528  28.231  1.00  0.00     0.134 A 
ATOM     68  C   UNL A   1      42.628  22.949  25.895  1.00  0.00     0.134 A 
ATOM     69  F   UNL A   1      43.379  22.889  29.448  1.00  0.00    -0.206 F 
ATOM     70  C   UNL A   1      42.398  21.252  28.081  1.00  0.00     0.040 A 
ATOM     71  C   UNL A   1      42.053  21.687  25.739  1.00  0.00     0.040 A 
ATOM     72  F   UNL A   1      42.730  23.730  24.809  1.00  0.00    -0.206 F 
ATOM     73  C   UNL A   1      41.946  20.831  26.833  1.00  0.00     0.006 A 
ENDBRANCH  52  66
BRANCH  53  74
ATOM     74  C   UNL A   1      46.882  32.507  28.631  1.00  0.00     0.057 A 
ATOM     75  C   UNL A   1      46.868  33.450  27.597  1.00  0.00     0.134 A 
ATOM     76  C   UNL A   1      47.435  32.899  29.855  1.00  0.00     0.134 A 
ATOM     77  F   UNL A   1      46.367  33.125  26.395  1.00  0.00    -0.206 F 
ATOM     78  C   UNL A   1      47.391  34.731  27.768  1.00  0.00     0.040 A 
ATOM     79  C   UNL A   1      47.942  34.185  30.048  1.00  0.00     0.040 A 
ATOM     80  F   UNL A   1      47.471  32.042  30.886  1.00  0.00    -0.206 F 
ATOM     81  C   UNL A   1      47.924  35.104  29.001  1.00  0.00     0.006 A 
ENDBRANCH  53  74
BRANCH  65  82
ATOM     82  C   UNL A   1      49.471  26.590  26.040  1.00  0.00     0.057 A 
ATOM     83  C   UNL A   1      49.844  26.906  24.727  1.00  0.00     0.134 A 
ATOM     84  C   UNL A   1      50.420  25.951  26.849  1.00  0.00     0.134 A 
ATOM     85  F   UNL A   1      48.976  27.503  23.898  1.00  0.00    -0.206 F 
ATOM     86  C   UNL A   1      51.109  26.580  24.233  1.00  0.00     0.040 A 
ATOM     87  C   UNL A   1      51.695  25.645  26.373  1.00  0.00     0.040 A 
ATOM     88  F   UNL A   1      50.127  25.629  28.118  1.00  0.00    -0.206 F 
ATOM     89  C   UNL A   1      52.040  25.954  25.060  1.00  0.00     0.006 A 
ENDBRANCH  65  82
ENDBRANCH  39  40
ENDBRANCH  31  34
ENDBRANCH  29  30
ENDBRANCH  28  29
ENDBRANCH  27  28
ENDBRANCH  26  27
ENDBRANCH   1  26
TORSDOF 18
ENDMDL
