MODEL 1
REMARK VINA RESULT:     -12.6      0.000      0.000
REMARK SMILES Cc1nccn1C1(C(=O)NCCCCCCNC(=O)c2ccc(-c3c4nc(c(-c5c(F)cccc5F)c5ccc([nH]5)c(-c5c(F)cccc5F)c5nc(c(-c6c(F)cccc6F)c6ccc3[nH]6)C=C5)C=C4)cc2)CCN(c2nccc3occc23)CC1
REMARK SMILES IDX 14 1 13 2 12 3 11 4 10 5 8 6 9 7 7 9 74 10 87 11 75 12 86 13
REMARK SMILES IDX 76 14 6 15 1 16 2 17 3 18 4 19 5 20 77 21 78 22 85 23 79 24
REMARK SMILES IDX 81 25 84 26 80 27 82 28 83 29 15 30 16 31 17 32 18 33 19 35
REMARK SMILES IDX 20 36 21 37 73 38 22 39 72 40 23 41 24 42 25 43 66 44 26 45
REMARK SMILES IDX 71 46 65 47 67 48 27 49 70 50 64 51 63 52 28 54 54 55 37 56
REMARK SMILES IDX 53 57 38 58 41 59 52 60 68 61 39 62 40 63 51 65 69 66 42 67
REMARK SMILES IDX 29 68 30 69 35 70 31 71 32 72 34 73 36 74 33 75 55 76 56 77
REMARK SMILES IDX 61 78 57 79 58 80 60 81 62 82 59 83 43 84 44 85 49 86 45 87
REMARK SMILES IDX 46 88 48 89 50 90 47 91
REMARK H PARENT 10 8 17 34 67 53 41 64
REMARK Flexibility Score: inf
ROOT
ATOM      1  C   UNL A   1      40.811  21.339  27.516  1.00  0.00     0.002 C 
ENDROOT
BRANCH   1   2
ATOM      2  C   UNL A   1      39.830  21.576  26.357  1.00  0.00     0.002 C 
BRANCH   2   3
ATOM      3  C   UNL A   1      39.060  22.901  26.394  1.00  0.00     0.021 C 
BRANCH   3   4
ATOM      4  C   UNL A   1      37.599  22.783  25.961  1.00  0.00     0.116 C 
BRANCH   4   5
ATOM      5  N   UNL A   1      37.448  23.259  24.607  1.00  0.00    -0.354 N 
ATOM      6  C   UNL A   1      36.360  23.177  23.788  1.00  0.00     0.246 C 
ATOM      7  O   UNL A   1      36.659  22.982  22.607  1.00  0.00    -0.272 OA
ATOM      8  H   UNL A   1      38.237  23.704  24.222  1.00  0.00     0.163 HD
BRANCH   6   9
ATOM      9  C   UNL A   1      34.874  23.270  24.343  1.00  0.00     0.127 C 
ATOM     10  C   UNL A   1      34.962  24.268  25.539  1.00  0.00     0.060 C 
ATOM     11  C   UNL A   1      33.973  23.713  23.161  1.00  0.00     0.060 C 
ATOM     12  C   UNL A   1      34.011  25.483  25.582  1.00  0.00     0.121 C 
ATOM     13  C   UNL A   1      32.944  24.791  23.446  1.00  0.00     0.121 C 
ATOM     14  N   UNL A   1      33.460  25.884  24.273  1.00  0.00    -0.356 N 
BRANCH   9  15
ATOM     15  N   UNL A   1      34.406  21.905  24.797  1.00  0.00    -0.320 N 
ATOM     16  C   UNL A   1      32.074  22.395  25.796  1.00  0.00     0.087 C 
ATOM     17  C   UNL A   1      33.230  21.542  25.451  1.00  0.00     0.106 A 
ATOM     18  N   UNL A   1      33.220  20.255  25.745  1.00  0.00    -0.242 NA
ATOM     19  C   UNL A   1      34.340  19.726  25.198  1.00  0.00     0.131 A 
ATOM     20  C   UNL A   1      35.042  20.702  24.542  1.00  0.00     0.108 A 
ENDBRANCH   9  15
BRANCH  14  21
ATOM     21  C   UNL A   1      32.458  26.897  24.396  1.00  0.00     0.139 A 
ATOM     22  N   UNL A   1      32.885  28.176  24.626  1.00  0.00    -0.238 NA
ATOM     23  C   UNL A   1      31.111  26.854  23.962  1.00  0.00     0.063 A 
ATOM     24  C   UNL A   1      32.418  29.152  23.828  1.00  0.00     0.117 A 
ATOM     25  C   UNL A   1      30.734  27.880  23.102  1.00  0.00     0.139 A 
ATOM     26  C   UNL A   1      29.873  26.347  24.460  1.00  0.00     0.054 A 
ATOM     27  C   UNL A   1      31.597  28.897  22.751  1.00  0.00     0.068 A 
ATOM     28  O   UNL A   1      29.404  27.816  22.815  1.00  0.00    -0.464 OA
ATOM     29  C   UNL A   1      28.869  26.974  23.746  1.00  0.00     0.196 A 
ENDBRANCH  14  21
ENDBRANCH   6   9
ENDBRANCH   4   5
ENDBRANCH   3   4
ENDBRANCH   2   3
ENDBRANCH   1   2
BRANCH   1  30
ATOM     30  C   UNL A   1      41.984  20.384  27.247  1.00  0.00     0.021 C 
BRANCH  30  31
ATOM     31  C   UNL A   1      42.102  19.942  25.803  1.00  0.00     0.116 C 
BRANCH  31  32
ATOM     32  N   UNL A   1      43.482  19.668  25.396  1.00  0.00    -0.352 N 
ATOM     33  C   UNL A   1      44.422  20.585  24.975  1.00  0.00     0.251 C 
ATOM     34  H   UNL A   1      43.769  18.727  25.424  1.00  0.00     0.163 HD
ATOM     35  O   UNL A   1      45.403  20.243  24.302  1.00  0.00    -0.269 OA
BRANCH  33  36
ATOM     36  C   UNL A   1      44.239  21.989  25.359  1.00  0.00     0.039 A 
ATOM     37  C   UNL A   1      43.341  22.844  24.719  1.00  0.00     0.014 A 
ATOM     38  C   UNL A   1      44.958  22.415  26.469  1.00  0.00     0.014 A 
ATOM     39  C   UNL A   1      43.131  24.111  25.261  1.00  0.00     0.010 A 
ATOM     40  C   UNL A   1      44.555  23.533  27.135  1.00  0.00     0.010 A 
ATOM     41  C   UNL A   1      43.736  24.440  26.487  1.00  0.00    -0.014 A 
BRANCH  41  42
ATOM     42  C   UNL A   1      43.499  25.713  27.155  1.00  0.00     0.031 A 
ATOM     43  C   UNL A   1      44.466  26.786  26.810  1.00  0.00     0.074 A 
ATOM     44  C   UNL A   1      42.383  25.953  27.882  1.00  0.00     0.049 A 
ATOM     45  N   UNL A   1      45.362  27.306  27.579  1.00  0.00    -0.248 NA
ATOM     46  C   UNL A   1      44.548  27.237  25.411  1.00  0.00     0.031 C 
ATOM     47  C   UNL A   1      41.196  25.105  28.080  1.00  0.00     0.029 A 
ATOM     48  N   UNL A   1      42.039  27.085  28.549  1.00  0.00    -0.354 N 
ATOM     49  C   UNL A   1      45.992  28.294  26.827  1.00  0.00     0.074 A 
ATOM     50  C   UNL A   1      45.572  28.091  25.465  1.00  0.00     0.031 C 
ATOM     51  C   UNL A   1      40.185  25.838  28.596  1.00  0.00     0.029 A 
ATOM     52  C   UNL A   1      40.710  27.139  28.956  1.00  0.00     0.049 A 
ATOM     53  H   UNL A   1      42.679  27.809  28.733  1.00  0.00     0.167 HD
ATOM     54  C   UNL A   1      46.632  29.333  27.433  1.00  0.00     0.037 A 
ATOM     55  C   UNL A   1      40.089  28.189  29.545  1.00  0.00     0.037 A 
ATOM     56  C   UNL A   1      46.854  29.059  28.830  1.00  0.00     0.049 A 
ATOM     57  C   UNL A   1      41.152  29.048  30.123  1.00  0.00     0.074 A 
ATOM     58  C   UNL A   1      47.566  28.106  29.532  1.00  0.00     0.029 A 
ATOM     59  N   UNL A   1      45.965  29.599  29.729  1.00  0.00    -0.354 N 
ATOM     60  N   UNL A   1      41.917  28.674  31.113  1.00  0.00    -0.248 NA
ATOM     61  C   UNL A   1      41.688  30.105  29.281  1.00  0.00     0.031 C 
ATOM     62  C   UNL A   1      46.739  27.781  30.647  1.00  0.00     0.029 A 
ATOM     63  C   UNL A   1      45.613  28.606  30.606  1.00  0.00     0.049 A 
ATOM     64  H   UNL A   1      45.640  30.529  29.741  1.00  0.00     0.167 HD
ATOM     65  C   UNL A   1      43.183  29.130  30.774  1.00  0.00     0.074 A 
ATOM     66  C   UNL A   1      42.966  30.063  29.668  1.00  0.00     0.031 C 
ATOM     67  C   UNL A   1      44.308  28.494  31.216  1.00  0.00     0.037 A 
BRANCH  54  68
ATOM     68  C   UNL A   1      46.718  30.731  26.879  1.00  0.00     0.057 A 
ATOM     69  C   UNL A   1      47.957  31.399  26.902  1.00  0.00     0.134 A 
ATOM     70  C   UNL A   1      45.601  31.549  26.621  1.00  0.00     0.134 A 
ATOM     71  F   UNL A   1      49.096  30.732  27.142  1.00  0.00    -0.206 F 
ATOM     72  C   UNL A   1      48.062  32.789  26.766  1.00  0.00     0.040 A 
ATOM     73  C   UNL A   1      45.700  32.929  26.435  1.00  0.00     0.040 A 
ATOM     74  F   UNL A   1      44.347  31.078  26.635  1.00  0.00    -0.206 F 
ATOM     75  C   UNL A   1      46.929  33.560  26.543  1.00  0.00     0.006 A 
ENDBRANCH  54  68
BRANCH  55  76
ATOM     76  C   UNL A   1      38.705  28.667  29.325  1.00  0.00     0.057 A 
ATOM     77  C   UNL A   1      37.789  28.760  30.381  1.00  0.00     0.134 A 
ATOM     78  C   UNL A   1      38.339  29.316  28.132  1.00  0.00     0.134 A 
ATOM     79  F   UNL A   1      38.069  28.211  31.572  1.00  0.00    -0.206 F 
ATOM     80  C   UNL A   1      36.588  29.475  30.267  1.00  0.00     0.040 A 
ATOM     81  C   UNL A   1      37.143  30.033  28.003  1.00  0.00     0.040 A 
ATOM     82  F   UNL A   1      39.173  29.353  27.081  1.00  0.00    -0.206 F 
ATOM     83  C   UNL A   1      36.268  30.124  29.078  1.00  0.00     0.006 A 
ENDBRANCH  55  76
BRANCH  67  84
ATOM     84  C   UNL A   1      44.155  27.424  32.264  1.00  0.00     0.057 A 
ATOM     85  C   UNL A   1      44.093  26.049  31.986  1.00  0.00     0.134 A 
ATOM     86  C   UNL A   1      44.273  27.790  33.608  1.00  0.00     0.134 A 
ATOM     87  F   UNL A   1      44.067  25.596  30.728  1.00  0.00    -0.206 F 
ATOM     88  C   UNL A   1      44.127  25.088  33.002  1.00  0.00     0.040 A 
ATOM     89  C   UNL A   1      44.337  26.839  34.630  1.00  0.00     0.040 A 
ATOM     90  F   UNL A   1      44.391  29.084  33.946  1.00  0.00    -0.206 F 
ATOM     91  C   UNL A   1      44.261  25.482  34.329  1.00  0.00     0.006 A 
ENDBRANCH  67  84
ENDBRANCH  41  42
ENDBRANCH  33  36
ENDBRANCH  31  32
ENDBRANCH  30  31
ENDBRANCH   1  30
TORSDOF 15
ENDMDL
MODEL 2
REMARK VINA RESULT:     -12.0      3.772      9.373
REMARK SMILES Cc1nccn1C1(C(=O)NCCCCCCNC(=O)c2ccc(-c3c4nc(c(-c5c(F)cccc5F)c5ccc([nH]5)c(-c5c(F)cccc5F)c5nc(c(-c6c(F)cccc6F)c6ccc3[nH]6)C=C5)C=C4)cc2)CCN(c2nccc3occc23)CC1
REMARK SMILES IDX 14 1 13 2 12 3 11 4 10 5 8 6 9 7 7 9 74 10 87 11 75 12 86 13
REMARK SMILES IDX 76 14 6 15 1 16 2 17 3 18 4 19 5 20 77 21 78 22 85 23 79 24
REMARK SMILES IDX 81 25 84 26 80 27 82 28 83 29 15 30 16 31 17 32 18 33 19 35
REMARK SMILES IDX 20 36 21 37 73 38 22 39 72 40 23 41 24 42 25 43 66 44 26 45
REMARK SMILES IDX 71 46 65 47 67 48 27 49 70 50 64 51 63 52 28 54 54 55 37 56
REMARK SMILES IDX 53 57 38 58 41 59 52 60 68 61 39 62 40 63 51 65 69 66 42 67
REMARK SMILES IDX 29 68 30 69 35 70 31 71 32 72 34 73 36 74 33 75 55 76 56 77
REMARK SMILES IDX 61 78 57 79 58 80 60 81 62 82 59 83 43 84 44 85 49 86 45 87
REMARK SMILES IDX 46 88 48 89 50 90 47 91
REMARK H PARENT 10 8 17 34 67 53 41 64
REMARK Flexibility Score: inf
ROOT
ATOM      1  C   UNL A   1      34.465  33.170  28.066  1.00  0.00     0.002 C 
ENDROOT
BRANCH   1   2
ATOM      2  C   UNL A   1      34.211  31.655  28.086  1.00  0.00     0.002 C 
BRANCH   2   3
ATOM      3  C   UNL A   1      33.011  31.167  27.268  1.00  0.00     0.021 C 
BRANCH   3   4
ATOM      4  C   UNL A   1      33.246  29.840  26.549  1.00  0.00     0.116 C 
BRANCH   4   5
ATOM      5  N   UNL A   1      33.218  30.042  25.120  1.00  0.00    -0.354 N 
ATOM      6  C   UNL A   1      32.856  29.167  24.139  1.00  0.00     0.246 C 
ATOM      7  O   UNL A   1      33.540  29.276  23.119  1.00  0.00    -0.272 OA
ATOM      8  H   UNL A   1      33.499  30.934  24.812  1.00  0.00     0.163 HD
BRANCH   6   9
ATOM      9  C   UNL A   1      31.704  28.092  24.347  1.00  0.00     0.127 C 
ATOM     10  C   UNL A   1      32.238  26.803  23.650  1.00  0.00     0.060 C 
ATOM     11  C   UNL A   1      31.456  27.979  25.874  1.00  0.00     0.060 C 
ATOM     12  C   UNL A   1      32.273  25.476  24.438  1.00  0.00     0.121 C 
ATOM     13  C   UNL A   1      31.313  26.581  26.446  1.00  0.00     0.121 C 
ATOM     14  N   UNL A   1      32.284  25.628  25.905  1.00  0.00    -0.356 N 
BRANCH   9  15
ATOM     15  N   UNL A   1      30.423  28.577  23.704  1.00  0.00    -0.320 N 
ATOM     16  C   UNL A   1      28.875  26.515  23.875  1.00  0.00     0.087 C 
ATOM     17  C   UNL A   1      29.233  27.890  23.469  1.00  0.00     0.106 A 
ATOM     18  N   UNL A   1      28.365  28.640  22.816  1.00  0.00    -0.242 NA
ATOM     19  C   UNL A   1      28.927  29.867  22.701  1.00  0.00     0.131 A 
ATOM     20  C   UNL A   1      30.153  29.876  23.310  1.00  0.00     0.108 A 
ENDBRANCH   9  15
BRANCH  14  21
ATOM     21  C   UNL A   1      32.142  24.374  26.579  1.00  0.00     0.139 A 
ATOM     22  N   UNL A   1      30.888  24.029  27.001  1.00  0.00    -0.238 NA
ATOM     23  C   UNL A   1      33.024  23.267  26.565  1.00  0.00     0.063 A 
ATOM     24  C   UNL A   1      30.418  22.816  26.663  1.00  0.00     0.117 A 
ATOM     25  C   UNL A   1      32.456  22.064  26.155  1.00  0.00     0.139 A 
ATOM     26  C   UNL A   1      34.212  22.873  27.252  1.00  0.00     0.054 A 
ATOM     27  C   UNL A   1      31.117  21.953  25.847  1.00  0.00     0.068 A 
ATOM     28  O   UNL A   1      33.347  21.039  26.266  1.00  0.00    -0.464 OA
ATOM     29  C   UNL A   1      34.353  21.512  27.056  1.00  0.00     0.196 A 
ENDBRANCH  14  21
ENDBRANCH   6   9
ENDBRANCH   4   5
ENDBRANCH   3   4
ENDBRANCH   2   3
ENDBRANCH   1   2
BRANCH   1  30
ATOM     30  C   UNL A   1      33.352  34.069  28.626  1.00  0.00     0.021 C 
BRANCH  30  31
ATOM     31  C   UNL A   1      33.849  35.374  29.214  1.00  0.00     0.116 C 
BRANCH  31  32
ATOM     32  N   UNL A   1      33.276  35.667  30.530  1.00  0.00    -0.352 N 
ATOM     33  C   UNL A   1      33.423  34.927  31.684  1.00  0.00     0.251 C 
ATOM     34  H   UNL A   1      32.726  36.480  30.597  1.00  0.00     0.163 HD
ATOM     35  O   UNL A   1      32.620  35.024  32.620  1.00  0.00    -0.269 OA
BRANCH  33  36
ATOM     36  C   UNL A   1      34.573  34.021  31.783  1.00  0.00     0.039 A 
ATOM     37  C   UNL A   1      34.456  32.631  31.728  1.00  0.00     0.014 A 
ATOM     38  C   UNL A   1      35.821  34.627  31.853  1.00  0.00     0.014 A 
ATOM     39  C   UNL A   1      35.623  31.870  31.674  1.00  0.00     0.010 A 
ATOM     40  C   UNL A   1      36.932  33.905  31.536  1.00  0.00     0.010 A 
ATOM     41  C   UNL A   1      36.862  32.523  31.562  1.00  0.00    -0.014 A 
BRANCH  41  42
ATOM     42  C   UNL A   1      38.116  31.796  31.420  1.00  0.00     0.031 A 
ATOM     43  C   UNL A   1      38.832  31.534  32.695  1.00  0.00     0.074 A 
ATOM     44  C   UNL A   1      38.503  31.240  30.248  1.00  0.00     0.049 A 
ATOM     45  N   UNL A   1      39.946  32.053  33.085  1.00  0.00    -0.248 NA
ATOM     46  C   UNL A   1      38.167  30.712  33.719  1.00  0.00     0.031 C 
ATOM     47  C   UNL A   1      37.776  31.154  28.970  1.00  0.00     0.029 A 
ATOM     48  N   UNL A   1      39.635  30.539  29.980  1.00  0.00    -0.354 N 
ATOM     49  C   UNL A   1      40.232  31.475  34.318  1.00  0.00     0.074 A 
ATOM     50  C   UNL A   1      39.033  30.795  34.732  1.00  0.00     0.031 C 
ATOM     51  C   UNL A   1      38.368  30.247  28.162  1.00  0.00     0.029 A 
ATOM     52  C   UNL A   1      39.618  29.845  28.775  1.00  0.00     0.049 A 
ATOM     53  H   UNL A   1      40.407  30.525  30.589  1.00  0.00     0.167 HD
ATOM     54  C   UNL A   1      41.511  31.422  34.786  1.00  0.00     0.037 A 
ATOM     55  C   UNL A   1      40.571  28.996  28.319  1.00  0.00     0.037 A 
ATOM     56  C   UNL A   1      42.369  32.312  34.047  1.00  0.00     0.049 A 
ATOM     57  C   UNL A   1      41.818  29.315  29.057  1.00  0.00     0.074 A 
ATOM     58  C   UNL A   1      42.413  33.679  33.850  1.00  0.00     0.029 A 
ATOM     59  N   UNL A   1      43.133  31.766  33.043  1.00  0.00    -0.354 N 
ATOM     60  N   UNL A   1      42.461  30.443  28.925  1.00  0.00    -0.248 NA
ATOM     61  C   UNL A   1      42.063  28.594  30.296  1.00  0.00     0.031 C 
ATOM     62  C   UNL A   1      42.771  33.840  32.480  1.00  0.00     0.029 A 
ATOM     63  C   UNL A   1      43.002  32.572  31.941  1.00  0.00     0.049 A 
ATOM     64  H   UNL A   1      43.676  30.946  33.104  1.00  0.00     0.167 HD
ATOM     65  C   UNL A   1      42.848  30.783  30.214  1.00  0.00     0.074 A 
ATOM     66  C   UNL A   1      42.634  29.572  31.006  1.00  0.00     0.031 C 
ATOM     67  C   UNL A   1      43.024  32.087  30.581  1.00  0.00     0.037 A 
BRANCH  54  68
ATOM     68  C   UNL A   1      42.071  30.311  35.636  1.00  0.00     0.057 A 
ATOM     69  C   UNL A   1      42.936  30.634  36.698  1.00  0.00     0.134 A 
ATOM     70  C   UNL A   1      42.051  28.951  35.272  1.00  0.00     0.134 A 
ATOM     71  F   UNL A   1      43.049  31.898  37.136  1.00  0.00    -0.206 F 
ATOM     72  C   UNL A   1      43.782  29.689  37.292  1.00  0.00     0.040 A 
ATOM     73  C   UNL A   1      42.854  27.990  35.890  1.00  0.00     0.040 A 
ATOM     74  F   UNL A   1      41.334  28.494  34.237  1.00  0.00    -0.206 F 
ATOM     75  C   UNL A   1      43.751  28.363  36.879  1.00  0.00     0.006 A 
ENDBRANCH  54  68
BRANCH  55  76
ATOM     76  C   UNL A   1      40.380  27.729  27.578  1.00  0.00     0.057 A 
ATOM     77  C   UNL A   1      41.040  27.486  26.366  1.00  0.00     0.134 A 
ATOM     78  C   UNL A   1      39.776  26.614  28.186  1.00  0.00     0.134 A 
ATOM     79  F   UNL A   1      41.684  28.479  25.734  1.00  0.00    -0.206 F 
ATOM     80  C   UNL A   1      41.114  26.206  25.800  1.00  0.00     0.040 A 
ATOM     81  C   UNL A   1      39.841  25.330  27.632  1.00  0.00     0.040 A 
ATOM     82  F   UNL A   1      39.180  26.718  29.384  1.00  0.00    -0.206 F 
ATOM     83  C   UNL A   1      40.524  25.120  26.440  1.00  0.00     0.006 A 
ENDBRANCH  55  76
BRANCH  67  84
ATOM     84  C   UNL A   1      43.014  33.137  29.502  1.00  0.00     0.057 A 
ATOM     85  C   UNL A   1      41.927  33.986  29.237  1.00  0.00     0.134 A 
ATOM     86  C   UNL A   1      44.213  33.428  28.845  1.00  0.00     0.134 A 
ATOM     87  F   UNL A   1      40.762  33.844  29.881  1.00  0.00    -0.206 F 
ATOM     88  C   UNL A   1      42.028  35.059  28.345  1.00  0.00     0.040 A 
ATOM     89  C   UNL A   1      44.335  34.513  27.974  1.00  0.00     0.040 A 
ATOM     90  F   UNL A   1      45.310  32.692  29.090  1.00  0.00    -0.206 F 
ATOM     91  C   UNL A   1      43.239  35.332  27.719  1.00  0.00     0.006 A 
ENDBRANCH  67  84
ENDBRANCH  41  42
ENDBRANCH  33  36
ENDBRANCH  31  32
ENDBRANCH  30  31
ENDBRANCH   1  30
TORSDOF 15
ENDMDL
MODEL 3
REMARK VINA RESULT:     -11.7      2.495      3.273
REMARK SMILES Cc1nccn1C1(C(=O)NCCCCCCNC(=O)c2ccc(-c3c4nc(c(-c5c(F)cccc5F)c5ccc([nH]5)c(-c5c(F)cccc5F)c5nc(c(-c6c(F)cccc6F)c6ccc3[nH]6)C=C5)C=C4)cc2)CCN(c2nccc3occc23)CC1
REMARK SMILES IDX 14 1 13 2 12 3 11 4 10 5 8 6 9 7 7 9 74 10 87 11 75 12 86 13
REMARK SMILES IDX 76 14 6 15 1 16 2 17 3 18 4 19 5 20 77 21 78 22 85 23 79 24
REMARK SMILES IDX 81 25 84 26 80 27 82 28 83 29 15 30 16 31 17 32 18 33 19 35
REMARK SMILES IDX 20 36 21 37 73 38 22 39 72 40 23 41 24 42 25 43 66 44 26 45
REMARK SMILES IDX 71 46 65 47 67 48 27 49 70 50 64 51 63 52 28 54 54 55 37 56
REMARK SMILES IDX 53 57 38 58 41 59 52 60 68 61 39 62 40 63 51 65 69 66 42 67
REMARK SMILES IDX 29 68 30 69 35 70 31 71 32 72 34 73 36 74 33 75 55 76 56 77
REMARK SMILES IDX 61 78 57 79 58 80 60 81 62 82 59 83 43 84 44 85 49 86 45 87
REMARK SMILES IDX 46 88 48 89 50 90 47 91
REMARK H PARENT 10 8 17 34 67 53 41 64
REMARK Flexibility Score: inf
ROOT
ATOM      1  C   UNL A   1      38.819  23.505  26.521  1.00  0.00     0.002 C 
ENDROOT
BRANCH   1   2
ATOM      2  C   UNL A   1      37.466  23.326  25.815  1.00  0.00     0.002 C 
BRANCH   2   3
ATOM      3  C   UNL A   1      37.430  22.281  24.694  1.00  0.00     0.021 C 
BRANCH   3   4
ATOM      4  C   UNL A   1      36.030  21.760  24.374  1.00  0.00     0.116 C 
BRANCH   4   5
ATOM      5  N   UNL A   1      35.372  21.339  25.587  1.00  0.00    -0.354 N 
ATOM      6  C   UNL A   1      34.277  21.875  26.197  1.00  0.00     0.246 C 
ATOM      7  O   UNL A   1      34.347  21.845  27.428  1.00  0.00    -0.272 OA
ATOM      8  H   UNL A   1      35.768  20.557  26.036  1.00  0.00     0.163 HD
BRANCH   6   9
ATOM      9  C   UNL A   1      33.079  22.517  25.373  1.00  0.00     0.127 C 
ATOM     10  C   UNL A   1      31.934  22.698  26.419  1.00  0.00     0.060 C 
ATOM     11  C   UNL A   1      33.616  23.823  24.731  1.00  0.00     0.060 C 
ATOM     12  C   UNL A   1      31.270  24.081  26.582  1.00  0.00     0.121 C 
ATOM     13  C   UNL A   1      32.724  25.048  24.813  1.00  0.00     0.121 C 
ATOM     14  N   UNL A   1      32.089  25.218  26.121  1.00  0.00    -0.356 N 
BRANCH   9  15
ATOM     15  N   UNL A   1      32.663  21.587  24.256  1.00  0.00    -0.320 N 
ATOM     16  C   UNL A   1      32.680  19.268  25.397  1.00  0.00     0.087 C 
ATOM     17  C   UNL A   1      32.532  20.199  24.259  1.00  0.00     0.106 A 
ATOM     18  N   UNL A   1      32.216  19.742  23.061  1.00  0.00    -0.242 NA
ATOM     19  C   UNL A   1      32.030  20.827  22.273  1.00  0.00     0.131 A 
ATOM     20  C   UNL A   1      32.218  21.970  23.002  1.00  0.00     0.108 A 
ENDBRANCH   9  15
BRANCH  14  21
ATOM     21  C   UNL A   1      31.360  26.450  26.135  1.00  0.00     0.139 A 
ATOM     22  N   UNL A   1      31.263  27.106  27.331  1.00  0.00    -0.238 NA
ATOM     23  C   UNL A   1      31.027  27.283  25.040  1.00  0.00     0.063 A 
ATOM     24  C   UNL A   1      31.597  28.408  27.367  1.00  0.00     0.117 A 
ATOM     25  C   UNL A   1      31.457  28.602  25.149  1.00  0.00     0.139 A 
ATOM     26  C   UNL A   1      30.008  27.331  24.042  1.00  0.00     0.054 A 
ATOM     27  C   UNL A   1      32.105  29.072  26.271  1.00  0.00     0.068 A 
ATOM     28  O   UNL A   1      31.009  29.351  24.102  1.00  0.00    -0.464 OA
ATOM     29  C   UNL A   1      30.025  28.610  23.517  1.00  0.00     0.196 A 
ENDBRANCH  14  21
ENDBRANCH   6   9
ENDBRANCH   4   5
ENDBRANCH   3   4
ENDBRANCH   2   3
ENDBRANCH   1   2
BRANCH   1  30
ATOM     30  C   UNL A   1      39.639  22.233  26.783  1.00  0.00     0.021 C 
BRANCH  30  31
ATOM     31  C   UNL A   1      40.985  22.489  27.432  1.00  0.00     0.116 C 
BRANCH  31  32
ATOM     32  N   UNL A   1      42.101  22.426  26.486  1.00  0.00    -0.352 N 
ATOM     33  C   UNL A   1      42.653  23.474  25.781  1.00  0.00     0.251 C 
ATOM     34  H   UNL A   1      42.500  21.538  26.337  1.00  0.00     0.163 HD
ATOM     35  O   UNL A   1      43.309  23.284  24.749  1.00  0.00    -0.269 OA
BRANCH  33  36
ATOM     36  C   UNL A   1      42.454  24.834  26.294  1.00  0.00     0.039 A 
ATOM     37  C   UNL A   1      41.504  25.715  25.772  1.00  0.00     0.014 A 
ATOM     38  C   UNL A   1      43.214  25.184  27.402  1.00  0.00     0.014 A 
ATOM     39  C   UNL A   1      41.289  26.924  26.432  1.00  0.00     0.010 A 
ATOM     40  C   UNL A   1      42.816  26.228  28.181  1.00  0.00     0.010 A 
ATOM     41  C   UNL A   1      41.944  27.164  27.652  1.00  0.00    -0.014 A 
BRANCH  41  42
ATOM     42  C   UNL A   1      41.708  28.367  28.439  1.00  0.00     0.031 A 
ATOM     43  C   UNL A   1      42.739  29.425  28.283  1.00  0.00     0.074 A 
ATOM     44  C   UNL A   1      40.552  28.580  29.108  1.00  0.00     0.049 A 
ATOM     45  N   UNL A   1      43.595  29.816  29.165  1.00  0.00    -0.248 NA
ATOM     46  C   UNL A   1      42.943  30.018  26.952  1.00  0.00     0.031 C 
ATOM     47  C   UNL A   1      39.321  27.772  29.128  1.00  0.00     0.029 A 
ATOM     48  N   UNL A   1      40.203  29.648  29.871  1.00  0.00    -0.354 N 
ATOM     49  C   UNL A   1      44.318  30.848  28.573  1.00  0.00     0.074 A 
ATOM     50  C   UNL A   1      43.993  30.813  27.171  1.00  0.00     0.031 C 
ATOM     51  C   UNL A   1      38.303  28.492  29.650  1.00  0.00     0.029 A 
ATOM     52  C   UNL A   1      38.850  29.721  30.187  1.00  0.00     0.049 A 
ATOM     53  H   UNL A   1      40.855  30.318  30.177  1.00  0.00     0.167 HD
ATOM     54  C   UNL A   1      44.951  31.785  29.334  1.00  0.00     0.037 A 
ATOM     55  C   UNL A   1      38.229  30.730  30.843  1.00  0.00     0.037 A 
ATOM     56  C   UNL A   1      45.057  31.352  30.704  1.00  0.00     0.049 A 
ATOM     57  C   UNL A   1      39.279  31.470  31.586  1.00  0.00     0.074 A 
ATOM     58  C   UNL A   1      45.677  30.297  31.344  1.00  0.00     0.029 A 
ATOM     59  N   UNL A   1      44.125  31.834  31.592  1.00  0.00    -0.354 N 
ATOM     60  N   UNL A   1      39.952  30.957  32.579  1.00  0.00    -0.248 NA
ATOM     61  C   UNL A   1      39.917  32.586  30.905  1.00  0.00     0.031 C 
ATOM     62  C   UNL A   1      44.757  29.893  32.356  1.00  0.00     0.029 A 
ATOM     63  C   UNL A   1      43.670  30.770  32.328  1.00  0.00     0.049 A 
ATOM     64  H   UNL A   1      43.838  32.771  31.684  1.00  0.00     0.167 HD
ATOM     65  C   UNL A   1      41.257  31.387  32.382  1.00  0.00     0.074 A 
ATOM     66  C   UNL A   1      41.160  32.443  31.374  1.00  0.00     0.031 C 
ATOM     67  C   UNL A   1      42.320  30.655  32.829  1.00  0.00     0.037 A 
BRANCH  54  68
ATOM     68  C   UNL A   1      45.133  33.229  28.945  1.00  0.00     0.057 A 
ATOM     69  C   UNL A   1      46.421  33.793  28.998  1.00  0.00     0.134 A 
ATOM     70  C   UNL A   1      44.078  34.154  28.829  1.00  0.00     0.134 A 
ATOM     71  F   UNL A   1      47.510  33.016  29.112  1.00  0.00    -0.206 F 
ATOM     72  C   UNL A   1      46.635  35.176  29.022  1.00  0.00     0.040 A 
ATOM     73  C   UNL A   1      44.282  35.536  28.803  1.00  0.00     0.040 A 
ATOM     74  F   UNL A   1      42.792  33.782  28.837  1.00  0.00    -0.206 F 
ATOM     75  C   UNL A   1      45.561  36.053  28.936  1.00  0.00     0.006 A 
ENDBRANCH  54  68
BRANCH  55  76
ATOM     76  C   UNL A   1      36.885  31.293  30.582  1.00  0.00     0.057 A 
ATOM     77  C   UNL A   1      35.989  31.558  31.626  1.00  0.00     0.134 A 
ATOM     78  C   UNL A   1      36.560  31.854  29.333  1.00  0.00     0.134 A 
ATOM     79  F   UNL A   1      36.236  31.103  32.863  1.00  0.00    -0.206 F 
ATOM     80  C   UNL A   1      34.847  32.352  31.446  1.00  0.00     0.040 A 
ATOM     81  C   UNL A   1      35.424  32.648  29.139  1.00  0.00     0.040 A 
ATOM     82  F   UNL A   1      37.385  31.725  28.282  1.00  0.00    -0.206 F 
ATOM     83  C   UNL A   1      34.569  32.910  30.202  1.00  0.00     0.006 A 
ENDBRANCH  55  76
BRANCH  67  84
ATOM     84  C   UNL A   1      42.047  29.487  33.739  1.00  0.00     0.057 A 
ATOM     85  C   UNL A   1      41.899  28.161  33.300  1.00  0.00     0.134 A 
ATOM     86  C   UNL A   1      42.135  29.686  35.120  1.00  0.00     0.134 A 
ATOM     87  F   UNL A   1      41.892  27.858  31.997  1.00  0.00    -0.206 F 
ATOM     88  C   UNL A   1      41.822  27.090  34.197  1.00  0.00     0.040 A 
ATOM     89  C   UNL A   1      42.089  28.623  36.025  1.00  0.00     0.040 A 
ATOM     90  F   UNL A   1      42.332  30.921  35.611  1.00  0.00    -0.206 F 
ATOM     91  C   UNL A   1      41.928  27.319  35.565  1.00  0.00     0.006 A 
ENDBRANCH  67  84
ENDBRANCH  41  42
ENDBRANCH  33  36
ENDBRANCH  31  32
ENDBRANCH  30  31
ENDBRANCH   1  30
TORSDOF 15
ENDMDL
