MODEL 1
REMARK VINA RESULT:      -9.8      0.000      0.000
REMARK SMILES O=C(C[C@@H]1C=CS(=O)(=O)C1)NCCCCCCNC(=O)c1ccc(-c2c3nc(c(-c4c(F)cccc4F)c4ccc([nH]4)c(-c4c(F)cccc4F)c4nc(c(-c5c(F)cccc5F)c5ccc2[nH]5)C=C4)C=C3)cc1
REMARK SMILES IDX 15 1 14 2 13 3 12 4 11 5 1 6 2 7 3 9 4 10 5 11 10 12 6 13
REMARK SMILES IDX 7 14 8 15 9 16 16 17 17 18 18 19 19 20 20 22 21 23 22 24
REMARK SMILES IDX 74 25 23 26 73 27 24 28 25 29 26 30 67 31 27 32 72 33 66 34
REMARK SMILES IDX 68 35 28 36 71 37 65 38 64 39 29 41 55 42 38 43 54 44 39 45
REMARK SMILES IDX 42 46 53 47 69 48 40 49 41 50 52 52 70 53 43 54 30 55 31 56
REMARK SMILES IDX 36 57 32 58 33 59 35 60 37 61 34 62 56 63 57 64 62 65 58 66
REMARK SMILES IDX 59 67 61 68 63 69 60 70 44 71 45 72 50 73 46 74 47 75 49 76
REMARK SMILES IDX 51 77 48 78
REMARK H PARENT 11 8 18 21 68 40 42 51
REMARK Flexibility Score: inf
ROOT
ATOM      1  C   UNL A   1      37.827  33.263  29.441  1.00  0.00     0.002 C 
ENDROOT
BRANCH   1   2
ATOM      2  C   UNL A   1      38.560  34.469  30.035  1.00  0.00     0.002 C 
BRANCH   2   3
ATOM      3  C   UNL A   1      39.295  34.212  31.359  1.00  0.00     0.021 C 
BRANCH   3   4
ATOM      4  C   UNL A   1      38.509  33.402  32.388  1.00  0.00     0.116 C 
BRANCH   4   5
ATOM      5  N   UNL A   1      37.278  34.070  32.762  1.00  0.00    -0.356 N 
ATOM      6  O   UNL A   1      36.358  32.316  33.925  1.00  0.00    -0.275 OA
ATOM      7  C   UNL A   1      36.320  33.480  33.543  1.00  0.00     0.220 C 
ATOM      8  H   UNL A   1      37.125  34.988  32.440  1.00  0.00     0.163 HD
BRANCH   7   9
ATOM      9  C   UNL A   1      35.178  34.404  33.922  1.00  0.00     0.108 C 
BRANCH   9  10
ATOM     10  C   UNL A   1      34.878  35.520  32.909  1.00  0.00     0.037 C 
ATOM     11  C   UNL A   1      34.224  36.734  33.525  1.00  0.00    -0.010 C 
ATOM     12  C   UNL A   1      34.017  35.079  31.713  1.00  0.00     0.150 C 
ATOM     13  C   UNL A   1      33.006  37.058  33.074  1.00  0.00     0.102 C 
ATOM     14  S   UNL A   1      32.460  35.965  31.847  1.00  0.00     0.171 S 
ATOM     15  O   UNL A   1      32.231  36.706  30.625  1.00  0.00    -0.224 OA
ATOM     16  O   UNL A   1      31.451  35.095  32.412  1.00  0.00    -0.224 OA
ENDBRANCH   9  10
ENDBRANCH   7   9
ENDBRANCH   4   5
ENDBRANCH   3   4
ENDBRANCH   2   3
ENDBRANCH   1   2
BRANCH   1  17
ATOM     17  C   UNL A   1      36.338  33.479  29.165  1.00  0.00     0.021 C 
BRANCH  17  18
ATOM     18  C   UNL A   1      35.396  32.583  29.963  1.00  0.00     0.116 C 
BRANCH  18  19
ATOM     19  N   UNL A   1      34.543  31.763  29.115  1.00  0.00    -0.352 N 
ATOM     20  C   UNL A   1      34.856  30.635  28.394  1.00  0.00     0.251 C 
ATOM     21  H   UNL A   1      33.606  32.058  29.049  1.00  0.00     0.163 HD
ATOM     22  O   UNL A   1      34.039  30.155  27.614  1.00  0.00    -0.269 OA
BRANCH  20  23
ATOM     23  C   UNL A   1      36.193  30.020  28.532  1.00  0.00     0.039 A 
ATOM     24  C   UNL A   1      37.091  30.114  27.467  1.00  0.00     0.014 A 
ATOM     25  C   UNL A   1      36.569  29.371  29.712  1.00  0.00     0.014 A 
ATOM     26  C   UNL A   1      38.393  29.631  27.614  1.00  0.00     0.010 A 
ATOM     27  C   UNL A   1      37.887  28.957  29.884  1.00  0.00     0.010 A 
ATOM     28  C   UNL A   1      38.816  29.094  28.841  1.00  0.00    -0.014 A 
BRANCH  28  29
ATOM     29  C   UNL A   1      40.236  28.716  29.063  1.00  0.00     0.031 A 
ATOM     30  C   UNL A   1      41.210  29.701  29.643  1.00  0.00     0.074 A 
ATOM     31  C   UNL A   1      40.663  27.500  28.671  1.00  0.00     0.049 A 
ATOM     32  N   UNL A   1      42.496  29.566  29.851  1.00  0.00    -0.248 NA
ATOM     33  C   UNL A   1      40.675  31.018  30.014  1.00  0.00     0.031 C 
ATOM     34  C   UNL A   1      39.828  26.475  28.042  1.00  0.00     0.029 A 
ATOM     35  N   UNL A   1      41.908  26.926  28.728  1.00  0.00    -0.354 N 
ATOM     36  C   UNL A   1      42.923  30.779  30.375  1.00  0.00     0.074 A 
ATOM     37  C   UNL A   1      41.772  31.657  30.392  1.00  0.00     0.031 C 
ATOM     38  C   UNL A   1      40.580  25.393  27.785  1.00  0.00     0.029 A 
ATOM     39  C   UNL A   1      41.957  25.663  28.190  1.00  0.00     0.049 A 
ATOM     40  H   UNL A   1      42.693  27.377  29.116  1.00  0.00     0.167 HD
ATOM     41  C   UNL A   1      44.156  31.121  30.823  1.00  0.00     0.037 A 
ATOM     42  C   UNL A   1      42.993  24.821  28.021  1.00  0.00     0.037 A 
ATOM     43  C   UNL A   1      45.299  30.246  30.798  1.00  0.00     0.049 A 
ATOM     44  C   UNL A   1      44.359  25.232  28.493  1.00  0.00     0.074 A 
ATOM     45  C   UNL A   1      46.578  30.481  31.274  1.00  0.00     0.029 A 
ATOM     46  N   UNL A   1      45.308  28.971  30.249  1.00  0.00    -0.354 N 
ATOM     47  N   UNL A   1      44.733  26.353  29.061  1.00  0.00    -0.248 NA
ATOM     48  C   UNL A   1      45.444  24.261  28.306  1.00  0.00     0.031 C 
ATOM     49  C   UNL A   1      47.373  29.374  30.960  1.00  0.00     0.029 A 
ATOM     50  C   UNL A   1      46.578  28.422  30.342  1.00  0.00     0.049 A 
ATOM     51  H   UNL A   1      44.527  28.522  29.852  1.00  0.00     0.167 HD
ATOM     52  C   UNL A   1      46.092  26.219  29.313  1.00  0.00     0.074 A 
ATOM     53  C   UNL A   1      46.470  24.897  28.856  1.00  0.00     0.031 C 
ATOM     54  C   UNL A   1      46.947  27.110  29.871  1.00  0.00     0.037 A 
BRANCH  41  55
ATOM     55  C   UNL A   1      44.324  32.512  31.370  1.00  0.00     0.057 A 
ATOM     56  C   UNL A   1      44.150  32.799  32.732  1.00  0.00     0.134 A 
ATOM     57  C   UNL A   1      44.672  33.577  30.530  1.00  0.00     0.134 A 
ATOM     58  F   UNL A   1      43.808  31.829  33.593  1.00  0.00    -0.206 F 
ATOM     59  C   UNL A   1      44.272  34.099  33.228  1.00  0.00     0.040 A 
ATOM     60  C   UNL A   1      44.831  34.875  31.020  1.00  0.00     0.040 A 
ATOM     61  F   UNL A   1      44.866  33.375  29.218  1.00  0.00    -0.206 F 
ATOM     62  C   UNL A   1      44.618  35.140  32.371  1.00  0.00     0.006 A 
ENDBRANCH  41  55
BRANCH  42  63
ATOM     63  C   UNL A   1      42.768  23.503  27.375  1.00  0.00     0.057 A 
ATOM     64  C   UNL A   1      42.364  22.389  28.118  1.00  0.00     0.134 A 
ATOM     65  C   UNL A   1      42.928  23.334  25.994  1.00  0.00     0.134 A 
ATOM     66  F   UNL A   1      42.212  22.482  29.447  1.00  0.00    -0.206 F 
ATOM     67  C   UNL A   1      42.133  21.151  27.513  1.00  0.00     0.040 A 
ATOM     68  C   UNL A   1      42.674  22.111  25.371  1.00  0.00     0.040 A 
ATOM     69  F   UNL A   1      43.305  24.366  25.225  1.00  0.00    -0.206 F 
ATOM     70  C   UNL A   1      42.280  21.014  26.134  1.00  0.00     0.006 A 
ENDBRANCH  42  63
BRANCH  54  71
ATOM     71  C   UNL A   1      48.380  26.683  30.027  1.00  0.00     0.057 A 
ATOM     72  C   UNL A   1      48.814  25.940  31.133  1.00  0.00     0.134 A 
ATOM     73  C   UNL A   1      49.328  26.985  29.042  1.00  0.00     0.134 A 
ATOM     74  F   UNL A   1      47.960  25.628  32.120  1.00  0.00    -0.206 F 
ATOM     75  C   UNL A   1      50.143  25.533  31.264  1.00  0.00     0.040 A 
ATOM     76  C   UNL A   1      50.653  26.558  29.146  1.00  0.00     0.040 A 
ATOM     77  F   UNL A   1      48.980  27.686  27.952  1.00  0.00    -0.206 F 
ATOM     78  C   UNL A   1      51.065  25.836  30.263  1.00  0.00     0.006 A 
ENDBRANCH  54  71
ENDBRANCH  28  29
ENDBRANCH  20  23
ENDBRANCH  18  19
ENDBRANCH  17  18
ENDBRANCH   1  17
TORSDOF 14
ENDMDL
MODEL 2
REMARK VINA RESULT:      -9.8      4.466      7.410
REMARK SMILES O=C(C[C@@H]1C=CS(=O)(=O)C1)NCCCCCCNC(=O)c1ccc(-c2c3nc(c(-c4c(F)cccc4F)c4ccc([nH]4)c(-c4c(F)cccc4F)c4nc(c(-c5c(F)cccc5F)c5ccc2[nH]5)C=C4)C=C3)cc1
REMARK SMILES IDX 15 1 14 2 13 3 12 4 11 5 1 6 2 7 3 9 4 10 5 11 10 12 6 13
REMARK SMILES IDX 7 14 8 15 9 16 16 17 17 18 18 19 19 20 20 22 21 23 22 24
REMARK SMILES IDX 74 25 23 26 73 27 24 28 25 29 26 30 67 31 27 32 72 33 66 34
REMARK SMILES IDX 68 35 28 36 71 37 65 38 64 39 29 41 55 42 38 43 54 44 39 45
REMARK SMILES IDX 42 46 53 47 69 48 40 49 41 50 52 52 70 53 43 54 30 55 31 56
REMARK SMILES IDX 36 57 32 58 33 59 35 60 37 61 34 62 56 63 57 64 62 65 58 66
REMARK SMILES IDX 59 67 61 68 63 69 60 70 44 71 45 72 50 73 46 74 47 75 49 76
REMARK SMILES IDX 51 77 48 78
REMARK H PARENT 11 8 18 21 68 40 42 51
REMARK Flexibility Score: inf
ROOT
ATOM      1  C   UNL A   1      31.777  30.536  26.572  1.00  0.00     0.002 C 
ENDROOT
BRANCH   1   2
ATOM      2  C   UNL A   1      33.250  30.126  26.507  1.00  0.00     0.002 C 
BRANCH   2   3
ATOM      3  C   UNL A   1      33.528  28.624  26.674  1.00  0.00     0.021 C 
BRANCH   3   4
ATOM      4  C   UNL A   1      33.538  27.820  25.376  1.00  0.00     0.116 C 
BRANCH   4   5
ATOM      5  N   UNL A   1      32.375  28.113  24.561  1.00  0.00    -0.356 N 
ATOM      6  O   UNL A   1      33.513  28.957  22.753  1.00  0.00    -0.275 OA
ATOM      7  C   UNL A   1      32.465  28.618  23.291  1.00  0.00     0.220 C 
ATOM      8  H   UNL A   1      31.482  27.940  24.937  1.00  0.00     0.163 HD
BRANCH   7   9
ATOM      9  C   UNL A   1      31.134  28.722  22.572  1.00  0.00     0.108 C 
BRANCH   9  10
ATOM     10  C   UNL A   1      29.928  29.033  23.474  1.00  0.00     0.037 C 
ATOM     11  C   UNL A   1      28.693  28.234  23.126  1.00  0.00    -0.010 C 
ATOM     12  C   UNL A   1      29.531  30.517  23.514  1.00  0.00     0.150 C 
ATOM     13  C   UNL A   1      27.611  28.929  22.752  1.00  0.00     0.102 C 
ATOM     14  S   UNL A   1      27.903  30.635  22.762  1.00  0.00     0.171 S 
ATOM     15  O   UNL A   1      26.994  31.263  23.696  1.00  0.00    -0.224 OA
ATOM     16  O   UNL A   1      28.030  31.094  21.395  1.00  0.00    -0.224 OA
ENDBRANCH   9  10
ENDBRANCH   7   9
ENDBRANCH   4   5
ENDBRANCH   3   4
ENDBRANCH   2   3
ENDBRANCH   1   2
BRANCH   1  17
ATOM     17  C   UNL A   1      31.526  32.020  26.845  1.00  0.00     0.021 C 
BRANCH  17  18
ATOM     18  C   UNL A   1      32.767  32.828  27.213  1.00  0.00     0.116 C 
BRANCH  18  19
ATOM     19  N   UNL A   1      32.453  34.188  27.626  1.00  0.00    -0.352 N 
ATOM     20  C   UNL A   1      33.020  34.950  28.619  1.00  0.00     0.251 C 
ATOM     21  H   UNL A   1      31.730  34.625  27.121  1.00  0.00     0.163 HD
ATOM     22  O   UNL A   1      32.527  36.032  28.926  1.00  0.00    -0.269 OA
BRANCH  20  23
ATOM     23  C   UNL A   1      34.208  34.450  29.344  1.00  0.00     0.039 A 
ATOM     24  C   UNL A   1      34.028  33.826  30.581  1.00  0.00     0.014 A 
ATOM     25  C   UNL A   1      35.490  34.576  28.801  1.00  0.00     0.014 A 
ATOM     26  C   UNL A   1      35.123  33.256  31.234  1.00  0.00     0.010 A 
ATOM     27  C   UNL A   1      36.567  33.942  29.415  1.00  0.00     0.010 A 
ATOM     28  C   UNL A   1      36.392  33.266  30.632  1.00  0.00    -0.014 A 
BRANCH  28  29
ATOM     29  C   UNL A   1      37.534  32.533  31.239  1.00  0.00     0.031 A 
ATOM     30  C   UNL A   1      38.171  33.021  32.509  1.00  0.00     0.074 A 
ATOM     31  C   UNL A   1      38.043  31.462  30.601  1.00  0.00     0.049 A 
ATOM     32  N   UNL A   1      39.209  32.545  33.148  1.00  0.00    -0.248 NA
ATOM     33  C   UNL A   1      37.581  34.217  33.126  1.00  0.00     0.031 C 
ATOM     34  C   UNL A   1      37.549  30.923  29.332  1.00  0.00     0.029 A 
ATOM     35  N   UNL A   1      39.097  30.644  30.923  1.00  0.00    -0.354 N 
ATOM     36  C   UNL A   1      39.397  33.381  34.241  1.00  0.00     0.074 A 
ATOM     37  C   UNL A   1      38.406  34.431  34.140  1.00  0.00     0.031 C 
ATOM     38  C   UNL A   1      38.289  29.856  28.991  1.00  0.00     0.029 A 
ATOM     39  C   UNL A   1      39.335  29.663  29.992  1.00  0.00     0.049 A 
ATOM     40  H   UNL A   1      39.632  30.751  31.742  1.00  0.00     0.167 HD
ATOM     41  C   UNL A   1      40.298  33.271  35.247  1.00  0.00     0.037 A 
ATOM     42  C   UNL A   1      40.296  28.723  29.936  1.00  0.00     0.037 A 
ATOM     43  C   UNL A   1      41.287  32.227  35.338  1.00  0.00     0.049 A 
ATOM     44  C   UNL A   1      41.307  28.637  31.044  1.00  0.00     0.074 A 
ATOM     45  C   UNL A   1      42.211  31.999  36.344  1.00  0.00     0.029 A 
ATOM     46  N   UNL A   1      41.495  31.248  34.378  1.00  0.00    -0.354 N 
ATOM     47  N   UNL A   1      41.424  29.386  32.114  1.00  0.00    -0.248 NA
ATOM     48  C   UNL A   1      42.316  27.575  30.941  1.00  0.00     0.031 C 
ATOM     49  C   UNL A   1      43.015  30.920  35.963  1.00  0.00     0.029 A 
ATOM     50  C   UNL A   1      42.555  30.435  34.750  1.00  0.00     0.049 A 
ATOM     51  H   UNL A   1      40.966  31.144  33.554  1.00  0.00     0.167 HD
ATOM     52  C   UNL A   1      42.507  28.879  32.819  1.00  0.00     0.074 A 
ATOM     53  C   UNL A   1      42.999  27.743  32.066  1.00  0.00     0.031 C 
ATOM     54  C   UNL A   1      43.046  29.315  33.984  1.00  0.00     0.037 A 
BRANCH  41  55
ATOM     55  C   UNL A   1      40.253  34.318  36.325  1.00  0.00     0.057 A 
ATOM     56  C   UNL A   1      39.420  34.192  37.447  1.00  0.00     0.134 A 
ATOM     57  C   UNL A   1      41.055  35.463  36.248  1.00  0.00     0.134 A 
ATOM     58  F   UNL A   1      38.619  33.125  37.582  1.00  0.00    -0.206 F 
ATOM     59  C   UNL A   1      39.355  35.186  38.427  1.00  0.00     0.040 A 
ATOM     60  C   UNL A   1      41.025  36.447  37.238  1.00  0.00     0.040 A 
ATOM     61  F   UNL A   1      41.885  35.646  35.209  1.00  0.00    -0.206 F 
ATOM     62  C   UNL A   1      40.164  36.315  38.325  1.00  0.00     0.006 A 
ENDBRANCH  41  55
BRANCH  42  63
ATOM     63  C   UNL A   1      40.340  27.787  28.783  1.00  0.00     0.057 A 
ATOM     64  C   UNL A   1      41.099  28.074  27.643  1.00  0.00     0.134 A 
ATOM     65  C   UNL A   1      39.645  26.571  28.807  1.00  0.00     0.134 A 
ATOM     66  F   UNL A   1      41.771  29.230  27.552  1.00  0.00    -0.206 F 
ATOM     67  C   UNL A   1      41.159  27.190  26.563  1.00  0.00     0.040 A 
ATOM     68  C   UNL A   1      39.718  25.665  27.747  1.00  0.00     0.040 A 
ATOM     69  F   UNL A   1      38.908  26.234  29.875  1.00  0.00    -0.206 F 
ATOM     70  C   UNL A   1      40.473  25.977  26.619  1.00  0.00     0.006 A 
ENDBRANCH  42  63
BRANCH  54  71
ATOM     71  C   UNL A   1      44.227  28.556  34.522  1.00  0.00     0.057 A 
ATOM     72  C   UNL A   1      44.071  27.437  35.350  1.00  0.00     0.134 A 
ATOM     73  C   UNL A   1      45.532  28.927  34.178  1.00  0.00     0.134 A 
ATOM     74  F   UNL A   1      42.848  27.036  35.730  1.00  0.00    -0.206 F 
ATOM     75  C   UNL A   1      45.172  26.728  35.834  1.00  0.00     0.040 A 
ATOM     76  C   UNL A   1      46.640  28.208  34.630  1.00  0.00     0.040 A 
ATOM     77  F   UNL A   1      45.754  29.984  33.383  1.00  0.00    -0.206 F 
ATOM     78  C   UNL A   1      46.461  27.109  35.467  1.00  0.00     0.006 A 
ENDBRANCH  54  71
ENDBRANCH  28  29
ENDBRANCH  20  23
ENDBRANCH  18  19
ENDBRANCH  17  18
ENDBRANCH   1  17
TORSDOF 14
ENDMDL
MODEL 3
REMARK VINA RESULT:      -9.8      5.608     10.582
REMARK SMILES O=C(C[C@@H]1C=CS(=O)(=O)C1)NCCCCCCNC(=O)c1ccc(-c2c3nc(c(-c4c(F)cccc4F)c4ccc([nH]4)c(-c4c(F)cccc4F)c4nc(c(-c5c(F)cccc5F)c5ccc2[nH]5)C=C4)C=C3)cc1
REMARK SMILES IDX 15 1 14 2 13 3 12 4 11 5 1 6 2 7 3 9 4 10 5 11 10 12 6 13
REMARK SMILES IDX 7 14 8 15 9 16 16 17 17 18 18 19 19 20 20 22 21 23 22 24
REMARK SMILES IDX 74 25 23 26 73 27 24 28 25 29 26 30 67 31 27 32 72 33 66 34
REMARK SMILES IDX 68 35 28 36 71 37 65 38 64 39 29 41 55 42 38 43 54 44 39 45
REMARK SMILES IDX 42 46 53 47 69 48 40 49 41 50 52 52 70 53 43 54 30 55 31 56
REMARK SMILES IDX 36 57 32 58 33 59 35 60 37 61 34 62 56 63 57 64 62 65 58 66
REMARK SMILES IDX 59 67 61 68 63 69 60 70 44 71 45 72 50 73 46 74 47 75 49 76
REMARK SMILES IDX 51 77 48 78
REMARK H PARENT 11 8 18 21 68 40 42 51
REMARK Flexibility Score: inf
ROOT
ATOM      1  C   UNL A   1      37.035  21.231  24.570  1.00  0.00     0.002 C 
ENDROOT
BRANCH   1   2
ATOM      2  C   UNL A   1      37.158  22.446  25.494  1.00  0.00     0.002 C 
BRANCH   2   3
ATOM      3  C   UNL A   1      35.882  23.286  25.657  1.00  0.00     0.021 C 
BRANCH   3   4
ATOM      4  C   UNL A   1      34.956  22.842  26.787  1.00  0.00     0.116 C 
BRANCH   4   5
ATOM      5  N   UNL A   1      34.317  21.576  26.484  1.00  0.00    -0.356 N 
ATOM      6  O   UNL A   1      32.489  22.445  25.398  1.00  0.00    -0.275 OA
ATOM      7  C   UNL A   1      33.152  21.483  25.770  1.00  0.00     0.220 C 
ATOM      8  H   UNL A   1      34.741  20.747  26.805  1.00  0.00     0.163 HD
BRANCH   7   9
ATOM      9  C   UNL A   1      32.733  20.060  25.454  1.00  0.00     0.108 C 
BRANCH   9  10
ATOM     10  C   UNL A   1      33.383  19.451  24.202  1.00  0.00     0.037 C 
ATOM     11  C   UNL A   1      32.387  19.063  23.134  1.00  0.00    -0.010 C 
ATOM     12  C   UNL A   1      34.275  18.230  24.478  1.00  0.00     0.150 C 
ATOM     13  C   UNL A   1      32.342  17.769  22.794  1.00  0.00     0.102 C 
ATOM     14  S   UNL A   1      33.479  16.824  23.694  1.00  0.00     0.171 S 
ATOM     15  O   UNL A   1      34.409  16.205  22.774  1.00  0.00    -0.224 OA
ATOM     16  O   UNL A   1      32.761  16.053  24.687  1.00  0.00    -0.224 OA
ENDBRANCH   9  10
ENDBRANCH   7   9
ENDBRANCH   4   5
ENDBRANCH   3   4
ENDBRANCH   2   3
ENDBRANCH   1   2
BRANCH   1  17
ATOM     17  C   UNL A   1      37.836  20.002  25.003  1.00  0.00     0.021 C 
BRANCH  17  18
ATOM     18  C   UNL A   1      39.107  20.303  25.792  1.00  0.00     0.116 C 
BRANCH  18  19
ATOM     19  N   UNL A   1      40.058  19.202  25.773  1.00  0.00    -0.352 N 
ATOM     20  C   UNL A   1      41.421  19.223  25.947  1.00  0.00     0.251 C 
ATOM     21  H   UNL A   1      39.668  18.312  25.612  1.00  0.00     0.163 HD
ATOM     22  O   UNL A   1      42.085  18.209  25.751  1.00  0.00    -0.269 OA
BRANCH  20  23
ATOM     23  C   UNL A   1      42.094  20.480  26.337  1.00  0.00     0.039 A 
ATOM     24  C   UNL A   1      42.733  21.236  25.351  1.00  0.00     0.014 A 
ATOM     25  C   UNL A   1      42.079  20.925  27.663  1.00  0.00     0.014 A 
ATOM     26  C   UNL A   1      43.285  22.476  25.679  1.00  0.00     0.010 A 
ATOM     27  C   UNL A   1      42.563  22.193  27.973  1.00  0.00     0.010 A 
ATOM     28  C   UNL A   1      43.160  22.986  26.982  1.00  0.00    -0.014 A 
BRANCH  28  29
ATOM     29  C   UNL A   1      43.606  24.366  27.310  1.00  0.00     0.031 A 
ATOM     30  C   UNL A   1      42.614  25.415  27.724  1.00  0.00     0.074 A 
ATOM     31  C   UNL A   1      44.905  24.690  27.163  1.00  0.00     0.049 A 
ATOM     32  N   UNL A   1      42.813  26.681  27.989  1.00  0.00    -0.248 NA
ATOM     33  C   UNL A   1      41.211  24.992  27.827  1.00  0.00     0.031 C 
ATOM     34  C   UNL A   1      45.957  23.777  26.714  1.00  0.00     0.029 A 
ATOM     35  N   UNL A   1      45.559  25.880  27.361  1.00  0.00    -0.354 N 
ATOM     36  C   UNL A   1      41.563  27.206  28.290  1.00  0.00     0.074 A 
ATOM     37  C   UNL A   1      40.605  26.135  28.110  1.00  0.00     0.031 C 
ATOM     38  C   UNL A   1      47.127  24.435  26.684  1.00  0.00     0.029 A 
ATOM     39  C   UNL A   1      46.901  25.825  27.070  1.00  0.00     0.049 A 
ATOM     40  H   UNL A   1      45.110  26.696  27.680  1.00  0.00     0.167 HD
ATOM     41  C   UNL A   1      41.246  28.458  28.700  1.00  0.00     0.037 A 
ATOM     42  C   UNL A   1      47.842  26.787  27.091  1.00  0.00     0.037 A 
ATOM     43  C   UNL A   1      42.202  29.521  28.871  1.00  0.00     0.049 A 
ATOM     44  C   UNL A   1      47.464  28.177  27.516  1.00  0.00     0.074 A 
ATOM     45  C   UNL A   1      41.989  30.809  29.330  1.00  0.00     0.029 A 
ATOM     46  N   UNL A   1      43.554  29.426  28.570  1.00  0.00    -0.354 N 
ATOM     47  N   UNL A   1      46.292  28.641  27.875  1.00  0.00    -0.248 NA
ATOM     48  C   UNL A   1      48.540  29.177  27.543  1.00  0.00     0.031 C 
ATOM     49  C   UNL A   1      43.197  31.509  29.251  1.00  0.00     0.029 A 
ATOM     50  C   UNL A   1      44.179  30.642  28.799  1.00  0.00     0.049 A 
ATOM     51  H   UNL A   1      44.003  28.614  28.242  1.00  0.00     0.167 HD
ATOM     52  C   UNL A   1      46.489  29.979  28.185  1.00  0.00     0.074 A 
ATOM     53  C   UNL A   1      47.899  30.248  27.994  1.00  0.00     0.031 C 
ATOM     54  C   UNL A   1      45.582  30.902  28.591  1.00  0.00     0.037 A 
BRANCH  41  55
ATOM     55  C   UNL A   1      39.796  28.740  28.982  1.00  0.00     0.057 A 
ATOM     56  C   UNL A   1      38.915  29.170  27.978  1.00  0.00     0.134 A 
ATOM     57  C   UNL A   1      39.269  28.573  30.269  1.00  0.00     0.134 A 
ATOM     58  F   UNL A   1      39.354  29.358  26.725  1.00  0.00    -0.206 F 
ATOM     59  C   UNL A   1      37.578  29.465  28.254  1.00  0.00     0.040 A 
ATOM     60  C   UNL A   1      37.926  28.833  30.550  1.00  0.00     0.040 A 
ATOM     61  F   UNL A   1      40.049  28.154  31.277  1.00  0.00    -0.206 F 
ATOM     62  C   UNL A   1      37.080  29.292  29.543  1.00  0.00     0.006 A 
ENDBRANCH  41  55
BRANCH  42  63
ATOM     63  C   UNL A   1      49.236  26.456  26.695  1.00  0.00     0.057 A 
ATOM     64  C   UNL A   1      50.135  25.894  27.607  1.00  0.00     0.134 A 
ATOM     65  C   UNL A   1      49.690  26.672  25.388  1.00  0.00     0.134 A 
ATOM     66  F   UNL A   1      49.765  25.680  28.877  1.00  0.00    -0.206 F 
ATOM     67  C   UNL A   1      51.441  25.564  27.236  1.00  0.00     0.040 A 
ATOM     68  C   UNL A   1      50.984  26.322  24.996  1.00  0.00     0.040 A 
ATOM     69  F   UNL A   1      48.873  27.200  24.465  1.00  0.00    -0.206 F 
ATOM     70  C   UNL A   1      51.864  25.771  25.924  1.00  0.00     0.006 A 
ENDBRANCH  42  63
BRANCH  54  71
ATOM     71  C   UNL A   1      46.090  32.291  28.864  1.00  0.00     0.057 A 
ATOM     72  C   UNL A   1      46.098  33.283  27.876  1.00  0.00     0.134 A 
ATOM     73  C   UNL A   1      46.541  32.649  30.141  1.00  0.00     0.134 A 
ATOM     74  F   UNL A   1      45.692  33.003  26.627  1.00  0.00    -0.206 F 
ATOM     75  C   UNL A   1      46.557  34.575  28.141  1.00  0.00     0.040 A 
ATOM     76  C   UNL A   1      46.974  33.944  30.427  1.00  0.00     0.040 A 
ATOM     77  F   UNL A   1      46.553  31.750  31.137  1.00  0.00    -0.206 F 
ATOM     78  C   UNL A   1      46.989  34.910  29.423  1.00  0.00     0.006 A 
ENDBRANCH  54  71
ENDBRANCH  28  29
ENDBRANCH  20  23
ENDBRANCH  18  19
ENDBRANCH  17  18
ENDBRANCH   1  17
TORSDOF 14
ENDMDL
