MODEL 1
REMARK VINA RESULT:     -11.7      0.000      0.000
REMARK SMILES Cc1cc(C(=O)N2[C@@H](C(=O)NCCCCCCNC(=O)c3ccc(-c4c5nc(c(-c6c(F)cccc6F)c6ccc([nH]6)c(-c6c(F)cccc6F)c6nc(c(-c7c(F)cccc7F)c7ccc4[nH]7)C=C6)C=C5)cc3)C[C@H]3CCCC[C@H]32)c(C)s1
REMARK SMILES IDX 14 1 13 2 12 3 11 4 9 5 10 6 8 8 7 9 81 10 75 11 76 12 80 13
REMARK SMILES IDX 77 14 79 15 78 16 5 17 6 18 4 19 1 20 2 21 3 22 84 23 82 24
REMARK SMILES IDX 83 25 15 26 16 27 17 28 18 29 19 30 20 32 21 33 22 34 74 35
REMARK SMILES IDX 23 36 73 37 24 38 25 39 26 40 67 41 27 42 72 43 66 44 68 45
REMARK SMILES IDX 28 46 71 47 65 48 64 49 29 51 55 52 38 53 54 54 39 55 42 56
REMARK SMILES IDX 53 57 69 58 40 59 41 60 52 62 70 63 43 64 30 65 31 66 36 67
REMARK SMILES IDX 32 68 33 69 35 70 37 71 34 72 56 73 57 74 62 75 58 76 59 77
REMARK SMILES IDX 61 78 63 79 60 80 44 81 45 82 50 83 46 84 47 85 49 86 51 87
REMARK SMILES IDX 48 88
REMARK H PARENT 11 7 18 31 68 50 42 61
REMARK Flexibility Score: inf
ROOT
ATOM      1  C   UNL A   1      38.374  22.406  25.785  1.00  0.00     0.002 C 
ENDROOT
BRANCH   1   2
ATOM      2  C   UNL A   1      37.650  23.753  25.790  1.00  0.00     0.021 C 
BRANCH   2   3
ATOM      3  C   UNL A   1      36.138  23.673  25.990  1.00  0.00     0.116 C 
BRANCH   3   4
ATOM      4  N   UNL A   1      35.401  24.208  24.864  1.00  0.00    -0.354 N 
ATOM      5  C   UNL A   1      34.374  25.092  24.773  1.00  0.00     0.242 C 
ATOM      6  O   UNL A   1      34.055  25.428  23.624  1.00  0.00    -0.273 OA
ATOM      7  H   UNL A   1      35.706  23.865  23.993  1.00  0.00     0.163 HD
BRANCH   5   8
ATOM      8  C   UNL A   1      33.514  25.599  25.962  1.00  0.00     0.175 C 
ATOM      9  N   UNL A   1      32.070  25.333  26.034  1.00  0.00    -0.323 N 
ATOM     10  C   UNL A   1      31.298  26.568  25.919  1.00  0.00     0.089 C 
ATOM     11  C   UNL A   1      33.610  27.142  25.999  1.00  0.00     0.041 C 
ATOM     12  C   UNL A   1      32.249  27.588  26.547  1.00  0.00     0.014 C 
ATOM     13  C   UNL A   1      30.936  26.910  24.467  1.00  0.00     0.025 C 
ATOM     14  C   UNL A   1      31.878  29.042  26.280  1.00  0.00     0.006 C 
ATOM     15  C   UNL A   1      30.466  28.350  24.311  1.00  0.00     0.002 C 
ATOM     16  C   UNL A   1      31.516  29.328  24.827  1.00  0.00     0.000 C 
BRANCH   9  17
ATOM     17  C   UNL A   1      31.432  24.150  26.389  1.00  0.00     0.255 C 
ATOM     18  O   UNL A   1      30.532  24.144  27.226  1.00  0.00    -0.269 OA
BRANCH  17  19
ATOM     19  C   UNL A   1      31.887  22.902  25.771  1.00  0.00     0.053 A 
ATOM     20  C   UNL A   1      32.242  20.663  22.719  1.00  0.00     0.056 C 
ATOM     21  C   UNL A   1      32.257  21.343  24.045  1.00  0.00     0.003 A 
ATOM     22  C   UNL A   1      31.625  22.510  24.411  1.00  0.00     0.029 A 
ATOM     23  S   UNL A   1      33.178  20.710  25.329  1.00  0.00    -0.145 S 
ATOM     24  C   UNL A   1      32.774  22.015  26.365  1.00  0.00     0.014 A 
ATOM     25  C   UNL A   1      33.413  22.073  27.716  1.00  0.00     0.057 C 
ENDBRANCH  17  19
ENDBRANCH   9  17
ENDBRANCH   5   8
ENDBRANCH   3   4
ENDBRANCH   2   3
ENDBRANCH   1   2
BRANCH   1  26
ATOM     26  C   UNL A   1      37.689  21.288  24.993  1.00  0.00     0.002 C 
BRANCH  26  27
ATOM     27  C   UNL A   1      38.408  19.934  24.981  1.00  0.00     0.021 C 
BRANCH  27  28
ATOM     28  C   UNL A   1      39.306  19.652  26.183  1.00  0.00     0.116 C 
BRANCH  28  29
ATOM     29  N   UNL A   1      40.582  19.080  25.799  1.00  0.00    -0.352 N 
ATOM     30  C   UNL A   1      41.833  19.639  25.770  1.00  0.00     0.251 C 
ATOM     31  H   UNL A   1      40.544  18.140  25.512  1.00  0.00     0.163 HD
ATOM     32  O   UNL A   1      42.758  19.020  25.247  1.00  0.00    -0.269 OA
BRANCH  30  33
ATOM     33  C   UNL A   1      42.085  20.978  26.346  1.00  0.00     0.039 A 
ATOM     34  C   UNL A   1      42.037  21.117  27.737  1.00  0.00     0.014 A 
ATOM     35  C   UNL A   1      42.305  22.100  25.543  1.00  0.00     0.014 A 
ATOM     36  C   UNL A   1      42.239  22.368  28.320  1.00  0.00     0.010 A 
ATOM     37  C   UNL A   1      42.574  23.338  26.128  1.00  0.00     0.010 A 
ATOM     38  C   UNL A   1      42.529  23.486  27.523  1.00  0.00    -0.014 A 
BRANCH  38  39
ATOM     39  C   UNL A   1      42.777  24.808  28.151  1.00  0.00     0.031 A 
ATOM     40  C   UNL A   1      44.153  25.188  28.624  1.00  0.00     0.074 A 
ATOM     41  C   UNL A   1      41.750  25.664  28.314  1.00  0.00     0.049 A 
ATOM     42  N   UNL A   1      44.563  26.315  29.151  1.00  0.00    -0.248 NA
ATOM     43  C   UNL A   1      45.202  24.163  28.511  1.00  0.00     0.031 C 
ATOM     44  C   UNL A   1      40.356  25.385  27.961  1.00  0.00     0.029 A 
ATOM     45  N   UNL A   1      41.718  26.940  28.816  1.00  0.00    -0.354 N 
ATOM     46  C   UNL A   1      45.908  26.130  29.443  1.00  0.00     0.074 A 
ATOM     47  C   UNL A   1      46.234  24.767  29.081  1.00  0.00     0.031 C 
ATOM     48  C   UNL A   1      39.611  26.469  28.230  1.00  0.00     0.029 A 
ATOM     49  C   UNL A   1      40.469  27.509  28.790  1.00  0.00     0.049 A 
ATOM     50  H   UNL A   1      42.516  27.404  29.160  1.00  0.00     0.167 HD
ATOM     51  C   UNL A   1      46.796  27.021  29.946  1.00  0.00     0.037 A 
ATOM     52  C   UNL A   1      40.062  28.735  29.167  1.00  0.00     0.037 A 
ATOM     53  C   UNL A   1      46.476  28.384  30.282  1.00  0.00     0.049 A 
ATOM     54  C   UNL A   1      41.074  29.720  29.679  1.00  0.00     0.074 A 
ATOM     55  C   UNL A   1      47.320  29.386  30.729  1.00  0.00     0.029 A 
ATOM     56  N   UNL A   1      45.205  28.935  30.212  1.00  0.00    -0.354 N 
ATOM     57  N   UNL A   1      42.362  29.562  29.862  1.00  0.00    -0.248 NA
ATOM     58  C   UNL A   1      40.578  31.061  30.015  1.00  0.00     0.031 C 
ATOM     59  C   UNL A   1      46.552  30.531  30.967  1.00  0.00     0.029 A 
ATOM     60  C   UNL A   1      45.238  30.257  30.624  1.00  0.00     0.049 A 
ATOM     61  H   UNL A   1      44.397  28.458  29.912  1.00  0.00     0.167 HD
ATOM     62  C   UNL A   1      42.835  30.786  30.315  1.00  0.00     0.074 A 
ATOM     63  C   UNL A   1      41.698  31.683  30.357  1.00  0.00     0.031 C 
ATOM     64  C   UNL A   1      44.097  31.136  30.665  1.00  0.00     0.037 A 
BRANCH  51  65
ATOM     65  C   UNL A   1      48.205  26.546  30.160  1.00  0.00     0.057 A 
ATOM     66  C   UNL A   1      48.599  25.906  31.344  1.00  0.00     0.134 A 
ATOM     67  C   UNL A   1      49.174  26.704  29.161  1.00  0.00     0.134 A 
ATOM     68  F   UNL A   1      47.723  25.732  32.346  1.00  0.00    -0.206 F 
ATOM     69  C   UNL A   1      49.910  25.468  31.538  1.00  0.00     0.040 A 
ATOM     70  C   UNL A   1      50.481  26.246  29.332  1.00  0.00     0.040 A 
ATOM     71  F   UNL A   1      48.865  27.302  28.001  1.00  0.00    -0.206 F 
ATOM     72  C   UNL A   1      50.855  25.633  30.527  1.00  0.00     0.006 A 
ENDBRANCH  51  65
BRANCH  52  73
ATOM     73  C   UNL A   1      38.633  29.110  29.030  1.00  0.00     0.057 A 
ATOM     74  C   UNL A   1      37.759  29.043  30.121  1.00  0.00     0.134 A 
ATOM     75  C   UNL A   1      38.111  29.555  27.810  1.00  0.00     0.134 A 
ATOM     76  F   UNL A   1      38.199  28.609  31.311  1.00  0.00    -0.206 F 
ATOM     77  C   UNL A   1      36.413  29.389  30.002  1.00  0.00     0.040 A 
ATOM     78  C   UNL A   1      36.772  29.926  27.681  1.00  0.00     0.040 A 
ATOM     79  F   UNL A   1      38.900  29.652  26.731  1.00  0.00    -0.206 F 
ATOM     80  C   UNL A   1      35.917  29.837  28.779  1.00  0.00     0.006 A 
ENDBRANCH  52  73
BRANCH  64  81
ATOM     81  C   UNL A   1      44.312  32.556  31.103  1.00  0.00     0.057 A 
ATOM     82  C   UNL A   1      44.226  32.937  32.447  1.00  0.00     0.134 A 
ATOM     83  C   UNL A   1      44.619  33.551  30.165  1.00  0.00     0.134 A 
ATOM     84  F   UNL A   1      43.923  32.034  33.392  1.00  0.00    -0.206 F 
ATOM     85  C   UNL A   1      44.407  34.264  32.842  1.00  0.00     0.040 A 
ATOM     86  C   UNL A   1      44.828  34.875  30.550  1.00  0.00     0.040 A 
ATOM     87  F   UNL A   1      44.724  33.251  28.862  1.00  0.00    -0.206 F 
ATOM     88  C   UNL A   1      44.714  35.237  31.892  1.00  0.00     0.006 A 
ENDBRANCH  64  81
ENDBRANCH  38  39
ENDBRANCH  30  33
ENDBRANCH  28  29
ENDBRANCH  27  28
ENDBRANCH  26  27
ENDBRANCH   1  26
TORSDOF 15
ENDMDL
MODEL 2
REMARK VINA RESULT:     -11.7      3.178      8.537
REMARK SMILES Cc1cc(C(=O)N2[C@@H](C(=O)NCCCCCCNC(=O)c3ccc(-c4c5nc(c(-c6c(F)cccc6F)c6ccc([nH]6)c(-c6c(F)cccc6F)c6nc(c(-c7c(F)cccc7F)c7ccc4[nH]7)C=C6)C=C5)cc3)C[C@H]3CCCC[C@H]32)c(C)s1
REMARK SMILES IDX 14 1 13 2 12 3 11 4 9 5 10 6 8 8 7 9 81 10 75 11 76 12 80 13
REMARK SMILES IDX 77 14 79 15 78 16 5 17 6 18 4 19 1 20 2 21 3 22 84 23 82 24
REMARK SMILES IDX 83 25 15 26 16 27 17 28 18 29 19 30 20 32 21 33 22 34 74 35
REMARK SMILES IDX 23 36 73 37 24 38 25 39 26 40 67 41 27 42 72 43 66 44 68 45
REMARK SMILES IDX 28 46 71 47 65 48 64 49 29 51 55 52 38 53 54 54 39 55 42 56
REMARK SMILES IDX 53 57 69 58 40 59 41 60 52 62 70 63 43 64 30 65 31 66 36 67
REMARK SMILES IDX 32 68 33 69 35 70 37 71 34 72 56 73 57 74 62 75 58 76 59 77
REMARK SMILES IDX 61 78 63 79 60 80 44 81 45 82 50 83 46 84 47 85 49 86 51 87
REMARK SMILES IDX 48 88
REMARK H PARENT 11 7 18 31 68 50 42 61
REMARK Flexibility Score: inf
ROOT
ATOM      1  C   UNL A   1      33.678  30.134  27.281  1.00  0.00     0.002 C 
ENDROOT
BRANCH   1   2
ATOM      2  C   UNL A   1      34.327  28.797  26.919  1.00  0.00     0.021 C 
BRANCH   2   3
ATOM      3  C   UNL A   1      33.655  28.040  25.776  1.00  0.00     0.116 C 
BRANCH   3   4
ATOM      4  N   UNL A   1      33.169  26.739  26.183  1.00  0.00    -0.354 N 
ATOM      5  C   UNL A   1      33.546  25.474  25.861  1.00  0.00     0.242 C 
ATOM      6  O   UNL A   1      32.987  24.570  26.496  1.00  0.00    -0.273 OA
ATOM      7  H   UNL A   1      32.419  26.778  26.820  1.00  0.00     0.163 HD
BRANCH   5   8
ATOM      8  C   UNL A   1      34.505  25.087  24.704  1.00  0.00     0.175 C 
ATOM      9  N   UNL A   1      34.073  24.203  23.611  1.00  0.00    -0.323 N 
ATOM     10  C   UNL A   1      34.798  22.935  23.639  1.00  0.00     0.089 C 
ATOM     11  C   UNL A   1      35.723  24.354  25.315  1.00  0.00     0.041 C 
ATOM     12  C   UNL A   1      36.144  23.359  24.227  1.00  0.00     0.014 C 
ATOM     13  C   UNL A   1      34.091  21.865  24.483  1.00  0.00     0.025 C 
ATOM     14  C   UNL A   1      37.017  22.202  24.700  1.00  0.00     0.006 C 
ATOM     15  C   UNL A   1      35.003  20.691  24.812  1.00  0.00     0.002 C 
ATOM     16  C   UNL A   1      36.266  21.162  25.524  1.00  0.00     0.000 C 
BRANCH   9  17
ATOM     17  C   UNL A   1      33.271  24.517  22.521  1.00  0.00     0.255 C 
ATOM     18  O   UNL A   1      33.460  23.991  21.425  1.00  0.00    -0.269 OA
BRANCH  17  19
ATOM     19  C   UNL A   1      32.219  25.521  22.697  1.00  0.00     0.053 A 
ATOM     20  C   UNL A   1      28.779  26.514  23.978  1.00  0.00     0.056 C 
ATOM     21  C   UNL A   1      30.152  26.398  23.409  1.00  0.00     0.003 A 
ATOM     22  C   UNL A   1      30.914  25.263  23.248  1.00  0.00     0.029 A 
ATOM     23  S   UNL A   1      30.998  27.787  22.906  1.00  0.00    -0.145 S 
ATOM     24  C   UNL A   1      32.403  26.885  22.514  1.00  0.00     0.014 A 
ATOM     25  C   UNL A   1      33.623  27.627  22.072  1.00  0.00     0.057 C 
ENDBRANCH  17  19
ENDBRANCH   9  17
ENDBRANCH   5   8
ENDBRANCH   3   4
ENDBRANCH   2   3
ENDBRANCH   1   2
BRANCH   1  26
ATOM     26  C   UNL A   1      32.188  30.259  26.946  1.00  0.00     0.002 C 
BRANCH  26  27
ATOM     27  C   UNL A   1      31.604  31.676  26.995  1.00  0.00     0.021 C 
BRANCH  27  28
ATOM     28  C   UNL A   1      32.593  32.808  26.735  1.00  0.00     0.116 C 
BRANCH  28  29
ATOM     29  N   UNL A   1      32.368  33.951  27.598  1.00  0.00    -0.352 N 
ATOM     30  C   UNL A   1      33.061  34.386  28.696  1.00  0.00     0.251 C 
ATOM     31  H   UNL A   1      31.590  34.504  27.357  1.00  0.00     0.163 HD
ATOM     32  O   UNL A   1      32.595  35.291  29.386  1.00  0.00    -0.269 OA
BRANCH  30  33
ATOM     33  C   UNL A   1      34.356  33.775  29.073  1.00  0.00     0.039 A 
ATOM     34  C   UNL A   1      35.443  33.953  28.212  1.00  0.00     0.014 A 
ATOM     35  C   UNL A   1      34.498  32.988  30.219  1.00  0.00     0.014 A 
ATOM     36  C   UNL A   1      36.674  33.369  28.513  1.00  0.00     0.010 A 
ATOM     37  C   UNL A   1      35.745  32.461  30.555  1.00  0.00     0.010 A 
ATOM     38  C   UNL A   1      36.842  32.634  29.697  1.00  0.00    -0.014 A 
BRANCH  38  39
ATOM     39  C   UNL A   1      38.162  32.045  30.030  1.00  0.00     0.031 A 
ATOM     40  C   UNL A   1      39.117  32.763  30.945  1.00  0.00     0.074 A 
ATOM     41  C   UNL A   1      38.512  30.862  29.488  1.00  0.00     0.049 A 
ATOM     42  N   UNL A   1      40.290  32.377  31.381  1.00  0.00    -0.248 NA
ATOM     43  C   UNL A   1      38.712  34.098  31.411  1.00  0.00     0.031 C 
ATOM     44  C   UNL A   1      37.704  30.100  28.533  1.00  0.00     0.029 A 
ATOM     45  N   UNL A   1      39.635  30.094  29.663  1.00  0.00    -0.354 N 
ATOM     46  C   UNL A   1      40.767  33.423  32.161  1.00  0.00     0.074 A 
ATOM     47  C   UNL A   1      39.780  34.480  32.098  1.00  0.00     0.031 C 
ATOM     48  C   UNL A   1      38.345  28.960  28.230  1.00  0.00     0.029 A 
ATOM     49  C   UNL A   1      39.613  28.920  28.952  1.00  0.00     0.049 A 
ATOM     50  H   UNL A   1      40.384  30.358  30.245  1.00  0.00     0.167 HD
ATOM     51  C   UNL A   1      41.912  33.488  32.883  1.00  0.00     0.037 A 
ATOM     52  C   UNL A   1      40.509  27.918  28.895  1.00  0.00     0.037 A 
ATOM     53  C   UNL A   1      42.880  32.426  32.964  1.00  0.00     0.049 A 
ATOM     54  C   UNL A   1      41.749  27.993  29.740  1.00  0.00     0.074 A 
ATOM     55  C   UNL A   1      44.036  32.366  33.724  1.00  0.00     0.029 A 
ATOM     56  N   UNL A   1      42.808  31.237  32.255  1.00  0.00    -0.354 N 
ATOM     57  N   UNL A   1      42.143  28.948  30.546  1.00  0.00    -0.248 NA
ATOM     58  C   UNL A   1      42.658  26.841  29.682  1.00  0.00     0.031 C 
ATOM     59  C   UNL A   1      44.682  31.157  33.444  1.00  0.00     0.029 A 
ATOM     60  C   UNL A   1      43.906  30.443  32.544  1.00  0.00     0.049 A 
ATOM     61  H   UNL A   1      42.082  30.991  31.636  1.00  0.00     0.167 HD
ATOM     62  C   UNL A   1      43.333  28.505  31.108  1.00  0.00     0.074 A 
ATOM     63  C   UNL A   1      43.585  27.186  30.565  1.00  0.00     0.031 C 
ATOM     64  C   UNL A   1      44.145  29.135  31.992  1.00  0.00     0.037 A 
BRANCH  51  65
ATOM     65  C   UNL A   1      42.176  34.755  33.646  1.00  0.00     0.057 A 
ATOM     66  C   UNL A   1      41.823  34.894  34.996  1.00  0.00     0.134 A 
ATOM     67  C   UNL A   1      42.817  35.839  33.033  1.00  0.00     0.134 A 
ATOM     68  F   UNL A   1      41.197  33.898  35.640  1.00  0.00    -0.206 F 
ATOM     69  C   UNL A   1      42.070  36.075  35.699  1.00  0.00     0.040 A 
ATOM     70  C   UNL A   1      43.094  37.015  33.733  1.00  0.00     0.040 A 
ATOM     71  F   UNL A   1      43.188  35.772  31.746  1.00  0.00    -0.206 F 
ATOM     72  C   UNL A   1      42.712  37.138  35.068  1.00  0.00     0.006 A 
ENDBRANCH  51  65
BRANCH  52  73
ATOM     73  C   UNL A   1      40.240  26.737  28.038  1.00  0.00     0.057 A 
ATOM     74  C   UNL A   1      39.421  25.693  28.480  1.00  0.00     0.134 A 
ATOM     75  C   UNL A   1      40.787  26.631  26.754  1.00  0.00     0.134 A 
ATOM     76  F   UNL A   1      38.882  25.731  29.708  1.00  0.00    -0.206 F 
ATOM     77  C   UNL A   1      39.167  24.575  27.684  1.00  0.00     0.040 A 
ATOM     78  C   UNL A   1      40.523  25.531  25.937  1.00  0.00     0.040 A 
ATOM     79  F   UNL A   1      41.571  27.604  26.269  1.00  0.00    -0.206 F 
ATOM     80  C   UNL A   1      39.714  24.495  26.405  1.00  0.00     0.006 A 
ENDBRANCH  52  73
BRANCH  64  81
ATOM     81  C   UNL A   1      45.369  28.390  32.441  1.00  0.00     0.057 A 
ATOM     82  C   UNL A   1      45.349  27.529  33.545  1.00  0.00     0.134 A 
ATOM     83  C   UNL A   1      46.580  28.528  31.750  1.00  0.00     0.134 A 
ATOM     84  F   UNL A   1      44.223  27.363  34.257  1.00  0.00    -0.206 F 
ATOM     85  C   UNL A   1      46.497  26.857  33.967  1.00  0.00     0.040 A 
ATOM     86  C   UNL A   1      47.727  27.841  32.146  1.00  0.00     0.040 A 
ATOM     87  F   UNL A   1      46.666  29.331  30.678  1.00  0.00    -0.206 F 
ATOM     88  C   UNL A   1      47.690  27.009  33.263  1.00  0.00     0.006 A 
ENDBRANCH  64  81
ENDBRANCH  38  39
ENDBRANCH  30  33
ENDBRANCH  28  29
ENDBRANCH  27  28
ENDBRANCH  26  27
ENDBRANCH   1  26
TORSDOF 15
ENDMDL
MODEL 3
REMARK VINA RESULT:     -11.7      4.001      9.118
REMARK SMILES Cc1cc(C(=O)N2[C@@H](C(=O)NCCCCCCNC(=O)c3ccc(-c4c5nc(c(-c6c(F)cccc6F)c6ccc([nH]6)c(-c6c(F)cccc6F)c6nc(c(-c7c(F)cccc7F)c7ccc4[nH]7)C=C6)C=C5)cc3)C[C@H]3CCCC[C@H]32)c(C)s1
REMARK SMILES IDX 14 1 13 2 12 3 11 4 9 5 10 6 8 8 7 9 81 10 75 11 76 12 80 13
REMARK SMILES IDX 77 14 79 15 78 16 5 17 6 18 4 19 1 20 2 21 3 22 84 23 82 24
REMARK SMILES IDX 83 25 15 26 16 27 17 28 18 29 19 30 20 32 21 33 22 34 74 35
REMARK SMILES IDX 23 36 73 37 24 38 25 39 26 40 67 41 27 42 72 43 66 44 68 45
REMARK SMILES IDX 28 46 71 47 65 48 64 49 29 51 55 52 38 53 54 54 39 55 42 56
REMARK SMILES IDX 53 57 69 58 40 59 41 60 52 62 70 63 43 64 30 65 31 66 36 67
REMARK SMILES IDX 32 68 33 69 35 70 37 71 34 72 56 73 57 74 62 75 58 76 59 77
REMARK SMILES IDX 61 78 63 79 60 80 44 81 45 82 50 83 46 84 47 85 49 86 51 87
REMARK SMILES IDX 48 88
REMARK H PARENT 11 7 18 31 68 50 42 61
REMARK Flexibility Score: inf
ROOT
ATOM      1  C   UNL A   1      32.024  29.639  26.980  1.00  0.00     0.002 C 
ENDROOT
BRANCH   1   2
ATOM      2  C   UNL A   1      33.544  29.502  27.073  1.00  0.00     0.021 C 
BRANCH   2   3
ATOM      3  C   UNL A   1      34.129  28.290  26.351  1.00  0.00     0.116 C 
BRANCH   3   4
ATOM      4  N   UNL A   1      33.314  27.104  26.508  1.00  0.00    -0.354 N 
ATOM      5  C   UNL A   1      33.399  25.854  25.983  1.00  0.00     0.242 C 
ATOM      6  O   UNL A   1      32.590  25.029  26.430  1.00  0.00    -0.273 OA
ATOM      7  H   UNL A   1      32.549  27.227  27.115  1.00  0.00     0.163 HD
BRANCH   5   8
ATOM      8  C   UNL A   1      34.322  25.430  24.810  1.00  0.00     0.175 C 
ATOM      9  N   UNL A   1      33.772  24.932  23.541  1.00  0.00    -0.323 N 
ATOM     10  C   UNL A   1      34.111  23.526  23.332  1.00  0.00     0.089 C 
ATOM     11  C   UNL A   1      35.223  24.274  25.303  1.00  0.00     0.041 C 
ATOM     12  C   UNL A   1      35.457  23.422  24.050  1.00  0.00     0.014 C 
ATOM     13  C   UNL A   1      33.057  22.569  23.906  1.00  0.00     0.025 C 
ATOM     14  C   UNL A   1      35.926  21.994  24.305  1.00  0.00     0.006 C 
ATOM     15  C   UNL A   1      33.572  21.140  24.020  1.00  0.00     0.002 C 
ATOM     16  C   UNL A   1      34.840  21.081  24.864  1.00  0.00     0.000 C 
BRANCH   9  17
ATOM     17  C   UNL A   1      33.198  25.664  22.508  1.00  0.00     0.255 C 
ATOM     18  O   UNL A   1      33.697  25.670  21.384  1.00  0.00    -0.269 OA
BRANCH  17  19
ATOM     19  C   UNL A   1      32.006  26.464  22.802  1.00  0.00     0.053 A 
ATOM     20  C   UNL A   1      28.381  26.704  23.921  1.00  0.00     0.056 C 
ATOM     21  C   UNL A   1      29.792  26.892  23.482  1.00  0.00     0.003 A 
ATOM     22  C   UNL A   1      30.716  25.927  23.145  1.00  0.00     0.029 A 
ATOM     23  S   UNL A   1      30.468  28.452  23.396  1.00  0.00    -0.145 S 
ATOM     24  C   UNL A   1      32.010  27.844  22.954  1.00  0.00     0.014 A 
ATOM     25  C   UNL A   1      33.142  28.811  22.817  1.00  0.00     0.057 C 
ENDBRANCH  17  19
ENDBRANCH   9  17
ENDBRANCH   5   8
ENDBRANCH   3   4
ENDBRANCH   2   3
ENDBRANCH   1   2
BRANCH   1  26
ATOM     26  C   UNL A   1      31.514  30.824  26.154  1.00  0.00     0.002 C 
BRANCH  26  27
ATOM     27  C   UNL A   1      31.405  32.163  26.892  1.00  0.00     0.021 C 
BRANCH  27  28
ATOM     28  C   UNL A   1      32.685  32.993  26.949  1.00  0.00     0.116 C 
BRANCH  28  29
ATOM     29  N   UNL A   1      32.515  34.222  27.699  1.00  0.00    -0.352 N 
ATOM     30  C   UNL A   1      33.154  34.671  28.825  1.00  0.00     0.251 C 
ATOM     31  H   UNL A   1      31.830  34.832  27.343  1.00  0.00     0.163 HD
ATOM     32  O   UNL A   1      32.735  35.676  29.397  1.00  0.00    -0.269 OA
BRANCH  30  33
ATOM     33  C   UNL A   1      34.333  33.961  29.369  1.00  0.00     0.039 A 
ATOM     34  C   UNL A   1      35.603  34.385  28.965  1.00  0.00     0.014 A 
ATOM     35  C   UNL A   1      34.205  32.855  30.215  1.00  0.00     0.014 A 
ATOM     36  C   UNL A   1      36.739  33.723  29.431  1.00  0.00     0.010 A 
ATOM     37  C   UNL A   1      35.342  32.236  30.734  1.00  0.00     0.010 A 
ATOM     38  C   UNL A   1      36.621  32.655  30.335  1.00  0.00    -0.014 A 
BRANCH  38  39
ATOM     39  C   UNL A   1      37.835  31.978  30.854  1.00  0.00     0.031 A 
ATOM     40  C   UNL A   1      38.397  32.333  32.203  1.00  0.00     0.074 A 
ATOM     41  C   UNL A   1      38.447  31.049  30.095  1.00  0.00     0.049 A 
ATOM     42  N   UNL A   1      39.419  31.813  32.835  1.00  0.00    -0.248 NA
ATOM     43  C   UNL A   1      37.739  33.432  32.928  1.00  0.00     0.031 C 
ATOM     44  C   UNL A   1      38.041  30.665  28.741  1.00  0.00     0.029 A 
ATOM     45  N   UNL A   1      39.538  30.258  30.352  1.00  0.00    -0.354 N 
ATOM     46  C   UNL A   1      39.534  32.526  34.021  1.00  0.00     0.074 A 
ATOM     47  C   UNL A   1      38.510  33.548  34.000  1.00  0.00     0.031 C 
ATOM     48  C   UNL A   1      38.854  29.692  28.299  1.00  0.00     0.029 A 
ATOM     49  C   UNL A   1      39.847  29.398  29.328  1.00  0.00     0.049 A 
ATOM     50  H   UNL A   1      40.049  30.303  31.192  1.00  0.00     0.167 HD
ATOM     51  C   UNL A   1      40.400  32.332  35.045  1.00  0.00     0.037 A 
ATOM     52  C   UNL A   1      40.815  28.469  29.231  1.00  0.00     0.037 A 
ATOM     53  C   UNL A   1      41.402  31.299  35.076  1.00  0.00     0.049 A 
ATOM     54  C   UNL A   1      41.734  28.241  30.398  1.00  0.00     0.074 A 
ATOM     55  C   UNL A   1      42.279  30.974  36.096  1.00  0.00     0.029 A 
ATOM     56  N   UNL A   1      41.664  30.424  34.032  1.00  0.00    -0.354 N 
ATOM     57  N   UNL A   1      41.771  28.861  31.553  1.00  0.00    -0.248 NA
ATOM     58  C   UNL A   1      42.730  27.172  30.256  1.00  0.00     0.031 C 
ATOM     59  C   UNL A   1      43.097  29.928  35.655  1.00  0.00     0.029 A 
ATOM     60  C   UNL A   1      42.700  29.571  34.376  1.00  0.00     0.049 A 
ATOM     61  H   UNL A   1      41.184  30.410  33.172  1.00  0.00     0.167 HD
ATOM     62  C   UNL A   1      42.779  28.244  32.283  1.00  0.00     0.074 A 
ATOM     63  C   UNL A   1      43.312  27.187  31.447  1.00  0.00     0.031 C 
ATOM     64  C   UNL A   1      43.223  28.527  33.532  1.00  0.00     0.037 A 
BRANCH  51  65
ATOM     65  C   UNL A   1      40.297  33.260  36.222  1.00  0.00     0.057 A 
ATOM     66  C   UNL A   1      41.072  34.425  36.317  1.00  0.00     0.134 A 
ATOM     67  C   UNL A   1      39.392  33.003  37.260  1.00  0.00     0.134 A 
ATOM     68  F   UNL A   1      41.967  34.725  35.363  1.00  0.00    -0.206 F 
ATOM     69  C   UNL A   1      40.972  35.282  37.414  1.00  0.00     0.040 A 
ATOM     70  C   UNL A   1      39.263  33.867  38.348  1.00  0.00     0.040 A 
ATOM     71  F   UNL A   1      38.614  31.911  37.230  1.00  0.00    -0.206 F 
ATOM     72  C   UNL A   1      40.062  35.007  38.432  1.00  0.00     0.006 A 
ENDBRANCH  51  65
BRANCH  52  73
ATOM     73  C   UNL A   1      40.934  27.654  27.997  1.00  0.00     0.057 A 
ATOM     74  C   UNL A   1      41.716  28.083  26.919  1.00  0.00     0.134 A 
ATOM     75  C   UNL A   1      40.278  26.424  27.871  1.00  0.00     0.134 A 
ATOM     76  F   UNL A   1      42.355  29.260  26.976  1.00  0.00    -0.206 F 
ATOM     77  C   UNL A   1      41.830  27.326  25.752  1.00  0.00     0.040 A 
ATOM     78  C   UNL A   1      40.401  25.645  26.720  1.00  0.00     0.040 A 
ATOM     79  F   UNL A   1      39.522  25.954  28.874  1.00  0.00    -0.206 F 
ATOM     80  C   UNL A   1      41.175  26.100  25.653  1.00  0.00     0.006 A 
ENDBRANCH  52  73
BRANCH  64  81
ATOM     81  C   UNL A   1      44.326  27.665  34.073  1.00  0.00     0.057 A 
ATOM     82  C   UNL A   1      44.068  26.440  34.701  1.00  0.00     0.134 A 
ATOM     83  C   UNL A   1      45.665  28.062  33.953  1.00  0.00     0.134 A 
ATOM     84  F   UNL A   1      42.807  26.010  34.858  1.00  0.00    -0.206 F 
ATOM     85  C   UNL A   1      45.100  25.655  35.219  1.00  0.00     0.040 A 
ATOM     86  C   UNL A   1      46.705  27.273  34.443  1.00  0.00     0.040 A 
ATOM     87  F   UNL A   1      45.981  29.220  33.355  1.00  0.00    -0.206 F 
ATOM     88  C   UNL A   1      46.423  26.069  35.086  1.00  0.00     0.006 A 
ENDBRANCH  64  81
ENDBRANCH  38  39
ENDBRANCH  30  33
ENDBRANCH  28  29
ENDBRANCH  27  28
ENDBRANCH  26  27
ENDBRANCH   1  26
TORSDOF 15
ENDMDL
