MODEL 1
REMARK VINA RESULT:     -13.0      0.000      0.000
REMARK SMILES C[C@H]1c2ccc(O)cc2OC(=O)[C@@H]1CC(=O)N[C@@H](CC1=c2ccccc2=NC1)C(=O)NCCCCCCNC(=O)c1ccc(-c2c3nc(c(-c4c(F)cccc4F)c4ccc([nH]4)c(-c4c(F)cccc4F)c4nc(c(-c5c(F)cccc5F)c5ccc2[nH]5)C=C4)C=C3)cc1
REMARK SMILES IDX 33 1 32 2 31 3 29 4 30 5 18 7 17 8 15 9 16 10 14 12 13 13
REMARK SMILES IDX 1 14 2 15 3 16 4 17 9 18 11 19 5 20 8 21 10 22 12 23 6 24
REMARK SMILES IDX 7 25 19 27 20 28 21 29 28 30 22 31 26 32 27 33 23 34 25 35
REMARK SMILES IDX 24 36 34 37 35 38 36 39 37 40 38 41 39 42 40 44 41 45 42 46
REMARK SMILES IDX 94 47 43 48 93 49 44 50 45 51 46 52 87 53 47 54 92 55 86 56
REMARK SMILES IDX 88 57 48 58 91 59 85 60 84 61 49 63 75 64 58 65 74 66 59 67
REMARK SMILES IDX 62 68 73 69 89 70 60 71 61 72 72 74 90 75 63 76 50 77 51 78
REMARK SMILES IDX 56 79 52 80 53 81 55 82 57 83 54 84 76 85 77 86 82 87 78 88
REMARK SMILES IDX 79 89 81 90 83 91 80 92 64 93 65 94 70 95 66 96 67 97 69 98
REMARK SMILES IDX 71 99 68 100
REMARK H PARENT 31 6 17 11 7 26 38 43 88 62 62 73
REMARK Flexibility Score: inf
ROOT
ATOM      1  C   UNL A   1      34.055  28.692  26.667  1.00  0.00     0.021 C 
ENDROOT
BRANCH   1   2
ATOM      2  C   UNL A   1      33.566  28.851  25.238  1.00  0.00     0.116 C 
BRANCH   2   3
ATOM      3  N   UNL A   1      34.015  28.036  24.150  1.00  0.00    -0.354 N 
ATOM      4  C   UNL A   1      33.154  27.670  23.132  1.00  0.00     0.242 C 
ATOM      5  O   UNL A   1      33.589  27.760  21.977  1.00  0.00    -0.273 OA
ATOM      6  H   UNL A   1      34.951  27.732  24.126  1.00  0.00     0.163 HD
BRANCH   4   7
ATOM      7  C   UNL A   1      31.664  27.193  23.365  1.00  0.00     0.175 C 
BRANCH   7   8
ATOM      8  N   UNL A   1      31.268  26.691  24.686  1.00  0.00    -0.344 N 
ATOM      9  C   UNL A   1      31.607  25.525  25.310  1.00  0.00     0.221 C 
ATOM     10  O   UNL A   1      30.990  25.215  26.330  1.00  0.00    -0.275 OA
ATOM     11  H   UNL A   1      30.669  27.283  25.197  1.00  0.00     0.164 HD
BRANCH   9  12
ATOM     12  C   UNL A   1      32.762  24.663  24.810  1.00  0.00     0.116 C 
BRANCH  12  13
ATOM     13  C   UNL A   1      32.481  23.788  23.565  1.00  0.00     0.116 C 
ATOM     14  C   UNL A   1      32.243  21.404  22.652  1.00  0.00     0.014 C 
ATOM     15  C   UNL A   1      32.747  22.281  23.810  1.00  0.00     0.034 C 
ATOM     16  C   UNL A   1      34.230  22.089  24.050  1.00  0.00    -0.001 A 
ATOM     17  C   UNL A   1      34.719  21.036  24.829  1.00  0.00     0.011 A 
ATOM     18  C   UNL A   1      35.139  23.021  23.543  1.00  0.00     0.138 A 
ATOM     19  C   UNL A   1      33.372  24.127  22.392  1.00  0.00     0.315 C 
ATOM     20  C   UNL A   1      36.081  20.974  25.148  1.00  0.00     0.047 A 
ATOM     21  C   UNL A   1      36.485  23.001  23.892  1.00  0.00     0.093 A 
ATOM     22  O   UNL A   1      34.730  24.000  22.627  1.00  0.00    -0.426 OA
ATOM     23  O   UNL A   1      32.939  24.500  21.308  1.00  0.00    -0.251 OA
ATOM     24  C   UNL A   1      36.943  21.975  24.703  1.00  0.00     0.119 A 
BRANCH  24  25
ATOM     25  O   UNL A   1      38.264  21.974  25.040  1.00  0.00    -0.508 OA
ATOM     26  H   UNL A   1      38.544  21.578  25.842  1.00  0.00     0.293 HD
ENDBRANCH  24  25
ENDBRANCH  12  13
ENDBRANCH   9  12
ENDBRANCH   7   8
BRANCH   7  27
ATOM     27  C   UNL A   1      30.449  27.876  22.612  1.00  0.00     0.068 C 
BRANCH  27  28
ATOM     28  C   UNL A   1      29.483  28.878  23.262  1.00  0.00    -0.037 C 
ATOM     29  C   UNL A   1      29.512  30.204  22.984  1.00  0.00     0.001 A 
ATOM     30  C   UNL A   1      28.073  28.417  23.246  1.00  0.00     0.174 C 
ATOM     31  C   UNL A   1      28.985  31.312  23.816  1.00  0.00     0.010 A 
ATOM     32  C   UNL A   1      28.468  30.092  21.925  1.00  0.00     0.065 A 
ATOM     33  N   UNL A   1      27.566  29.183  22.094  1.00  0.00    -0.280 NA
ATOM     34  C   UNL A   1      28.351  32.337  23.193  1.00  0.00     0.001 A 
ATOM     35  C   UNL A   1      28.380  31.241  21.021  1.00  0.00     0.028 A 
ATOM     36  C   UNL A   1      28.283  32.378  21.729  1.00  0.00     0.002 A 
ENDBRANCH  27  28
ENDBRANCH   7  27
ENDBRANCH   4   7
ENDBRANCH   2   3
ENDBRANCH   1   2
BRANCH   1  37
ATOM     37  C   UNL A   1      34.880  29.850  27.256  1.00  0.00     0.002 C 
BRANCH  37  38
ATOM     38  C   UNL A   1      34.184  30.985  28.031  1.00  0.00     0.002 C 
BRANCH  38  39
ATOM     39  C   UNL A   1      33.711  32.236  27.289  1.00  0.00     0.021 C 
BRANCH  39  40
ATOM     40  C   UNL A   1      32.291  32.712  27.527  1.00  0.00     0.116 C 
BRANCH  40  41
ATOM     41  N   UNL A   1      32.207  34.141  27.769  1.00  0.00    -0.352 N 
ATOM     42  C   UNL A   1      32.988  34.959  28.545  1.00  0.00     0.251 C 
ATOM     43  H   UNL A   1      31.470  34.596  27.302  1.00  0.00     0.163 HD
ATOM     44  O   UNL A   1      32.655  36.133  28.716  1.00  0.00    -0.269 OA
BRANCH  42  45
ATOM     45  C   UNL A   1      34.209  34.444  29.206  1.00  0.00     0.039 A 
ATOM     46  C   UNL A   1      35.470  34.619  28.635  1.00  0.00     0.014 A 
ATOM     47  C   UNL A   1      34.091  33.790  30.437  1.00  0.00     0.014 A 
ATOM     48  C   UNL A   1      36.577  33.995  29.200  1.00  0.00     0.010 A 
ATOM     49  C   UNL A   1      35.223  33.249  31.057  1.00  0.00     0.010 A 
ATOM     50  C   UNL A   1      36.472  33.306  30.421  1.00  0.00    -0.014 A 
BRANCH  50  51
ATOM     51  C   UNL A   1      37.690  32.684  31.005  1.00  0.00     0.031 A 
ATOM     52  C   UNL A   1      38.241  33.136  32.331  1.00  0.00     0.074 A 
ATOM     53  C   UNL A   1      38.262  31.648  30.360  1.00  0.00     0.049 A 
ATOM     54  N   UNL A   1      39.234  32.638  33.025  1.00  0.00    -0.248 NA
ATOM     55  C   UNL A   1      37.602  34.303  32.958  1.00  0.00     0.031 C 
ATOM     56  C   UNL A   1      37.832  31.123  29.061  1.00  0.00     0.029 A 
ATOM     57  N   UNL A   1      39.300  30.827  30.720  1.00  0.00    -0.354 N 
ATOM     58  C   UNL A   1      39.342  33.429  34.163  1.00  0.00     0.074 A 
ATOM     59  C   UNL A   1      38.343  34.469  34.044  1.00  0.00     0.031 C 
ATOM     60  C   UNL A   1      38.552  30.031  28.767  1.00  0.00     0.029 A 
ATOM     61  C   UNL A   1      39.536  29.815  29.821  1.00  0.00     0.049 A 
ATOM     62  H   UNL A   1      39.826  30.951  31.543  1.00  0.00     0.167 HD
ATOM     63  C   UNL A   1      40.185  33.293  35.217  1.00  0.00     0.037 A 
ATOM     64  C   UNL A   1      40.447  28.827  29.836  1.00  0.00     0.037 A 
ATOM     65  C   UNL A   1      41.183  32.259  35.332  1.00  0.00     0.049 A 
ATOM     66  C   UNL A   1      41.400  28.732  30.993  1.00  0.00     0.074 A 
ATOM     67  C   UNL A   1      42.069  32.023  36.369  1.00  0.00     0.029 A 
ATOM     68  N   UNL A   1      41.436  31.293  34.367  1.00  0.00    -0.354 N 
ATOM     69  N   UNL A   1      41.461  29.463  32.080  1.00  0.00    -0.248 NA
ATOM     70  C   UNL A   1      42.416  27.675  30.919  1.00  0.00     0.031 C 
ATOM     71  C   UNL A   1      42.893  30.951  36.009  1.00  0.00     0.029 A 
ATOM     72  C   UNL A   1      42.484  30.479  34.774  1.00  0.00     0.049 A 
ATOM     73  H   UNL A   1      40.945  31.199  33.520  1.00  0.00     0.167 HD
ATOM     74  C   UNL A   1      42.510  28.945  32.826  1.00  0.00     0.074 A 
ATOM     75  C   UNL A   1      43.032  27.816  32.084  1.00  0.00     0.031 C 
ATOM     76  C   UNL A   1      43.004  29.369  34.016  1.00  0.00     0.037 A 
BRANCH  63  77
ATOM     77  C   UNL A   1      40.074  34.305  36.323  1.00  0.00     0.057 A 
ATOM     78  C   UNL A   1      39.271  34.055  37.444  1.00  0.00     0.134 A 
ATOM     79  C   UNL A   1      40.740  35.538  36.274  1.00  0.00     0.134 A 
ATOM     80  F   UNL A   1      38.595  32.901  37.555  1.00  0.00    -0.206 F 
ATOM     81  C   UNL A   1      39.140  34.988  38.475  1.00  0.00     0.040 A 
ATOM     82  C   UNL A   1      40.641  36.467  37.313  1.00  0.00     0.040 A 
ATOM     83  F   UNL A   1      41.533  35.840  35.234  1.00  0.00    -0.206 F 
ATOM     84  C   UNL A   1      39.835  36.194  38.416  1.00  0.00     0.006 A 
ENDBRANCH  63  77
BRANCH  64  85
ATOM     85  C   UNL A   1      40.513  27.850  28.719  1.00  0.00     0.057 A 
ATOM     86  C   UNL A   1      39.798  26.647  28.762  1.00  0.00     0.134 A 
ATOM     87  C   UNL A   1      41.271  28.110  27.571  1.00  0.00     0.134 A 
ATOM     88  F   UNL A   1      39.058  26.335  29.836  1.00  0.00    -0.206 F 
ATOM     89  C   UNL A   1      39.838  25.735  27.707  1.00  0.00     0.040 A 
ATOM     90  C   UNL A   1      41.294  27.222  26.495  1.00  0.00     0.040 A 
ATOM     91  F   UNL A   1      41.963  29.254  27.463  1.00  0.00    -0.206 F 
ATOM     92  C   UNL A   1      40.579  26.027  26.563  1.00  0.00     0.006 A 
ENDBRANCH  64  85
BRANCH  76  93
ATOM     93  C   UNL A   1      44.155  28.587  34.583  1.00  0.00     0.057 A 
ATOM     94  C   UNL A   1      43.928  27.457  35.380  1.00  0.00     0.134 A 
ATOM     95  C   UNL A   1      45.488  28.935  34.323  1.00  0.00     0.134 A 
ATOM     96  F   UNL A   1      42.678  27.071  35.676  1.00  0.00    -0.206 F 
ATOM     97  C   UNL A   1      44.983  26.695  35.885  1.00  0.00     0.040 A 
ATOM     98  C   UNL A   1      46.550  28.162  34.795  1.00  0.00     0.040 A 
ATOM     99  F   UNL A   1      45.776  29.996  33.553  1.00  0.00    -0.206 F 
ATOM    100  C   UNL A   1      46.298  27.040  35.580  1.00  0.00     0.006 A 
ENDBRANCH  76  93
ENDBRANCH  50  51
ENDBRANCH  42  45
ENDBRANCH  40  41
ENDBRANCH  39  40
ENDBRANCH  38  39
ENDBRANCH  37  38
ENDBRANCH   1  37
TORSDOF 19
ENDMDL
MODEL 2
REMARK VINA RESULT:     -12.7      1.061      2.032
REMARK SMILES C[C@H]1c2ccc(O)cc2OC(=O)[C@@H]1CC(=O)N[C@@H](CC1=c2ccccc2=NC1)C(=O)NCCCCCCNC(=O)c1ccc(-c2c3nc(c(-c4c(F)cccc4F)c4ccc([nH]4)c(-c4c(F)cccc4F)c4nc(c(-c5c(F)cccc5F)c5ccc2[nH]5)C=C4)C=C3)cc1
REMARK SMILES IDX 33 1 32 2 31 3 29 4 30 5 18 7 17 8 15 9 16 10 14 12 13 13
REMARK SMILES IDX 1 14 2 15 3 16 4 17 9 18 11 19 5 20 8 21 10 22 12 23 6 24
REMARK SMILES IDX 7 25 19 27 20 28 21 29 28 30 22 31 26 32 27 33 23 34 25 35
REMARK SMILES IDX 24 36 34 37 35 38 36 39 37 40 38 41 39 42 40 44 41 45 42 46
REMARK SMILES IDX 94 47 43 48 93 49 44 50 45 51 46 52 87 53 47 54 92 55 86 56
REMARK SMILES IDX 88 57 48 58 91 59 85 60 84 61 49 63 75 64 58 65 74 66 59 67
REMARK SMILES IDX 62 68 73 69 89 70 60 71 61 72 72 74 90 75 63 76 50 77 51 78
REMARK SMILES IDX 56 79 52 80 53 81 55 82 57 83 54 84 76 85 77 86 82 87 78 88
REMARK SMILES IDX 79 89 81 90 83 91 80 92 64 93 65 94 70 95 66 96 67 97 69 98
REMARK SMILES IDX 71 99 68 100
REMARK H PARENT 31 6 17 11 7 26 38 43 88 62 62 73
REMARK Flexibility Score: inf
ROOT
ATOM      1  C   UNL A   1      34.008  28.497  26.467  1.00  0.00     0.021 C 
ENDROOT
BRANCH   1   2
ATOM      2  C   UNL A   1      33.640  28.612  24.998  1.00  0.00     0.116 C 
BRANCH   2   3
ATOM      3  N   UNL A   1      33.932  27.604  24.024  1.00  0.00    -0.354 N 
ATOM      4  C   UNL A   1      32.991  27.229  23.084  1.00  0.00     0.242 C 
ATOM      5  O   UNL A   1      33.389  27.101  21.919  1.00  0.00    -0.273 OA
ATOM      6  H   UNL A   1      34.817  27.172  24.025  1.00  0.00     0.163 HD
BRANCH   4   7
ATOM      7  C   UNL A   1      31.460  26.999  23.410  1.00  0.00     0.175 C 
BRANCH   7   8
ATOM      8  N   UNL A   1      31.054  26.705  24.789  1.00  0.00    -0.344 N 
ATOM      9  C   UNL A   1      30.854  25.499  25.397  1.00  0.00     0.221 C 
ATOM     10  O   UNL A   1      30.313  25.493  26.504  1.00  0.00    -0.275 OA
ATOM     11  H   UNL A   1      30.905  27.494  25.360  1.00  0.00     0.164 HD
BRANCH   9  12
ATOM     12  C   UNL A   1      31.349  24.200  24.768  1.00  0.00     0.116 C 
BRANCH  12  13
ATOM     13  C   UNL A   1      32.767  24.231  24.147  1.00  0.00     0.116 C 
ATOM     14  C   UNL A   1      34.350  23.201  22.413  1.00  0.00     0.014 C 
ATOM     15  C   UNL A   1      33.039  23.035  23.200  1.00  0.00     0.034 C 
ATOM     16  C   UNL A   1      33.041  21.763  24.022  1.00  0.00    -0.001 A 
ATOM     17  C   UNL A   1      32.693  20.528  23.468  1.00  0.00     0.011 A 
ATOM     18  C   UNL A   1      33.329  21.824  25.388  1.00  0.00     0.138 A 
ATOM     19  C   UNL A   1      33.866  24.134  25.180  1.00  0.00     0.315 C 
ATOM     20  C   UNL A   1      32.566  19.402  24.290  1.00  0.00     0.047 A 
ATOM     21  C   UNL A   1      33.158  20.726  26.225  1.00  0.00     0.093 A 
ATOM     22  O   UNL A   1      33.838  22.995  25.966  1.00  0.00    -0.426 OA
ATOM     23  O   UNL A   1      34.722  24.998  25.330  1.00  0.00    -0.251 OA
ATOM     24  C   UNL A   1      32.768  19.520  25.665  1.00  0.00     0.119 A 
BRANCH  24  25
ATOM     25  O   UNL A   1      32.600  18.457  26.501  1.00  0.00    -0.508 OA
ATOM     26  H   UNL A   1      32.312  18.593  27.382  1.00  0.00     0.293 HD
ENDBRANCH  24  25
ENDBRANCH  12  13
ENDBRANCH   9  12
ENDBRANCH   7   8
BRANCH   7  27
ATOM     27  C   UNL A   1      30.321  27.767  22.619  1.00  0.00     0.068 C 
BRANCH  27  28
ATOM     28  C   UNL A   1      29.391  28.816  23.246  1.00  0.00    -0.037 C 
ATOM     29  C   UNL A   1      29.491  30.138  22.969  1.00  0.00     0.001 A 
ATOM     30  C   UNL A   1      27.960  28.424  23.195  1.00  0.00     0.174 C 
ATOM     31  C   UNL A   1      29.000  31.272  23.789  1.00  0.00     0.010 A 
ATOM     32  C   UNL A   1      28.470  30.077  21.885  1.00  0.00     0.065 A 
ATOM     33  N   UNL A   1      27.520  29.214  22.031  1.00  0.00    -0.280 NA
ATOM     34  C   UNL A   1      28.432  32.326  23.150  1.00  0.00     0.001 A 
ATOM     35  C   UNL A   1      28.460  31.228  20.979  1.00  0.00     0.028 A 
ATOM     36  C   UNL A   1      28.403  32.370  21.685  1.00  0.00     0.002 A 
ENDBRANCH  27  28
ENDBRANCH   7  27
ENDBRANCH   4   7
ENDBRANCH   2   3
ENDBRANCH   1   2
BRANCH   1  37
ATOM     37  C   UNL A   1      34.826  29.649  27.075  1.00  0.00     0.002 C 
BRANCH  37  38
ATOM     38  C   UNL A   1      34.129  30.745  27.905  1.00  0.00     0.002 C 
BRANCH  38  39
ATOM     39  C   UNL A   1      33.768  32.081  27.254  1.00  0.00     0.021 C 
BRANCH  39  40
ATOM     40  C   UNL A   1      32.321  32.532  27.307  1.00  0.00     0.116 C 
BRANCH  40  41
ATOM     41  N   UNL A   1      32.181  33.940  27.633  1.00  0.00    -0.352 N 
ATOM     42  C   UNL A   1      32.918  34.738  28.470  1.00  0.00     0.251 C 
ATOM     43  H   UNL A   1      31.435  34.396  27.180  1.00  0.00     0.163 HD
ATOM     44  O   UNL A   1      32.538  35.887  28.704  1.00  0.00    -0.269 OA
BRANCH  42  45
ATOM     45  C   UNL A   1      34.146  34.229  29.122  1.00  0.00     0.039 A 
ATOM     46  C   UNL A   1      35.411  34.531  28.618  1.00  0.00     0.014 A 
ATOM     47  C   UNL A   1      34.029  33.448  30.277  1.00  0.00     0.014 A 
ATOM     48  C   UNL A   1      36.536  33.917  29.160  1.00  0.00     0.010 A 
ATOM     49  C   UNL A   1      35.171  32.912  30.882  1.00  0.00     0.010 A 
ATOM     50  C   UNL A   1      36.433  33.104  30.302  1.00  0.00    -0.014 A 
BRANCH  50  51
ATOM     51  C   UNL A   1      37.668  32.495  30.866  1.00  0.00     0.031 A 
ATOM     52  C   UNL A   1      38.264  32.990  32.157  1.00  0.00     0.074 A 
ATOM     53  C   UNL A   1      38.214  31.436  30.238  1.00  0.00     0.049 A 
ATOM     54  N   UNL A   1      39.277  32.510  32.835  1.00  0.00    -0.248 NA
ATOM     55  C   UNL A   1      37.650  34.180  32.765  1.00  0.00     0.031 C 
ATOM     56  C   UNL A   1      37.740  30.869  28.973  1.00  0.00     0.029 A 
ATOM     57  N   UNL A   1      39.260  30.622  30.592  1.00  0.00    -0.354 N 
ATOM     58  C   UNL A   1      39.425  33.338  33.941  1.00  0.00     0.074 A 
ATOM     59  C   UNL A   1      38.426  34.379  33.820  1.00  0.00     0.031 C 
ATOM     60  C   UNL A   1      38.445  29.764  28.693  1.00  0.00     0.029 A 
ATOM     61  C   UNL A   1      39.463  29.579  29.721  1.00  0.00     0.049 A 
ATOM     62  H   UNL A   1      39.813  30.771  31.393  1.00  0.00     0.167 HD
ATOM     63  C   UNL A   1      40.302  33.234  34.971  1.00  0.00     0.037 A 
ATOM     64  C   UNL A   1      40.371  28.587  29.740  1.00  0.00     0.037 A 
ATOM     65  C   UNL A   1      41.299  32.200  35.088  1.00  0.00     0.049 A 
ATOM     66  C   UNL A   1      41.361  28.528  30.867  1.00  0.00     0.074 A 
ATOM     67  C   UNL A   1      42.218  31.995  36.103  1.00  0.00     0.029 A 
ATOM     68  N   UNL A   1      41.517  31.201  34.150  1.00  0.00    -0.354 N 
ATOM     69  N   UNL A   1      41.460  29.294  31.926  1.00  0.00    -0.248 NA
ATOM     70  C   UNL A   1      42.370  27.463  30.796  1.00  0.00     0.031 C 
ATOM     71  C   UNL A   1      43.026  30.907  35.754  1.00  0.00     0.029 A 
ATOM     72  C   UNL A   1      42.575  30.395  34.549  1.00  0.00     0.049 A 
ATOM     73  H   UNL A   1      40.998  31.081  33.322  1.00  0.00     0.167 HD
ATOM     74  C   UNL A   1      42.531  28.797  32.655  1.00  0.00     0.074 A 
ATOM     75  C   UNL A   1      43.024  27.640  31.934  1.00  0.00     0.031 C 
ATOM     76  C   UNL A   1      43.066  29.258  33.812  1.00  0.00     0.037 A 
BRANCH  63  77
ATOM     77  C   UNL A   1      40.231  34.284  36.046  1.00  0.00     0.057 A 
ATOM     78  C   UNL A   1      41.070  35.406  36.007  1.00  0.00     0.134 A 
ATOM     79  C   UNL A   1      39.351  34.179  37.131  1.00  0.00     0.134 A 
ATOM     80  F   UNL A   1      41.945  35.568  35.003  1.00  0.00    -0.206 F 
ATOM     81  C   UNL A   1      41.032  36.384  37.003  1.00  0.00     0.040 A 
ATOM     82  C   UNL A   1      39.282  35.166  38.118  1.00  0.00     0.040 A 
ATOM     83  F   UNL A   1      38.512  33.135  37.228  1.00  0.00    -0.206 F 
ATOM     84  C   UNL A   1      40.129  36.270  38.057  1.00  0.00     0.006 A 
ENDBRANCH  63  77
BRANCH  64  85
ATOM     85  C   UNL A   1      40.396  27.573  28.655  1.00  0.00     0.057 A 
ATOM     86  C   UNL A   1      41.180  27.754  27.509  1.00  0.00     0.134 A 
ATOM     87  C   UNL A   1      39.656  26.388  28.751  1.00  0.00     0.134 A 
ATOM     88  F   UNL A   1      41.907  28.869  27.353  1.00  0.00    -0.206 F 
ATOM     89  C   UNL A   1      41.224  26.796  26.496  1.00  0.00     0.040 A 
ATOM     90  C   UNL A   1      39.717  25.408  27.760  1.00  0.00     0.040 A 
ATOM     91  F   UNL A   1      38.900  26.150  29.833  1.00  0.00    -0.206 F 
ATOM     92  C   UNL A   1      40.500  25.612  26.626  1.00  0.00     0.006 A 
ENDBRANCH  64  85
BRANCH  76  93
ATOM     93  C   UNL A   1      44.231  28.490  34.368  1.00  0.00     0.057 A 
ATOM     94  C   UNL A   1      45.544  28.828  34.018  1.00  0.00     0.134 A 
ATOM     95  C   UNL A   1      44.058  27.430  35.270  1.00  0.00     0.134 A 
ATOM     96  F   UNL A   1      45.783  29.826  33.154  1.00  0.00    -0.206 F 
ATOM     97  C   UNL A   1      46.641  28.151  34.552  1.00  0.00     0.040 A 
ATOM     98  C   UNL A   1      45.147  26.767  35.837  1.00  0.00     0.040 A 
ATOM     99  F   UNL A   1      42.827  27.064  35.661  1.00  0.00    -0.206 F 
ATOM    100  C   UNL A   1      46.444  27.126  35.476  1.00  0.00     0.006 A 
ENDBRANCH  76  93
ENDBRANCH  50  51
ENDBRANCH  42  45
ENDBRANCH  40  41
ENDBRANCH  39  40
ENDBRANCH  38  39
ENDBRANCH  37  38
ENDBRANCH   1  37
TORSDOF 19
ENDMDL
MODEL 3
REMARK VINA RESULT:     -12.6      4.267      9.901
REMARK SMILES C[C@H]1c2ccc(O)cc2OC(=O)[C@@H]1CC(=O)N[C@@H](CC1=c2ccccc2=NC1)C(=O)NCCCCCCNC(=O)c1ccc(-c2c3nc(c(-c4c(F)cccc4F)c4ccc([nH]4)c(-c4c(F)cccc4F)c4nc(c(-c5c(F)cccc5F)c5ccc2[nH]5)C=C4)C=C3)cc1
REMARK SMILES IDX 33 1 32 2 31 3 29 4 30 5 18 7 17 8 15 9 16 10 14 12 13 13
REMARK SMILES IDX 1 14 2 15 3 16 4 17 9 18 11 19 5 20 8 21 10 22 12 23 6 24
REMARK SMILES IDX 7 25 19 27 20 28 21 29 28 30 22 31 26 32 27 33 23 34 25 35
REMARK SMILES IDX 24 36 34 37 35 38 36 39 37 40 38 41 39 42 40 44 41 45 42 46
REMARK SMILES IDX 94 47 43 48 93 49 44 50 45 51 46 52 87 53 47 54 92 55 86 56
REMARK SMILES IDX 88 57 48 58 91 59 85 60 84 61 49 63 75 64 58 65 74 66 59 67
REMARK SMILES IDX 62 68 73 69 89 70 60 71 61 72 72 74 90 75 63 76 50 77 51 78
REMARK SMILES IDX 56 79 52 80 53 81 55 82 57 83 54 84 76 85 77 86 82 87 78 88
REMARK SMILES IDX 79 89 81 90 83 91 80 92 64 93 65 94 70 95 66 96 67 97 69 98
REMARK SMILES IDX 71 99 68 100
REMARK H PARENT 31 6 17 11 7 26 38 43 88 62 62 73
REMARK Flexibility Score: inf
ROOT
ATOM      1  C   UNL A   1      37.554  22.710  25.413  1.00  0.00     0.021 C 
ENDROOT
BRANCH   1   2
ATOM      2  C   UNL A   1      36.545  23.687  24.835  1.00  0.00     0.116 C 
BRANCH   2   3
ATOM      3  N   UNL A   1      35.403  24.168  25.553  1.00  0.00    -0.354 N 
ATOM      4  C   UNL A   1      34.180  23.531  25.453  1.00  0.00     0.242 C 
ATOM      5  O   UNL A   1      33.560  23.350  26.509  1.00  0.00    -0.273 OA
ATOM      6  H   UNL A   1      35.491  24.964  26.126  1.00  0.00     0.163 HD
BRANCH   4   7
ATOM      7  C   UNL A   1      33.570  23.001  24.094  1.00  0.00     0.175 C 
BRANCH   7   8
ATOM      8  N   UNL A   1      33.810  23.750  22.855  1.00  0.00    -0.344 N 
ATOM      9  C   UNL A   1      33.395  25.002  22.503  1.00  0.00     0.221 C 
ATOM     10  O   UNL A   1      33.537  25.349  21.329  1.00  0.00    -0.275 OA
ATOM     11  H   UNL A   1      34.352  23.281  22.179  1.00  0.00     0.164 HD
BRANCH   9  12
ATOM     12  C   UNL A   1      32.837  25.974  23.537  1.00  0.00     0.116 C 
BRANCH  12  13
ATOM     13  C   UNL A   1      31.315  25.894  23.810  1.00  0.00     0.116 C 
ATOM     14  C   UNL A   1      29.078  27.147  23.762  1.00  0.00     0.014 C 
ATOM     15  C   UNL A   1      30.611  27.272  23.725  1.00  0.00     0.034 C 
ATOM     16  C   UNL A   1      31.126  28.144  24.850  1.00  0.00    -0.001 A 
ATOM     17  C   UNL A   1      31.156  29.538  24.746  1.00  0.00     0.011 A 
ATOM     18  C   UNL A   1      31.651  27.550  26.000  1.00  0.00     0.138 A 
ATOM     19  C   UNL A   1      30.990  25.406  25.202  1.00  0.00     0.315 C 
ATOM     20  C   UNL A   1      31.771  30.302  25.745  1.00  0.00     0.047 A 
ATOM     21  C   UNL A   1      32.310  28.290  26.976  1.00  0.00     0.093 A 
ATOM     22  O   UNL A   1      31.503  26.175  26.232  1.00  0.00    -0.426 OA
ATOM     23  O   UNL A   1      30.329  24.397  25.422  1.00  0.00    -0.251 OA
ATOM     24  C   UNL A   1      32.370  29.668  26.833  1.00  0.00     0.119 A 
BRANCH  24  25
ATOM     25  O   UNL A   1      33.024  30.378  27.795  1.00  0.00    -0.508 OA
ATOM     26  H   UNL A   1      32.544  30.936  28.375  1.00  0.00     0.293 HD
ENDBRANCH  24  25
ENDBRANCH  12  13
ENDBRANCH   9  12
ENDBRANCH   7   8
BRANCH   7  27
ATOM     27  C   UNL A   1      33.399  21.451  23.812  1.00  0.00     0.068 C 
BRANCH  27  28
ATOM     28  C   UNL A   1      33.519  20.359  24.886  1.00  0.00    -0.037 C 
ATOM     29  C   UNL A   1      32.943  19.139  24.754  1.00  0.00     0.001 A 
ATOM     30  C   UNL A   1      34.907  20.181  25.378  1.00  0.00     0.174 C 
ATOM     31  C   UNL A   1      32.596  18.184  25.833  1.00  0.00     0.010 A 
ATOM     32  C   UNL A   1      34.176  18.524  24.184  1.00  0.00     0.065 A 
ATOM     33  N   UNL A   1      35.305  18.995  24.601  1.00  0.00    -0.280 NA
ATOM     34  C   UNL A   1      32.815  16.863  25.615  1.00  0.00     0.001 A 
ATOM     35  C   UNL A   1      33.970  17.241  23.508  1.00  0.00     0.028 A 
ATOM     36  C   UNL A   1      33.291  16.402  24.308  1.00  0.00     0.002 A 
ENDBRANCH  27  28
ENDBRANCH   7  27
ENDBRANCH   4   7
ENDBRANCH   2   3
ENDBRANCH   1   2
BRANCH   1  37
ATOM     37  C   UNL A   1      38.598  23.279  26.388  1.00  0.00     0.002 C 
BRANCH  37  38
ATOM     38  C   UNL A   1      39.820  22.435  26.799  1.00  0.00     0.002 C 
BRANCH  38  39
ATOM     39  C   UNL A   1      39.951  20.993  26.307  1.00  0.00     0.021 C 
BRANCH  39  40
ATOM     40  C   UNL A   1      41.010  20.115  26.946  1.00  0.00     0.116 C 
BRANCH  40  41
ATOM     41  N   UNL A   1      42.118  19.828  26.054  1.00  0.00    -0.352 N 
ATOM     42  C   UNL A   1      43.163  20.618  25.648  1.00  0.00     0.251 C 
ATOM     43  H   UNL A   1      42.120  18.917  25.678  1.00  0.00     0.163 HD
ATOM     44  O   UNL A   1      43.927  20.211  24.771  1.00  0.00    -0.269 OA
BRANCH  42  45
ATOM     45  C   UNL A   1      43.367  21.966  26.225  1.00  0.00     0.039 A 
ATOM     46  C   UNL A   1      43.667  22.137  27.577  1.00  0.00     0.014 A 
ATOM     47  C   UNL A   1      43.277  23.085  25.389  1.00  0.00     0.014 A 
ATOM     48  C   UNL A   1      43.702  23.417  28.121  1.00  0.00     0.010 A 
ATOM     49  C   UNL A   1      43.415  24.372  25.920  1.00  0.00     0.010 A 
ATOM     50  C   UNL A   1      43.584  24.553  27.300  1.00  0.00    -0.014 A 
BRANCH  50  51
ATOM     51  C   UNL A   1      43.663  25.902  27.922  1.00  0.00     0.031 A 
ATOM     52  C   UNL A   1      44.986  26.586  28.138  1.00  0.00     0.074 A 
ATOM     53  C   UNL A   1      42.518  26.544  28.227  1.00  0.00     0.049 A 
ATOM     54  N   UNL A   1      45.226  27.798  28.576  1.00  0.00    -0.248 NA
ATOM     55  C   UNL A   1      46.198  25.812  27.831  1.00  0.00     0.031 C 
ATOM     56  C   UNL A   1      41.172  25.984  28.077  1.00  0.00     0.029 A 
ATOM     57  N   UNL A   1      42.296  27.816  28.689  1.00  0.00    -0.354 N 
ATOM     58  C   UNL A   1      46.609  27.929  28.603  1.00  0.00     0.074 A 
ATOM     59  C   UNL A   1      47.157  26.657  28.180  1.00  0.00     0.031 C 
ATOM     60  C   UNL A   1      40.267  26.927  28.374  1.00  0.00     0.029 A 
ATOM     61  C   UNL A   1      40.964  28.136  28.796  1.00  0.00     0.049 A 
ATOM     62  H   UNL A   1      43.022  28.440  28.922  1.00  0.00     0.167 HD
ATOM     63  C   UNL A   1      47.355  29.012  28.934  1.00  0.00     0.037 A 
ATOM     64  C   UNL A   1      40.368  29.272  29.197  1.00  0.00     0.037 A 
ATOM     65  C   UNL A   1      46.808  30.276  29.359  1.00  0.00     0.049 A 
ATOM     66  C   UNL A   1      41.221  30.438  29.605  1.00  0.00     0.074 A 
ATOM     67  C   UNL A   1      47.479  31.440  29.695  1.00  0.00     0.029 A 
ATOM     68  N   UNL A   1      45.455  30.539  29.521  1.00  0.00    -0.354 N 
ATOM     69  N   UNL A   1      42.526  30.559  29.584  1.00  0.00    -0.248 NA
ATOM     70  C   UNL A   1      40.513  31.626  30.099  1.00  0.00     0.031 C 
ATOM     71  C   UNL A   1      46.537  32.388  30.111  1.00  0.00     0.029 A 
ATOM     72  C   UNL A   1      45.273  31.836  29.979  1.00  0.00     0.049 A 
ATOM     73  H   UNL A   1      44.730  29.899  29.337  1.00  0.00     0.167 HD
ATOM     74  C   UNL A   1      42.795  31.840  30.047  1.00  0.00     0.074 A 
ATOM     75  C   UNL A   1      41.515  32.467  30.305  1.00  0.00     0.031 C 
ATOM     76  C   UNL A   1      43.994  32.442  30.248  1.00  0.00     0.037 A 
BRANCH  63  77
ATOM     77  C   UNL A   1      48.850  28.866  28.867  1.00  0.00     0.057 A 
ATOM     78  C   UNL A   1      49.535  29.061  27.660  1.00  0.00     0.134 A 
ATOM     79  C   UNL A   1      49.615  28.512  29.987  1.00  0.00     0.134 A 
ATOM     80  F   UNL A   1      48.868  29.392  26.543  1.00  0.00    -0.206 F 
ATOM     81  C   UNL A   1      50.920  28.914  27.571  1.00  0.00     0.040 A 
ATOM     82  C   UNL A   1      51.005  28.392  29.918  1.00  0.00     0.040 A 
ATOM     83  F   UNL A   1      49.026  28.319  31.178  1.00  0.00    -0.206 F 
ATOM     84  C   UNL A   1      51.661  28.589  28.705  1.00  0.00     0.006 A 
ENDBRANCH  63  77
BRANCH  64  85
ATOM     85  C   UNL A   1      38.886  29.365  29.242  1.00  0.00     0.057 A 
ATOM     86  C   UNL A   1      38.186  29.252  30.450  1.00  0.00     0.134 A 
ATOM     87  C   UNL A   1      38.137  29.594  28.082  1.00  0.00     0.134 A 
ATOM     88  F   UNL A   1      38.844  29.026  31.597  1.00  0.00    -0.206 F 
ATOM     89  C   UNL A   1      36.797  29.359  30.503  1.00  0.00     0.040 A 
ATOM     90  C   UNL A   1      36.750  29.736  28.125  1.00  0.00     0.040 A 
ATOM     91  F   UNL A   1      38.751  29.729  26.897  1.00  0.00    -0.206 F 
ATOM     92  C   UNL A   1      36.075  29.614  29.339  1.00  0.00     0.006 A 
ENDBRANCH  64  85
BRANCH  76  93
ATOM     93  C   UNL A   1      43.959  33.856  30.755  1.00  0.00     0.057 A 
ATOM     94  C   UNL A   1      43.866  34.933  29.864  1.00  0.00     0.134 A 
ATOM     95  C   UNL A   1      43.993  34.154  32.124  1.00  0.00     0.134 A 
ATOM     96  F   UNL A   1      43.838  34.722  28.539  1.00  0.00    -0.206 F 
ATOM     97  C   UNL A   1      43.795  36.251  30.315  1.00  0.00     0.040 A 
ATOM     98  C   UNL A   1      43.888  35.466  32.589  1.00  0.00     0.040 A 
ATOM     99  F   UNL A   1      44.064  33.168  33.033  1.00  0.00    -0.206 F 
ATOM    100  C   UNL A   1      43.792  36.519  31.683  1.00  0.00     0.006 A 
ENDBRANCH  76  93
ENDBRANCH  50  51
ENDBRANCH  42  45
ENDBRANCH  40  41
ENDBRANCH  39  40
ENDBRANCH  38  39
ENDBRANCH  37  38
ENDBRANCH   1  37
TORSDOF 19
ENDMDL
