MODEL 1
REMARK VINA RESULT:     -11.9      0.000      0.000
REMARK SMILES O=C(NCCCCCCNC(=O)c1cccn1CC(=O)N1CCc2ccccc2C1)c1ccc(-c2c3nc(c(-c4c(F)cccc4F)c4ccc([nH]4)c(-c4c(F)cccc4F)c4nc(c(-c5c(F)cccc5F)c5ccc2[nH]5)C=C4)C=C3)cc1
REMARK SMILES IDX 7 1 6 2 5 3 4 4 3 5 1 6 2 7 31 9 32 10 84 11 33 12 83 13
REMARK SMILES IDX 34 14 35 15 36 16 77 17 37 18 82 19 76 20 78 21 38 22 81 23
REMARK SMILES IDX 75 24 74 25 39 27 65 28 48 29 64 30 49 31 52 32 63 33 79 34
REMARK SMILES IDX 50 35 51 36 62 38 80 39 53 40 40 41 41 42 46 43 42 44 43 45
REMARK SMILES IDX 45 46 47 47 44 48 66 49 67 50 72 51 68 52 69 53 71 54 73 55
REMARK SMILES IDX 70 56 54 57 55 58 60 59 56 60 57 61 59 62 61 63 58 64 8 65
REMARK SMILES IDX 9 66 10 67 11 68 12 70 13 71 14 72 17 73 15 74 16 75 18 76
REMARK SMILES IDX 19 77 20 78 21 79 22 80 30 81 23 82 29 83 24 84 28 85 25 86
REMARK SMILES IDX 27 87 26 88
REMARK H PARENT 3 8 78 26 52 37 10 69
REMARK Flexibility Score: inf
ROOT
ATOM      1  C   UNL A   1      36.554  22.168  25.706  1.00  0.00     0.002 C 
ENDROOT
BRANCH   1   2
ATOM      2  C   UNL A   1      36.246  20.801  25.095  1.00  0.00     0.002 C 
BRANCH   2   3
ATOM      3  C   UNL A   1      37.454  19.884  24.903  1.00  0.00     0.021 C 
BRANCH   3   4
ATOM      4  C   UNL A   1      38.738  20.352  25.593  1.00  0.00     0.116 C 
BRANCH   4   5
ATOM      5  N   UNL A   1      39.820  19.385  25.629  1.00  0.00    -0.352 N 
ATOM      6  O   UNL A   1      41.823  18.465  26.045  1.00  0.00    -0.269 OA
ATOM      7  C   UNL A   1      41.121  19.475  26.052  1.00  0.00     0.251 C 
ATOM      8  H   UNL A   1      39.572  18.496  25.287  1.00  0.00     0.163 HD
BRANCH   7   9
ATOM      9  C   UNL A   1      41.729  20.768  26.435  1.00  0.00     0.039 A 
ATOM     10  C   UNL A   1      42.122  21.724  25.498  1.00  0.00     0.014 A 
ATOM     11  C   UNL A   1      41.894  21.026  27.806  1.00  0.00     0.014 A 
ATOM     12  C   UNL A   1      42.775  22.873  25.914  1.00  0.00     0.010 A 
ATOM     13  C   UNL A   1      42.507  22.203  28.234  1.00  0.00     0.010 A 
ATOM     14  C   UNL A   1      42.951  23.123  27.281  1.00  0.00    -0.014 A 
BRANCH  14  15
ATOM     15  C   UNL A   1      43.379  24.493  27.639  1.00  0.00     0.031 A 
ATOM     16  C   UNL A   1      42.156  25.416  27.801  1.00  0.00     0.074 A 
ATOM     17  C   UNL A   1      44.720  24.757  27.638  1.00  0.00     0.049 A 
ATOM     18  N   UNL A   1      42.015  26.669  27.498  1.00  0.00    -0.248 NA
ATOM     19  C   UNL A   1      40.868  24.833  28.273  1.00  0.00     0.031 C 
ATOM     20  C   UNL A   1      45.773  23.730  27.503  1.00  0.00     0.029 A 
ATOM     21  N   UNL A   1      45.476  25.912  27.729  1.00  0.00    -0.354 N 
ATOM     22  C   UNL A   1      40.725  27.066  27.913  1.00  0.00     0.074 A 
ATOM     23  C   UNL A   1      40.026  25.867  28.263  1.00  0.00     0.031 C 
ATOM     24  C   UNL A   1      46.996  24.299  27.437  1.00  0.00     0.029 A 
ATOM     25  C   UNL A   1      46.874  25.743  27.526  1.00  0.00     0.049 A 
ATOM     26  H   UNL A   1      45.075  26.790  27.922  1.00  0.00     0.167 HD
ATOM     27  C   UNL A   1      40.361  28.372  28.072  1.00  0.00     0.037 A 
ATOM     28  C   UNL A   1      47.857  26.692  27.389  1.00  0.00     0.037 A 
ATOM     29  C   UNL A   1      41.449  29.220  27.724  1.00  0.00     0.049 A 
ATOM     30  C   UNL A   1      47.195  27.978  27.641  1.00  0.00     0.074 A 
ATOM     31  C   UNL A   1      41.999  29.569  26.521  1.00  0.00     0.029 A 
ATOM     32  N   UNL A   1      42.316  29.549  28.736  1.00  0.00    -0.354 N 
ATOM     33  N   UNL A   1      46.837  28.409  28.813  1.00  0.00    -0.248 NA
ATOM     34  C   UNL A   1      46.842  28.827  26.495  1.00  0.00     0.031 C 
ATOM     35  C   UNL A   1      43.373  29.684  26.811  1.00  0.00     0.029 A 
ATOM     36  C   UNL A   1      43.574  29.598  28.194  1.00  0.00     0.049 A 
ATOM     37  H   UNL A   1      42.079  29.718  29.677  1.00  0.00     0.167 HD
ATOM     38  C   UNL A   1      45.927  29.388  28.493  1.00  0.00     0.074 A 
ATOM     39  C   UNL A   1      46.234  29.815  27.146  1.00  0.00     0.031 C 
ATOM     40  C   UNL A   1      44.699  29.361  29.069  1.00  0.00     0.037 A 
BRANCH  27  41
ATOM     41  C   UNL A   1      39.195  29.030  28.753  1.00  0.00     0.057 A 
ATOM     42  C   UNL A   1      39.014  28.799  30.139  1.00  0.00     0.134 A 
ATOM     43  C   UNL A   1      38.087  29.541  28.072  1.00  0.00     0.134 A 
ATOM     44  F   UNL A   1      40.026  28.359  30.904  1.00  0.00    -0.206 F 
ATOM     45  C   UNL A   1      37.774  28.925  30.768  1.00  0.00     0.040 A 
ATOM     46  C   UNL A   1      36.849  29.717  28.706  1.00  0.00     0.040 A 
ATOM     47  F   UNL A   1      38.133  29.795  26.758  1.00  0.00    -0.206 F 
ATOM     48  C   UNL A   1      36.678  29.365  30.043  1.00  0.00     0.006 A 
ENDBRANCH  27  41
BRANCH  28  49
ATOM     49  C   UNL A   1      49.322  26.773  27.001  1.00  0.00     0.057 A 
ATOM     50  C   UNL A   1      50.360  27.287  27.781  1.00  0.00     0.134 A 
ATOM     51  C   UNL A   1      49.767  26.255  25.748  1.00  0.00     0.134 A 
ATOM     52  F   UNL A   1      50.119  27.933  28.927  1.00  0.00    -0.206 F 
ATOM     53  C   UNL A   1      51.718  27.187  27.405  1.00  0.00     0.040 A 
ATOM     54  C   UNL A   1      51.109  26.110  25.379  1.00  0.00     0.040 A 
ATOM     55  F   UNL A   1      48.913  25.856  24.796  1.00  0.00    -0.206 F 
ATOM     56  C   UNL A   1      52.099  26.563  26.222  1.00  0.00     0.006 A 
ENDBRANCH  28  49
BRANCH  40  57
ATOM     57  C   UNL A   1      44.669  28.674  30.421  1.00  0.00     0.057 A 
ATOM     58  C   UNL A   1      45.367  29.224  31.504  1.00  0.00     0.134 A 
ATOM     59  C   UNL A   1      44.091  27.418  30.655  1.00  0.00     0.134 A 
ATOM     60  F   UNL A   1      45.949  30.428  31.387  1.00  0.00    -0.206 F 
ATOM     61  C   UNL A   1      45.501  28.554  32.729  1.00  0.00     0.040 A 
ATOM     62  C   UNL A   1      44.205  26.736  31.873  1.00  0.00     0.040 A 
ATOM     63  F   UNL A   1      43.402  26.798  29.700  1.00  0.00    -0.206 F 
ATOM     64  C   UNL A   1      44.924  27.302  32.916  1.00  0.00     0.006 A 
ENDBRANCH  40  57
ENDBRANCH  14  15
ENDBRANCH   7   9
ENDBRANCH   4   5
ENDBRANCH   3   4
ENDBRANCH   2   3
ENDBRANCH   1   2
BRANCH   1  65
ATOM     65  C   UNL A   1      36.407  23.363  24.760  1.00  0.00     0.021 C 
BRANCH  65  66
ATOM     66  C   UNL A   1      35.774  23.065  23.401  1.00  0.00     0.116 C 
BRANCH  66  67
ATOM     67  N   UNL A   1      34.566  23.843  23.204  1.00  0.00    -0.351 N 
ATOM     68  C   UNL A   1      33.249  23.468  23.303  1.00  0.00     0.267 C 
ATOM     69  H   UNL A   1      34.714  24.786  22.962  1.00  0.00     0.163 HD
ATOM     70  O   UNL A   1      32.401  24.230  22.853  1.00  0.00    -0.268 OA
BRANCH  68  71
ATOM     71  C   UNL A   1      32.920  22.184  23.894  1.00  0.00     0.107 A 
ATOM     72  C   UNL A   1      32.745  20.961  23.262  1.00  0.00     0.033 A 
ATOM     73  N   UNL A   1      32.786  21.944  25.255  1.00  0.00    -0.334 N 
ATOM     74  C   UNL A   1      32.502  19.978  24.247  1.00  0.00     0.020 A 
ATOM     75  C   UNL A   1      32.548  20.607  25.469  1.00  0.00     0.087 A 
BRANCH  73  76
ATOM     76  C   UNL A   1      32.937  22.937  26.314  1.00  0.00     0.222 C 
BRANCH  76  77
ATOM     77  C   UNL A   1      31.760  23.856  26.617  1.00  0.00     0.242 C 
ATOM     78  O   UNL A   1      30.916  23.468  27.436  1.00  0.00    -0.273 OA
BRANCH  77  79
ATOM     79  N   UNL A   1      31.733  25.166  26.142  1.00  0.00    -0.336 N 
ATOM     80  C   UNL A   1      30.511  25.866  25.749  1.00  0.00     0.124 C 
ATOM     81  C   UNL A   1      32.996  25.915  26.154  1.00  0.00     0.155 C 
ATOM     82  C   UNL A   1      30.707  27.155  24.961  1.00  0.00     0.057 C 
ATOM     83  C   UNL A   1      32.863  27.420  26.161  1.00  0.00    -0.025 A 
ATOM     84  C   UNL A   1      31.738  28.033  25.592  1.00  0.00    -0.041 A 
ATOM     85  C   UNL A   1      33.902  28.224  26.644  1.00  0.00     0.006 A 
ATOM     86  C   UNL A   1      31.640  29.427  25.538  1.00  0.00     0.004 A 
ATOM     87  C   UNL A   1      33.802  29.615  26.589  1.00  0.00     0.000 A 
ATOM     88  C   UNL A   1      32.668  30.216  26.045  1.00  0.00     0.000 A 
ENDBRANCH  77  79
ENDBRANCH  76  77
ENDBRANCH  73  76
ENDBRANCH  68  71
ENDBRANCH  66  67
ENDBRANCH  65  66
ENDBRANCH   1  65
TORSDOF 16
ENDMDL
MODEL 2
REMARK VINA RESULT:     -11.8      1.438      3.779
REMARK SMILES O=C(NCCCCCCNC(=O)c1cccn1CC(=O)N1CCc2ccccc2C1)c1ccc(-c2c3nc(c(-c4c(F)cccc4F)c4ccc([nH]4)c(-c4c(F)cccc4F)c4nc(c(-c5c(F)cccc5F)c5ccc2[nH]5)C=C4)C=C3)cc1
REMARK SMILES IDX 7 1 6 2 5 3 4 4 3 5 1 6 2 7 31 9 32 10 84 11 33 12 83 13
REMARK SMILES IDX 34 14 35 15 36 16 77 17 37 18 82 19 76 20 78 21 38 22 81 23
REMARK SMILES IDX 75 24 74 25 39 27 65 28 48 29 64 30 49 31 52 32 63 33 79 34
REMARK SMILES IDX 50 35 51 36 62 38 80 39 53 40 40 41 41 42 46 43 42 44 43 45
REMARK SMILES IDX 45 46 47 47 44 48 66 49 67 50 72 51 68 52 69 53 71 54 73 55
REMARK SMILES IDX 70 56 54 57 55 58 60 59 56 60 57 61 59 62 61 63 58 64 8 65
REMARK SMILES IDX 9 66 10 67 11 68 12 70 13 71 14 72 17 73 15 74 16 75 18 76
REMARK SMILES IDX 19 77 20 78 21 79 22 80 30 81 23 82 29 83 24 84 28 85 25 86
REMARK SMILES IDX 27 87 26 88
REMARK H PARENT 3 8 78 26 52 37 10 69
REMARK Flexibility Score: inf
ROOT
ATOM      1  C   UNL A   1      37.317  23.145  25.761  1.00  0.00     0.002 C 
ENDROOT
BRANCH   1   2
ATOM      2  C   UNL A   1      38.586  22.321  25.979  1.00  0.00     0.002 C 
BRANCH   2   3
ATOM      3  C   UNL A   1      38.676  21.031  25.164  1.00  0.00     0.021 C 
BRANCH   3   4
ATOM      4  C   UNL A   1      38.777  19.748  25.993  1.00  0.00     0.116 C 
BRANCH   4   5
ATOM      5  N   UNL A   1      39.959  18.938  25.757  1.00  0.00    -0.352 N 
ATOM      6  O   UNL A   1      42.101  18.273  25.747  1.00  0.00    -0.269 OA
ATOM      7  C   UNL A   1      41.293  19.174  25.967  1.00  0.00     0.251 C 
ATOM      8  H   UNL A   1      39.765  18.052  25.374  1.00  0.00     0.163 HD
BRANCH   7   9
ATOM      9  C   UNL A   1      41.796  20.505  26.370  1.00  0.00     0.039 A 
ATOM     10  C   UNL A   1      42.201  21.470  25.448  1.00  0.00     0.014 A 
ATOM     11  C   UNL A   1      41.845  20.791  27.746  1.00  0.00     0.014 A 
ATOM     12  C   UNL A   1      42.755  22.661  25.890  1.00  0.00     0.010 A 
ATOM     13  C   UNL A   1      42.356  22.007  28.196  1.00  0.00     0.010 A 
ATOM     14  C   UNL A   1      42.816  22.939  27.261  1.00  0.00    -0.014 A 
BRANCH  14  15
ATOM     15  C   UNL A   1      43.136  24.336  27.625  1.00  0.00     0.031 A 
ATOM     16  C   UNL A   1      41.848  25.171  27.755  1.00  0.00     0.074 A 
ATOM     17  C   UNL A   1      44.455  24.695  27.654  1.00  0.00     0.049 A 
ATOM     18  N   UNL A   1      41.626  26.410  27.445  1.00  0.00    -0.248 NA
ATOM     19  C   UNL A   1      40.594  24.498  28.199  1.00  0.00     0.031 C 
ATOM     20  C   UNL A   1      45.581  23.745  27.547  1.00  0.00     0.029 A 
ATOM     21  N   UNL A   1      45.125  25.901  27.759  1.00  0.00    -0.354 N 
ATOM     22  C   UNL A   1      40.301  26.715  27.829  1.00  0.00     0.074 A 
ATOM     23  C   UNL A   1      39.681  25.470  28.167  1.00  0.00     0.031 C 
ATOM     24  C   UNL A   1      46.762  24.399  27.507  1.00  0.00     0.029 A 
ATOM     25  C   UNL A   1      46.536  25.831  27.589  1.00  0.00     0.049 A 
ATOM     26  H   UNL A   1      44.658  26.748  27.940  1.00  0.00     0.167 HD
ATOM     27  C   UNL A   1      39.842  27.993  27.976  1.00  0.00     0.037 A 
ATOM     28  C   UNL A   1      47.452  26.847  27.473  1.00  0.00     0.037 A 
ATOM     29  C   UNL A   1      40.874  28.915  27.650  1.00  0.00     0.049 A 
ATOM     30  C   UNL A   1      46.695  28.084  27.705  1.00  0.00     0.074 A 
ATOM     31  C   UNL A   1      41.427  29.300  26.460  1.00  0.00     0.029 A 
ATOM     32  N   UNL A   1      41.693  29.305  28.682  1.00  0.00    -0.354 N 
ATOM     33  N   UNL A   1      46.280  28.490  28.867  1.00  0.00    -0.248 NA
ATOM     34  C   UNL A   1      46.309  28.903  26.549  1.00  0.00     0.031 C 
ATOM     35  C   UNL A   1      42.782  29.513  26.781  1.00  0.00     0.029 A 
ATOM     36  C   UNL A   1      42.956  29.443  28.169  1.00  0.00     0.049 A 
ATOM     37  H   UNL A   1      41.421  29.459  29.616  1.00  0.00     0.167 HD
ATOM     38  C   UNL A   1      45.311  29.401  28.523  1.00  0.00     0.074 A 
ATOM     39  C   UNL A   1      45.617  29.847  27.182  1.00  0.00     0.031 C 
ATOM     40  C   UNL A   1      44.074  29.288  29.071  1.00  0.00     0.037 A 
BRANCH  27  41
ATOM     41  C   UNL A   1      38.617  28.566  28.627  1.00  0.00     0.057 A 
ATOM     42  C   UNL A   1      37.936  29.615  27.963  1.00  0.00     0.134 A 
ATOM     43  C   UNL A   1      38.312  28.406  29.982  1.00  0.00     0.134 A 
ATOM     44  F   UNL A   1      38.110  29.829  26.648  1.00  0.00    -0.206 F 
ATOM     45  C   UNL A   1      37.125  30.533  28.635  1.00  0.00     0.040 A 
ATOM     46  C   UNL A   1      37.462  29.294  30.656  1.00  0.00     0.040 A 
ATOM     47  F   UNL A   1      38.896  27.454  30.720  1.00  0.00    -0.206 F 
ATOM     48  C   UNL A   1      36.904  30.386  29.995  1.00  0.00     0.006 A 
ENDBRANCH  27  41
BRANCH  28  49
ATOM     49  C   UNL A   1      48.916  27.032  27.119  1.00  0.00     0.057 A 
ATOM     50  C   UNL A   1      49.511  26.767  25.884  1.00  0.00     0.134 A 
ATOM     51  C   UNL A   1      49.830  27.565  28.077  1.00  0.00     0.134 A 
ATOM     52  F   UNL A   1      48.844  26.143  24.907  1.00  0.00    -0.206 F 
ATOM     53  C   UNL A   1      50.851  27.110  25.593  1.00  0.00     0.040 A 
ATOM     54  C   UNL A   1      51.145  27.948  27.794  1.00  0.00     0.040 A 
ATOM     55  F   UNL A   1      49.493  27.744  29.361  1.00  0.00    -0.206 F 
ATOM     56  C   UNL A   1      51.659  27.737  26.534  1.00  0.00     0.006 A 
ENDBRANCH  28  49
BRANCH  40  57
ATOM     57  C   UNL A   1      44.061  28.602  30.424  1.00  0.00     0.057 A 
ATOM     58  C   UNL A   1      44.663  29.218  31.528  1.00  0.00     0.134 A 
ATOM     59  C   UNL A   1      43.599  27.297  30.641  1.00  0.00     0.134 A 
ATOM     60  F   UNL A   1      45.130  30.472  31.427  1.00  0.00    -0.206 F 
ATOM     61  C   UNL A   1      44.816  28.565  32.760  1.00  0.00     0.040 A 
ATOM     62  C   UNL A   1      43.734  26.630  31.866  1.00  0.00     0.040 A 
ATOM     63  F   UNL A   1      43.008  26.612  29.665  1.00  0.00    -0.206 F 
ATOM     64  C   UNL A   1      44.356  27.263  32.932  1.00  0.00     0.006 A 
ENDBRANCH  40  57
ENDBRANCH  14  15
ENDBRANCH   7   9
ENDBRANCH   4   5
ENDBRANCH   3   4
ENDBRANCH   2   3
ENDBRANCH   1   2
BRANCH   1  65
ATOM     65  C   UNL A   1      36.831  23.239  24.313  1.00  0.00     0.021 C 
BRANCH  65  66
ATOM     66  C   UNL A   1      35.412  23.771  24.117  1.00  0.00     0.116 C 
BRANCH  66  67
ATOM     67  N   UNL A   1      35.118  24.836  25.055  1.00  0.00    -0.351 N 
ATOM     68  C   UNL A   1      34.043  25.687  25.115  1.00  0.00     0.267 C 
ATOM     69  H   UNL A   1      35.794  24.969  25.759  1.00  0.00     0.163 HD
ATOM     70  O   UNL A   1      34.128  26.667  25.847  1.00  0.00    -0.268 OA
BRANCH  68  71
ATOM     71  C   UNL A   1      32.879  25.418  24.292  1.00  0.00     0.107 A 
ATOM     72  C   UNL A   1      32.608  25.864  23.006  1.00  0.00     0.033 A 
ATOM     73  N   UNL A   1      31.828  24.580  24.646  1.00  0.00    -0.334 N 
ATOM     74  C   UNL A   1      31.387  25.292  22.582  1.00  0.00     0.020 A 
ATOM     75  C   UNL A   1      30.935  24.493  23.605  1.00  0.00     0.087 A 
BRANCH  73  76
ATOM     76  C   UNL A   1      31.711  23.846  25.901  1.00  0.00     0.222 C 
BRANCH  76  77
ATOM     77  C   UNL A   1      31.444  22.347  25.841  1.00  0.00     0.242 C 
ATOM     78  O   UNL A   1      30.282  21.958  26.017  1.00  0.00    -0.273 OA
BRANCH  77  79
ATOM     79  N   UNL A   1      32.429  21.460  25.412  1.00  0.00    -0.336 N 
ATOM     80  C   UNL A   1      33.651  21.173  26.160  1.00  0.00     0.124 C 
ATOM     81  C   UNL A   1      32.156  20.685  24.195  1.00  0.00     0.155 C 
ATOM     82  C   UNL A   1      34.744  20.438  25.394  1.00  0.00     0.057 C 
ATOM     83  C   UNL A   1      32.935  19.400  24.049  1.00  0.00    -0.025 A 
ATOM     84  C   UNL A   1      34.196  19.266  24.646  1.00  0.00    -0.041 A 
ATOM     85  C   UNL A   1      32.456  18.365  23.238  1.00  0.00     0.006 A 
ATOM     86  C   UNL A   1      34.950  18.103  24.461  1.00  0.00     0.004 A 
ATOM     87  C   UNL A   1      33.210  17.205  23.054  1.00  0.00     0.000 A 
ATOM     88  C   UNL A   1      34.451  17.070  23.673  1.00  0.00     0.000 A 
ENDBRANCH  77  79
ENDBRANCH  76  77
ENDBRANCH  73  76
ENDBRANCH  68  71
ENDBRANCH  66  67
ENDBRANCH  65  66
ENDBRANCH   1  65
TORSDOF 16
ENDMDL
MODEL 3
REMARK VINA RESULT:     -11.7      4.541      9.935
REMARK SMILES O=C(NCCCCCCNC(=O)c1cccn1CC(=O)N1CCc2ccccc2C1)c1ccc(-c2c3nc(c(-c4c(F)cccc4F)c4ccc([nH]4)c(-c4c(F)cccc4F)c4nc(c(-c5c(F)cccc5F)c5ccc2[nH]5)C=C4)C=C3)cc1
REMARK SMILES IDX 7 1 6 2 5 3 4 4 3 5 1 6 2 7 31 9 32 10 84 11 33 12 83 13
REMARK SMILES IDX 34 14 35 15 36 16 77 17 37 18 82 19 76 20 78 21 38 22 81 23
REMARK SMILES IDX 75 24 74 25 39 27 65 28 48 29 64 30 49 31 52 32 63 33 79 34
REMARK SMILES IDX 50 35 51 36 62 38 80 39 53 40 40 41 41 42 46 43 42 44 43 45
REMARK SMILES IDX 45 46 47 47 44 48 66 49 67 50 72 51 68 52 69 53 71 54 73 55
REMARK SMILES IDX 70 56 54 57 55 58 60 59 56 60 57 61 59 62 61 63 58 64 8 65
REMARK SMILES IDX 9 66 10 67 11 68 12 70 13 71 14 72 17 73 15 74 16 75 18 76
REMARK SMILES IDX 19 77 20 78 21 79 22 80 30 81 23 82 29 83 24 84 28 85 25 86
REMARK SMILES IDX 27 87 26 88
REMARK H PARENT 3 8 78 26 52 37 10 69
REMARK Flexibility Score: inf
ROOT
ATOM      1  C   UNL A   1      33.126  29.669  26.339  1.00  0.00     0.002 C 
ENDROOT
BRANCH   1   2
ATOM      2  C   UNL A   1      31.764  30.244  25.950  1.00  0.00     0.002 C 
BRANCH   2   3
ATOM      3  C   UNL A   1      31.438  31.614  26.545  1.00  0.00     0.021 C 
BRANCH   3   4
ATOM      4  C   UNL A   1      32.651  32.411  27.033  1.00  0.00     0.116 C 
BRANCH   4   5
ATOM      5  N   UNL A   1      32.358  33.714  27.603  1.00  0.00    -0.352 N 
ATOM      6  O   UNL A   1      32.606  35.629  28.745  1.00  0.00    -0.269 OA
ATOM      7  C   UNL A   1      33.051  34.515  28.474  1.00  0.00     0.251 C 
ATOM      8  H   UNL A   1      31.499  34.094  27.308  1.00  0.00     0.163 HD
BRANCH   7   9
ATOM      9  C   UNL A   1      34.273  34.044  29.162  1.00  0.00     0.039 A 
ATOM     10  C   UNL A   1      34.236  33.254  30.311  1.00  0.00     0.014 A 
ATOM     11  C   UNL A   1      35.511  34.410  28.606  1.00  0.00     0.014 A 
ATOM     12  C   UNL A   1      35.413  32.928  30.964  1.00  0.00     0.010 A 
ATOM     13  C   UNL A   1      36.702  34.044  29.233  1.00  0.00     0.010 A 
ATOM     14  C   UNL A   1      36.646  33.305  30.417  1.00  0.00    -0.014 A 
BRANCH  14  15
ATOM     15  C   UNL A   1      37.841  32.663  31.009  1.00  0.00     0.031 A 
ATOM     16  C   UNL A   1      38.168  31.349  30.277  1.00  0.00     0.074 A 
ATOM     17  C   UNL A   1      38.365  33.225  32.140  1.00  0.00     0.049 A 
ATOM     18  N   UNL A   1      38.633  30.232  30.742  1.00  0.00    -0.248 NA
ATOM     19  C   UNL A   1      37.829  31.225  28.830  1.00  0.00     0.031 C 
ATOM     20  C   UNL A   1      37.950  34.531  32.692  1.00  0.00     0.029 A 
ATOM     21  N   UNL A   1      39.320  32.831  33.060  1.00  0.00    -0.354 N 
ATOM     22  C   UNL A   1      38.826  29.360  29.647  1.00  0.00     0.074 A 
ATOM     23  C   UNL A   1      38.197  29.980  28.521  1.00  0.00     0.031 C 
ATOM     24  C   UNL A   1      38.571  34.777  33.866  1.00  0.00     0.029 A 
ATOM     25  C   UNL A   1      39.452  33.673  34.200  1.00  0.00     0.049 A 
ATOM     26  H   UNL A   1      39.871  32.025  32.933  1.00  0.00     0.167 HD
ATOM     27  C   UNL A   1      39.613  28.246  29.710  1.00  0.00     0.037 A 
ATOM     28  C   UNL A   1      40.176  33.476  35.349  1.00  0.00     0.037 A 
ATOM     29  C   UNL A   1      40.145  28.106  31.021  1.00  0.00     0.049 A 
ATOM     30  C   UNL A   1      40.940  32.242  35.124  1.00  0.00     0.074 A 
ATOM     31  C   UNL A   1      39.586  27.720  32.209  1.00  0.00     0.029 A 
ATOM     32  N   UNL A   1      41.348  28.723  31.262  1.00  0.00    -0.354 N 
ATOM     33  N   UNL A   1      41.986  32.149  34.360  1.00  0.00    -0.248 NA
ATOM     34  C   UNL A   1      40.467  30.996  35.743  1.00  0.00     0.031 C 
ATOM     35  C   UNL A   1      40.253  28.517  33.159  1.00  0.00     0.029 A 
ATOM     36  C   UNL A   1      41.311  29.200  32.546  1.00  0.00     0.049 A 
ATOM     37  H   UNL A   1      42.098  28.807  30.629  1.00  0.00     0.167 HD
ATOM     38  C   UNL A   1      42.065  30.794  34.147  1.00  0.00     0.074 A 
ATOM     39  C   UNL A   1      41.375  30.159  35.247  1.00  0.00     0.031 C 
ATOM     40  C   UNL A   1      42.149  30.330  32.874  1.00  0.00     0.037 A 
BRANCH  27  41
ATOM     41  C   UNL A   1      40.195  27.349  28.655  1.00  0.00     0.057 A 
ATOM     42  C   UNL A   1      41.029  27.931  27.670  1.00  0.00     0.134 A 
ATOM     43  C   UNL A   1      39.695  26.079  28.356  1.00  0.00     0.134 A 
ATOM     44  F   UNL A   1      41.608  29.126  27.872  1.00  0.00    -0.206 F 
ATOM     45  C   UNL A   1      41.228  27.355  26.414  1.00  0.00     0.040 A 
ATOM     46  C   UNL A   1      39.928  25.469  27.115  1.00  0.00     0.040 A 
ATOM     47  F   UNL A   1      38.891  25.428  29.205  1.00  0.00    -0.206 F 
ATOM     48  C   UNL A   1      40.656  26.126  26.124  1.00  0.00     0.006 A 
ENDBRANCH  27  41
BRANCH  28  49
ATOM     49  C   UNL A   1      40.332  34.102  36.723  1.00  0.00     0.057 A 
ATOM     50  C   UNL A   1      41.467  34.751  37.215  1.00  0.00     0.134 A 
ATOM     51  C   UNL A   1      39.242  34.105  37.644  1.00  0.00     0.134 A 
ATOM     52  F   UNL A   1      42.625  34.734  36.548  1.00  0.00    -0.206 F 
ATOM     53  C   UNL A   1      41.477  35.439  38.450  1.00  0.00     0.040 A 
ATOM     54  C   UNL A   1      39.221  34.814  38.850  1.00  0.00     0.040 A 
ATOM     55  F   UNL A   1      38.120  33.407  37.424  1.00  0.00    -0.206 F 
ATOM     56  C   UNL A   1      40.343  35.506  39.252  1.00  0.00     0.006 A 
ENDBRANCH  28  49
BRANCH  40  57
ATOM     57  C   UNL A   1      42.767  31.315  31.900  1.00  0.00     0.057 A 
ATOM     58  C   UNL A   1      44.106  31.698  32.045  1.00  0.00     0.134 A 
ATOM     59  C   UNL A   1      42.049  32.002  30.911  1.00  0.00     0.134 A 
ATOM     60  F   UNL A   1      44.884  31.094  32.958  1.00  0.00    -0.206 F 
ATOM     61  C   UNL A   1      44.683  32.717  31.272  1.00  0.00     0.040 A 
ATOM     62  C   UNL A   1      42.608  33.016  30.123  1.00  0.00     0.040 A 
ATOM     63  F   UNL A   1      40.768  31.722  30.682  1.00  0.00    -0.206 F 
ATOM     64  C   UNL A   1      43.932  33.385  30.310  1.00  0.00     0.006 A 
ENDBRANCH  40  57
ENDBRANCH  14  15
ENDBRANCH   7   9
ENDBRANCH   4   5
ENDBRANCH   3   4
ENDBRANCH   2   3
ENDBRANCH   1   2
BRANCH   1  65
ATOM     65  C   UNL A   1      33.119  28.208  26.799  1.00  0.00     0.021 C 
BRANCH  65  66
ATOM     66  C   UNL A   1      31.742  27.591  27.045  1.00  0.00     0.116 C 
BRANCH  66  67
ATOM     67  N   UNL A   1      31.696  26.217  26.584  1.00  0.00    -0.351 N 
ATOM     68  C   UNL A   1      31.092  25.678  25.475  1.00  0.00     0.267 C 
ATOM     69  H   UNL A   1      32.170  25.570  27.155  1.00  0.00     0.163 HD
ATOM     70  O   UNL A   1      30.977  24.459  25.421  1.00  0.00    -0.268 OA
BRANCH  68  71
ATOM     71  C   UNL A   1      30.587  26.564  24.442  1.00  0.00     0.107 A 
ATOM     72  C   UNL A   1      29.284  26.994  24.234  1.00  0.00     0.033 A 
ATOM     73  N   UNL A   1      31.369  27.206  23.490  1.00  0.00    -0.334 N 
ATOM     74  C   UNL A   1      29.280  27.901  23.150  1.00  0.00     0.020 A 
ATOM     75  C   UNL A   1      30.580  28.026  22.719  1.00  0.00     0.087 A 
BRANCH  73  76
ATOM     76  C   UNL A   1      32.817  27.089  23.359  1.00  0.00     0.222 C 
BRANCH  76  77
ATOM     77  C   UNL A   1      33.376  25.992  22.462  1.00  0.00     0.242 C 
ATOM     78  O   UNL A   1      33.635  26.279  21.285  1.00  0.00    -0.273 OA
BRANCH  77  79
ATOM     79  N   UNL A   1      33.768  24.763  22.990  1.00  0.00    -0.336 N 
ATOM     80  C   UNL A   1      34.570  24.616  24.202  1.00  0.00     0.124 C 
ATOM     81  C   UNL A   1      33.237  23.553  22.350  1.00  0.00     0.155 C 
ATOM     82  C   UNL A   1      35.165  23.233  24.442  1.00  0.00     0.057 C 
ATOM     83  C   UNL A   1      33.217  22.313  23.213  1.00  0.00    -0.025 A 
ATOM     84  C   UNL A   1      34.148  22.157  24.248  1.00  0.00    -0.041 A 
ATOM     85  C   UNL A   1      32.336  21.263  22.929  1.00  0.00     0.006 A 
ATOM     86  C   UNL A   1      34.175  20.983  25.008  1.00  0.00     0.004 A 
ATOM     87  C   UNL A   1      32.364  20.092  23.688  1.00  0.00     0.000 A 
ATOM     88  C   UNL A   1      33.277  19.956  24.733  1.00  0.00     0.000 A 
ENDBRANCH  77  79
ENDBRANCH  76  77
ENDBRANCH  73  76
ENDBRANCH  68  71
ENDBRANCH  66  67
ENDBRANCH  65  66
ENDBRANCH   1  65
TORSDOF 16
ENDMDL
