MODEL 1
REMARK VINA RESULT:      -9.4      0.000      0.000
REMARK SMILES C[C@@H](C[NH3+])S/C=C/C(=O)NCCCCCCNC(=O)c1ccc(-c2c3nc(c(-c4c(F)cccc4F)c4ccc([nH]4)c(-c4c(F)cccc4F)c4nc(c(-c5c(F)cccc5F)c5ccc2[nH]5)C=C4)C=C3)cc1
REMARK SMILES IDX 12 1 11 2 10 3 8 4 9 5 7 7 6 8 5 9 2 10 1 11 3 12 4 13 13 17
REMARK SMILES IDX 14 18 15 19 16 20 17 21 18 22 19 24 20 25 21 26 73 27 22 28
REMARK SMILES IDX 72 29 23 30 24 31 25 32 66 33 26 34 71 35 65 36 67 37 27 38
REMARK SMILES IDX 70 39 64 40 63 41 28 43 54 44 37 45 53 46 38 47 41 48 52 49
REMARK SMILES IDX 68 50 39 51 40 52 51 54 69 55 42 56 29 57 30 58 35 59 31 60
REMARK SMILES IDX 32 61 34 62 36 63 33 64 55 65 56 66 61 67 57 68 58 69 60 70
REMARK SMILES IDX 62 71 59 72 43 73 44 74 49 75 45 76 46 77 48 78 50 79 47 80
REMARK H PARENT 10 6 4 14 4 15 4 16 17 23 67 42 41 53
REMARK Flexibility Score: inf
ROOT
ATOM      1  C   UNL A   1      36.808  23.566  25.481  1.00  0.00     0.021 C 
ENDROOT
BRANCH   1   2
ATOM      2  C   UNL A   1      35.497  23.307  24.747  1.00  0.00     0.116 C 
BRANCH   2   3
ATOM      3  N   UNL A   1      34.436  23.022  25.694  1.00  0.00    -0.353 N 
ATOM      4  C   UNL A   1      33.493  22.044  25.674  1.00  0.00     0.244 C 
ATOM      5  O   UNL A   1      32.710  21.915  26.610  1.00  0.00    -0.270 OA
ATOM      6  H   UNL A   1      34.393  23.628  26.469  1.00  0.00     0.163 HD
BRANCH   4   7
ATOM      7  C   UNL A   1      33.497  21.069  24.571  1.00  0.00     0.078 C 
ATOM      8  C   UNL A   1      32.384  20.439  24.180  1.00  0.00     0.047 C 
BRANCH   8   9
ATOM      9  S   UNL A   1      32.375  19.258  22.921  1.00  0.00    -0.125 SA
BRANCH   9  10
ATOM     10  C   UNL A   1      32.722  17.686  23.811  1.00  0.00     0.103 C 
ATOM     11  C   UNL A   1      33.975  16.999  23.269  1.00  0.00     0.026 C 
BRANCH  10  12
ATOM     12  C   UNL A   1      32.687  17.775  25.357  1.00  0.00     0.273 C 
BRANCH  12  13
ATOM     13  N   UNL A   1      33.291  16.669  26.096  1.00  0.00    -0.357 N 
ATOM     14  H   UNL A   1      33.691  17.019  26.966  1.00  0.00     0.344 HD
ATOM     15  H   UNL A   1      34.025  16.243  25.532  1.00  0.00     0.344 HD
ATOM     16  H   UNL A   1      32.576  15.971  26.308  1.00  0.00     0.344 HD
ENDBRANCH  12  13
ENDBRANCH  10  12
ENDBRANCH   9  10
ENDBRANCH   8   9
ENDBRANCH   4   7
ENDBRANCH   2   3
ENDBRANCH   1   2
BRANCH   1  17
ATOM     17  C   UNL A   1      37.867  22.482  25.238  1.00  0.00     0.002 C 
BRANCH  17  18
ATOM     18  C   UNL A   1      37.337  21.215  24.555  1.00  0.00     0.002 C 
BRANCH  18  19
ATOM     19  C   UNL A   1      38.162  19.954  24.820  1.00  0.00     0.021 C 
BRANCH  19  20
ATOM     20  C   UNL A   1      39.062  20.047  26.047  1.00  0.00     0.116 C 
BRANCH  20  21
ATOM     21  N   UNL A   1      40.238  19.203  25.911  1.00  0.00    -0.352 N 
ATOM     22  C   UNL A   1      41.563  19.550  25.990  1.00  0.00     0.251 C 
ATOM     23  H   UNL A   1      40.059  18.250  25.741  1.00  0.00     0.163 HD
ATOM     24  O   UNL A   1      42.433  18.772  25.618  1.00  0.00    -0.269 OA
BRANCH  22  25
ATOM     25  C   UNL A   1      41.933  20.878  26.517  1.00  0.00     0.039 A 
ATOM     26  C   UNL A   1      42.295  21.886  25.621  1.00  0.00     0.014 A 
ATOM     27  C   UNL A   1      41.929  21.123  27.893  1.00  0.00     0.014 A 
ATOM     28  C   UNL A   1      42.606  23.158  26.106  1.00  0.00     0.010 A 
ATOM     29  C   UNL A   1      42.165  22.407  28.368  1.00  0.00     0.010 A 
ATOM     30  C   UNL A   1      42.516  23.435  27.480  1.00  0.00    -0.014 A 
BRANCH  30  31
ATOM     31  C   UNL A   1      42.793  24.793  28.007  1.00  0.00     0.031 A 
ATOM     32  C   UNL A   1      44.188  25.172  28.418  1.00  0.00     0.074 A 
ATOM     33  C   UNL A   1      41.777  25.663  28.171  1.00  0.00     0.049 A 
ATOM     34  N   UNL A   1      44.619  26.286  28.955  1.00  0.00    -0.248 NA
ATOM     35  C   UNL A   1      45.235  24.156  28.226  1.00  0.00     0.031 C 
ATOM     36  C   UNL A   1      40.374  25.394  27.853  1.00  0.00     0.029 A 
ATOM     37  N   UNL A   1      41.768  26.946  28.655  1.00  0.00    -0.354 N 
ATOM     38  C   UNL A   1      45.977  26.099  29.174  1.00  0.00     0.074 A 
ATOM     39  C   UNL A   1      46.289  24.748  28.767  1.00  0.00     0.031 C 
ATOM     40  C   UNL A   1      39.644  26.487  28.128  1.00  0.00     0.029 A 
ATOM     41  C   UNL A   1      40.519  27.517  28.677  1.00  0.00     0.049 A 
ATOM     42  H   UNL A   1      42.580  27.414  28.957  1.00  0.00     0.167 HD
ATOM     43  C   UNL A   1      46.885  26.983  29.650  1.00  0.00     0.037 A 
ATOM     44  C   UNL A   1      40.124  28.733  29.101  1.00  0.00     0.037 A 
ATOM     45  C   UNL A   1      46.573  28.334  30.035  1.00  0.00     0.049 A 
ATOM     46  C   UNL A   1      41.152  29.691  29.636  1.00  0.00     0.074 A 
ATOM     47  C   UNL A   1      47.431  29.326  30.473  1.00  0.00     0.029 A 
ATOM     48  N   UNL A   1      45.297  28.881  30.032  1.00  0.00    -0.354 N 
ATOM     49  N   UNL A   1      42.445  29.527  29.772  1.00  0.00    -0.248 NA
ATOM     50  C   UNL A   1      40.665  31.009  30.069  1.00  0.00     0.031 C 
ATOM     51  C   UNL A   1      46.669  30.457  30.783  1.00  0.00     0.029 A 
ATOM     52  C   UNL A   1      45.343  30.188  30.484  1.00  0.00     0.049 A 
ATOM     53  H   UNL A   1      44.481  28.408  29.749  1.00  0.00     0.167 HD
ATOM     54  C   UNL A   1      42.931  30.725  30.278  1.00  0.00     0.074 A 
ATOM     55  C   UNL A   1      41.794  31.613  30.411  1.00  0.00     0.031 C 
ATOM     56  C   UNL A   1      44.203  31.061  30.604  1.00  0.00     0.037 A 
BRANCH  43  57
ATOM     57  C   UNL A   1      48.307  26.514  29.780  1.00  0.00     0.057 A 
ATOM     58  C   UNL A   1      48.766  25.848  30.924  1.00  0.00     0.134 A 
ATOM     59  C   UNL A   1      49.220  26.701  28.734  1.00  0.00     0.134 A 
ATOM     60  F   UNL A   1      47.948  25.647  31.968  1.00  0.00    -0.206 F 
ATOM     61  C   UNL A   1      50.088  25.412  31.035  1.00  0.00     0.040 A 
ATOM     62  C   UNL A   1      50.536  26.241  28.821  1.00  0.00     0.040 A 
ATOM     63  F   UNL A   1      48.846  27.325  27.606  1.00  0.00    -0.206 F 
ATOM     64  C   UNL A   1      50.974  25.602  29.978  1.00  0.00     0.006 A 
ENDBRANCH  43  57
BRANCH  44  65
ATOM     65  C   UNL A   1      38.693  29.119  29.018  1.00  0.00     0.057 A 
ATOM     66  C   UNL A   1      37.851  29.010  30.130  1.00  0.00     0.134 A 
ATOM     67  C   UNL A   1      38.132  29.598  27.828  1.00  0.00     0.134 A 
ATOM     68  F   UNL A   1      38.326  28.542  31.293  1.00  0.00    -0.206 F 
ATOM     69  C   UNL A   1      36.497  29.345  30.059  1.00  0.00     0.040 A 
ATOM     70  C   UNL A   1      36.786  29.962  27.749  1.00  0.00     0.040 A 
ATOM     71  F   UNL A   1      38.887  29.734  26.728  1.00  0.00    -0.206 F 
ATOM     72  C   UNL A   1      35.963  29.826  28.865  1.00  0.00     0.006 A 
ENDBRANCH  44  65
BRANCH  56  73
ATOM     73  C   UNL A   1      44.440  32.459  31.100  1.00  0.00     0.057 A 
ATOM     74  C   UNL A   1      44.434  32.772  32.465  1.00  0.00     0.134 A 
ATOM     75  C   UNL A   1      44.716  33.496  30.199  1.00  0.00     0.134 A 
ATOM     76  F   UNL A   1      44.163  31.828  33.379  1.00  0.00    -0.206 F 
ATOM     77  C   UNL A   1      44.669  34.073  32.914  1.00  0.00     0.040 A 
ATOM     78  C   UNL A   1      44.982  34.792  30.637  1.00  0.00     0.040 A 
ATOM     79  F   UNL A   1      44.746  33.261  28.878  1.00  0.00    -0.206 F 
ATOM     80  C   UNL A   1      44.953  35.086  31.999  1.00  0.00     0.006 A 
ENDBRANCH  56  73
ENDBRANCH  30  31
ENDBRANCH  22  25
ENDBRANCH  20  21
ENDBRANCH  19  20
ENDBRANCH  18  19
ENDBRANCH  17  18
ENDBRANCH   1  17
TORSDOF 17
ENDMDL
MODEL 2
REMARK VINA RESULT:      -9.3      5.734     10.192
REMARK SMILES C[C@@H](C[NH3+])S/C=C/C(=O)NCCCCCCNC(=O)c1ccc(-c2c3nc(c(-c4c(F)cccc4F)c4ccc([nH]4)c(-c4c(F)cccc4F)c4nc(c(-c5c(F)cccc5F)c5ccc2[nH]5)C=C4)C=C3)cc1
REMARK SMILES IDX 12 1 11 2 10 3 8 4 9 5 7 7 6 8 5 9 2 10 1 11 3 12 4 13 13 17
REMARK SMILES IDX 14 18 15 19 16 20 17 21 18 22 19 24 20 25 21 26 73 27 22 28
REMARK SMILES IDX 72 29 23 30 24 31 25 32 66 33 26 34 71 35 65 36 67 37 27 38
REMARK SMILES IDX 70 39 64 40 63 41 28 43 54 44 37 45 53 46 38 47 41 48 52 49
REMARK SMILES IDX 68 50 39 51 40 52 51 54 69 55 42 56 29 57 30 58 35 59 31 60
REMARK SMILES IDX 32 61 34 62 36 63 33 64 55 65 56 66 61 67 57 68 58 69 60 70
REMARK SMILES IDX 62 71 59 72 43 73 44 74 49 75 45 76 46 77 48 78 50 79 47 80
REMARK H PARENT 10 6 4 14 4 15 4 16 17 23 67 42 41 53
REMARK Flexibility Score: inf
ROOT
ATOM      1  C   UNL A   1      33.439  29.102  26.791  1.00  0.00     0.021 C 
ENDROOT
BRANCH   1   2
ATOM      2  C   UNL A   1      33.160  27.936  25.848  1.00  0.00     0.116 C 
BRANCH   2   3
ATOM      3  N   UNL A   1      33.495  28.300  24.485  1.00  0.00    -0.353 N 
ATOM      4  C   UNL A   1      32.684  28.486  23.411  1.00  0.00     0.244 C 
ATOM      5  O   UNL A   1      33.146  28.863  22.338  1.00  0.00    -0.270 OA
ATOM      6  H   UNL A   1      34.455  28.432  24.311  1.00  0.00     0.163 HD
BRANCH   4   7
ATOM      7  C   UNL A   1      31.228  28.342  23.580  1.00  0.00     0.078 C 
ATOM      8  C   UNL A   1      30.360  28.836  22.691  1.00  0.00     0.047 C 
BRANCH   8   9
ATOM      9  S   UNL A   1      28.650  28.719  22.895  1.00  0.00    -0.125 SA
BRANCH   9  10
ATOM     10  C   UNL A   1      28.048  30.384  22.393  1.00  0.00     0.103 C 
ATOM     11  C   UNL A   1      27.673  31.234  23.606  1.00  0.00     0.026 C 
BRANCH  10  12
ATOM     12  C   UNL A   1      28.935  31.130  21.366  1.00  0.00     0.273 C 
BRANCH  12  13
ATOM     13  N   UNL A   1      28.265  32.086  20.488  1.00  0.00    -0.357 N 
ATOM     14  H   UNL A   1      27.269  31.872  20.448  1.00  0.00     0.344 HD
ATOM     15  H   UNL A   1      28.663  32.025  19.551  1.00  0.00     0.344 HD
ATOM     16  H   UNL A   1      28.395  33.031  20.852  1.00  0.00     0.344 HD
ENDBRANCH  12  13
ENDBRANCH  10  12
ENDBRANCH   9  10
ENDBRANCH   8   9
ENDBRANCH   4   7
ENDBRANCH   2   3
ENDBRANCH   1   2
BRANCH   1  17
ATOM     17  C   UNL A   1      32.169  29.836  27.244  1.00  0.00     0.002 C 
BRANCH  17  18
ATOM     18  C   UNL A   1      31.562  30.769  26.189  1.00  0.00     0.002 C 
BRANCH  18  19
ATOM     19  C   UNL A   1      31.369  32.215  26.650  1.00  0.00     0.021 C 
BRANCH  19  20
ATOM     20  C   UNL A   1      32.626  32.855  27.227  1.00  0.00     0.116 C 
BRANCH  20  21
ATOM     21  N   UNL A   1      32.401  34.245  27.586  1.00  0.00    -0.352 N 
ATOM     22  C   UNL A   1      32.981  34.983  28.586  1.00  0.00     0.251 C 
ATOM     23  H   UNL A   1      31.741  34.724  27.035  1.00  0.00     0.163 HD
ATOM     24  O   UNL A   1      32.513  36.068  28.912  1.00  0.00    -0.269 OA
BRANCH  22  25
ATOM     25  C   UNL A   1      34.173  34.454  29.279  1.00  0.00     0.039 A 
ATOM     26  C   UNL A   1      34.025  33.890  30.547  1.00  0.00     0.014 A 
ATOM     27  C   UNL A   1      35.433  34.520  28.676  1.00  0.00     0.014 A 
ATOM     28  C   UNL A   1      35.138  33.348  31.193  1.00  0.00     0.010 A 
ATOM     29  C   UNL A   1      36.524  33.913  29.286  1.00  0.00     0.010 A 
ATOM     30  C   UNL A   1      36.389  33.330  30.555  1.00  0.00    -0.014 A 
BRANCH  30  31
ATOM     31  C   UNL A   1      37.571  32.712  31.205  1.00  0.00     0.031 A 
ATOM     32  C   UNL A   1      38.236  31.518  30.580  1.00  0.00     0.074 A 
ATOM     33  C   UNL A   1      38.005  33.190  32.388  1.00  0.00     0.049 A 
ATOM     34  N   UNL A   1      39.239  30.804  31.024  1.00  0.00    -0.248 NA
ATOM     35  C   UNL A   1      37.685  31.047  29.300  1.00  0.00     0.031 C 
ATOM     36  C   UNL A   1      37.413  34.313  33.115  1.00  0.00     0.029 A 
ATOM     37  N   UNL A   1      39.041  32.785  33.189  1.00  0.00    -0.354 N 
ATOM     38  C   UNL A   1      39.429  29.796  30.088  1.00  0.00     0.074 A 
ATOM     39  C   UNL A   1      38.403  29.955  29.081  1.00  0.00     0.031 C 
ATOM     40  C   UNL A   1      38.109  34.522  34.244  1.00  0.00     0.029 A 
ATOM     41  C   UNL A   1      39.170  33.525  34.339  1.00  0.00     0.049 A 
ATOM     42  H   UNL A   1      39.637  32.034  32.962  1.00  0.00     0.167 HD
ATOM     43  C   UNL A   1      40.386  28.839  30.058  1.00  0.00     0.037 A 
ATOM     44  C   UNL A   1      40.042  33.407  35.359  1.00  0.00     0.037 A 
ATOM     45  C   UNL A   1      41.417  28.698  31.052  1.00  0.00     0.049 A 
ATOM     46  C   UNL A   1      41.088  32.329  35.306  1.00  0.00     0.074 A 
ATOM     47  C   UNL A   1      42.469  27.800  31.082  1.00  0.00     0.029 A 
ATOM     48  N   UNL A   1      41.522  29.475  32.196  1.00  0.00    -0.354 N 
ATOM     49  N   UNL A   1      41.301  31.426  34.380  1.00  0.00    -0.248 NA
ATOM     50  C   UNL A   1      42.021  32.257  36.440  1.00  0.00     0.031 C 
ATOM     51  C   UNL A   1      43.180  27.999  32.269  1.00  0.00     0.029 A 
ATOM     52  C   UNL A   1      42.607  29.060  32.951  1.00  0.00     0.049 A 
ATOM     53  H   UNL A   1      40.916  30.213  32.436  1.00  0.00     0.167 HD
ATOM     54  C   UNL A   1      42.406  30.700  34.801  1.00  0.00     0.074 A 
ATOM     55  C   UNL A   1      42.828  31.276  36.061  1.00  0.00     0.031 C 
ATOM     56  C   UNL A   1      43.018  29.650  34.200  1.00  0.00     0.037 A 
BRANCH  43  57
ATOM     57  C   UNL A   1      40.363  27.870  28.910  1.00  0.00     0.057 A 
ATOM     58  C   UNL A   1      41.100  28.091  27.739  1.00  0.00     0.134 A 
ATOM     59  C   UNL A   1      39.620  26.685  28.990  1.00  0.00     0.134 A 
ATOM     60  F   UNL A   1      41.824  29.211  27.592  1.00  0.00    -0.206 F 
ATOM     61  C   UNL A   1      41.077  27.183  26.678  1.00  0.00     0.040 A 
ATOM     62  C   UNL A   1      39.613  25.755  27.948  1.00  0.00     0.040 A 
ATOM     63  F   UNL A   1      38.895  26.407  30.084  1.00  0.00    -0.206 F 
ATOM     64  C   UNL A   1      40.337  26.008  26.785  1.00  0.00     0.006 A 
ENDBRANCH  43  57
BRANCH  44  65
ATOM     65  C   UNL A   1      39.974  34.348  36.506  1.00  0.00     0.057 A 
ATOM     66  C   UNL A   1      39.262  34.021  37.665  1.00  0.00     0.134 A 
ATOM     67  C   UNL A   1      40.610  35.593  36.469  1.00  0.00     0.134 A 
ATOM     68  F   UNL A   1      38.617  32.849  37.754  1.00  0.00    -0.206 F 
ATOM     69  C   UNL A   1      39.168  34.906  38.741  1.00  0.00     0.040 A 
ATOM     70  C   UNL A   1      40.548  36.478  37.548  1.00  0.00     0.040 A 
ATOM     71  F   UNL A   1      41.316  35.963  35.391  1.00  0.00    -0.206 F 
ATOM     72  C   UNL A   1      39.816  36.138  38.684  1.00  0.00     0.006 A 
ENDBRANCH  44  65
BRANCH  56  73
ATOM     73  C   UNL A   1      44.230  29.080  34.878  1.00  0.00     0.057 A 
ATOM     74  C   UNL A   1      45.521  29.552  34.608  1.00  0.00     0.134 A 
ATOM     75  C   UNL A   1      44.098  28.072  35.842  1.00  0.00     0.134 A 
ATOM     76  F   UNL A   1      45.718  30.506  33.686  1.00  0.00    -0.206 F 
ATOM     77  C   UNL A   1      46.639  29.024  35.256  1.00  0.00     0.040 A 
ATOM     78  C   UNL A   1      45.204  27.558  36.517  1.00  0.00     0.040 A 
ATOM     79  F   UNL A   1      42.888  27.582  36.155  1.00  0.00    -0.206 F 
ATOM     80  C   UNL A   1      46.482  28.030  36.220  1.00  0.00     0.006 A 
ENDBRANCH  56  73
ENDBRANCH  30  31
ENDBRANCH  22  25
ENDBRANCH  20  21
ENDBRANCH  19  20
ENDBRANCH  18  19
ENDBRANCH  17  18
ENDBRANCH   1  17
TORSDOF 17
ENDMDL
MODEL 3
REMARK VINA RESULT:      -9.2      1.483      6.738
REMARK SMILES C[C@@H](C[NH3+])S/C=C/C(=O)NCCCCCCNC(=O)c1ccc(-c2c3nc(c(-c4c(F)cccc4F)c4ccc([nH]4)c(-c4c(F)cccc4F)c4nc(c(-c5c(F)cccc5F)c5ccc2[nH]5)C=C4)C=C3)cc1
REMARK SMILES IDX 12 1 11 2 10 3 8 4 9 5 7 7 6 8 5 9 2 10 1 11 3 12 4 13 13 17
REMARK SMILES IDX 14 18 15 19 16 20 17 21 18 22 19 24 20 25 21 26 73 27 22 28
REMARK SMILES IDX 72 29 23 30 24 31 25 32 66 33 26 34 71 35 65 36 67 37 27 38
REMARK SMILES IDX 70 39 64 40 63 41 28 43 54 44 37 45 53 46 38 47 41 48 52 49
REMARK SMILES IDX 68 50 39 51 40 52 51 54 69 55 42 56 29 57 30 58 35 59 31 60
REMARK SMILES IDX 32 61 34 62 36 63 33 64 55 65 56 66 61 67 57 68 58 69 60 70
REMARK SMILES IDX 62 71 59 72 43 73 44 74 49 75 45 76 46 77 48 78 50 79 47 80
REMARK H PARENT 10 6 4 14 4 15 4 16 17 23 67 42 41 53
REMARK Flexibility Score: inf
ROOT
ATOM      1  C   UNL A   1      36.513  23.635  25.453  1.00  0.00     0.021 C 
ENDROOT
BRANCH   1   2
ATOM      2  C   UNL A   1      35.344  23.514  24.481  1.00  0.00     0.116 C 
BRANCH   2   3
ATOM      3  N   UNL A   1      34.095  23.394  25.207  1.00  0.00    -0.353 N 
ATOM      4  C   UNL A   1      33.112  22.462  25.097  1.00  0.00     0.244 C 
ATOM      5  O   UNL A   1      32.146  22.483  25.853  1.00  0.00    -0.270 OA
ATOM      6  H   UNL A   1      33.934  24.093  25.881  1.00  0.00     0.163 HD
BRANCH   4   7
ATOM      7  C   UNL A   1      33.277  21.358  24.137  1.00  0.00     0.078 C 
ATOM      8  C   UNL A   1      32.332  20.428  23.957  1.00  0.00     0.047 C 
BRANCH   8   9
ATOM      9  S   UNL A   1      32.526  19.100  22.872  1.00  0.00    -0.125 SA
BRANCH   9  10
ATOM     10  C   UNL A   1      32.975  17.705  23.984  1.00  0.00     0.103 C 
ATOM     11  C   UNL A   1      33.820  16.659  23.259  1.00  0.00     0.026 C 
BRANCH  10  12
ATOM     12  C   UNL A   1      33.548  18.113  25.364  1.00  0.00     0.273 C 
BRANCH  12  13
ATOM     13  N   UNL A   1      32.625  18.083  26.497  1.00  0.00    -0.357 N 
ATOM     14  H   UNL A   1      31.679  18.277  26.170  1.00  0.00     0.344 HD
ATOM     15  H   UNL A   1      32.900  18.790  27.179  1.00  0.00     0.344 HD
ATOM     16  H   UNL A   1      32.652  17.161  26.933  1.00  0.00     0.344 HD
ENDBRANCH  12  13
ENDBRANCH  10  12
ENDBRANCH   9  10
ENDBRANCH   8   9
ENDBRANCH   4   7
ENDBRANCH   2   3
ENDBRANCH   1   2
BRANCH   1  17
ATOM     17  C   UNL A   1      37.587  22.558  25.253  1.00  0.00     0.002 C 
BRANCH  17  18
ATOM     18  C   UNL A   1      37.079  21.263  24.608  1.00  0.00     0.002 C 
BRANCH  18  19
ATOM     19  C   UNL A   1      37.912  20.020  24.927  1.00  0.00     0.021 C 
BRANCH  19  20
ATOM     20  C   UNL A   1      38.937  20.227  26.036  1.00  0.00     0.116 C 
BRANCH  20  21
ATOM     21  N   UNL A   1      39.970  19.205  26.005  1.00  0.00    -0.352 N 
ATOM     22  C   UNL A   1      41.334  19.356  26.036  1.00  0.00     0.251 C 
ATOM     23  H   UNL A   1      39.648  18.277  25.958  1.00  0.00     0.163 HD
ATOM     24  O   UNL A   1      42.070  18.415  25.763  1.00  0.00    -0.269 OA
BRANCH  22  25
ATOM     25  C   UNL A   1      41.910  20.669  26.389  1.00  0.00     0.039 A 
ATOM     26  C   UNL A   1      42.183  21.585  25.372  1.00  0.00     0.014 A 
ATOM     27  C   UNL A   1      42.183  20.988  27.722  1.00  0.00     0.014 A 
ATOM     28  C   UNL A   1      42.688  22.844  25.698  1.00  0.00     0.010 A 
ATOM     29  C   UNL A   1      42.614  22.268  28.052  1.00  0.00     0.010 A 
ATOM     30  C   UNL A   1      42.880  23.205  27.042  1.00  0.00    -0.014 A 
BRANCH  30  31
ATOM     31  C   UNL A   1      43.367  24.557  27.409  1.00  0.00     0.031 A 
ATOM     32  C   UNL A   1      42.392  25.622  27.825  1.00  0.00     0.074 A 
ATOM     33  C   UNL A   1      44.680  24.841  27.310  1.00  0.00     0.049 A 
ATOM     34  N   UNL A   1      42.615  26.877  28.125  1.00  0.00    -0.248 NA
ATOM     35  C   UNL A   1      40.973  25.235  27.886  1.00  0.00     0.031 C 
ATOM     36  C   UNL A   1      45.717  23.905  26.873  1.00  0.00     0.029 A 
ATOM     37  N   UNL A   1      45.366  26.001  27.561  1.00  0.00    -0.354 N 
ATOM     38  C   UNL A   1      41.369  27.428  28.397  1.00  0.00     0.074 A 
ATOM     39  C   UNL A   1      40.389  26.389  28.172  1.00  0.00     0.031 C 
ATOM     40  C   UNL A   1      46.909  24.521  26.910  1.00  0.00     0.029 A 
ATOM     41  C   UNL A   1      46.717  25.903  27.334  1.00  0.00     0.049 A 
ATOM     42  H   UNL A   1      44.931  26.827  27.876  1.00  0.00     0.167 HD
ATOM     43  C   UNL A   1      41.073  28.680  28.819  1.00  0.00     0.037 A 
ATOM     44  C   UNL A   1      47.689  26.828  27.447  1.00  0.00     0.037 A 
ATOM     45  C   UNL A   1      42.055  29.703  29.061  1.00  0.00     0.049 A 
ATOM     46  C   UNL A   1      47.331  28.214  27.906  1.00  0.00     0.074 A 
ATOM     47  C   UNL A   1      41.863  30.984  29.546  1.00  0.00     0.029 A 
ATOM     48  N   UNL A   1      43.416  29.562  28.831  1.00  0.00    -0.354 N 
ATOM     49  N   UNL A   1      46.158  28.703  28.228  1.00  0.00    -0.248 NA
ATOM     50  C   UNL A   1      48.435  29.177  28.025  1.00  0.00     0.031 C 
ATOM     51  C   UNL A   1      43.100  31.636  29.562  1.00  0.00     0.029 A 
ATOM     52  C   UNL A   1      44.072  30.742  29.141  1.00  0.00     0.049 A 
ATOM     53  H   UNL A   1      43.851  28.745  28.498  1.00  0.00     0.167 HD
ATOM     54  C   UNL A   1      46.384  30.016  28.615  1.00  0.00     0.074 A 
ATOM     55  C   UNL A   1      47.810  30.245  28.501  1.00  0.00     0.031 C 
ATOM     56  C   UNL A   1      45.493  30.951  29.028  1.00  0.00     0.037 A 
BRANCH  43  57
ATOM     57  C   UNL A   1      39.626  29.010  29.047  1.00  0.00     0.057 A 
ATOM     58  C   UNL A   1      38.781  29.401  27.999  1.00  0.00     0.134 A 
ATOM     59  C   UNL A   1      39.060  28.904  30.324  1.00  0.00     0.134 A 
ATOM     60  F   UNL A   1      39.260  29.534  26.753  1.00  0.00    -0.206 F 
ATOM     61  C   UNL A   1      37.435  29.702  28.219  1.00  0.00     0.040 A 
ATOM     62  C   UNL A   1      37.709  29.172  30.550  1.00  0.00     0.040 A 
ATOM     63  F   UNL A   1      39.810  28.528  31.372  1.00  0.00    -0.206 F 
ATOM     64  C   UNL A   1      36.895  29.580  29.497  1.00  0.00     0.006 A 
ENDBRANCH  43  57
BRANCH  44  65
ATOM     65  C   UNL A   1      49.096  26.468  27.138  1.00  0.00     0.057 A 
ATOM     66  C   UNL A   1      49.625  26.658  25.856  1.00  0.00     0.134 A 
ATOM     67  C   UNL A   1      49.941  25.921  28.110  1.00  0.00     0.134 A 
ATOM     68  F   UNL A   1      48.859  27.162  24.878  1.00  0.00    -0.206 F 
ATOM     69  C   UNL A   1      50.938  26.298  25.545  1.00  0.00     0.040 A 
ATOM     70  C   UNL A   1      51.265  25.582  27.821  1.00  0.00     0.040 A 
ATOM     71  F   UNL A   1      49.499  25.721  29.360  1.00  0.00    -0.206 F 
ATOM     72  C   UNL A   1      51.763  25.762  26.532  1.00  0.00     0.006 A 
ENDBRANCH  44  65
BRANCH  56  73
ATOM     73  C   UNL A   1      46.037  32.293  29.423  1.00  0.00     0.057 A 
ATOM     74  C   UNL A   1      46.095  33.365  28.523  1.00  0.00     0.134 A 
ATOM     75  C   UNL A   1      46.473  32.526  30.734  1.00  0.00     0.134 A 
ATOM     76  F   UNL A   1      45.705  33.204  27.249  1.00  0.00    -0.206 F 
ATOM     77  C   UNL A   1      46.589  34.612  28.905  1.00  0.00     0.040 A 
ATOM     78  C   UNL A   1      46.941  33.776  31.136  1.00  0.00     0.040 A 
ATOM     79  F   UNL A   1      46.436  31.545  31.649  1.00  0.00    -0.206 F 
ATOM     80  C   UNL A   1      47.007  34.823  30.219  1.00  0.00     0.006 A 
ENDBRANCH  56  73
ENDBRANCH  30  31
ENDBRANCH  22  25
ENDBRANCH  20  21
ENDBRANCH  19  20
ENDBRANCH  18  19
ENDBRANCH  17  18
ENDBRANCH   1  17
TORSDOF 17
ENDMDL
