MODEL 1
REMARK VINA RESULT:     -10.9      0.000      0.000
REMARK SMILES CC[C@@](C)([NH2+]CC(=O)N[C@@H](C)c1ccc(F)cc1)C(=O)NCCCCCCNC(=O)c1ccc(-c2c3nc(c(-c4c(F)cccc4F)c4ccc([nH]4)c(-c4c(F)cccc4F)c4nc(c(-c5c(F)cccc5F)c5ccc2[nH]5)C=C4)C=C3)cc1
REMARK SMILES IDX 23 1 22 2 21 3 19 4 20 5 3 7 4 8 2 9 1 10 5 11 6 14 7 15
REMARK SMILES IDX 8 16 9 17 10 19 11 20 12 21 13 22 18 23 14 24 17 25 15 26
REMARK SMILES IDX 16 27 24 28 25 29 26 30 27 31 28 32 29 33 30 35 31 36 32 37
REMARK SMILES IDX 84 38 33 39 83 40 34 41 35 42 36 43 77 44 37 45 82 46 76 47
REMARK SMILES IDX 78 48 38 49 81 50 75 51 74 52 39 54 65 55 48 56 64 57 49 58
REMARK SMILES IDX 52 59 63 60 79 61 50 62 51 63 62 65 80 66 53 67 40 68 41 69
REMARK SMILES IDX 46 70 42 71 43 72 45 73 47 74 44 75 66 76 67 77 72 78 68 79
REMARK SMILES IDX 69 80 71 81 73 82 70 83 54 84 55 85 60 86 56 87 57 88 59 89
REMARK SMILES IDX 61 90 58 91
REMARK H PARENT 21 6 5 12 5 13 9 18 28 34 78 53 52 64
REMARK Flexibility Score: inf
ROOT
ATOM      1  C   UNL A   1      32.533  28.188  27.276  1.00  0.00     0.021 C 
ENDROOT
BRANCH   1   2
ATOM      2  C   UNL A   1      32.755  27.029  26.310  1.00  0.00     0.116 C 
BRANCH   2   3
ATOM      3  N   UNL A   1      31.822  25.913  26.415  1.00  0.00    -0.351 N 
ATOM      4  C   UNL A   1      31.947  24.542  26.515  1.00  0.00     0.281 C 
ATOM      5  O   UNL A   1      31.063  24.074  27.251  1.00  0.00    -0.268 OA
ATOM      6  H   UNL A   1      30.883  26.206  26.417  1.00  0.00     0.163 HD
BRANCH   4   7
ATOM      7  C   UNL A   1      33.002  23.540  25.705  1.00  0.00     0.172 C 
ATOM      8  C   UNL A   1      34.532  23.491  25.396  1.00  0.00     0.090 C 
BRANCH   7   9
ATOM      9  C   UNL A   1      32.861  22.221  26.580  1.00  0.00     0.075 C 
ATOM     10  C   UNL A   1      34.018  22.050  27.621  1.00  0.00     0.011 C 
ENDBRANCH   7   9
BRANCH   7  11
ATOM     11  N   UNL A   1      32.430  23.548  24.358  1.00  0.00    -0.326 N 
ATOM     12  H   UNL A   1      31.618  24.165  24.370  1.00  0.00     0.347 HD
ATOM     13  H   UNL A   1      32.218  22.572  24.150  1.00  0.00     0.347 HD
BRANCH  11  14
ATOM     14  C   UNL A   1      33.328  24.002  23.255  1.00  0.00     0.362 C 
BRANCH  14  15
ATOM     15  C   UNL A   1      33.084  25.187  22.205  1.00  0.00     0.275 C 
ATOM     16  O   UNL A   1      33.274  24.827  21.020  1.00  0.00    -0.268 OA
ATOM     17  N   UNL A   1      32.686  26.493  22.239  1.00  0.00    -0.345 N 
ATOM     18  H   UNL A   1      32.497  26.768  21.312  1.00  0.00     0.164 HD
BRANCH  17  19
ATOM     19  C   UNL A   1      32.421  27.677  23.122  1.00  0.00     0.109 C 
ATOM     20  C   UNL A   1      33.210  28.954  22.749  1.00  0.00     0.036 C 
BRANCH  19  21
ATOM     21  C   UNL A   1      30.937  28.072  23.200  1.00  0.00    -0.026 A 
ATOM     22  C   UNL A   1      30.501  29.293  22.651  1.00  0.00     0.009 A 
ATOM     23  C   UNL A   1      29.952  27.167  23.638  1.00  0.00     0.009 A 
ATOM     24  C   UNL A   1      29.146  29.623  22.583  1.00  0.00     0.039 A 
ATOM     25  C   UNL A   1      28.591  27.466  23.501  1.00  0.00     0.039 A 
ATOM     26  C   UNL A   1      28.202  28.697  22.992  1.00  0.00     0.123 A 
ATOM     27  F   UNL A   1      26.900  28.980  22.863  1.00  0.00    -0.207 F 
ENDBRANCH  19  21
ENDBRANCH  17  19
ENDBRANCH  14  15
ENDBRANCH  11  14
ENDBRANCH   7  11
ENDBRANCH   4   7
ENDBRANCH   2   3
ENDBRANCH   1   2
BRANCH   1  28
ATOM     28  C   UNL A   1      31.404  29.147  26.882  1.00  0.00     0.002 C 
BRANCH  28  29
ATOM     29  C   UNL A   1      31.777  30.321  25.963  1.00  0.00     0.002 C 
BRANCH  29  30
ATOM     30  C   UNL A   1      31.509  31.727  26.501  1.00  0.00     0.021 C 
BRANCH  30  31
ATOM     31  C   UNL A   1      32.700  32.392  27.180  1.00  0.00     0.116 C 
BRANCH  31  32
ATOM     32  N   UNL A   1      32.437  33.783  27.520  1.00  0.00    -0.352 N 
ATOM     33  C   UNL A   1      33.013  34.571  28.478  1.00  0.00     0.251 C 
ATOM     34  H   UNL A   1      31.743  34.223  26.978  1.00  0.00     0.163 HD
ATOM     35  O   UNL A   1      32.528  35.674  28.748  1.00  0.00    -0.269 OA
BRANCH  33  36
ATOM     36  C   UNL A   1      34.206  34.099  29.202  1.00  0.00     0.039 A 
ATOM     37  C   UNL A   1      34.042  33.341  30.363  1.00  0.00     0.014 A 
ATOM     38  C   UNL A   1      35.487  34.404  28.731  1.00  0.00     0.014 A 
ATOM     39  C   UNL A   1      35.166  32.837  31.019  1.00  0.00     0.010 A 
ATOM     40  C   UNL A   1      36.598  33.832  29.336  1.00  0.00     0.010 A 
ATOM     41  C   UNL A   1      36.450  33.050  30.490  1.00  0.00    -0.014 A 
BRANCH  41  42
ATOM     42  C   UNL A   1      37.652  32.464  31.130  1.00  0.00     0.031 A 
ATOM     43  C   UNL A   1      38.324  31.268  30.515  1.00  0.00     0.074 A 
ATOM     44  C   UNL A   1      38.099  32.972  32.293  1.00  0.00     0.049 A 
ATOM     45  N   UNL A   1      39.339  30.574  30.961  1.00  0.00    -0.248 NA
ATOM     46  C   UNL A   1      37.767  30.770  29.247  1.00  0.00     0.031 C 
ATOM     47  C   UNL A   1      37.501  34.104  33.005  1.00  0.00     0.029 A 
ATOM     48  N   UNL A   1      39.153  32.601  33.088  1.00  0.00    -0.354 N 
ATOM     49  C   UNL A   1      39.534  29.558  30.035  1.00  0.00     0.074 A 
ATOM     50  C   UNL A   1      38.498  29.685  29.036  1.00  0.00     0.031 C 
ATOM     51  C   UNL A   1      38.218  34.356  34.111  1.00  0.00     0.029 A 
ATOM     52  C   UNL A   1      39.296  33.376  34.214  1.00  0.00     0.049 A 
ATOM     53  H   UNL A   1      39.753  31.851  32.871  1.00  0.00     0.167 HD
ATOM     54  C   UNL A   1      40.508  28.619  30.008  1.00  0.00     0.037 A 
ATOM     55  C   UNL A   1      40.189  33.301  35.218  1.00  0.00     0.037 A 
ATOM     56  C   UNL A   1      41.551  28.514  30.994  1.00  0.00     0.049 A 
ATOM     57  C   UNL A   1      41.249  32.236  35.177  1.00  0.00     0.074 A 
ATOM     58  C   UNL A   1      42.616  27.633  31.026  1.00  0.00     0.029 A 
ATOM     59  N   UNL A   1      41.660  29.318  32.121  1.00  0.00    -0.354 N 
ATOM     60  N   UNL A   1      41.457  31.316  34.266  1.00  0.00    -0.248 NA
ATOM     61  C   UNL A   1      42.197  32.197  36.298  1.00  0.00     0.031 C 
ATOM     62  C   UNL A   1      43.338  27.865  32.200  1.00  0.00     0.029 A 
ATOM     63  C   UNL A   1      42.759  28.932  32.868  1.00  0.00     0.049 A 
ATOM     64  H   UNL A   1      41.046  30.051  32.353  1.00  0.00     0.167 HD
ATOM     65  C   UNL A   1      42.572  30.605  34.691  1.00  0.00     0.074 A 
ATOM     66  C   UNL A   1      43.004  31.209  35.934  1.00  0.00     0.031 C 
ATOM     67  C   UNL A   1      43.181  29.548  34.101  1.00  0.00     0.037 A 
BRANCH  54  68
ATOM     68  C   UNL A   1      40.509  27.638  28.872  1.00  0.00     0.057 A 
ATOM     69  C   UNL A   1      41.298  27.859  27.736  1.00  0.00     0.134 A 
ATOM     70  C   UNL A   1      39.674  26.514  28.868  1.00  0.00     0.134 A 
ATOM     71  F   UNL A   1      42.117  28.920  27.670  1.00  0.00    -0.206 F 
ATOM     72  C   UNL A   1      41.243  27.007  26.631  1.00  0.00     0.040 A 
ATOM     73  C   UNL A   1      39.632  25.638  27.783  1.00  0.00     0.040 A 
ATOM     74  F   UNL A   1      38.901  26.236  29.931  1.00  0.00    -0.206 F 
ATOM     75  C   UNL A   1      40.409  25.891  26.654  1.00  0.00     0.006 A 
ENDBRANCH  54  68
BRANCH  55  76
ATOM     76  C   UNL A   1      40.132  34.289  36.327  1.00  0.00     0.057 A 
ATOM     77  C   UNL A   1      40.891  35.465  36.301  1.00  0.00     0.134 A 
ATOM     78  C   UNL A   1      39.338  34.059  37.456  1.00  0.00     0.134 A 
ATOM     79  F   UNL A   1      41.679  35.741  35.251  1.00  0.00    -0.206 F 
ATOM     80  C   UNL A   1      40.881  36.365  37.368  1.00  0.00     0.040 A 
ATOM     81  C   UNL A   1      39.297  34.964  38.518  1.00  0.00     0.040 A 
ATOM     82  F   UNL A   1      38.575  32.958  37.532  1.00  0.00    -0.206 F 
ATOM     83  C   UNL A   1      40.078  36.117  38.479  1.00  0.00     0.006 A 
ENDBRANCH  55  76
BRANCH  67  84
ATOM     84  C   UNL A   1      44.398  28.979  34.771  1.00  0.00     0.057 A 
ATOM     85  C   UNL A   1      45.677  29.437  34.428  1.00  0.00     0.134 A 
ATOM     86  C   UNL A   1      44.310  27.917  35.678  1.00  0.00     0.134 A 
ATOM     87  F   UNL A   1      45.831  30.444  33.556  1.00  0.00    -0.206 F 
ATOM     88  C   UNL A   1      46.828  28.843  34.948  1.00  0.00     0.040 A 
ATOM     89  C   UNL A   1      45.454  27.332  36.226  1.00  0.00     0.040 A 
ATOM     90  F   UNL A   1      43.115  27.439  36.054  1.00  0.00    -0.206 F 
ATOM     91  C   UNL A   1      46.717  27.787  35.851  1.00  0.00     0.006 A 
ENDBRANCH  67  84
ENDBRANCH  41  42
ENDBRANCH  33  36
ENDBRANCH  31  32
ENDBRANCH  30  31
ENDBRANCH  29  30
ENDBRANCH  28  29
ENDBRANCH   1  28
TORSDOF 19
ENDMDL
MODEL 2
REMARK VINA RESULT:     -10.9      5.128     10.312
REMARK SMILES CC[C@@](C)([NH2+]CC(=O)N[C@@H](C)c1ccc(F)cc1)C(=O)NCCCCCCNC(=O)c1ccc(-c2c3nc(c(-c4c(F)cccc4F)c4ccc([nH]4)c(-c4c(F)cccc4F)c4nc(c(-c5c(F)cccc5F)c5ccc2[nH]5)C=C4)C=C3)cc1
REMARK SMILES IDX 23 1 22 2 21 3 19 4 20 5 3 7 4 8 2 9 1 10 5 11 6 14 7 15
REMARK SMILES IDX 8 16 9 17 10 19 11 20 12 21 13 22 18 23 14 24 17 25 15 26
REMARK SMILES IDX 16 27 24 28 25 29 26 30 27 31 28 32 29 33 30 35 31 36 32 37
REMARK SMILES IDX 84 38 33 39 83 40 34 41 35 42 36 43 77 44 37 45 82 46 76 47
REMARK SMILES IDX 78 48 38 49 81 50 75 51 74 52 39 54 65 55 48 56 64 57 49 58
REMARK SMILES IDX 52 59 63 60 79 61 50 62 51 63 62 65 80 66 53 67 40 68 41 69
REMARK SMILES IDX 46 70 42 71 43 72 45 73 47 74 44 75 66 76 67 77 72 78 68 79
REMARK SMILES IDX 69 80 71 81 73 82 70 83 54 84 55 85 60 86 56 87 57 88 59 89
REMARK SMILES IDX 61 90 58 91
REMARK H PARENT 21 6 5 12 5 13 9 18 28 34 78 53 52 64
REMARK Flexibility Score: inf
ROOT
ATOM      1  C   UNL A   1      36.173  23.604  25.026  1.00  0.00     0.021 C 
ENDROOT
BRANCH   1   2
ATOM      2  C   UNL A   1      34.863  23.671  24.248  1.00  0.00     0.116 C 
BRANCH   2   3
ATOM      3  N   UNL A   1      34.324  25.004  24.004  1.00  0.00    -0.351 N 
ATOM      4  C   UNL A   1      33.409  25.818  24.639  1.00  0.00     0.281 C 
ATOM      5  O   UNL A   1      33.749  27.009  24.554  1.00  0.00    -0.268 OA
ATOM      6  H   UNL A   1      34.702  25.422  23.197  1.00  0.00     0.163 HD
BRANCH   4   7
ATOM      7  C   UNL A   1      31.954  25.393  25.332  1.00  0.00     0.172 C 
ATOM      8  C   UNL A   1      30.630  26.107  25.750  1.00  0.00     0.090 C 
BRANCH   7   9
ATOM      9  C   UNL A   1      31.392  24.410  24.218  1.00  0.00     0.075 C 
ATOM     10  C   UNL A   1      30.827  25.162  22.966  1.00  0.00     0.011 C 
ENDBRANCH   7   9
BRANCH   7  11
ATOM     11  N   UNL A   1      32.398  24.825  26.605  1.00  0.00    -0.326 N 
ATOM     12  H   UNL A   1      32.022  25.407  27.353  1.00  0.00     0.347 HD
ATOM     13  H   UNL A   1      33.416  24.806  26.551  1.00  0.00     0.347 HD
BRANCH  11  14
ATOM     14  C   UNL A   1      31.991  23.414  26.882  1.00  0.00     0.362 C 
BRANCH  14  15
ATOM     15  C   UNL A   1      32.914  22.105  26.901  1.00  0.00     0.275 C 
ATOM     16  O   UNL A   1      33.820  22.166  27.764  1.00  0.00    -0.268 OA
ATOM     17  N   UNL A   1      32.967  20.903  26.252  1.00  0.00    -0.345 N 
ATOM     18  H   UNL A   1      33.605  20.333  26.739  1.00  0.00     0.164 HD
BRANCH  17  19
ATOM     19  C   UNL A   1      32.444  20.105  25.093  1.00  0.00     0.109 C 
ATOM     20  C   UNL A   1      32.626  20.775  23.711  1.00  0.00     0.036 C 
BRANCH  19  21
ATOM     21  C   UNL A   1      33.044  18.694  24.992  1.00  0.00    -0.026 A 
ATOM     22  C   UNL A   1      34.208  18.474  24.231  1.00  0.00     0.009 A 
ATOM     23  C   UNL A   1      32.580  17.632  25.791  1.00  0.00     0.009 A 
ATOM     24  C   UNL A   1      34.857  17.237  24.225  1.00  0.00     0.039 A 
ATOM     25  C   UNL A   1      33.272  16.417  25.842  1.00  0.00     0.039 A 
ATOM     26  C   UNL A   1      34.393  16.225  25.047  1.00  0.00     0.123 A 
ATOM     27  F   UNL A   1      35.053  15.062  25.099  1.00  0.00    -0.207 F 
ENDBRANCH  19  21
ENDBRANCH  17  19
ENDBRANCH  14  15
ENDBRANCH  11  14
ENDBRANCH   7  11
ENDBRANCH   4   7
ENDBRANCH   2   3
ENDBRANCH   1   2
BRANCH   1  28
ATOM     28  C   UNL A   1      37.121  22.479  24.593  1.00  0.00     0.002 C 
BRANCH  28  29
ATOM     29  C   UNL A   1      36.598  21.040  24.722  1.00  0.00     0.002 C 
BRANCH  29  30
ATOM     30  C   UNL A   1      37.640  19.949  24.976  1.00  0.00     0.021 C 
BRANCH  30  31
ATOM     31  C   UNL A   1      38.889  20.416  25.712  1.00  0.00     0.116 C 
BRANCH  31  32
ATOM     32  N   UNL A   1      39.879  19.356  25.848  1.00  0.00    -0.352 N 
ATOM     33  C   UNL A   1      41.222  19.442  26.088  1.00  0.00     0.251 C 
ATOM     34  H   UNL A   1      39.528  18.441  25.755  1.00  0.00     0.163 HD
ATOM     35  O   UNL A   1      41.937  18.441  25.981  1.00  0.00    -0.269 OA
BRANCH  33  36
ATOM     36  C   UNL A   1      41.823  20.734  26.461  1.00  0.00     0.039 A 
ATOM     37  C   UNL A   1      42.215  21.618  25.453  1.00  0.00     0.014 A 
ATOM     38  C   UNL A   1      41.997  21.073  27.806  1.00  0.00     0.014 A 
ATOM     39  C   UNL A   1      42.728  22.869  25.798  1.00  0.00     0.010 A 
ATOM     40  C   UNL A   1      42.427  22.349  28.146  1.00  0.00     0.010 A 
ATOM     41  C   UNL A   1      42.804  23.257  27.146  1.00  0.00    -0.014 A 
BRANCH  41  42
ATOM     42  C   UNL A   1      43.276  24.608  27.533  1.00  0.00     0.031 A 
ATOM     43  C   UNL A   1      42.290  25.653  27.971  1.00  0.00     0.074 A 
ATOM     44  C   UNL A   1      44.585  24.908  27.429  1.00  0.00     0.049 A 
ATOM     45  N   UNL A   1      42.500  26.906  28.280  1.00  0.00    -0.248 NA
ATOM     46  C   UNL A   1      40.877  25.245  28.049  1.00  0.00     0.031 C 
ATOM     47  C   UNL A   1      45.629  23.987  26.973  1.00  0.00     0.029 A 
ATOM     48  N   UNL A   1      45.261  26.072  27.692  1.00  0.00    -0.354 N 
ATOM     49  C   UNL A   1      41.251  27.435  28.579  1.00  0.00     0.074 A 
ATOM     50  C   UNL A   1      40.280  26.387  28.357  1.00  0.00     0.031 C 
ATOM     51  C   UNL A   1      46.816  24.610  27.022  1.00  0.00     0.029 A 
ATOM     52  C   UNL A   1      46.614  25.986  27.465  1.00  0.00     0.049 A 
ATOM     53  H   UNL A   1      44.819  26.890  28.015  1.00  0.00     0.167 HD
ATOM     54  C   UNL A   1      40.946  28.675  29.026  1.00  0.00     0.037 A 
ATOM     55  C   UNL A   1      47.581  26.915  27.592  1.00  0.00     0.037 A 
ATOM     56  C   UNL A   1      41.922  29.704  29.268  1.00  0.00     0.049 A 
ATOM     57  C   UNL A   1      47.214  28.293  28.069  1.00  0.00     0.074 A 
ATOM     58  C   UNL A   1      41.719  30.976  29.773  1.00  0.00     0.029 A 
ATOM     59  N   UNL A   1      43.282  29.580  29.024  1.00  0.00    -0.354 N 
ATOM     60  N   UNL A   1      46.036  28.763  28.403  1.00  0.00    -0.248 NA
ATOM     61  C   UNL A   1      48.306  29.268  28.189  1.00  0.00     0.031 C 
ATOM     62  C   UNL A   1      42.949  31.641  29.782  1.00  0.00     0.029 A 
ATOM     63  C   UNL A   1      43.926  30.763  29.342  1.00  0.00     0.049 A 
ATOM     64  H   UNL A   1      43.722  28.771  28.676  1.00  0.00     0.167 HD
ATOM     65  C   UNL A   1      46.247  30.078  28.794  1.00  0.00     0.074 A 
ATOM     66  C   UNL A   1      47.668  30.327  28.669  1.00  0.00     0.031 C 
ATOM     67  C   UNL A   1      45.344  30.994  29.219  1.00  0.00     0.037 A 
BRANCH  54  68
ATOM     68  C   UNL A   1      39.504  28.989  29.299  1.00  0.00     0.057 A 
ATOM     69  C   UNL A   1      38.955  28.784  30.571  1.00  0.00     0.134 A 
ATOM     70  C   UNL A   1      38.640  29.424  28.286  1.00  0.00     0.134 A 
ATOM     71  F   UNL A   1      39.725  28.363  31.586  1.00  0.00    -0.206 F 
ATOM     72  C   UNL A   1      37.596  28.984  30.821  1.00  0.00     0.040 A 
ATOM     73  C   UNL A   1      37.286  29.656  28.529  1.00  0.00     0.040 A 
ATOM     74  F   UNL A   1      39.104  29.652  27.047  1.00  0.00    -0.206 F 
ATOM     75  C   UNL A   1      36.757  29.424  29.798  1.00  0.00     0.006 A 
ENDBRANCH  54  68
BRANCH  55  76
ATOM     76  C   UNL A   1      48.990  26.553  27.293  1.00  0.00     0.057 A 
ATOM     77  C   UNL A   1      49.526  26.692  26.007  1.00  0.00     0.134 A 
ATOM     78  C   UNL A   1      49.825  26.026  28.284  1.00  0.00     0.134 A 
ATOM     79  F   UNL A   1      48.775  27.183  25.009  1.00  0.00    -0.206 F 
ATOM     80  C   UNL A   1      50.833  26.300  25.713  1.00  0.00     0.040 A 
ATOM     81  C   UNL A   1      51.143  25.655  28.011  1.00  0.00     0.040 A 
ATOM     82  F   UNL A   1      49.375  25.884  29.541  1.00  0.00    -0.206 F 
ATOM     83  C   UNL A   1      51.646  25.784  26.718  1.00  0.00     0.006 A 
ENDBRANCH  55  76
BRANCH  67  84
ATOM     84  C   UNL A   1      45.854  32.351  29.607  1.00  0.00     0.057 A 
ATOM     85  C   UNL A   1      46.235  32.617  30.929  1.00  0.00     0.134 A 
ATOM     86  C   UNL A   1      45.874  33.417  28.700  1.00  0.00     0.134 A 
ATOM     87  F   UNL A   1      46.227  31.642  31.850  1.00  0.00    -0.206 F 
ATOM     88  C   UNL A   1      46.598  33.900  31.340  1.00  0.00     0.040 A 
ATOM     89  C   UNL A   1      46.263  34.700  29.092  1.00  0.00     0.040 A 
ATOM     90  F   UNL A   1      45.529  33.227  27.418  1.00  0.00    -0.206 F 
ATOM     91  C   UNL A   1      46.613  34.946  30.418  1.00  0.00     0.006 A 
ENDBRANCH  67  84
ENDBRANCH  41  42
ENDBRANCH  33  36
ENDBRANCH  31  32
ENDBRANCH  30  31
ENDBRANCH  29  30
ENDBRANCH  28  29
ENDBRANCH   1  28
TORSDOF 19
ENDMDL
MODEL 3
REMARK VINA RESULT:     -10.8      4.317      8.701
REMARK SMILES CC[C@@](C)([NH2+]CC(=O)N[C@@H](C)c1ccc(F)cc1)C(=O)NCCCCCCNC(=O)c1ccc(-c2c3nc(c(-c4c(F)cccc4F)c4ccc([nH]4)c(-c4c(F)cccc4F)c4nc(c(-c5c(F)cccc5F)c5ccc2[nH]5)C=C4)C=C3)cc1
REMARK SMILES IDX 23 1 22 2 21 3 19 4 20 5 3 7 4 8 2 9 1 10 5 11 6 14 7 15
REMARK SMILES IDX 8 16 9 17 10 19 11 20 12 21 13 22 18 23 14 24 17 25 15 26
REMARK SMILES IDX 16 27 24 28 25 29 26 30 27 31 28 32 29 33 30 35 31 36 32 37
REMARK SMILES IDX 84 38 33 39 83 40 34 41 35 42 36 43 77 44 37 45 82 46 76 47
REMARK SMILES IDX 78 48 38 49 81 50 75 51 74 52 39 54 65 55 48 56 64 57 49 58
REMARK SMILES IDX 52 59 63 60 79 61 50 62 51 63 62 65 80 66 53 67 40 68 41 69
REMARK SMILES IDX 46 70 42 71 43 72 45 73 47 74 44 75 66 76 67 77 72 78 68 79
REMARK SMILES IDX 69 80 71 81 73 82 70 83 54 84 55 85 60 86 56 87 57 88 59 89
REMARK SMILES IDX 61 90 58 91
REMARK H PARENT 21 6 5 12 5 13 9 18 28 34 78 53 52 64
REMARK Flexibility Score: inf
ROOT
ATOM      1  C   UNL A   1      35.375  21.758  26.200  1.00  0.00     0.021 C 
ENDROOT
BRANCH   1   2
ATOM      2  C   UNL A   1      33.963  21.409  26.658  1.00  0.00     0.116 C 
BRANCH   2   3
ATOM      3  N   UNL A   1      32.981  21.179  25.605  1.00  0.00    -0.351 N 
ATOM      4  C   UNL A   1      32.449  21.938  24.583  1.00  0.00     0.281 C 
ATOM      5  O   UNL A   1      32.237  21.237  23.580  1.00  0.00    -0.268 OA
ATOM      6  H   UNL A   1      32.611  20.267  25.627  1.00  0.00     0.163 HD
BRANCH   4   7
ATOM      7  C   UNL A   1      31.986  23.538  24.619  1.00  0.00     0.172 C 
ATOM      8  C   UNL A   1      31.273  24.505  25.615  1.00  0.00     0.090 C 
BRANCH   7   9
ATOM      9  C   UNL A   1      33.408  24.242  24.530  1.00  0.00     0.075 C 
ATOM     10  C   UNL A   1      33.749  25.096  25.797  1.00  0.00     0.011 C 
ENDBRANCH   7   9
BRANCH   7  11
ATOM     11  N   UNL A   1      31.100  23.607  23.456  1.00  0.00    -0.326 N 
ATOM     12  H   UNL A   1      30.241  23.109  23.691  1.00  0.00     0.347 HD
ATOM     13  H   UNL A   1      31.632  23.198  22.688  1.00  0.00     0.347 HD
BRANCH  11  14
ATOM     14  C   UNL A   1      30.718  24.973  22.989  1.00  0.00     0.362 C 
BRANCH  14  15
ATOM     15  C   UNL A   1      31.581  25.994  22.107  1.00  0.00     0.275 C 
ATOM     16  O   UNL A   1      32.250  25.416  21.219  1.00  0.00    -0.268 OA
ATOM     17  N   UNL A   1      31.767  27.345  22.027  1.00  0.00    -0.345 N 
ATOM     18  H   UNL A   1      32.255  27.527  21.192  1.00  0.00     0.164 HD
BRANCH  17  19
ATOM     19  C   UNL A   1      31.527  28.663  22.704  1.00  0.00     0.109 C 
ATOM     20  C   UNL A   1      30.045  29.105  22.753  1.00  0.00     0.036 C 
BRANCH  19  21
ATOM     21  C   UNL A   1      32.063  28.727  24.144  1.00  0.00    -0.026 A 
ATOM     22  C   UNL A   1      31.222  28.407  25.226  1.00  0.00     0.009 A 
ATOM     23  C   UNL A   1      33.431  28.913  24.416  1.00  0.00     0.009 A 
ATOM     24  C   UNL A   1      31.709  28.323  26.532  1.00  0.00     0.039 A 
ATOM     25  C   UNL A   1      33.932  28.756  25.714  1.00  0.00     0.039 A 
ATOM     26  C   UNL A   1      33.064  28.479  26.761  1.00  0.00     0.123 A 
ATOM     27  F   UNL A   1      33.547  28.329  28.001  1.00  0.00    -0.207 F 
ENDBRANCH  19  21
ENDBRANCH  17  19
ENDBRANCH  14  15
ENDBRANCH  11  14
ENDBRANCH   7  11
ENDBRANCH   4   7
ENDBRANCH   2   3
ENDBRANCH   1   2
BRANCH   1  28
ATOM     28  C   UNL A   1      35.845  21.018  24.942  1.00  0.00     0.002 C 
BRANCH  28  29
ATOM     29  C   UNL A   1      37.336  21.128  24.586  1.00  0.00     0.002 C 
BRANCH  29  30
ATOM     30  C   UNL A   1      38.211  19.914  24.905  1.00  0.00     0.021 C 
BRANCH  30  31
ATOM     31  C   UNL A   1      39.188  20.113  26.057  1.00  0.00     0.116 C 
BRANCH  31  32
ATOM     32  N   UNL A   1      40.351  19.243  25.951  1.00  0.00    -0.352 N 
ATOM     33  C   UNL A   1      41.680  19.544  26.068  1.00  0.00     0.251 C 
ATOM     34  H   UNL A   1      40.151  18.297  25.770  1.00  0.00     0.163 HD
ATOM     35  O   UNL A   1      42.535  18.710  25.759  1.00  0.00    -0.269 OA
BRANCH  33  36
ATOM     36  C   UNL A   1      42.094  20.873  26.551  1.00  0.00     0.039 A 
ATOM     37  C   UNL A   1      42.467  21.848  25.624  1.00  0.00     0.014 A 
ATOM     38  C   UNL A   1      42.112  21.155  27.920  1.00  0.00     0.014 A 
ATOM     39  C   UNL A   1      42.801  23.128  26.069  1.00  0.00     0.010 A 
ATOM     40  C   UNL A   1      42.362  22.451  28.355  1.00  0.00     0.010 A 
ATOM     41  C   UNL A   1      42.717  23.448  27.434  1.00  0.00    -0.014 A 
BRANCH  41  42
ATOM     42  C   UNL A   1      42.996  24.819  27.921  1.00  0.00     0.031 A 
ATOM     43  C   UNL A   1      44.407  25.233  28.238  1.00  0.00     0.074 A 
ATOM     44  C   UNL A   1      41.974  25.669  28.136  1.00  0.00     0.049 A 
ATOM     45  N   UNL A   1      44.842  26.360  28.738  1.00  0.00    -0.248 NA
ATOM     46  C   UNL A   1      45.464  24.241  27.982  1.00  0.00     0.031 C 
ATOM     47  C   UNL A   1      40.560  25.364  27.906  1.00  0.00     0.029 A 
ATOM     48  N   UNL A   1      41.963  26.959  28.601  1.00  0.00    -0.354 N 
ATOM     49  C   UNL A   1      46.217  26.208  28.864  1.00  0.00     0.074 A 
ATOM     50  C   UNL A   1      46.538  24.863  28.447  1.00  0.00     0.031 C 
ATOM     51  C   UNL A   1      39.824  26.447  28.198  1.00  0.00     0.029 A 
ATOM     52  C   UNL A   1      40.705  27.506  28.681  1.00  0.00     0.049 A 
ATOM     53  H   UNL A   1      42.780  27.448  28.853  1.00  0.00     0.167 HD
ATOM     54  C   UNL A   1      47.131  27.121  29.266  1.00  0.00     0.037 A 
ATOM     55  C   UNL A   1      40.306  28.720  29.102  1.00  0.00     0.037 A 
ATOM     56  C   UNL A   1      46.805  28.467  29.656  1.00  0.00     0.049 A 
ATOM     57  C   UNL A   1      41.338  29.710  29.565  1.00  0.00     0.074 A 
ATOM     58  C   UNL A   1      47.665  29.485  30.027  1.00  0.00     0.029 A 
ATOM     59  N   UNL A   1      45.518  28.983  29.725  1.00  0.00    -0.354 N 
ATOM     60  N   UNL A   1      42.641  29.574  29.626  1.00  0.00    -0.248 NA
ATOM     61  C   UNL A   1      40.849  31.020  30.016  1.00  0.00     0.031 C 
ATOM     62  C   UNL A   1      46.896  30.599  30.374  1.00  0.00     0.029 A 
ATOM     63  C   UNL A   1      45.561  30.296  30.160  1.00  0.00     0.049 A 
ATOM     64  H   UNL A   1      44.698  28.487  29.499  1.00  0.00     0.167 HD
ATOM     65  C   UNL A   1      43.130  30.785  30.098  1.00  0.00     0.074 A 
ATOM     66  C   UNL A   1      41.984  31.649  30.294  1.00  0.00     0.031 C 
ATOM     67  C   UNL A   1      44.412  31.146  30.344  1.00  0.00     0.037 A 
BRANCH  54  68
ATOM     68  C   UNL A   1      48.574  26.708  29.291  1.00  0.00     0.057 A 
ATOM     69  C   UNL A   1      49.378  26.846  28.153  1.00  0.00     0.134 A 
ATOM     70  C   UNL A   1      49.148  26.104  30.417  1.00  0.00     0.134 A 
ATOM     71  F   UNL A   1      48.890  27.410  27.038  1.00  0.00    -0.206 F 
ATOM     72  C   UNL A   1      50.695  26.383  28.129  1.00  0.00     0.040 A 
ATOM     73  C   UNL A   1      50.472  25.664  30.416  1.00  0.00     0.040 A 
ATOM     74  F   UNL A   1      48.436  25.952  31.546  1.00  0.00    -0.206 F 
ATOM     75  C   UNL A   1      51.246  25.793  29.264  1.00  0.00     0.006 A 
ENDBRANCH  54  68
BRANCH  55  76
ATOM     76  C   UNL A   1      38.862  29.071  29.071  1.00  0.00     0.057 A 
ATOM     77  C   UNL A   1      38.254  29.571  27.913  1.00  0.00     0.134 A 
ATOM     78  C   UNL A   1      38.065  28.945  30.214  1.00  0.00     0.134 A 
ATOM     79  F   UNL A   1      38.964  29.724  26.785  1.00  0.00    -0.206 F 
ATOM     80  C   UNL A   1      36.912  29.953  27.899  1.00  0.00     0.040 A 
ATOM     81  C   UNL A   1      36.715  29.298  30.207  1.00  0.00     0.040 A 
ATOM     82  F   UNL A   1      38.586  28.456  31.350  1.00  0.00    -0.206 F 
ATOM     83  C   UNL A   1      36.137  29.813  29.049  1.00  0.00     0.006 A 
ENDBRANCH  55  76
BRANCH  67  84
ATOM     84  C   UNL A   1      44.663  32.543  30.833  1.00  0.00     0.057 A 
ATOM     85  C   UNL A   1      44.889  33.585  29.924  1.00  0.00     0.134 A 
ATOM     86  C   UNL A   1      44.779  32.836  32.197  1.00  0.00     0.134 A 
ATOM     87  F   UNL A   1      44.806  33.368  28.603  1.00  0.00    -0.206 F 
ATOM     88  C   UNL A   1      45.243  34.864  30.353  1.00  0.00     0.040 A 
ATOM     89  C   UNL A   1      45.104  34.120  32.640  1.00  0.00     0.040 A 
ATOM     90  F   UNL A   1      44.566  31.885  33.118  1.00  0.00    -0.206 F 
ATOM     91  C   UNL A   1      45.350  35.134  31.717  1.00  0.00     0.006 A 
ENDBRANCH  67  84
ENDBRANCH  41  42
ENDBRANCH  33  36
ENDBRANCH  31  32
ENDBRANCH  30  31
ENDBRANCH  29  30
ENDBRANCH  28  29
ENDBRANCH   1  28
TORSDOF 19
ENDMDL
