MODEL 1
REMARK VINA RESULT:     -10.6      0.000      0.000
REMARK SMILES Cc1noc(C)c1[C@@H](C)NC(=O)N(CC(=O)NCCCCCCNC(=O)c1ccc(-c2c3nc(c(-c4c(F)cccc4F)c4ccc([nH]4)c(-c4c(F)cccc4F)c4nc(c(-c5c(F)cccc5F)c5ccc2[nH]5)C=C4)C=C3)cc1)C(C)C
REMARK SMILES IDX 19 1 18 2 17 3 15 4 16 5 14 7 13 8 11 9 10 10 12 12 8 13
REMARK SMILES IDX 9 14 7 15 1 16 2 17 3 18 4 19 5 20 6 21 81 22 82 23 83 24
REMARK SMILES IDX 20 25 21 26 22 27 23 28 24 29 25 30 26 32 27 33 28 34 80 35
REMARK SMILES IDX 29 36 79 37 30 38 31 39 32 40 73 41 33 42 78 43 72 44 74 45
REMARK SMILES IDX 34 46 77 47 71 48 70 49 35 51 61 52 44 53 60 54 45 55 48 56
REMARK SMILES IDX 59 57 75 58 46 59 47 60 58 62 76 63 49 64 36 65 37 66 42 67
REMARK SMILES IDX 38 68 39 69 41 70 43 71 40 72 62 73 63 74 68 75 64 76 65 77
REMARK SMILES IDX 67 78 69 79 66 80 50 81 51 82 56 83 52 84 53 85 55 86 57 87
REMARK SMILES IDX 54 88
REMARK H PARENT 17 6 10 11 24 31 74 50 48 61
REMARK Flexibility Score: inf
ROOT
ATOM      1  C   UNL A   1      33.966  29.564  26.118  1.00  0.00     0.021 C 
ENDROOT
BRANCH   1   2
ATOM      2  C   UNL A   1      33.093  29.301  24.899  1.00  0.00     0.116 C 
BRANCH   2   3
ATOM      3  N   UNL A   1      33.826  28.807  23.757  1.00  0.00    -0.355 N 
ATOM      4  C   UNL A   1      33.454  27.967  22.755  1.00  0.00     0.239 C 
ATOM      5  O   UNL A   1      34.212  27.910  21.777  1.00  0.00    -0.273 OA
ATOM      6  H   UNL A   1      34.752  29.135  23.693  1.00  0.00     0.163 HD
BRANCH   4   7
ATOM      7  C   UNL A   1      32.093  27.248  22.699  1.00  0.00     0.221 C 
BRANCH   7   8
ATOM      8  N   UNL A   1      32.067  25.787  22.754  1.00  0.00    -0.313 N 
BRANCH   8   9
ATOM      9  C   UNL A   1      33.124  24.919  22.718  1.00  0.00     0.318 C 
ATOM     10  N   UNL A   1      33.944  24.638  23.746  1.00  0.00    -0.331 N 
ATOM     11  H   UNL A   1      34.593  23.951  23.468  1.00  0.00     0.165 HD
ATOM     12  O   UNL A   1      33.434  24.322  21.680  1.00  0.00    -0.249 OA
BRANCH  10  13
ATOM     13  C   UNL A   1      34.197  25.011  25.136  1.00  0.00     0.116 C 
ATOM     14  C   UNL A   1      35.565  24.504  25.606  1.00  0.00     0.036 C 
BRANCH  13  15
ATOM     15  C   UNL A   1      33.064  24.485  25.964  1.00  0.00     0.040 A 
ATOM     16  C   UNL A   1      33.454  21.876  26.039  1.00  0.00     0.071 C 
ATOM     17  C   UNL A   1      32.754  23.145  26.354  1.00  0.00     0.086 A 
ATOM     18  N   UNL A   1      31.660  23.098  27.123  1.00  0.00    -0.085 NA
ATOM     19  O   UNL A   1      31.216  24.395  27.230  1.00  0.00    -0.361 OA
ATOM     20  C   UNL A   1      32.043  25.220  26.541  1.00  0.00     0.139 A 
ATOM     21  C   UNL A   1      31.679  26.648  26.557  1.00  0.00     0.091 C 
ENDBRANCH  13  15
ENDBRANCH  10  13
ENDBRANCH   8   9
BRANCH   8  22
ATOM     22  C   UNL A   1      30.689  25.235  22.916  1.00  0.00     0.081 C 
ATOM     23  C   UNL A   1      30.654  23.800  23.434  1.00  0.00     0.031 C 
ATOM     24  C   UNL A   1      29.753  26.144  23.716  1.00  0.00     0.031 C 
ENDBRANCH   8  22
ENDBRANCH   7   8
ENDBRANCH   4   7
ENDBRANCH   2   3
ENDBRANCH   1   2
BRANCH   1  25
ATOM     25  C   UNL A   1      33.249  30.315  27.239  1.00  0.00     0.002 C 
BRANCH  25  26
ATOM     26  C   UNL A   1      31.790  30.662  26.933  1.00  0.00     0.002 C 
BRANCH  26  27
ATOM     27  C   UNL A   1      31.474  32.160  26.918  1.00  0.00     0.021 C 
BRANCH  27  28
ATOM     28  C   UNL A   1      32.699  33.064  26.844  1.00  0.00     0.116 C 
BRANCH  28  29
ATOM     29  N   UNL A   1      32.533  34.267  27.644  1.00  0.00    -0.352 N 
ATOM     30  C   UNL A   1      33.159  34.627  28.810  1.00  0.00     0.251 C 
ATOM     31  H   UNL A   1      31.878  34.916  27.299  1.00  0.00     0.163 HD
ATOM     32  O   UNL A   1      32.745  35.571  29.471  1.00  0.00    -0.269 OA
BRANCH  30  33
ATOM     33  C   UNL A   1      34.330  33.855  29.272  1.00  0.00     0.039 A 
ATOM     34  C   UNL A   1      35.606  34.260  28.876  1.00  0.00     0.014 A 
ATOM     35  C   UNL A   1      34.165  32.734  30.093  1.00  0.00     0.014 A 
ATOM     36  C   UNL A   1      36.723  33.569  29.346  1.00  0.00     0.010 A 
ATOM     37  C   UNL A   1      35.282  32.096  30.622  1.00  0.00     0.010 A 
ATOM     38  C   UNL A   1      36.572  32.502  30.248  1.00  0.00    -0.014 A 
BRANCH  38  39
ATOM     39  C   UNL A   1      37.752  31.795  30.804  1.00  0.00     0.031 A 
ATOM     40  C   UNL A   1      38.286  32.169  32.158  1.00  0.00     0.074 A 
ATOM     41  C   UNL A   1      38.375  30.857  30.066  1.00  0.00     0.049 A 
ATOM     42  N   UNL A   1      39.335  31.707  32.790  1.00  0.00    -0.248 NA
ATOM     43  C   UNL A   1      37.561  33.221  32.890  1.00  0.00     0.031 C 
ATOM     44  C   UNL A   1      37.980  30.439  28.720  1.00  0.00     0.029 A 
ATOM     45  N   UNL A   1      39.479  30.090  30.341  1.00  0.00    -0.354 N 
ATOM     46  C   UNL A   1      39.401  32.416  33.983  1.00  0.00     0.074 A 
ATOM     47  C   UNL A   1      38.323  33.379  33.962  1.00  0.00     0.031 C 
ATOM     48  C   UNL A   1      38.813  29.474  28.297  1.00  0.00     0.029 A 
ATOM     49  C   UNL A   1      39.824  29.236  29.321  1.00  0.00     0.049 A 
ATOM     50  H   UNL A   1      39.978  30.147  31.188  1.00  0.00     0.167 HD
ATOM     51  C   UNL A   1      40.265  32.260  35.014  1.00  0.00     0.037 A 
ATOM     52  C   UNL A   1      40.845  28.364  29.222  1.00  0.00     0.037 A 
ATOM     53  C   UNL A   1      41.327  31.289  35.036  1.00  0.00     0.049 A 
ATOM     54  C   UNL A   1      41.805  28.225  30.372  1.00  0.00     0.074 A 
ATOM     55  C   UNL A   1      42.224  31.015  36.054  1.00  0.00     0.029 A 
ATOM     56  N   UNL A   1      41.640  30.434  33.988  1.00  0.00    -0.354 N 
ATOM     57  N   UNL A   1      41.813  28.852  31.523  1.00  0.00    -0.248 NA
ATOM     58  C   UNL A   1      42.892  27.250  30.211  1.00  0.00     0.031 C 
ATOM     59  C   UNL A   1      43.113  30.035  35.602  1.00  0.00     0.029 A 
ATOM     60  C   UNL A   1      42.733  29.653  34.326  1.00  0.00     0.049 A 
ATOM     61  H   UNL A   1      41.156  30.391  33.132  1.00  0.00     0.167 HD
ATOM     62  C   UNL A   1      42.883  28.327  32.235  1.00  0.00     0.074 A 
ATOM     63  C   UNL A   1      43.491  27.318  31.392  1.00  0.00     0.031 C 
ATOM     64  C   UNL A   1      43.322  28.648  33.477  1.00  0.00     0.037 A 
BRANCH  51  65
ATOM     65  C   UNL A   1      40.098  33.163  36.202  1.00  0.00     0.057 A 
ATOM     66  C   UNL A   1      40.804  34.368  36.322  1.00  0.00     0.134 A 
ATOM     67  C   UNL A   1      39.195  32.842  37.224  1.00  0.00     0.134 A 
ATOM     68  F   UNL A   1      41.693  34.731  35.386  1.00  0.00    -0.206 F 
ATOM     69  C   UNL A   1      40.641  35.204  37.429  1.00  0.00     0.040 A 
ATOM     70  C   UNL A   1      39.000  33.685  38.319  1.00  0.00     0.040 A 
ATOM     71  F   UNL A   1      38.480  31.708  37.171  1.00  0.00    -0.206 F 
ATOM     72  C   UNL A   1      39.730  34.867  38.428  1.00  0.00     0.006 A 
ENDBRANCH  51  65
BRANCH  52  73
ATOM     73  C   UNL A   1      41.007  27.544  27.994  1.00  0.00     0.057 A 
ATOM     74  C   UNL A   1      41.760  28.008  26.909  1.00  0.00     0.134 A 
ATOM     75  C   UNL A   1      40.408  26.285  27.870  1.00  0.00     0.134 A 
ATOM     76  F   UNL A   1      42.346  29.213  26.960  1.00  0.00    -0.206 F 
ATOM     77  C   UNL A   1      41.891  27.262  25.736  1.00  0.00     0.040 A 
ATOM     78  C   UNL A   1      40.554  25.515  26.715  1.00  0.00     0.040 A 
ATOM     79  F   UNL A   1      39.682  25.777  28.877  1.00  0.00    -0.206 F 
ATOM     80  C   UNL A   1      41.290  26.008  25.639  1.00  0.00     0.006 A 
ENDBRANCH  52  73
BRANCH  64  81
ATOM     81  C   UNL A   1      44.492  27.874  34.016  1.00  0.00     0.057 A 
ATOM     82  C   UNL A   1      44.333  26.654  34.682  1.00  0.00     0.134 A 
ATOM     83  C   UNL A   1      45.800  28.343  33.828  1.00  0.00     0.134 A 
ATOM     84  F   UNL A   1      43.108  26.155  34.905  1.00  0.00    -0.206 F 
ATOM     85  C   UNL A   1      45.430  25.938  35.166  1.00  0.00     0.040 A 
ATOM     86  C   UNL A   1      46.906  27.622  34.281  1.00  0.00     0.040 A 
ATOM     87  F   UNL A   1      46.025  29.501  33.189  1.00  0.00    -0.206 F 
ATOM     88  C   UNL A   1      46.722  26.419  34.958  1.00  0.00     0.006 A 
ENDBRANCH  64  81
ENDBRANCH  38  39
ENDBRANCH  30  33
ENDBRANCH  28  29
ENDBRANCH  27  28
ENDBRANCH  26  27
ENDBRANCH  25  26
ENDBRANCH   1  25
TORSDOF 18
ENDMDL
MODEL 2
REMARK VINA RESULT:     -10.6      1.270      6.165
REMARK SMILES Cc1noc(C)c1[C@@H](C)NC(=O)N(CC(=O)NCCCCCCNC(=O)c1ccc(-c2c3nc(c(-c4c(F)cccc4F)c4ccc([nH]4)c(-c4c(F)cccc4F)c4nc(c(-c5c(F)cccc5F)c5ccc2[nH]5)C=C4)C=C3)cc1)C(C)C
REMARK SMILES IDX 19 1 18 2 17 3 15 4 16 5 14 7 13 8 11 9 10 10 12 12 8 13
REMARK SMILES IDX 9 14 7 15 1 16 2 17 3 18 4 19 5 20 6 21 81 22 82 23 83 24
REMARK SMILES IDX 20 25 21 26 22 27 23 28 24 29 25 30 26 32 27 33 28 34 80 35
REMARK SMILES IDX 29 36 79 37 30 38 31 39 32 40 73 41 33 42 78 43 72 44 74 45
REMARK SMILES IDX 34 46 77 47 71 48 70 49 35 51 61 52 44 53 60 54 45 55 48 56
REMARK SMILES IDX 59 57 75 58 46 59 47 60 58 62 76 63 49 64 36 65 37 66 42 67
REMARK SMILES IDX 38 68 39 69 41 70 43 71 40 72 62 73 63 74 68 75 64 76 65 77
REMARK SMILES IDX 67 78 69 79 66 80 50 81 51 82 56 83 52 84 53 85 55 86 57 87
REMARK SMILES IDX 54 88
REMARK H PARENT 17 6 10 11 24 31 74 50 48 61
REMARK Flexibility Score: inf
ROOT
ATOM      1  C   UNL A   1      34.192  29.058  26.008  1.00  0.00     0.021 C 
ENDROOT
BRANCH   1   2
ATOM      2  C   UNL A   1      33.377  29.263  24.739  1.00  0.00     0.116 C 
BRANCH   2   3
ATOM      3  N   UNL A   1      33.973  28.669  23.565  1.00  0.00    -0.355 N 
ATOM      4  C   UNL A   1      33.513  27.706  22.722  1.00  0.00     0.239 C 
ATOM      5  O   UNL A   1      34.133  27.566  21.660  1.00  0.00    -0.273 OA
ATOM      6  H   UNL A   1      34.864  29.020  23.337  1.00  0.00     0.163 HD
BRANCH   4   7
ATOM      7  C   UNL A   1      32.196  26.937  22.936  1.00  0.00     0.221 C 
BRANCH   7   8
ATOM      8  N   UNL A   1      32.221  25.475  22.893  1.00  0.00    -0.313 N 
BRANCH   8   9
ATOM      9  C   UNL A   1      33.310  24.647  22.854  1.00  0.00     0.318 C 
ATOM     10  N   UNL A   1      34.137  24.389  23.882  1.00  0.00    -0.331 N 
ATOM     11  H   UNL A   1      34.811  23.729  23.601  1.00  0.00     0.165 HD
ATOM     12  O   UNL A   1      33.645  24.070  21.812  1.00  0.00    -0.249 OA
BRANCH  10  13
ATOM     13  C   UNL A   1      34.372  24.761  25.276  1.00  0.00     0.116 C 
ATOM     14  C   UNL A   1      35.719  24.224  25.773  1.00  0.00     0.036 C 
BRANCH  13  15
ATOM     15  C   UNL A   1      33.212  24.264  26.083  1.00  0.00     0.040 A 
ATOM     16  C   UNL A   1      31.746  26.413  26.525  1.00  0.00     0.071 C 
ATOM     17  C   UNL A   1      32.087  24.973  26.610  1.00  0.00     0.086 A 
ATOM     18  N   UNL A   1      31.251  24.154  27.259  1.00  0.00    -0.085 NA
ATOM     19  O   UNL A   1      31.820  22.904  27.196  1.00  0.00    -0.361 OA
ATOM     20  C   UNL A   1      32.984  22.966  26.504  1.00  0.00     0.139 A 
ATOM     21  C   UNL A   1      33.715  21.692  26.368  1.00  0.00     0.091 C 
ENDBRANCH  13  15
ENDBRANCH  10  13
ENDBRANCH   8   9
BRANCH   8  22
ATOM     22  C   UNL A   1      30.858  24.868  22.948  1.00  0.00     0.081 C 
ATOM     23  C   UNL A   1      30.837  23.445  23.501  1.00  0.00     0.031 C 
ATOM     24  C   UNL A   1      29.818  25.755  23.637  1.00  0.00     0.031 C 
ENDBRANCH   8  22
ENDBRANCH   7   8
ENDBRANCH   4   7
ENDBRANCH   2   3
ENDBRANCH   1   2
BRANCH   1  25
ATOM     25  C   UNL A   1      33.621  29.775  27.230  1.00  0.00     0.002 C 
BRANCH  25  26
ATOM     26  C   UNL A   1      32.115  30.043  27.158  1.00  0.00     0.002 C 
BRANCH  26  27
ATOM     27  C   UNL A   1      31.731  31.515  26.989  1.00  0.00     0.021 C 
BRANCH  27  28
ATOM     28  C   UNL A   1      32.912  32.479  26.962  1.00  0.00     0.116 C 
BRANCH  28  29
ATOM     29  N   UNL A   1      32.583  33.756  27.572  1.00  0.00    -0.352 N 
ATOM     30  C   UNL A   1      33.185  34.395  28.626  1.00  0.00     0.251 C 
ATOM     31  H   UNL A   1      31.818  34.230  27.173  1.00  0.00     0.163 HD
ATOM     32  O   UNL A   1      32.648  35.359  29.156  1.00  0.00    -0.269 OA
BRANCH  30  33
ATOM     33  C   UNL A   1      34.483  33.900  29.128  1.00  0.00     0.039 A 
ATOM     34  C   UNL A   1      34.499  33.039  30.227  1.00  0.00     0.014 A 
ATOM     35  C   UNL A   1      35.678  34.290  28.515  1.00  0.00     0.014 A 
ATOM     36  C   UNL A   1      35.714  32.526  30.680  1.00  0.00     0.010 A 
ATOM     37  C   UNL A   1      36.879  33.717  28.919  1.00  0.00     0.010 A 
ATOM     38  C   UNL A   1      36.911  32.836  30.010  1.00  0.00    -0.014 A 
BRANCH  38  39
ATOM     39  C   UNL A   1      38.204  32.251  30.443  1.00  0.00     0.031 A 
ATOM     40  C   UNL A   1      38.675  30.947  29.860  1.00  0.00     0.074 A 
ATOM     41  C   UNL A   1      38.926  32.864  31.399  1.00  0.00     0.049 A 
ATOM     42  N   UNL A   1      39.746  30.252  30.147  1.00  0.00    -0.248 NA
ATOM     43  C   UNL A   1      37.816  30.330  28.836  1.00  0.00     0.031 C 
ATOM     44  C   UNL A   1      38.552  34.109  32.074  1.00  0.00     0.029 A 
ATOM     45  N   UNL A   1      40.121  32.520  31.977  1.00  0.00    -0.354 N 
ATOM     46  C   UNL A   1      39.683  29.115  29.351  1.00  0.00     0.074 A 
ATOM     47  C   UNL A   1      38.442  29.183  28.613  1.00  0.00     0.031 C 
ATOM     48  C   UNL A   1      39.511  34.437  32.954  1.00  0.00     0.029 A 
ATOM     49  C   UNL A   1      40.544  33.406  32.938  1.00  0.00     0.049 A 
ATOM     50  H   UNL A   1      40.629  31.714  31.727  1.00  0.00     0.167 HD
ATOM     51  C   UNL A   1      40.591  28.117  29.228  1.00  0.00     0.037 A 
ATOM     52  C   UNL A   1      41.638  33.386  33.723  1.00  0.00     0.037 A 
ATOM     53  C   UNL A   1      41.832  28.062  29.954  1.00  0.00     0.049 A 
ATOM     54  C   UNL A   1      42.620  32.256  33.582  1.00  0.00     0.074 A 
ATOM     55  C   UNL A   1      42.843  27.121  29.861  1.00  0.00     0.029 A 
ATOM     56  N   UNL A   1      42.230  28.983  30.912  1.00  0.00    -0.354 N 
ATOM     57  N   UNL A   1      42.583  31.223  32.774  1.00  0.00    -0.248 NA
ATOM     58  C   UNL A   1      43.801  32.292  34.455  1.00  0.00     0.031 C 
ATOM     59  C   UNL A   1      43.827  27.443  30.802  1.00  0.00     0.029 A 
ATOM     60  C   UNL A   1      43.458  28.617  31.438  1.00  0.00     0.049 A 
ATOM     61  H   UNL A   1      41.714  29.778  31.179  1.00  0.00     0.167 HD
ATOM     62  C   UNL A   1      43.747  30.506  33.019  1.00  0.00     0.074 A 
ATOM     63  C   UNL A   1      44.477  31.230  34.040  1.00  0.00     0.031 C 
ATOM     64  C   UNL A   1      44.175  29.353  32.449  1.00  0.00     0.037 A 
BRANCH  51  65
ATOM     65  C   UNL A   1      40.271  27.003  28.272  1.00  0.00     0.057 A 
ATOM     66  C   UNL A   1      40.814  26.956  26.981  1.00  0.00     0.134 A 
ATOM     67  C   UNL A   1      39.436  25.946  28.658  1.00  0.00     0.134 A 
ATOM     68  F   UNL A   1      41.613  27.941  26.543  1.00  0.00    -0.206 F 
ATOM     69  C   UNL A   1      40.516  25.916  26.099  1.00  0.00     0.040 A 
ATOM     70  C   UNL A   1      39.155  24.885  27.796  1.00  0.00     0.040 A 
ATOM     71  F   UNL A   1      38.887  25.923  29.881  1.00  0.00    -0.206 F 
ATOM     72  C   UNL A   1      39.690  24.871  26.509  1.00  0.00     0.006 A 
ENDBRANCH  51  65
BRANCH  52  73
ATOM     73  C   UNL A   1      41.872  34.477  34.703  1.00  0.00     0.057 A 
ATOM     74  C   UNL A   1      41.450  34.358  36.032  1.00  0.00     0.134 A 
ATOM     75  C   UNL A   1      42.512  35.667  34.335  1.00  0.00     0.134 A 
ATOM     76  F   UNL A   1      40.817  33.248  36.442  1.00  0.00    -0.206 F 
ATOM     77  C   UNL A   1      41.633  35.390  36.954  1.00  0.00     0.040 A 
ATOM     78  C   UNL A   1      42.728  36.696  35.254  1.00  0.00     0.040 A 
ATOM     79  F   UNL A   1      42.951  35.841  33.080  1.00  0.00    -0.206 F 
ATOM     80  C   UNL A   1      42.278  36.562  36.566  1.00  0.00     0.006 A 
ENDBRANCH  52  73
BRANCH  64  81
ATOM     81  C   UNL A   1      45.511  28.823  32.886  1.00  0.00     0.057 A 
ATOM     82  C   UNL A   1      45.641  27.909  33.938  1.00  0.00     0.134 A 
ATOM     83  C   UNL A   1      46.681  29.207  32.215  1.00  0.00     0.134 A 
ATOM     84  F   UNL A   1      44.563  27.510  34.629  1.00  0.00    -0.206 F 
ATOM     85  C   UNL A   1      46.888  27.414  34.325  1.00  0.00     0.040 A 
ATOM     86  C   UNL A   1      47.929  28.697  32.574  1.00  0.00     0.040 A 
ATOM     87  F   UNL A   1      46.628  30.073  31.192  1.00  0.00    -0.206 F 
ATOM     88  C   UNL A   1      48.036  27.802  33.636  1.00  0.00     0.006 A 
ENDBRANCH  64  81
ENDBRANCH  38  39
ENDBRANCH  30  33
ENDBRANCH  28  29
ENDBRANCH  27  28
ENDBRANCH  26  27
ENDBRANCH  25  26
ENDBRANCH   1  25
TORSDOF 18
ENDMDL
MODEL 3
REMARK VINA RESULT:     -10.5      1.618      6.658
REMARK SMILES Cc1noc(C)c1[C@@H](C)NC(=O)N(CC(=O)NCCCCCCNC(=O)c1ccc(-c2c3nc(c(-c4c(F)cccc4F)c4ccc([nH]4)c(-c4c(F)cccc4F)c4nc(c(-c5c(F)cccc5F)c5ccc2[nH]5)C=C4)C=C3)cc1)C(C)C
REMARK SMILES IDX 19 1 18 2 17 3 15 4 16 5 14 7 13 8 11 9 10 10 12 12 8 13
REMARK SMILES IDX 9 14 7 15 1 16 2 17 3 18 4 19 5 20 6 21 81 22 82 23 83 24
REMARK SMILES IDX 20 25 21 26 22 27 23 28 24 29 25 30 26 32 27 33 28 34 80 35
REMARK SMILES IDX 29 36 79 37 30 38 31 39 32 40 73 41 33 42 78 43 72 44 74 45
REMARK SMILES IDX 34 46 77 47 71 48 70 49 35 51 61 52 44 53 60 54 45 55 48 56
REMARK SMILES IDX 59 57 75 58 46 59 47 60 58 62 76 63 49 64 36 65 37 66 42 67
REMARK SMILES IDX 38 68 39 69 41 70 43 71 40 72 62 73 63 74 68 75 64 76 65 77
REMARK SMILES IDX 67 78 69 79 66 80 50 81 51 82 56 83 52 84 53 85 55 86 57 87
REMARK SMILES IDX 54 88
REMARK H PARENT 17 6 10 11 24 31 74 50 48 61
REMARK Flexibility Score: inf
ROOT
ATOM      1  C   UNL A   1      31.841  28.556  27.477  1.00  0.00     0.021 C 
ENDROOT
BRANCH   1   2
ATOM      2  C   UNL A   1      31.335  27.703  26.322  1.00  0.00     0.116 C 
BRANCH   2   3
ATOM      3  N   UNL A   1      30.860  26.401  26.728  1.00  0.00    -0.355 N 
ATOM      4  C   UNL A   1      30.828  25.216  26.061  1.00  0.00     0.239 C 
ATOM      5  O   UNL A   1      30.589  24.210  26.742  1.00  0.00    -0.273 OA
ATOM      6  H   UNL A   1      30.498  26.365  27.643  1.00  0.00     0.163 HD
BRANCH   4   7
ATOM      7  C   UNL A   1      31.243  25.051  24.587  1.00  0.00     0.221 C 
BRANCH   7   8
ATOM      8  N   UNL A   1      32.643  24.759  24.280  1.00  0.00    -0.313 N 
BRANCH   8   9
ATOM      9  C   UNL A   1      33.745  24.971  25.062  1.00  0.00     0.318 C 
ATOM     10  N   UNL A   1      34.365  24.044  25.812  1.00  0.00    -0.331 N 
ATOM     11  H   UNL A   1      35.154  24.446  26.242  1.00  0.00     0.165 HD
ATOM     12  O   UNL A   1      34.257  26.092  25.164  1.00  0.00    -0.249 OA
BRANCH  10  13
ATOM     13  C   UNL A   1      34.261  22.640  26.204  1.00  0.00     0.116 C 
ATOM     14  C   UNL A   1      34.082  22.499  27.720  1.00  0.00     0.036 C 
BRANCH  13  15
ATOM     15  C   UNL A   1      35.477  21.930  25.691  1.00  0.00     0.040 A 
ATOM     16  C   UNL A   1      37.462  23.610  26.139  1.00  0.00     0.071 C 
ATOM     17  C   UNL A   1      36.845  22.345  25.672  1.00  0.00     0.086 A 
ATOM     18  N   UNL A   1      37.637  21.404  25.146  1.00  0.00    -0.085 NA
ATOM     19  O   UNL A   1      36.807  20.368  24.787  1.00  0.00    -0.361 OA
ATOM     20  C   UNL A   1      35.526  20.678  25.104  1.00  0.00     0.139 A 
ATOM     21  C   UNL A   1      34.518  19.658  24.761  1.00  0.00     0.091 C 
ENDBRANCH  13  15
ENDBRANCH  10  13
ENDBRANCH   8   9
BRANCH   8  22
ATOM     22  C   UNL A   1      32.822  24.106  22.949  1.00  0.00     0.081 C 
ATOM     23  C   UNL A   1      32.069  22.786  22.801  1.00  0.00     0.031 C 
ATOM     24  C   UNL A   1      32.557  25.040  21.765  1.00  0.00     0.031 C 
ENDBRANCH   8  22
ENDBRANCH   7   8
ENDBRANCH   4   7
ENDBRANCH   2   3
ENDBRANCH   1   2
BRANCH   1  25
ATOM     25  C   UNL A   1      32.447  29.889  27.040  1.00  0.00     0.002 C 
BRANCH  25  26
ATOM     26  C   UNL A   1      31.548  30.718  26.119  1.00  0.00     0.002 C 
BRANCH  26  27
ATOM     27  C   UNL A   1      31.369  32.179  26.539  1.00  0.00     0.021 C 
BRANCH  27  28
ATOM     28  C   UNL A   1      32.561  32.775  27.279  1.00  0.00     0.116 C 
BRANCH  28  29
ATOM     29  N   UNL A   1      32.366  34.185  27.572  1.00  0.00    -0.352 N 
ATOM     30  C   UNL A   1      32.977  34.968  28.519  1.00  0.00     0.251 C 
ATOM     31  H   UNL A   1      31.699  34.645  27.011  1.00  0.00     0.163 HD
ATOM     32  O   UNL A   1      32.539  36.081  28.780  1.00  0.00    -0.269 OA
BRANCH  30  33
ATOM     33  C   UNL A   1      34.160  34.450  29.234  1.00  0.00     0.039 A 
ATOM     34  C   UNL A   1      33.983  33.819  30.467  1.00  0.00     0.014 A 
ATOM     35  C   UNL A   1      35.440  34.590  28.687  1.00  0.00     0.014 A 
ATOM     36  C   UNL A   1      35.087  33.281  31.129  1.00  0.00     0.010 A 
ATOM     37  C   UNL A   1      36.526  33.986  29.310  1.00  0.00     0.010 A 
ATOM     38  C   UNL A   1      36.363  33.333  30.542  1.00  0.00    -0.014 A 
BRANCH  38  39
ATOM     39  C   UNL A   1      37.537  32.714  31.205  1.00  0.00     0.031 A 
ATOM     40  C   UNL A   1      38.227  31.538  30.571  1.00  0.00     0.074 A 
ATOM     41  C   UNL A   1      37.945  33.174  32.402  1.00  0.00     0.049 A 
ATOM     42  N   UNL A   1      39.232  30.829  31.020  1.00  0.00    -0.248 NA
ATOM     43  C   UNL A   1      37.704  31.081  29.273  1.00  0.00     0.031 C 
ATOM     44  C   UNL A   1      37.328  34.279  33.138  1.00  0.00     0.029 A 
ATOM     45  N   UNL A   1      38.972  32.766  33.215  1.00  0.00    -0.354 N 
ATOM     46  C   UNL A   1      39.452  29.841  30.069  1.00  0.00     0.074 A 
ATOM     47  C   UNL A   1      38.441  30.004  29.048  1.00  0.00     0.031 C 
ATOM     48  C   UNL A   1      38.005  34.477  34.282  1.00  0.00     0.029 A 
ATOM     49  C   UNL A   1      39.073  33.487  34.380  1.00  0.00     0.049 A 
ATOM     50  H   UNL A   1      39.579  32.025  32.986  1.00  0.00     0.167 HD
ATOM     51  C   UNL A   1      40.425  28.899  30.036  1.00  0.00     0.037 A 
ATOM     52  C   UNL A   1      39.927  33.361  35.413  1.00  0.00     0.037 A 
ATOM     53  C   UNL A   1      41.438  28.751  31.048  1.00  0.00     0.049 A 
ATOM     54  C   UNL A   1      40.985  32.293  35.363  1.00  0.00     0.074 A 
ATOM     55  C   UNL A   1      42.500  27.863  31.081  1.00  0.00     0.029 A 
ATOM     56  N   UNL A   1      41.514  29.507  32.209  1.00  0.00    -0.354 N 
ATOM     57  N   UNL A   1      41.226  31.410  34.423  1.00  0.00    -0.248 NA
ATOM     58  C   UNL A   1      41.895  32.210  36.513  1.00  0.00     0.031 C 
ATOM     59  C   UNL A   1      43.184  28.044  32.287  1.00  0.00     0.029 A 
ATOM     60  C   UNL A   1      42.587  29.087  32.977  1.00  0.00     0.049 A 
ATOM     61  H   UNL A   1      40.895  30.234  32.450  1.00  0.00     0.167 HD
ATOM     62  C   UNL A   1      42.332  30.689  34.853  1.00  0.00     0.074 A 
ATOM     63  C   UNL A   1      42.724  31.248  36.131  1.00  0.00     0.031 C 
ATOM     64  C   UNL A   1      42.968  29.658  34.244  1.00  0.00     0.037 A 
BRANCH  51  65
ATOM     65  C   UNL A   1      40.437  27.955  28.868  1.00  0.00     0.057 A 
ATOM     66  C   UNL A   1      39.705  26.760  28.874  1.00  0.00     0.134 A 
ATOM     67  C   UNL A   1      41.164  28.258  27.710  1.00  0.00     0.134 A 
ATOM     68  F   UNL A   1      38.996  26.402  29.956  1.00  0.00    -0.206 F 
ATOM     69  C   UNL A   1      39.718  25.888  27.784  1.00  0.00     0.040 A 
ATOM     70  C   UNL A   1      41.160  27.410  26.601  1.00  0.00     0.040 A 
ATOM     71  F   UNL A   1      41.882  29.388  27.632  1.00  0.00    -0.206 F 
ATOM     72  C   UNL A   1      40.441  26.217  26.639  1.00  0.00     0.006 A 
ENDBRANCH  51  65
BRANCH  52  73
ATOM     73  C   UNL A   1      39.827  34.277  36.578  1.00  0.00     0.057 A 
ATOM     74  C   UNL A   1      39.063  33.938  37.701  1.00  0.00     0.134 A 
ATOM     75  C   UNL A   1      40.482  35.514  36.595  1.00  0.00     0.134 A 
ATOM     76  F   UNL A   1      38.399  32.774  37.738  1.00  0.00    -0.206 F 
ATOM     77  C   UNL A   1      38.933  34.805  38.787  1.00  0.00     0.040 A 
ATOM     78  C   UNL A   1      40.385  36.378  37.687  1.00  0.00     0.040 A 
ATOM     79  F   UNL A   1      41.240  35.895  35.556  1.00  0.00    -0.206 F 
ATOM     80  C   UNL A   1      39.600  36.029  38.783  1.00  0.00     0.006 A 
ENDBRANCH  52  73
BRANCH  64  81
ATOM     81  C   UNL A   1      44.179  29.094  34.932  1.00  0.00     0.057 A 
ATOM     82  C   UNL A   1      44.094  28.018  35.823  1.00  0.00     0.134 A 
ATOM     83  C   UNL A   1      45.453  29.613  34.665  1.00  0.00     0.134 A 
ATOM     84  F   UNL A   1      42.903  27.482  36.131  1.00  0.00    -0.206 F 
ATOM     85  C   UNL A   1      45.229  27.494  36.445  1.00  0.00     0.040 A 
ATOM     86  C   UNL A   1      46.598  29.079  35.257  1.00  0.00     0.040 A 
ATOM     87  F   UNL A   1      45.608  30.638  33.814  1.00  0.00    -0.206 F 
ATOM     88  C   UNL A   1      46.487  28.020  36.155  1.00  0.00     0.006 A 
ENDBRANCH  64  81
ENDBRANCH  38  39
ENDBRANCH  30  33
ENDBRANCH  28  29
ENDBRANCH  27  28
ENDBRANCH  26  27
ENDBRANCH  25  26
ENDBRANCH   1  25
TORSDOF 18
ENDMDL
