MODEL 1
REMARK VINA RESULT:     -12.2      0.000      0.000
REMARK SMILES Cc1cccc(NC(=O)C[C@@H]2CCCCO2)c1C(=O)NCCCCCCNC(=O)c1ccc(-c2c3nc(c(-c4c(F)cccc4F)c4ccc([nH]4)c(-c4c(F)cccc4F)c4nc(c(-c5c(F)cccc5F)c5ccc2[nH]5)C=C4)C=C3)cc1
REMARK SMILES IDX 23 1 22 2 21 3 20 4 18 5 19 6 17 8 1 9 2 10 3 11 4 12 6 13
REMARK SMILES IDX 5 14 7 15 8 16 9 18 10 19 11 20 12 21 16 22 13 23 15 24
REMARK SMILES IDX 14 25 24 26 25 27 26 28 27 29 28 30 29 32 30 33 31 34 83 35
REMARK SMILES IDX 32 36 82 37 33 38 34 39 35 40 76 41 36 42 81 43 75 44 77 45
REMARK SMILES IDX 37 46 80 47 74 48 73 49 38 51 64 52 47 53 63 54 48 55 51 56
REMARK SMILES IDX 62 57 78 58 49 59 50 60 61 62 79 63 52 64 39 65 40 66 45 67
REMARK SMILES IDX 41 68 42 69 44 70 46 71 43 72 65 73 66 74 71 75 67 76 68 77
REMARK SMILES IDX 70 78 72 79 69 80 53 81 54 82 59 83 55 84 56 85 58 86 60 87
REMARK SMILES IDX 57 88
REMARK H PARENT 20 7 7 17 27 31 77 50 51 61
REMARK Flexibility Score: inf
ROOT
ATOM      1  C   UNL A   1      32.442  28.512  26.738  1.00  0.00     0.002 C 
ENDROOT
BRANCH   1   2
ATOM      2  C   UNL A   1      31.416  27.406  27.013  1.00  0.00     0.021 C 
BRANCH   2   3
ATOM      3  C   UNL A   1      31.812  26.028  26.467  1.00  0.00     0.116 C 
BRANCH   3   4
ATOM      4  N   UNL A   1      30.852  25.609  25.466  1.00  0.00    -0.352 N 
ATOM      5  C   UNL A   1      30.639  25.989  24.164  1.00  0.00     0.253 C 
ATOM      6  O   UNL A   1      29.717  25.437  23.563  1.00  0.00    -0.269 OA
ATOM      7  H   UNL A   1      30.228  24.914  25.781  1.00  0.00     0.163 HD
BRANCH   5   8
ATOM      8  C   UNL A   1      31.562  26.911  23.435  1.00  0.00     0.066 A 
ATOM      9  C   UNL A   1      30.000  28.945  23.489  1.00  0.00     0.045 C 
ATOM     10  C   UNL A   1      31.345  28.299  23.303  1.00  0.00    -0.036 A 
ATOM     11  C   UNL A   1      32.383  29.115  22.816  1.00  0.00     0.004 A 
ATOM     12  C   UNL A   1      33.586  28.558  22.394  1.00  0.00     0.002 A 
ATOM     13  C   UNL A   1      32.665  26.346  22.750  1.00  0.00     0.054 A 
ATOM     14  C   UNL A   1      33.716  27.174  22.337  1.00  0.00     0.027 A 
BRANCH  13  15
ATOM     15  N   UNL A   1      32.632  24.979  22.385  1.00  0.00    -0.325 N 
ATOM     16  C   UNL A   1      33.388  23.922  22.838  1.00  0.00     0.227 C 
ATOM     17  H   UNL A   1      31.964  24.748  21.700  1.00  0.00     0.169 HD
ATOM     18  O   UNL A   1      33.219  22.813  22.322  1.00  0.00    -0.275 OA
BRANCH  16  19
ATOM     19  C   UNL A   1      34.446  24.094  23.912  1.00  0.00     0.132 C 
BRANCH  19  20
ATOM     20  C   UNL A   1      34.700  22.839  24.766  1.00  0.00     0.127 C 
ATOM     21  C   UNL A   1      35.254  23.217  26.151  1.00  0.00     0.033 C 
ATOM     22  O   UNL A   1      35.563  21.861  24.177  1.00  0.00    -0.378 OA
ATOM     23  C   UNL A   1      36.698  23.713  26.068  1.00  0.00     0.005 C 
ATOM     24  C   UNL A   1      36.928  22.232  24.047  1.00  0.00     0.160 C 
ATOM     25  C   UNL A   1      37.568  22.695  25.345  1.00  0.00     0.029 C 
ENDBRANCH  19  20
ENDBRANCH  16  19
ENDBRANCH  13  15
ENDBRANCH   5   8
ENDBRANCH   3   4
ENDBRANCH   2   3
ENDBRANCH   1   2
BRANCH   1  26
ATOM     26  C   UNL A   1      31.915  29.955  26.824  1.00  0.00     0.002 C 
BRANCH  26  27
ATOM     27  C   UNL A   1      32.950  31.024  27.183  1.00  0.00     0.021 C 
BRANCH  27  28
ATOM     28  C   UNL A   1      34.270  30.458  27.691  1.00  0.00     0.116 C 
BRANCH  28  29
ATOM     29  N   UNL A   1      34.940  31.313  28.663  1.00  0.00    -0.352 N 
ATOM     30  C   UNL A   1      36.104  31.099  29.372  1.00  0.00     0.251 C 
ATOM     31  H   UNL A   1      34.494  32.174  28.840  1.00  0.00     0.163 HD
ATOM     32  O   UNL A   1      36.491  31.941  30.179  1.00  0.00    -0.269 OA
BRANCH  30  33
ATOM     33  C   UNL A   1      36.952  29.921  29.070  1.00  0.00     0.039 A 
ATOM     34  C   UNL A   1      37.193  29.005  30.101  1.00  0.00     0.014 A 
ATOM     35  C   UNL A   1      37.633  29.804  27.861  1.00  0.00     0.014 A 
ATOM     36  C   UNL A   1      38.277  28.135  30.007  1.00  0.00     0.010 A 
ATOM     37  C   UNL A   1      38.758  29.002  27.797  1.00  0.00     0.010 A 
ATOM     38  C   UNL A   1      39.118  28.220  28.898  1.00  0.00    -0.014 A 
BRANCH  38  39
ATOM     39  C   UNL A   1      40.448  27.621  28.859  1.00  0.00     0.031 A 
ATOM     40  C   UNL A   1      40.631  26.200  28.508  1.00  0.00     0.074 A 
ATOM     41  C   UNL A   1      41.526  28.399  29.104  1.00  0.00     0.049 A 
ATOM     42  N   UNL A   1      41.670  25.501  28.819  1.00  0.00    -0.248 NA
ATOM     43  C   UNL A   1      39.617  25.437  27.789  1.00  0.00     0.031 C 
ATOM     44  C   UNL A   1      42.932  28.065  28.901  1.00  0.00     0.029 A 
ATOM     45  N   UNL A   1      41.553  29.596  29.833  1.00  0.00    -0.354 N 
ATOM     46  C   UNL A   1      41.580  24.292  28.173  1.00  0.00     0.074 A 
ATOM     47  C   UNL A   1      40.266  24.290  27.568  1.00  0.00     0.031 C 
ATOM     48  C   UNL A   1      43.674  28.822  29.726  1.00  0.00     0.029 A 
ATOM     49  C   UNL A   1      42.756  29.561  30.576  1.00  0.00     0.049 A 
ATOM     50  H   UNL A   1      40.878  30.312  29.828  1.00  0.00     0.167 HD
ATOM     51  C   UNL A   1      42.661  23.462  28.137  1.00  0.00     0.037 A 
ATOM     52  C   UNL A   1      42.730  29.518  31.939  1.00  0.00     0.037 A 
ATOM     53  C   UNL A   1      43.774  23.986  28.923  1.00  0.00     0.049 A 
ATOM     54  C   UNL A   1      43.361  28.283  32.547  1.00  0.00     0.074 A 
ATOM     55  C   UNL A   1      44.899  24.736  28.622  1.00  0.00     0.029 A 
ATOM     56  N   UNL A   1      43.657  24.007  30.300  1.00  0.00    -0.354 N 
ATOM     57  N   UNL A   1      43.799  27.265  31.860  1.00  0.00    -0.248 NA
ATOM     58  C   UNL A   1      43.455  28.062  33.992  1.00  0.00     0.031 C 
ATOM     59  C   UNL A   1      45.428  25.249  29.839  1.00  0.00     0.029 A 
ATOM     60  C   UNL A   1      44.628  24.803  30.875  1.00  0.00     0.049 A 
ATOM     61  H   UNL A   1      42.970  23.517  30.806  1.00  0.00     0.167 HD
ATOM     62  C   UNL A   1      44.165  26.267  32.720  1.00  0.00     0.074 A 
ATOM     63  C   UNL A   1      43.942  26.811  34.046  1.00  0.00     0.031 C 
ATOM     64  C   UNL A   1      44.585  25.042  32.303  1.00  0.00     0.037 A 
BRANCH  51  65
ATOM     65  C   UNL A   1      42.779  22.281  27.209  1.00  0.00     0.057 A 
ATOM     66  C   UNL A   1      41.977  21.138  27.392  1.00  0.00     0.134 A 
ATOM     67  C   UNL A   1      43.689  22.191  26.143  1.00  0.00     0.134 A 
ATOM     68  F   UNL A   1      40.997  21.103  28.304  1.00  0.00    -0.206 F 
ATOM     69  C   UNL A   1      42.148  19.962  26.651  1.00  0.00     0.040 A 
ATOM     70  C   UNL A   1      43.913  21.003  25.432  1.00  0.00     0.040 A 
ATOM     71  F   UNL A   1      44.368  23.263  25.713  1.00  0.00    -0.206 F 
ATOM     72  C   UNL A   1      43.148  19.877  25.695  1.00  0.00     0.006 A 
ENDBRANCH  51  65
BRANCH  52  73
ATOM     73  C   UNL A   1      41.574  30.249  32.523  1.00  0.00     0.057 A 
ATOM     74  C   UNL A   1      40.446  29.516  32.933  1.00  0.00     0.134 A 
ATOM     75  C   UNL A   1      41.690  31.559  32.995  1.00  0.00     0.134 A 
ATOM     76  F   UNL A   1      40.272  28.252  32.517  1.00  0.00    -0.206 F 
ATOM     77  C   UNL A   1      39.537  30.022  33.865  1.00  0.00     0.040 A 
ATOM     78  C   UNL A   1      40.774  32.083  33.913  1.00  0.00     0.040 A 
ATOM     79  F   UNL A   1      42.747  32.315  32.666  1.00  0.00    -0.206 F 
ATOM     80  C   UNL A   1      39.718  31.302  34.381  1.00  0.00     0.006 A 
ENDBRANCH  52  73
BRANCH  64  81
ATOM     81  C   UNL A   1      44.997  23.971  33.255  1.00  0.00     0.057 A 
ATOM     82  C   UNL A   1      44.105  22.977  33.676  1.00  0.00     0.134 A 
ATOM     83  C   UNL A   1      46.260  23.983  33.870  1.00  0.00     0.134 A 
ATOM     84  F   UNL A   1      42.868  22.904  33.161  1.00  0.00    -0.206 F 
ATOM     85  C   UNL A   1      44.454  22.037  34.650  1.00  0.00     0.040 A 
ATOM     86  C   UNL A   1      46.608  23.074  34.871  1.00  0.00     0.040 A 
ATOM     87  F   UNL A   1      47.200  24.871  33.510  1.00  0.00    -0.206 F 
ATOM     88  C   UNL A   1      45.704  22.093  35.260  1.00  0.00     0.006 A 
ENDBRANCH  64  81
ENDBRANCH  38  39
ENDBRANCH  30  33
ENDBRANCH  28  29
ENDBRANCH  27  28
ENDBRANCH  26  27
ENDBRANCH   1  26
TORSDOF 16
ENDMDL
MODEL 2
REMARK VINA RESULT:     -11.8      1.554      2.472
REMARK SMILES Cc1cccc(NC(=O)C[C@@H]2CCCCO2)c1C(=O)NCCCCCCNC(=O)c1ccc(-c2c3nc(c(-c4c(F)cccc4F)c4ccc([nH]4)c(-c4c(F)cccc4F)c4nc(c(-c5c(F)cccc5F)c5ccc2[nH]5)C=C4)C=C3)cc1
REMARK SMILES IDX 23 1 22 2 21 3 20 4 18 5 19 6 17 8 1 9 2 10 3 11 4 12 6 13
REMARK SMILES IDX 5 14 7 15 8 16 9 18 10 19 11 20 12 21 16 22 13 23 15 24
REMARK SMILES IDX 14 25 24 26 25 27 26 28 27 29 28 30 29 32 30 33 31 34 83 35
REMARK SMILES IDX 32 36 82 37 33 38 34 39 35 40 76 41 36 42 81 43 75 44 77 45
REMARK SMILES IDX 37 46 80 47 74 48 73 49 38 51 64 52 47 53 63 54 48 55 51 56
REMARK SMILES IDX 62 57 78 58 49 59 50 60 61 62 79 63 52 64 39 65 40 66 45 67
REMARK SMILES IDX 41 68 42 69 44 70 46 71 43 72 65 73 66 74 71 75 67 76 68 77
REMARK SMILES IDX 70 78 72 79 69 80 53 81 54 82 59 83 55 84 56 85 58 86 60 87
REMARK SMILES IDX 57 88
REMARK H PARENT 20 7 7 17 27 31 77 50 51 61
REMARK Flexibility Score: inf
ROOT
ATOM      1  C   UNL A   1      31.964  29.187  27.289  1.00  0.00     0.002 C 
ENDROOT
BRANCH   1   2
ATOM      2  C   UNL A   1      31.665  28.061  26.291  1.00  0.00     0.021 C 
BRANCH   2   3
ATOM      3  C   UNL A   1      32.563  26.826  26.444  1.00  0.00     0.116 C 
BRANCH   3   4
ATOM      4  N   UNL A   1      31.745  25.666  26.737  1.00  0.00    -0.352 N 
ATOM      5  C   UNL A   1      31.544  24.478  26.078  1.00  0.00     0.253 C 
ATOM      6  O   UNL A   1      30.764  23.678  26.594  1.00  0.00    -0.269 OA
ATOM      7  H   UNL A   1      31.231  25.745  27.574  1.00  0.00     0.163 HD
BRANCH   5   8
ATOM      8  C   UNL A   1      32.337  24.083  24.875  1.00  0.00     0.066 A 
ATOM      9  C   UNL A   1      30.365  24.120  23.235  1.00  0.00     0.045 C 
ATOM     10  C   UNL A   1      31.833  24.110  23.557  1.00  0.00    -0.036 A 
ATOM     11  C   UNL A   1      32.723  23.957  22.477  1.00  0.00     0.004 A 
ATOM     12  C   UNL A   1      34.073  23.703  22.698  1.00  0.00     0.002 A 
ATOM     13  C   UNL A   1      33.635  23.554  25.076  1.00  0.00     0.054 A 
ATOM     14  C   UNL A   1      34.522  23.476  23.995  1.00  0.00     0.027 A 
BRANCH  13  15
ATOM     15  N   UNL A   1      33.974  22.999  26.334  1.00  0.00    -0.325 N 
ATOM     16  C   UNL A   1      34.191  21.689  26.695  1.00  0.00     0.227 C 
ATOM     17  H   UNL A   1      34.067  23.652  27.065  1.00  0.00     0.169 HD
ATOM     18  O   UNL A   1      34.419  21.435  27.882  1.00  0.00    -0.275 OA
BRANCH  16  19
ATOM     19  C   UNL A   1      34.113  20.556  25.689  1.00  0.00     0.132 C 
BRANCH  19  20
ATOM     20  C   UNL A   1      32.727  19.896  25.576  1.00  0.00     0.127 C 
ATOM     21  C   UNL A   1      32.855  18.394  25.266  1.00  0.00     0.033 C 
ATOM     22  O   UNL A   1      31.843  20.487  24.619  1.00  0.00    -0.378 OA
ATOM     23  C   UNL A   1      33.325  18.148  23.833  1.00  0.00     0.005 C 
ATOM     24  C   UNL A   1      32.199  20.323  23.255  1.00  0.00     0.160 C 
ATOM     25  C   UNL A   1      32.424  18.876  22.847  1.00  0.00     0.029 C 
ENDBRANCH  19  20
ENDBRANCH  16  19
ENDBRANCH  13  15
ENDBRANCH   5   8
ENDBRANCH   3   4
ENDBRANCH   2   3
ENDBRANCH   1   2
BRANCH   1  26
ATOM     26  C   UNL A   1      32.046  30.604  26.699  1.00  0.00     0.002 C 
BRANCH  26  27
ATOM     27  C   UNL A   1      33.243  31.447  27.149  1.00  0.00     0.021 C 
BRANCH  27  28
ATOM     28  C   UNL A   1      34.299  30.659  27.914  1.00  0.00     0.116 C 
BRANCH  28  29
ATOM     29  N   UNL A   1      34.959  31.426  28.962  1.00  0.00    -0.352 N 
ATOM     30  C   UNL A   1      36.111  31.147  29.667  1.00  0.00     0.251 C 
ATOM     31  H   UNL A   1      34.515  32.272  29.204  1.00  0.00     0.163 HD
ATOM     32  O   UNL A   1      36.492  31.917  30.546  1.00  0.00    -0.269 OA
BRANCH  30  33
ATOM     33  C   UNL A   1      36.958  29.994  29.280  1.00  0.00     0.039 A 
ATOM     34  C   UNL A   1      37.171  28.988  30.231  1.00  0.00     0.014 A 
ATOM     35  C   UNL A   1      37.664  29.977  28.079  1.00  0.00     0.014 A 
ATOM     36  C   UNL A   1      38.252  28.120  30.083  1.00  0.00     0.010 A 
ATOM     37  C   UNL A   1      38.785  29.175  27.968  1.00  0.00     0.010 A 
ATOM     38  C   UNL A   1      39.116  28.296  29.004  1.00  0.00    -0.014 A 
BRANCH  38  39
ATOM     39  C   UNL A   1      40.443  27.692  28.940  1.00  0.00     0.031 A 
ATOM     40  C   UNL A   1      40.613  26.270  28.580  1.00  0.00     0.074 A 
ATOM     41  C   UNL A   1      41.528  28.464  29.168  1.00  0.00     0.049 A 
ATOM     42  N   UNL A   1      41.655  25.567  28.872  1.00  0.00    -0.248 NA
ATOM     43  C   UNL A   1      39.584  25.515  27.877  1.00  0.00     0.031 C 
ATOM     44  C   UNL A   1      42.929  28.125  28.940  1.00  0.00     0.029 A 
ATOM     45  N   UNL A   1      41.573  29.659  29.901  1.00  0.00    -0.354 N 
ATOM     46  C   UNL A   1      41.549  24.360  28.223  1.00  0.00     0.074 A 
ATOM     47  C   UNL A   1      40.224  24.365  27.641  1.00  0.00     0.031 C 
ATOM     48  C   UNL A   1      43.688  28.876  29.755  1.00  0.00     0.029 A 
ATOM     49  C   UNL A   1      42.789  29.616  30.623  1.00  0.00     0.049 A 
ATOM     50  H   UNL A   1      40.901  30.377  29.910  1.00  0.00     0.167 HD
ATOM     51  C   UNL A   1      42.626  23.526  28.166  1.00  0.00     0.037 A 
ATOM     52  C   UNL A   1      42.787  29.569  31.986  1.00  0.00     0.037 A 
ATOM     53  C   UNL A   1      43.754  24.043  28.934  1.00  0.00     0.049 A 
ATOM     54  C   UNL A   1      43.423  28.329  32.578  1.00  0.00     0.074 A 
ATOM     55  C   UNL A   1      44.877  24.788  28.615  1.00  0.00     0.029 A 
ATOM     56  N   UNL A   1      43.661  24.059  30.313  1.00  0.00    -0.354 N 
ATOM     57  N   UNL A   1      43.844  27.311  31.881  1.00  0.00    -0.248 NA
ATOM     58  C   UNL A   1      43.540  28.103  34.021  1.00  0.00     0.031 C 
ATOM     59  C   UNL A   1      45.429  25.295  29.825  1.00  0.00     0.029 A 
ATOM     60  C   UNL A   1      44.646  24.849  30.873  1.00  0.00     0.049 A 
ATOM     61  H   UNL A   1      42.980  23.570  30.829  1.00  0.00     0.167 HD
ATOM     62  C   UNL A   1      44.221  26.309  32.731  1.00  0.00     0.074 A 
ATOM     63  C   UNL A   1      44.023  26.850  34.062  1.00  0.00     0.031 C 
ATOM     64  C   UNL A   1      44.628  25.084  32.303  1.00  0.00     0.037 A 
BRANCH  51  65
ATOM     65  C   UNL A   1      42.722  22.347  27.232  1.00  0.00     0.057 A 
ATOM     66  C   UNL A   1      41.915  21.209  27.422  1.00  0.00     0.134 A 
ATOM     67  C   UNL A   1      43.616  22.256  26.152  1.00  0.00     0.134 A 
ATOM     68  F   UNL A   1      40.949  21.177  28.349  1.00  0.00    -0.206 F 
ATOM     69  C   UNL A   1      42.068  20.034  26.675  1.00  0.00     0.040 A 
ATOM     70  C   UNL A   1      43.822  21.068  25.434  1.00  0.00     0.040 A 
ATOM     71  F   UNL A   1      44.296  23.325  25.717  1.00  0.00    -0.206 F 
ATOM     72  C   UNL A   1      43.054  19.946  25.705  1.00  0.00     0.006 A 
ENDBRANCH  51  65
BRANCH  52  73
ATOM     73  C   UNL A   1      41.644  30.303  32.592  1.00  0.00     0.057 A 
ATOM     74  C   UNL A   1      41.703  31.706  32.668  1.00  0.00     0.134 A 
ATOM     75  C   UNL A   1      40.392  29.707  32.769  1.00  0.00     0.134 A 
ATOM     76  F   UNL A   1      42.874  32.344  32.508  1.00  0.00    -0.206 F 
ATOM     77  C   UNL A   1      40.552  32.487  32.795  1.00  0.00     0.040 A 
ATOM     78  C   UNL A   1      39.236  30.478  32.917  1.00  0.00     0.040 A 
ATOM     79  F   UNL A   1      40.251  28.376  32.690  1.00  0.00    -0.206 F 
ATOM     80  C   UNL A   1      39.308  31.871  32.889  1.00  0.00     0.006 A 
ENDBRANCH  52  73
BRANCH  64  81
ATOM     81  C   UNL A   1      45.052  24.008  33.244  1.00  0.00     0.057 A 
ATOM     82  C   UNL A   1      44.171  23.001  33.657  1.00  0.00     0.134 A 
ATOM     83  C   UNL A   1      46.316  24.026  33.857  1.00  0.00     0.134 A 
ATOM     84  F   UNL A   1      42.934  22.921  33.143  1.00  0.00    -0.206 F 
ATOM     85  C   UNL A   1      44.530  22.055  34.621  1.00  0.00     0.040 A 
ATOM     86  C   UNL A   1      46.674  23.111  34.848  1.00  0.00     0.040 A 
ATOM     87  F   UNL A   1      47.246  24.927  33.504  1.00  0.00    -0.206 F 
ATOM     88  C   UNL A   1      45.780  22.118  35.230  1.00  0.00     0.006 A 
ENDBRANCH  64  81
ENDBRANCH  38  39
ENDBRANCH  30  33
ENDBRANCH  28  29
ENDBRANCH  27  28
ENDBRANCH  26  27
ENDBRANCH   1  26
TORSDOF 16
ENDMDL
MODEL 3
REMARK VINA RESULT:     -11.7      1.218      3.153
REMARK SMILES Cc1cccc(NC(=O)C[C@@H]2CCCCO2)c1C(=O)NCCCCCCNC(=O)c1ccc(-c2c3nc(c(-c4c(F)cccc4F)c4ccc([nH]4)c(-c4c(F)cccc4F)c4nc(c(-c5c(F)cccc5F)c5ccc2[nH]5)C=C4)C=C3)cc1
REMARK SMILES IDX 23 1 22 2 21 3 20 4 18 5 19 6 17 8 1 9 2 10 3 11 4 12 6 13
REMARK SMILES IDX 5 14 7 15 8 16 9 18 10 19 11 20 12 21 16 22 13 23 15 24
REMARK SMILES IDX 14 25 24 26 25 27 26 28 27 29 28 30 29 32 30 33 31 34 83 35
REMARK SMILES IDX 32 36 82 37 33 38 34 39 35 40 76 41 36 42 81 43 75 44 77 45
REMARK SMILES IDX 37 46 80 47 74 48 73 49 38 51 64 52 47 53 63 54 48 55 51 56
REMARK SMILES IDX 62 57 78 58 49 59 50 60 61 62 79 63 52 64 39 65 40 66 45 67
REMARK SMILES IDX 41 68 42 69 44 70 46 71 43 72 65 73 66 74 71 75 67 76 68 77
REMARK SMILES IDX 70 78 72 79 69 80 53 81 54 82 59 83 55 84 56 85 58 86 60 87
REMARK SMILES IDX 57 88
REMARK H PARENT 20 7 7 17 27 31 77 50 51 61
REMARK Flexibility Score: inf
ROOT
ATOM      1  C   UNL A   1      34.416  27.359  26.177  1.00  0.00     0.002 C 
ENDROOT
BRANCH   1   2
ATOM      2  C   UNL A   1      33.920  26.113  25.433  1.00  0.00     0.021 C 
BRANCH   2   3
ATOM      3  C   UNL A   1      34.700  24.832  25.757  1.00  0.00     0.116 C 
BRANCH   3   4
ATOM      4  N   UNL A   1      35.511  24.457  24.616  1.00  0.00    -0.352 N 
ATOM      5  C   UNL A   1      35.504  23.361  23.788  1.00  0.00     0.253 C 
ATOM      6  O   UNL A   1      36.344  23.333  22.890  1.00  0.00    -0.269 OA
ATOM      7  H   UNL A   1      36.205  25.118  24.389  1.00  0.00     0.163 HD
BRANCH   5   8
ATOM      8  C   UNL A   1      34.440  22.313  23.853  1.00  0.00     0.066 A 
ATOM      9  C   UNL A   1      35.847  20.588  25.127  1.00  0.00     0.045 C 
ATOM     10  C   UNL A   1      34.540  21.137  24.626  1.00  0.00    -0.036 A 
ATOM     11  C   UNL A   1      33.397  20.338  24.814  1.00  0.00     0.004 A 
ATOM     12  C   UNL A   1      32.198  20.652  24.183  1.00  0.00     0.002 A 
ATOM     13  C   UNL A   1      33.311  22.457  23.010  1.00  0.00     0.054 A 
ATOM     14  C   UNL A   1      32.163  21.695  23.262  1.00  0.00     0.027 A 
BRANCH  13  15
ATOM     15  N   UNL A   1      33.402  23.272  21.856  1.00  0.00    -0.325 N 
ATOM     16  C   UNL A   1      33.021  24.579  21.663  1.00  0.00     0.227 C 
ATOM     17  H   UNL A   1      33.799  22.835  21.069  1.00  0.00     0.169 HD
ATOM     18  O   UNL A   1      33.145  25.070  20.537  1.00  0.00    -0.275 OA
BRANCH  16  19
ATOM     19  C   UNL A   1      32.414  25.412  22.777  1.00  0.00     0.132 C 
BRANCH  19  20
ATOM     20  C   UNL A   1      30.882  25.310  22.890  1.00  0.00     0.127 C 
ATOM     21  C   UNL A   1      30.261  26.679  23.218  1.00  0.00     0.033 C 
ATOM     22  O   UNL A   1      30.400  24.349  23.835  1.00  0.00    -0.378 OA
ATOM     23  C   UNL A   1      30.552  27.105  24.657  1.00  0.00     0.005 C 
ATOM     24  C   UNL A   1      30.631  24.650  25.203  1.00  0.00     0.160 C 
ATOM     25  C   UNL A   1      30.121  26.016  25.629  1.00  0.00     0.029 C 
ENDBRANCH  19  20
ENDBRANCH  16  19
ENDBRANCH  13  15
ENDBRANCH   5   8
ENDBRANCH   3   4
ENDBRANCH   2   3
ENDBRANCH   1   2
BRANCH   1  26
ATOM     26  C   UNL A   1      33.344  28.405  26.527  1.00  0.00     0.002 C 
BRANCH  26  27
ATOM     27  C   UNL A   1      33.692  29.362  27.669  1.00  0.00     0.021 C 
BRANCH  27  28
ATOM     28  C   UNL A   1      34.528  30.561  27.237  1.00  0.00     0.116 C 
BRANCH  28  29
ATOM     29  N   UNL A   1      35.073  31.327  28.349  1.00  0.00    -0.352 N 
ATOM     30  C   UNL A   1      36.121  31.029  29.196  1.00  0.00     0.251 C 
ATOM     31  H   UNL A   1      34.628  32.189  28.523  1.00  0.00     0.163 HD
ATOM     32  O   UNL A   1      36.411  31.802  30.106  1.00  0.00    -0.269 OA
BRANCH  30  33
ATOM     33  C   UNL A   1      36.976  29.847  28.931  1.00  0.00     0.039 A 
ATOM     34  C   UNL A   1      37.232  28.972  29.995  1.00  0.00     0.014 A 
ATOM     35  C   UNL A   1      37.650  29.689  27.723  1.00  0.00     0.014 A 
ATOM     36  C   UNL A   1      38.322  28.107  29.926  1.00  0.00     0.010 A 
ATOM     37  C   UNL A   1      38.780  28.894  27.681  1.00  0.00     0.010 A 
ATOM     38  C   UNL A   1      39.154  28.157  28.808  1.00  0.00    -0.014 A 
BRANCH  38  39
ATOM     39  C   UNL A   1      40.489  27.566  28.782  1.00  0.00     0.031 A 
ATOM     40  C   UNL A   1      40.683  26.145  28.437  1.00  0.00     0.074 A 
ATOM     41  C   UNL A   1      41.559  28.352  29.032  1.00  0.00     0.049 A 
ATOM     42  N   UNL A   1      41.725  25.455  28.759  1.00  0.00    -0.248 NA
ATOM     43  C   UNL A   1      39.681  25.373  27.713  1.00  0.00     0.031 C 
ATOM     44  C   UNL A   1      42.969  28.027  28.842  1.00  0.00     0.029 A 
ATOM     45  N   UNL A   1      41.573  29.553  29.757  1.00  0.00    -0.354 N 
ATOM     46  C   UNL A   1      41.648  24.242  28.117  1.00  0.00     0.074 A 
ATOM     47  C   UNL A   1      40.339  24.229  27.501  1.00  0.00     0.031 C 
ATOM     48  C   UNL A   1      43.699  28.792  29.670  1.00  0.00     0.029 A 
ATOM     49  C   UNL A   1      42.770  29.528  30.510  1.00  0.00     0.049 A 
ATOM     50  H   UNL A   1      40.892  30.263  29.744  1.00  0.00     0.167 HD
ATOM     51  C   UNL A   1      42.735  23.420  28.093  1.00  0.00     0.037 A 
ATOM     52  C   UNL A   1      42.734  29.490  31.873  1.00  0.00     0.037 A 
ATOM     53  C   UNL A   1      43.838  23.954  28.885  1.00  0.00     0.049 A 
ATOM     54  C   UNL A   1      43.368  28.261  32.490  1.00  0.00     0.074 A 
ATOM     55  C   UNL A   1      44.961  24.710  28.590  1.00  0.00     0.029 A 
ATOM     56  N   UNL A   1      43.710  23.979  30.262  1.00  0.00    -0.354 N 
ATOM     57  N   UNL A   1      43.818  27.243  31.810  1.00  0.00    -0.248 NA
ATOM     58  C   UNL A   1      43.452  28.046  33.936  1.00  0.00     0.031 C 
ATOM     59  C   UNL A   1      45.477  25.231  29.810  1.00  0.00     0.029 A 
ATOM     60  C   UNL A   1      44.671  24.783  30.841  1.00  0.00     0.049 A 
ATOM     61  H   UNL A   1      43.022  23.486  30.764  1.00  0.00     0.167 HD
ATOM     62  C   UNL A   1      44.184  26.251  32.677  1.00  0.00     0.074 A 
ATOM     63  C   UNL A   1      43.946  26.799  33.999  1.00  0.00     0.031 C 
ATOM     64  C   UNL A   1      44.615  25.028  32.268  1.00  0.00     0.037 A 
BRANCH  51  65
ATOM     65  C   UNL A   1      42.867  22.236  27.170  1.00  0.00     0.057 A 
ATOM     66  C   UNL A   1      42.068  21.091  27.347  1.00  0.00     0.134 A 
ATOM     67  C   UNL A   1      43.791  22.146  26.115  1.00  0.00     0.134 A 
ATOM     68  F   UNL A   1      41.078  21.055  28.249  1.00  0.00    -0.206 F 
ATOM     69  C   UNL A   1      42.252  19.913  26.613  1.00  0.00     0.040 A 
ATOM     70  C   UNL A   1      44.027  20.957  25.410  1.00  0.00     0.040 A 
ATOM     71  F   UNL A   1      44.470  23.220  25.689  1.00  0.00    -0.206 F 
ATOM     72  C   UNL A   1      43.264  19.828  25.669  1.00  0.00     0.006 A 
ENDBRANCH  51  65
BRANCH  52  73
ATOM     73  C   UNL A   1      41.568  30.215  32.445  1.00  0.00     0.057 A 
ATOM     74  C   UNL A   1      40.443  29.476  32.853  1.00  0.00     0.134 A 
ATOM     75  C   UNL A   1      41.670  31.529  32.909  1.00  0.00     0.134 A 
ATOM     76  F   UNL A   1      40.282  28.208  32.444  1.00  0.00    -0.206 F 
ATOM     77  C   UNL A   1      39.524  29.981  33.775  1.00  0.00     0.040 A 
ATOM     78  C   UNL A   1      40.744  32.052  33.817  1.00  0.00     0.040 A 
ATOM     79  F   UNL A   1      42.723  32.291  32.581  1.00  0.00    -0.206 F 
ATOM     80  C   UNL A   1      39.692  31.265  34.284  1.00  0.00     0.006 A 
ENDBRANCH  52  73
BRANCH  64  81
ATOM     81  C   UNL A   1      45.027  23.963  33.227  1.00  0.00     0.057 A 
ATOM     82  C   UNL A   1      44.141  22.958  33.637  1.00  0.00     0.134 A 
ATOM     83  C   UNL A   1      46.281  23.991  33.860  1.00  0.00     0.134 A 
ATOM     84  F   UNL A   1      42.913  22.870  33.105  1.00  0.00    -0.206 F 
ATOM     85  C   UNL A   1      44.488  22.024  34.617  1.00  0.00     0.040 A 
ATOM     86  C   UNL A   1      46.625  23.087  34.866  1.00  0.00     0.040 A 
ATOM     87  F   UNL A   1      47.214  24.890  33.512  1.00  0.00    -0.206 F 
ATOM     88  C   UNL A   1      45.728  22.096  35.245  1.00  0.00     0.006 A 
ENDBRANCH  64  81
ENDBRANCH  38  39
ENDBRANCH  30  33
ENDBRANCH  28  29
ENDBRANCH  27  28
ENDBRANCH  26  27
ENDBRANCH   1  26
TORSDOF 16
ENDMDL
