MODEL 1
REMARK VINA RESULT:     -13.1      0.000      0.000
REMARK SMILES O=C(NCCCCCCNC(=O)[C@H]1[C@H]2CC[C@H](CC2)[C@@H]1C(=O)Nc1sc2c(c1C(=O)N1CCCCC1)CCCC2)c1ccc(-c2c3nc(c(-c4c(F)cccc4F)c4ccc([nH]4)c(-c4c(F)cccc4F)c4nc(c(-c5c(F)cccc5F)c5ccc2[nH]5)C=C4)C=C3)cc1
REMARK SMILES IDX 7 1 6 2 5 3 4 4 3 5 1 6 2 7 41 9 42 10 94 11 43 12 93 13
REMARK SMILES IDX 44 14 45 15 46 16 87 17 47 18 92 19 86 20 88 21 48 22 91 23
REMARK SMILES IDX 85 24 84 25 49 27 75 28 58 29 74 30 59 31 62 32 73 33 89 34
REMARK SMILES IDX 60 35 61 36 72 38 90 39 63 40 50 41 51 42 56 43 52 44 53 45
REMARK SMILES IDX 55 46 57 47 54 48 76 49 77 50 82 51 78 52 79 53 81 54 83 55
REMARK SMILES IDX 80 56 64 57 65 58 70 59 66 60 67 61 69 62 71 63 68 64 8 65
REMARK SMILES IDX 9 66 10 67 11 68 12 70 13 71 14 72 20 73 15 74 19 75 17 76
REMARK SMILES IDX 16 77 18 78 21 79 22 80 23 81 24 83 25 84 28 85 26 86 27 87
REMARK SMILES IDX 40 88 37 89 39 90 38 91 29 92 30 93 31 94 32 95 36 96 33 97
REMARK SMILES IDX 35 98 34 99
REMARK H PARENT 3 8 88 26 62 37 10 69 23 82
REMARK Flexibility Score: inf
ROOT
ATOM      1  C   UNL A   1      38.592  21.087  25.406  1.00  0.00     0.002 C 
ENDROOT
BRANCH   1   2
ATOM      2  C   UNL A   1      39.191  22.212  26.254  1.00  0.00     0.002 C 
BRANCH   2   3
ATOM      3  C   UNL A   1      40.456  21.878  27.047  1.00  0.00     0.021 C 
BRANCH   3   4
ATOM      4  C   UNL A   1      41.395  23.040  27.324  1.00  0.00     0.116 C 
BRANCH   4   5
ATOM      5  N   UNL A   1      41.782  23.760  26.126  1.00  0.00    -0.352 N 
ATOM      6  O   UNL A   1      42.079  25.558  24.796  1.00  0.00    -0.269 OA
ATOM      7  C   UNL A   1      41.846  25.118  25.912  1.00  0.00     0.251 C 
ATOM      8  H   UNL A   1      42.033  23.199  25.357  1.00  0.00     0.163 HD
BRANCH   7   9
ATOM      9  C   UNL A   1      41.608  26.049  27.039  1.00  0.00     0.039 A 
ATOM     10  C   UNL A   1      42.423  27.167  27.229  1.00  0.00     0.014 A 
ATOM     11  C   UNL A   1      40.540  25.803  27.907  1.00  0.00     0.014 A 
ATOM     12  C   UNL A   1      42.250  27.963  28.355  1.00  0.00     0.010 A 
ATOM     13  C   UNL A   1      40.313  26.656  28.992  1.00  0.00     0.010 A 
ATOM     14  C   UNL A   1      41.178  27.733  29.235  1.00  0.00    -0.014 A 
BRANCH  14  15
ATOM     15  C   UNL A   1      40.934  28.696  30.338  1.00  0.00     0.031 A 
ATOM     16  C   UNL A   1      39.836  29.718  30.263  1.00  0.00     0.074 A 
ATOM     17  C   UNL A   1      41.709  28.610  31.437  1.00  0.00     0.049 A 
ATOM     18  N   UNL A   1      39.475  30.600  31.163  1.00  0.00    -0.248 NA
ATOM     19  C   UNL A   1      39.043  29.765  29.026  1.00  0.00     0.031 C 
ATOM     20  C   UNL A   1      42.822  27.672  31.609  1.00  0.00     0.029 A 
ATOM     21  N   UNL A   1      41.670  29.297  32.621  1.00  0.00    -0.354 N 
ATOM     22  C   UNL A   1      38.424  31.312  30.599  1.00  0.00     0.074 A 
ATOM     23  C   UNL A   1      38.219  30.777  29.269  1.00  0.00     0.031 C 
ATOM     24  C   UNL A   1      43.325  27.807  32.843  1.00  0.00     0.029 A 
ATOM     25  C   UNL A   1      42.614  28.879  33.528  1.00  0.00     0.049 A 
ATOM     26  H   UNL A   1      41.028  30.021  32.806  1.00  0.00     0.167 HD
ATOM     27  C   UNL A   1      37.696  32.316  31.146  1.00  0.00     0.037 A 
ATOM     28  C   UNL A   1      42.888  29.318  34.769  1.00  0.00     0.037 A 
ATOM     29  C   UNL A   1      37.902  32.841  32.472  1.00  0.00     0.049 A 
ATOM     30  C   UNL A   1      42.070  30.437  35.341  1.00  0.00     0.074 A 
ATOM     31  C   UNL A   1      37.200  33.842  33.122  1.00  0.00     0.029 A 
ATOM     32  N   UNL A   1      38.884  32.409  33.351  1.00  0.00    -0.354 N 
ATOM     33  N   UNL A   1      41.060  31.076  34.805  1.00  0.00    -0.248 NA
ATOM     34  C   UNL A   1      42.435  30.898  36.685  1.00  0.00     0.031 C 
ATOM     35  C   UNL A   1      37.779  34.040  34.381  1.00  0.00     0.029 A 
ATOM     36  C   UNL A   1      38.816  33.133  34.531  1.00  0.00     0.049 A 
ATOM     37  H   UNL A   1      39.534  31.693  33.163  1.00  0.00     0.167 HD
ATOM     38  C   UNL A   1      40.662  32.012  35.749  1.00  0.00     0.074 A 
ATOM     39  C   UNL A   1      41.520  31.833  36.903  1.00  0.00     0.031 C 
ATOM     40  C   UNL A   1      39.683  32.944  35.665  1.00  0.00     0.037 A 
BRANCH  27  41
ATOM     41  C   UNL A   1      36.606  32.924  30.311  1.00  0.00     0.057 A 
ATOM     42  C   UNL A   1      36.886  33.846  29.293  1.00  0.00     0.134 A 
ATOM     43  C   UNL A   1      35.272  32.532  30.478  1.00  0.00     0.134 A 
ATOM     44  F   UNL A   1      38.143  34.269  29.087  1.00  0.00    -0.206 F 
ATOM     45  C   UNL A   1      35.876  34.363  28.480  1.00  0.00     0.040 A 
ATOM     46  C   UNL A   1      34.257  33.026  29.656  1.00  0.00     0.040 A 
ATOM     47  F   UNL A   1      34.937  31.647  31.429  1.00  0.00    -0.206 F 
ATOM     48  C   UNL A   1      34.558  33.946  28.655  1.00  0.00     0.006 A 
ENDBRANCH  27  41
BRANCH  28  49
ATOM     49  C   UNL A   1      43.993  28.703  35.545  1.00  0.00     0.057 A 
ATOM     50  C   UNL A   1      45.313  29.142  35.400  1.00  0.00     0.134 A 
ATOM     51  C   UNL A   1      43.753  27.661  36.450  1.00  0.00     0.134 A 
ATOM     52  F   UNL A   1      45.607  30.126  34.538  1.00  0.00    -0.206 F 
ATOM     53  C   UNL A   1      46.359  28.557  36.114  1.00  0.00     0.040 A 
ATOM     54  C   UNL A   1      44.785  27.085  37.191  1.00  0.00     0.040 A 
ATOM     55  F   UNL A   1      42.508  27.202  36.639  1.00  0.00    -0.206 F 
ATOM     56  C   UNL A   1      46.095  27.528  37.017  1.00  0.00     0.006 A 
ENDBRANCH  28  49
BRANCH  40  57
ATOM     57  C   UNL A   1      39.487  33.823  36.863  1.00  0.00     0.057 A 
ATOM     58  C   UNL A   1      38.736  33.402  37.968  1.00  0.00     0.134 A 
ATOM     59  C   UNL A   1      40.055  35.101  36.913  1.00  0.00     0.134 A 
ATOM     60  F   UNL A   1      38.151  32.194  37.972  1.00  0.00    -0.206 F 
ATOM     61  C   UNL A   1      38.531  34.235  39.069  1.00  0.00     0.040 A 
ATOM     62  C   UNL A   1      39.878  35.934  38.019  1.00  0.00     0.040 A 
ATOM     63  F   UNL A   1      40.790  35.561  35.889  1.00  0.00    -0.206 F 
ATOM     64  C   UNL A   1      39.107  35.503  39.098  1.00  0.00     0.006 A 
ENDBRANCH  40  57
ENDBRANCH  14  15
ENDBRANCH   7   9
ENDBRANCH   4   5
ENDBRANCH   3   4
ENDBRANCH   2   3
ENDBRANCH   1   2
BRANCH   1  65
ATOM     65  C   UNL A   1      37.172  21.302  24.884  1.00  0.00     0.021 C 
BRANCH  65  66
ATOM     66  C   UNL A   1      36.957  22.519  23.995  1.00  0.00     0.116 C 
BRANCH  66  67
ATOM     67  N   UNL A   1      36.378  23.648  24.683  1.00  0.00    -0.356 N 
ATOM     68  C   UNL A   1      35.128  24.170  24.715  1.00  0.00     0.224 C 
ATOM     69  H   UNL A   1      37.023  24.139  25.241  1.00  0.00     0.163 HD
ATOM     70  O   UNL A   1      34.966  25.072  25.550  1.00  0.00    -0.275 OA
BRANCH  68  71
ATOM     71  C   UNL A   1      33.979  23.850  23.745  1.00  0.00     0.094 C 
ATOM     72  C   UNL A   1      33.400  22.443  24.075  1.00  0.00     0.002 C 
ATOM     73  C   UNL A   1      32.825  24.871  23.507  1.00  0.00     0.094 C 
ATOM     74  C   UNL A   1      32.524  22.504  25.334  1.00  0.00     0.005 C 
ATOM     75  C   UNL A   1      32.516  21.994  22.893  1.00  0.00     0.005 C 
ATOM     76  C   UNL A   1      31.467  24.117  23.718  1.00  0.00     0.002 C 
ATOM     77  C   UNL A   1      31.381  23.497  25.124  1.00  0.00     0.005 C 
ATOM     78  C   UNL A   1      31.352  22.968  22.702  1.00  0.00     0.005 C 
BRANCH  73  79
ATOM     79  C   UNL A   1      32.911  25.554  22.119  1.00  0.00     0.229 C 
ATOM     80  O   UNL A   1      32.981  24.888  21.080  1.00  0.00    -0.274 OA
ATOM     81  N   UNL A   1      32.875  26.918  21.976  1.00  0.00    -0.317 N 
ATOM     82  H   UNL A   1      32.891  27.247  21.049  1.00  0.00     0.170 HD
BRANCH  81  83
ATOM     83  C   UNL A   1      32.820  27.893  22.951  1.00  0.00     0.108 A 
ATOM     84  S   UNL A   1      34.227  28.279  23.818  1.00  0.00    -0.122 S 
ATOM     85  C   UNL A   1      31.720  28.677  23.293  1.00  0.00     0.078 A 
ATOM     86  C   UNL A   1      33.325  29.161  24.948  1.00  0.00     0.011 A 
ATOM     87  C   UNL A   1      32.025  29.396  24.527  1.00  0.00    -0.019 A 
ATOM     88  C   UNL A   1      33.923  29.608  26.246  1.00  0.00     0.047 C 
ATOM     89  C   UNL A   1      31.093  30.207  25.381  1.00  0.00     0.037 C 
ATOM     90  C   UNL A   1      32.810  29.955  27.242  1.00  0.00     0.006 C 
ATOM     91  C   UNL A   1      31.773  30.867  26.590  1.00  0.00     0.005 C 
BRANCH  85  92
ATOM     92  C   UNL A   1      30.449  28.525  22.551  1.00  0.00     0.257 C 
ATOM     93  O   UNL A   1      30.142  27.458  22.014  1.00  0.00    -0.269 OA
ATOM     94  N   UNL A   1      29.543  29.578  22.591  1.00  0.00    -0.339 N 
ATOM     95  C   UNL A   1      28.162  29.224  22.892  1.00  0.00     0.120 C 
ATOM     96  C   UNL A   1      29.675  30.644  21.606  1.00  0.00     0.120 C 
ATOM     97  C   UNL A   1      27.412  30.433  23.435  1.00  0.00     0.022 C 
ATOM     98  C   UNL A   1      28.937  31.906  22.058  1.00  0.00     0.022 C 
ATOM     99  C   UNL A   1      27.494  31.612  22.467  1.00  0.00     0.004 C 
ENDBRANCH  85  92
ENDBRANCH  81  83
ENDBRANCH  73  79
ENDBRANCH  68  71
ENDBRANCH  66  67
ENDBRANCH  65  66
ENDBRANCH   1  65
TORSDOF 16
ENDMDL
MODEL 2
REMARK VINA RESULT:     -13.0      4.053      7.452
REMARK SMILES O=C(NCCCCCCNC(=O)[C@H]1[C@H]2CC[C@H](CC2)[C@@H]1C(=O)Nc1sc2c(c1C(=O)N1CCCCC1)CCCC2)c1ccc(-c2c3nc(c(-c4c(F)cccc4F)c4ccc([nH]4)c(-c4c(F)cccc4F)c4nc(c(-c5c(F)cccc5F)c5ccc2[nH]5)C=C4)C=C3)cc1
REMARK SMILES IDX 7 1 6 2 5 3 4 4 3 5 1 6 2 7 41 9 42 10 94 11 43 12 93 13
REMARK SMILES IDX 44 14 45 15 46 16 87 17 47 18 92 19 86 20 88 21 48 22 91 23
REMARK SMILES IDX 85 24 84 25 49 27 75 28 58 29 74 30 59 31 62 32 73 33 89 34
REMARK SMILES IDX 60 35 61 36 72 38 90 39 63 40 50 41 51 42 56 43 52 44 53 45
REMARK SMILES IDX 55 46 57 47 54 48 76 49 77 50 82 51 78 52 79 53 81 54 83 55
REMARK SMILES IDX 80 56 64 57 65 58 70 59 66 60 67 61 69 62 71 63 68 64 8 65
REMARK SMILES IDX 9 66 10 67 11 68 12 70 13 71 14 72 20 73 15 74 19 75 17 76
REMARK SMILES IDX 16 77 18 78 21 79 22 80 23 81 24 83 25 84 28 85 26 86 27 87
REMARK SMILES IDX 40 88 37 89 39 90 38 91 29 92 30 93 31 94 32 95 36 96 33 97
REMARK SMILES IDX 35 98 34 99
REMARK H PARENT 3 8 88 26 62 37 10 69 23 82
REMARK Flexibility Score: inf
ROOT
ATOM      1  C   UNL A   1      38.573  23.480  25.751  1.00  0.00     0.002 C 
ENDROOT
BRANCH   1   2
ATOM      2  C   UNL A   1      39.161  22.282  26.502  1.00  0.00     0.002 C 
BRANCH   2   3
ATOM      3  C   UNL A   1      39.283  20.973  25.721  1.00  0.00     0.021 C 
BRANCH   3   4
ATOM      4  C   UNL A   1      39.819  19.782  26.499  1.00  0.00     0.116 C 
BRANCH   4   5
ATOM      5  N   UNL A   1      41.014  19.208  25.913  1.00  0.00    -0.352 N 
ATOM      6  O   UNL A   1      43.120  19.190  25.102  1.00  0.00    -0.269 OA
ATOM      7  C   UNL A   1      42.251  19.781  25.727  1.00  0.00     0.251 C 
ATOM      8  H   UNL A   1      40.929  18.277  25.603  1.00  0.00     0.163 HD
BRANCH   7   9
ATOM      9  C   UNL A   1      42.521  21.134  26.268  1.00  0.00     0.039 A 
ATOM     10  C   UNL A   1      42.594  21.353  27.645  1.00  0.00     0.014 A 
ATOM     11  C   UNL A   1      42.718  22.193  25.376  1.00  0.00     0.014 A 
ATOM     12  C   UNL A   1      42.736  22.648  28.131  1.00  0.00     0.010 A 
ATOM     13  C   UNL A   1      42.950  23.482  25.867  1.00  0.00     0.010 A 
ATOM     14  C   UNL A   1      42.942  23.723  27.249  1.00  0.00    -0.014 A 
BRANCH  14  15
ATOM     15  C   UNL A   1      43.245  25.063  27.809  1.00  0.00     0.031 A 
ATOM     16  C   UNL A   1      44.657  25.531  28.013  1.00  0.00     0.074 A 
ATOM     17  C   UNL A   1      42.210  25.876  28.101  1.00  0.00     0.049 A 
ATOM     18  N   UNL A   1      45.081  26.690  28.455  1.00  0.00    -0.248 NA
ATOM     19  C   UNL A   1      45.733  24.584  27.688  1.00  0.00     0.031 C 
ATOM     20  C   UNL A   1      40.796  25.517  27.966  1.00  0.00     0.029 A 
ATOM     21  N   UNL A   1      42.182  27.171  28.549  1.00  0.00    -0.354 N 
ATOM     22  C   UNL A   1      46.467  26.608  28.473  1.00  0.00     0.074 A 
ATOM     23  C   UNL A   1      46.815  25.278  28.019  1.00  0.00     0.031 C 
ATOM     24  C   UNL A   1      40.040  26.581  28.272  1.00  0.00     0.029 A 
ATOM     25  C   UNL A   1      40.911  27.675  28.683  1.00  0.00     0.049 A 
ATOM     26  H   UNL A   1      42.993  27.690  28.755  1.00  0.00     0.167 HD
ATOM     27  C   UNL A   1      47.364  27.560  28.829  1.00  0.00     0.037 A 
ATOM     28  C   UNL A   1      40.489  28.881  29.105  1.00  0.00     0.037 A 
ATOM     29  C   UNL A   1      47.010  28.884  29.274  1.00  0.00     0.049 A 
ATOM     30  C   UNL A   1      41.507  29.907  29.501  1.00  0.00     0.074 A 
ATOM     31  C   UNL A   1      47.848  29.926  29.636  1.00  0.00     0.029 A 
ATOM     32  N   UNL A   1      45.712  29.350  29.422  1.00  0.00    -0.354 N 
ATOM     33  N   UNL A   1      42.815  29.824  29.481  1.00  0.00    -0.248 NA
ATOM     34  C   UNL A   1      40.990  31.193  29.985  1.00  0.00     0.031 C 
ATOM     35  C   UNL A   1      47.058  31.009  30.035  1.00  0.00     0.029 A 
ATOM     36  C   UNL A   1      45.727  30.657  29.883  1.00  0.00     0.049 A 
ATOM     37  H   UNL A   1      44.900  28.828  29.228  1.00  0.00     0.167 HD
ATOM     38  C   UNL A   1      43.279  31.047  29.942  1.00  0.00     0.074 A 
ATOM     39  C   UNL A   1      42.112  31.866  30.203  1.00  0.00     0.031 C 
ATOM     40  C   UNL A   1      44.555  31.453  30.142  1.00  0.00     0.037 A 
BRANCH  27  41
ATOM     41  C   UNL A   1      48.822  27.208  28.759  1.00  0.00     0.057 A 
ATOM     42  C   UNL A   1      49.589  27.472  27.617  1.00  0.00     0.134 A 
ATOM     43  C   UNL A   1      49.482  26.667  29.870  1.00  0.00     0.134 A 
ATOM     44  F   UNL A   1      49.015  27.982  26.516  1.00  0.00    -0.206 F 
ATOM     45  C   UNL A   1      50.958  27.200  27.579  1.00  0.00     0.040 A 
ATOM     46  C   UNL A   1      50.855  26.411  29.851  1.00  0.00     0.040 A 
ATOM     47  F   UNL A   1      48.808  26.399  30.998  1.00  0.00    -0.206 F 
ATOM     48  C   UNL A   1      51.596  26.676  28.701  1.00  0.00     0.006 A 
ENDBRANCH  27  41
BRANCH  28  49
ATOM     49  C   UNL A   1      39.037  29.172  29.182  1.00  0.00     0.057 A 
ATOM     50  C   UNL A   1      38.314  29.568  28.052  1.00  0.00     0.134 A 
ATOM     51  C   UNL A   1      38.337  29.060  30.390  1.00  0.00     0.134 A 
ATOM     52  F   UNL A   1      38.933  29.707  26.870  1.00  0.00    -0.206 F 
ATOM     53  C   UNL A   1      36.952  29.860  28.121  1.00  0.00     0.040 A 
ATOM     54  C   UNL A   1      36.969  29.323  30.470  1.00  0.00     0.040 A 
ATOM     55  F   UNL A   1      38.971  28.676  31.507  1.00  0.00    -0.206 F 
ATOM     56  C   UNL A   1      36.274  29.732  29.333  1.00  0.00     0.006 A 
ENDBRANCH  28  49
BRANCH  40  57
ATOM     57  C   UNL A   1      44.744  32.849  30.655  1.00  0.00     0.057 A 
ATOM     58  C   UNL A   1      44.788  33.949  29.789  1.00  0.00     0.134 A 
ATOM     59  C   UNL A   1      44.882  33.095  32.026  1.00  0.00     0.134 A 
ATOM     60  F   UNL A   1      44.679  33.775  28.463  1.00  0.00    -0.206 F 
ATOM     61  C   UNL A   1      44.992  35.244  30.267  1.00  0.00     0.040 A 
ATOM     62  C   UNL A   1      45.063  34.388  32.518  1.00  0.00     0.040 A 
ATOM     63  F   UNL A   1      44.844  32.084  32.907  1.00  0.00    -0.206 F 
ATOM     64  C   UNL A   1      45.127  35.466  31.636  1.00  0.00     0.006 A 
ENDBRANCH  40  57
ENDBRANCH  14  15
ENDBRANCH   7   9
ENDBRANCH   4   5
ENDBRANCH   3   4
ENDBRANCH   2   3
ENDBRANCH   1   2
BRANCH   1  65
ATOM     65  C   UNL A   1      37.283  24.078  26.312  1.00  0.00     0.021 C 
BRANCH  65  66
ATOM     66  C   UNL A   1      36.078  24.075  25.382  1.00  0.00     0.116 C 
BRANCH  66  67
ATOM     67  N   UNL A   1      35.553  22.758  25.111  1.00  0.00    -0.356 N 
ATOM     68  C   UNL A   1      34.428  22.318  24.497  1.00  0.00     0.224 C 
ATOM     69  H   UNL A   1      36.129  22.031  25.441  1.00  0.00     0.163 HD
ATOM     70  O   UNL A   1      34.384  21.094  24.315  1.00  0.00    -0.275 OA
BRANCH  68  71
ATOM     71  C   UNL A   1      33.190  23.160  24.150  1.00  0.00     0.094 C 
ATOM     72  C   UNL A   1      31.996  22.720  25.048  1.00  0.00     0.002 C 
ATOM     73  C   UNL A   1      33.274  24.716  24.080  1.00  0.00     0.094 C 
ATOM     74  C   UNL A   1      32.163  23.272  26.470  1.00  0.00     0.005 C 
ATOM     75  C   UNL A   1      30.700  23.306  24.450  1.00  0.00     0.005 C 
ATOM     76  C   UNL A   1      32.128  25.298  24.978  1.00  0.00     0.002 C 
ATOM     77  C   UNL A   1      32.244  24.798  26.430  1.00  0.00     0.005 C 
ATOM     78  C   UNL A   1      30.765  24.834  24.439  1.00  0.00     0.005 C 
BRANCH  73  79
ATOM     79  C   UNL A   1      33.214  25.251  22.628  1.00  0.00     0.229 C 
ATOM     80  O   UNL A   1      33.284  24.487  21.660  1.00  0.00    -0.274 OA
ATOM     81  N   UNL A   1      33.044  26.584  22.351  1.00  0.00    -0.317 N 
ATOM     82  H   UNL A   1      32.974  26.812  21.396  1.00  0.00     0.170 HD
BRANCH  81  83
ATOM     83  C   UNL A   1      32.957  27.649  23.224  1.00  0.00     0.108 A 
ATOM     84  S   UNL A   1      34.307  28.061  24.167  1.00  0.00    -0.122 S 
ATOM     85  C   UNL A   1      31.871  28.505  23.400  1.00  0.00     0.078 A 
ATOM     86  C   UNL A   1      33.360  29.081  25.131  1.00  0.00     0.011 A 
ATOM     87  C   UNL A   1      32.110  29.325  24.583  1.00  0.00    -0.019 A 
ATOM     88  C   UNL A   1      33.873  29.627  26.429  1.00  0.00     0.047 C 
ATOM     89  C   UNL A   1      31.151  30.250  25.278  1.00  0.00     0.037 C 
ATOM     90  C   UNL A   1      32.702  30.110  27.291  1.00  0.00     0.006 C 
ATOM     91  C   UNL A   1      31.763  30.996  26.474  1.00  0.00     0.005 C 
BRANCH  85  92
ATOM     92  C   UNL A   1      30.658  28.331  22.571  1.00  0.00     0.257 C 
ATOM     93  O   UNL A   1      30.422  27.270  21.989  1.00  0.00    -0.269 OA
ATOM     94  N   UNL A   1      29.716  29.355  22.576  1.00  0.00    -0.339 N 
ATOM     95  C   UNL A   1      28.331  28.950  22.775  1.00  0.00     0.120 C 
ATOM     96  C   UNL A   1      29.878  30.449  21.628  1.00  0.00     0.120 C 
ATOM     97  C   UNL A   1      27.507  30.119  23.296  1.00  0.00     0.022 C 
ATOM     98  C   UNL A   1      29.071  31.675  22.059  1.00  0.00     0.022 C 
ATOM     99  C   UNL A   1      27.614  31.325  22.364  1.00  0.00     0.004 C 
ENDBRANCH  85  92
ENDBRANCH  81  83
ENDBRANCH  73  79
ENDBRANCH  68  71
ENDBRANCH  66  67
ENDBRANCH  65  66
ENDBRANCH   1  65
TORSDOF 16
ENDMDL
MODEL 3
REMARK VINA RESULT:     -13.0      3.147      8.807
REMARK SMILES O=C(NCCCCCCNC(=O)[C@H]1[C@H]2CC[C@H](CC2)[C@@H]1C(=O)Nc1sc2c(c1C(=O)N1CCCCC1)CCCC2)c1ccc(-c2c3nc(c(-c4c(F)cccc4F)c4ccc([nH]4)c(-c4c(F)cccc4F)c4nc(c(-c5c(F)cccc5F)c5ccc2[nH]5)C=C4)C=C3)cc1
REMARK SMILES IDX 7 1 6 2 5 3 4 4 3 5 1 6 2 7 41 9 42 10 94 11 43 12 93 13
REMARK SMILES IDX 44 14 45 15 46 16 87 17 47 18 92 19 86 20 88 21 48 22 91 23
REMARK SMILES IDX 85 24 84 25 49 27 75 28 58 29 74 30 59 31 62 32 73 33 89 34
REMARK SMILES IDX 60 35 61 36 72 38 90 39 63 40 50 41 51 42 56 43 52 44 53 45
REMARK SMILES IDX 55 46 57 47 54 48 76 49 77 50 82 51 78 52 79 53 81 54 83 55
REMARK SMILES IDX 80 56 64 57 65 58 70 59 66 60 67 61 69 62 71 63 68 64 8 65
REMARK SMILES IDX 9 66 10 67 11 68 12 70 13 71 14 72 20 73 15 74 19 75 17 76
REMARK SMILES IDX 16 77 18 78 21 79 22 80 23 81 24 83 25 84 28 85 26 86 27 87
REMARK SMILES IDX 40 88 37 89 39 90 38 91 29 92 30 93 31 94 32 95 36 96 33 97
REMARK SMILES IDX 35 98 34 99
REMARK H PARENT 3 8 88 26 62 37 10 69 23 82
REMARK Flexibility Score: inf
ROOT
ATOM      1  C   UNL A   1      34.298  29.890  26.588  1.00  0.00     0.002 C 
ENDROOT
BRANCH   1   2
ATOM      2  C   UNL A   1      33.931  30.801  27.762  1.00  0.00     0.002 C 
BRANCH   2   3
ATOM      3  C   UNL A   1      32.687  31.673  27.594  1.00  0.00     0.021 C 
BRANCH   3   4
ATOM      4  C   UNL A   1      32.915  33.052  26.997  1.00  0.00     0.116 C 
BRANCH   4   5
ATOM      5  N   UNL A   1      32.538  34.131  27.889  1.00  0.00    -0.352 N 
ATOM      6  O   UNL A   1      32.643  35.424  29.735  1.00  0.00    -0.269 OA
ATOM      7  C   UNL A   1      33.166  34.573  29.030  1.00  0.00     0.251 C 
ATOM      8  H   UNL A   1      31.717  34.615  27.644  1.00  0.00     0.163 HD
BRANCH   7   9
ATOM      9  C   UNL A   1      34.474  33.995  29.418  1.00  0.00     0.039 A 
ATOM     10  C   UNL A   1      34.586  33.156  30.528  1.00  0.00     0.014 A 
ATOM     11  C   UNL A   1      35.601  34.289  28.643  1.00  0.00     0.014 A 
ATOM     12  C   UNL A   1      35.839  32.716  30.938  1.00  0.00     0.010 A 
ATOM     13  C   UNL A   1      36.849  33.773  29.006  1.00  0.00     0.010 A 
ATOM     14  C   UNL A   1      36.981  32.997  30.167  1.00  0.00    -0.014 A 
BRANCH  14  15
ATOM     15  C   UNL A   1      38.276  32.382  30.551  1.00  0.00     0.031 A 
ATOM     16  C   UNL A   1      39.159  32.994  31.600  1.00  0.00     0.074 A 
ATOM     17  C   UNL A   1      38.630  31.227  29.954  1.00  0.00     0.049 A 
ATOM     18  N   UNL A   1      40.299  32.551  32.072  1.00  0.00    -0.248 NA
ATOM     19  C   UNL A   1      38.717  34.263  32.196  1.00  0.00     0.031 C 
ATOM     20  C   UNL A   1      37.861  30.554  28.903  1.00  0.00     0.029 A 
ATOM     21  N   UNL A   1      39.706  30.403  30.154  1.00  0.00    -0.354 N 
ATOM     22  C   UNL A   1      40.716  33.490  33.007  1.00  0.00     0.074 A 
ATOM     23  C   UNL A   1      39.718  34.540  33.021  1.00  0.00     0.031 C 
ATOM     24  C   UNL A   1      38.461  29.398  28.589  1.00  0.00     0.029 A 
ATOM     25  C   UNL A   1      39.686  29.276  29.369  1.00  0.00     0.049 A 
ATOM     26  H   UNL A   1      40.425  30.599  30.799  1.00  0.00     0.167 HD
ATOM     27  C   UNL A   1      41.825  33.471  33.785  1.00  0.00     0.037 A 
ATOM     28  C   UNL A   1      40.563  28.261  29.275  1.00  0.00     0.037 A 
ATOM     29  C   UNL A   1      42.812  32.420  33.769  1.00  0.00     0.049 A 
ATOM     30  C   UNL A   1      41.786  28.275  30.142  1.00  0.00     0.074 A 
ATOM     31  C   UNL A   1      43.958  32.301  34.536  1.00  0.00     0.029 A 
ATOM     32  N   UNL A   1      42.770  31.307  32.942  1.00  0.00    -0.354 N 
ATOM     33  N   UNL A   1      42.147  29.155  31.044  1.00  0.00    -0.248 NA
ATOM     34  C   UNL A   1      42.726  27.160  29.974  1.00  0.00     0.031 C 
ATOM     35  C   UNL A   1      44.628  31.136  34.149  1.00  0.00     0.029 A 
ATOM     36  C   UNL A   1      43.878  30.506  33.169  1.00  0.00     0.049 A 
ATOM     37  H   UNL A   1      42.059  31.116  32.289  1.00  0.00     0.167 HD
ATOM     38  C   UNL A   1      43.352  28.697  31.557  1.00  0.00     0.074 A 
ATOM     39  C   UNL A   1      43.643  27.446  30.888  1.00  0.00     0.031 C 
ATOM     40  C   UNL A   1      44.152  29.267  32.489  1.00  0.00     0.037 A 
BRANCH  27  41
ATOM     41  C   UNL A   1      42.044  34.625  34.721  1.00  0.00     0.057 A 
ATOM     42  C   UNL A   1      41.614  34.582  36.054  1.00  0.00     0.134 A 
ATOM     43  C   UNL A   1      42.753  35.759  34.306  1.00  0.00     0.134 A 
ATOM     44  F   UNL A   1      40.922  33.527  36.511  1.00  0.00    -0.206 F 
ATOM     45  C   UNL A   1      41.873  35.632  36.937  1.00  0.00     0.040 A 
ATOM     46  C   UNL A   1      43.036  36.806  35.187  1.00  0.00     0.040 A 
ATOM     47  F   UNL A   1      43.199  35.860  33.045  1.00  0.00    -0.206 F 
ATOM     48  C   UNL A   1      42.594  36.744  36.507  1.00  0.00     0.006 A 
ENDBRANCH  27  41
BRANCH  28  49
ATOM     49  C   UNL A   1      40.318  27.156  28.315  1.00  0.00     0.057 A 
ATOM     50  C   UNL A   1      40.873  27.174  27.031  1.00  0.00     0.134 A 
ATOM     51  C   UNL A   1      39.523  26.057  28.661  1.00  0.00     0.134 A 
ATOM     52  F   UNL A   1      41.631  28.208  26.637  1.00  0.00    -0.206 F 
ATOM     53  C   UNL A   1      40.632  26.147  26.118  1.00  0.00     0.040 A 
ATOM     54  C   UNL A   1      39.296  25.009  27.768  1.00  0.00     0.040 A 
ATOM     55  F   UNL A   1      38.971  25.977  29.880  1.00  0.00    -0.206 F 
ATOM     56  C   UNL A   1      39.845  25.058  26.488  1.00  0.00     0.006 A 
ENDBRANCH  28  49
BRANCH  40  57
ATOM     57  C   UNL A   1      45.407  28.526  32.842  1.00  0.00     0.057 A 
ATOM     58  C   UNL A   1      46.613  28.764  32.171  1.00  0.00     0.134 A 
ATOM     59  C   UNL A   1      45.408  27.567  33.862  1.00  0.00     0.134 A 
ATOM     60  F   UNL A   1      46.671  29.658  31.173  1.00  0.00    -0.206 F 
ATOM     61  C   UNL A   1      47.772  28.051  32.483  1.00  0.00     0.040 A 
ATOM     62  C   UNL A   1      46.566  26.865  34.199  1.00  0.00     0.040 A 
ATOM     63  F   UNL A   1      44.286  27.297  34.545  1.00  0.00    -0.206 F 
ATOM     64  C   UNL A   1      47.751  27.101  33.502  1.00  0.00     0.006 A 
ENDBRANCH  40  57
ENDBRANCH  14  15
ENDBRANCH   7   9
ENDBRANCH   4   5
ENDBRANCH   3   4
ENDBRANCH   2   3
ENDBRANCH   1   2
BRANCH   1  65
ATOM     65  C   UNL A   1      34.626  28.435  26.922  1.00  0.00     0.021 C 
BRANCH  65  66
ATOM     66  C   UNL A   1      33.638  27.389  26.426  1.00  0.00     0.116 C 
BRANCH  66  67
ATOM     67  N   UNL A   1      32.449  27.947  25.830  1.00  0.00    -0.356 N 
ATOM     68  C   UNL A   1      31.354  27.393  25.254  1.00  0.00     0.224 C 
ATOM     69  H   UNL A   1      32.428  28.931  25.843  1.00  0.00     0.163 HD
ATOM     70  O   UNL A   1      30.450  28.195  24.983  1.00  0.00    -0.275 OA
BRANCH  68  71
ATOM     71  C   UNL A   1      31.205  25.933  24.797  1.00  0.00     0.094 C 
ATOM     72  C   UNL A   1      31.164  25.878  23.242  1.00  0.00     0.002 C 
ATOM     73  C   UNL A   1      32.143  24.820  25.356  1.00  0.00     0.094 C 
ATOM     74  C   UNL A   1      32.570  26.078  22.660  1.00  0.00     0.005 C 
ATOM     75  C   UNL A   1      30.659  24.483  22.819  1.00  0.00     0.005 C 
ATOM     76  C   UNL A   1      32.749  24.046  24.134  1.00  0.00     0.002 C 
ATOM     77  C   UNL A   1      33.510  24.995  23.190  1.00  0.00     0.005 C 
ATOM     78  C   UNL A   1      31.616  23.400  23.320  1.00  0.00     0.005 C 
BRANCH  73  79
ATOM     79  C   UNL A   1      31.423  23.877  26.351  1.00  0.00     0.229 C 
ATOM     80  O   UNL A   1      30.271  24.108  26.733  1.00  0.00    -0.274 OA
ATOM     81  N   UNL A   1      32.011  22.730  26.822  1.00  0.00    -0.317 N 
ATOM     82  H   UNL A   1      31.450  22.180  27.414  1.00  0.00     0.170 HD
BRANCH  81  83
ATOM     83  C   UNL A   1      33.278  22.241  26.581  1.00  0.00     0.108 A 
ATOM     84  S   UNL A   1      34.618  23.045  27.244  1.00  0.00    -0.122 S 
ATOM     85  C   UNL A   1      33.613  21.086  25.877  1.00  0.00     0.078 A 
ATOM     86  C   UNL A   1      35.674  22.157  26.264  1.00  0.00     0.011 A 
ATOM     87  C   UNL A   1      35.056  21.079  25.652  1.00  0.00    -0.019 A 
ATOM     88  C   UNL A   1      37.113  22.547  26.114  1.00  0.00     0.047 C 
ATOM     89  C   UNL A   1      35.852  20.147  24.783  1.00  0.00     0.037 C 
ATOM     90  C   UNL A   1      37.703  21.893  24.859  1.00  0.00     0.006 C 
ATOM     91  C   UNL A   1      37.367  20.403  24.823  1.00  0.00     0.005 C 
BRANCH  85  92
ATOM     92  C   UNL A   1      32.544  20.225  25.327  1.00  0.00     0.257 C 
ATOM     93  O   UNL A   1      31.407  20.659  25.126  1.00  0.00    -0.269 OA
ATOM     94  N   UNL A   1      32.890  18.944  24.912  1.00  0.00    -0.339 N 
ATOM     95  C   UNL A   1      32.405  18.543  23.597  1.00  0.00     0.120 C 
ATOM     96  C   UNL A   1      32.875  17.869  25.896  1.00  0.00     0.120 C 
ATOM     97  C   UNL A   1      33.260  17.413  23.040  1.00  0.00     0.022 C 
ATOM     98  C   UNL A   1      33.701  16.673  25.418  1.00  0.00     0.022 C 
ATOM     99  C   UNL A   1      33.309  16.231  24.007  1.00  0.00     0.004 C 
ENDBRANCH  85  92
ENDBRANCH  81  83
ENDBRANCH  73  79
ENDBRANCH  68  71
ENDBRANCH  66  67
ENDBRANCH  65  66
ENDBRANCH   1  65
TORSDOF 16
ENDMDL
