MODEL 1
REMARK VINA RESULT:     -11.2      0.000      0.000
REMARK SMILES NC(=O)CC[N@@H+]1[C@@H](C(=O)NCCCCCCNC(=O)c2ccc(-c3c4nc(c(-c5c(F)cccc5F)c5ccc([nH]5)c(-c5c(F)cccc5F)c5nc(c(-c6c(F)cccc6F)c6ccc3[nH]6)C=C5)C=C4)cc2)CC[C@@H]2CCCC[C@H]21
REMARK SMILES IDX 13 1 12 2 11 3 10 4 8 5 9 6 7 8 6 9 81 10 74 12 76 13 80 14
REMARK SMILES IDX 75 15 77 16 79 17 78 18 5 19 4 20 2 21 1 22 3 25 14 26 15 27
REMARK SMILES IDX 16 28 17 29 18 30 19 32 20 33 21 34 73 35 22 36 72 37 23 38
REMARK SMILES IDX 24 39 25 40 66 41 26 42 71 43 65 44 67 45 27 46 70 47 64 48
REMARK SMILES IDX 63 49 28 51 54 52 37 53 53 54 38 55 41 56 52 57 68 58 39 59
REMARK SMILES IDX 40 60 51 62 69 63 42 64 29 65 30 66 35 67 31 68 32 69 34 70
REMARK SMILES IDX 36 71 33 72 55 73 56 74 61 75 57 76 58 77 60 78 62 79 59 80
REMARK SMILES IDX 43 81 44 82 49 83 45 84 46 85 48 86 50 87 47 88
REMARK H PARENT 10 7 6 11 1 23 1 24 17 31 67 50 41 61
REMARK Flexibility Score: inf
ROOT
ATOM      1  C   UNL A   1      30.681  26.791  25.442  1.00  0.00     0.002 C 
ENDROOT
BRANCH   1   2
ATOM      2  C   UNL A   1      30.279  26.327  24.036  1.00  0.00     0.021 C 
BRANCH   2   3
ATOM      3  C   UNL A   1      30.776  24.928  23.686  1.00  0.00     0.116 C 
BRANCH   3   4
ATOM      4  N   UNL A   1      30.596  24.007  24.787  1.00  0.00    -0.351 N 
ATOM      5  C   UNL A   1      31.529  23.331  25.514  1.00  0.00     0.278 C 
ATOM      6  O   UNL A   1      31.130  22.634  26.454  1.00  0.00    -0.268 OA
ATOM      7  H   UNL A   1      29.661  23.844  25.050  1.00  0.00     0.163 HD
BRANCH   5   8
ATOM      8  C   UNL A   1      33.037  23.397  25.175  1.00  0.00     0.274 C 
ATOM      9  N   UNL A   1      33.722  22.048  25.244  1.00  0.00    -0.322 N 
ATOM     10  C   UNL A   1      35.177  22.237  24.915  1.00  0.00     0.187 C 
ATOM     11  H   UNL A   1      33.664  21.642  26.178  1.00  0.00     0.349 HD
ATOM     12  C   UNL A   1      33.669  24.488  26.052  1.00  0.00     0.076 C 
ATOM     13  C   UNL A   1      35.825  23.226  25.923  1.00  0.00     0.048 C 
ATOM     14  C   UNL A   1      35.984  20.923  24.880  1.00  0.00     0.065 C 
ATOM     15  C   UNL A   1      35.163  24.601  25.828  1.00  0.00     0.016 C 
ATOM     16  C   UNL A   1      37.336  23.394  25.709  1.00  0.00     0.010 C 
ATOM     17  C   UNL A   1      37.483  21.128  24.681  1.00  0.00     0.006 C 
ATOM     18  C   UNL A   1      38.063  22.061  25.729  1.00  0.00     0.001 C 
BRANCH   9  19
ATOM     19  C   UNL A   1      33.038  21.113  24.301  1.00  0.00     0.273 C 
BRANCH  19  20
ATOM     20  C   UNL A   1      32.233  19.956  24.908  1.00  0.00     0.161 C 
BRANCH  20  21
ATOM     21  C   UNL A   1      33.038  18.705  25.158  1.00  0.00     0.223 C 
ATOM     22  N   UNL A   1      32.870  18.144  26.389  1.00  0.00    -0.369 N 
ATOM     23  H   UNL A   1      33.362  17.325  26.627  1.00  0.00     0.159 HD
ATOM     24  H   UNL A   1      32.257  18.557  27.039  1.00  0.00     0.159 HD
ATOM     25  O   UNL A   1      33.824  18.228  24.348  1.00  0.00    -0.275 OA
ENDBRANCH  20  21
ENDBRANCH  19  20
ENDBRANCH   9  19
ENDBRANCH   5   8
ENDBRANCH   3   4
ENDBRANCH   2   3
ENDBRANCH   1   2
BRANCH   1  26
ATOM     26  C   UNL A   1      32.000  27.572  25.522  1.00  0.00     0.002 C 
BRANCH  26  27
ATOM     27  C   UNL A   1      32.479  27.904  26.936  1.00  0.00     0.021 C 
BRANCH  27  28
ATOM     28  C   UNL A   1      33.831  28.607  26.999  1.00  0.00     0.116 C 
BRANCH  28  29
ATOM     29  N   UNL A   1      33.732  29.946  27.558  1.00  0.00    -0.352 N 
ATOM     30  C   UNL A   1      34.658  30.640  28.299  1.00  0.00     0.251 C 
ATOM     31  H   UNL A   1      32.888  30.419  27.380  1.00  0.00     0.163 HD
ATOM     32  O   UNL A   1      34.365  31.702  28.832  1.00  0.00    -0.269 OA
BRANCH  30  33
ATOM     33  C   UNL A   1      36.012  30.076  28.467  1.00  0.00     0.039 A 
ATOM     34  C   UNL A   1      36.928  30.180  27.417  1.00  0.00     0.014 A 
ATOM     35  C   UNL A   1      36.377  29.462  29.668  1.00  0.00     0.014 A 
ATOM     36  C   UNL A   1      38.236  29.726  27.595  1.00  0.00     0.010 A 
ATOM     37  C   UNL A   1      37.695  29.070  29.866  1.00  0.00     0.010 A 
ATOM     38  C   UNL A   1      38.638  29.197  28.832  1.00  0.00    -0.014 A 
BRANCH  38  39
ATOM     39  C   UNL A   1      40.029  28.742  29.076  1.00  0.00     0.031 A 
ATOM     40  C   UNL A   1      41.033  29.711  29.636  1.00  0.00     0.074 A 
ATOM     41  C   UNL A   1      40.409  27.501  28.717  1.00  0.00     0.049 A 
ATOM     42  N   UNL A   1      42.329  29.584  29.757  1.00  0.00    -0.248 NA
ATOM     43  C   UNL A   1      40.510  31.008  30.095  1.00  0.00     0.031 C 
ATOM     44  C   UNL A   1      39.535  26.476  28.146  1.00  0.00     0.029 A 
ATOM     45  N   UNL A   1      41.644  26.901  28.756  1.00  0.00    -0.354 N 
ATOM     46  C   UNL A   1      42.777  30.787  30.289  1.00  0.00     0.074 A 
ATOM     47  C   UNL A   1      41.622  31.649  30.420  1.00  0.00     0.031 C 
ATOM     48  C   UNL A   1      40.259  25.373  27.890  1.00  0.00     0.029 A 
ATOM     49  C   UNL A   1      41.654  25.629  28.236  1.00  0.00     0.049 A 
ATOM     50  H   UNL A   1      42.445  27.339  29.123  1.00  0.00     0.167 HD
ATOM     51  C   UNL A   1      44.032  31.132  30.658  1.00  0.00     0.037 A 
ATOM     52  C   UNL A   1      42.677  24.777  28.037  1.00  0.00     0.037 A 
ATOM     53  C   UNL A   1      45.174  30.264  30.548  1.00  0.00     0.049 A 
ATOM     54  C   UNL A   1      44.069  25.196  28.431  1.00  0.00     0.074 A 
ATOM     55  C   UNL A   1      46.487  30.517  30.904  1.00  0.00     0.029 A 
ATOM     56  N   UNL A   1      45.134  28.970  30.051  1.00  0.00    -0.354 N 
ATOM     57  N   UNL A   1      44.475  26.328  28.953  1.00  0.00    -0.248 NA
ATOM     58  C   UNL A   1      45.145  24.220  28.208  1.00  0.00     0.031 C 
ATOM     59  C   UNL A   1      47.247  29.383  30.600  1.00  0.00     0.029 A 
ATOM     60  C   UNL A   1      46.399  28.412  30.093  1.00  0.00     0.049 A 
ATOM     61  H   UNL A   1      44.325  28.516  29.720  1.00  0.00     0.167 HD
ATOM     62  C   UNL A   1      45.841  26.184  29.159  1.00  0.00     0.074 A 
ATOM     63  C   UNL A   1      46.195  24.855  28.709  1.00  0.00     0.031 C 
ATOM     64  C   UNL A   1      46.724  27.073  29.675  1.00  0.00     0.037 A 
BRANCH  51  65
ATOM     65  C   UNL A   1      44.233  32.503  31.232  1.00  0.00     0.057 A 
ATOM     66  C   UNL A   1      44.512  33.605  30.414  1.00  0.00     0.134 A 
ATOM     67  C   UNL A   1      44.104  32.734  32.607  1.00  0.00     0.134 A 
ATOM     68  F   UNL A   1      44.662  33.448  29.090  1.00  0.00    -0.206 F 
ATOM     69  C   UNL A   1      44.676  34.885  30.944  1.00  0.00     0.040 A 
ATOM     70  C   UNL A   1      44.240  34.014  33.146  1.00  0.00     0.040 A 
ATOM     71  F   UNL A   1      43.832  31.723  33.446  1.00  0.00    -0.206 F 
ATOM     72  C   UNL A   1      44.532  35.093  32.315  1.00  0.00     0.006 A 
ENDBRANCH  51  65
BRANCH  52  73
ATOM     73  C   UNL A   1      42.439  23.439  27.438  1.00  0.00     0.057 A 
ATOM     74  C   UNL A   1      42.557  23.235  26.057  1.00  0.00     0.134 A 
ATOM     75  C   UNL A   1      42.049  22.344  28.219  1.00  0.00     0.134 A 
ATOM     76  F   UNL A   1      42.909  24.249  25.254  1.00  0.00    -0.206 F 
ATOM     77  C   UNL A   1      42.265  22.002  25.472  1.00  0.00     0.040 A 
ATOM     78  C   UNL A   1      41.778  21.098  27.649  1.00  0.00     0.040 A 
ATOM     79  F   UNL A   1      41.924  22.470  29.549  1.00  0.00    -0.206 F 
ATOM     80  C   UNL A   1      41.875  20.929  26.270  1.00  0.00     0.006 A 
ENDBRANCH  52  73
BRANCH  64  81
ATOM     81  C   UNL A   1      48.142  26.619  29.845  1.00  0.00     0.057 A 
ATOM     82  C   UNL A   1      49.123  26.868  28.878  1.00  0.00     0.134 A 
ATOM     83  C   UNL A   1      48.542  25.980  31.026  1.00  0.00     0.134 A 
ATOM     84  F   UNL A   1      48.800  27.466  27.721  1.00  0.00    -0.206 F 
ATOM     85  C   UNL A   1      50.450  26.483  29.072  1.00  0.00     0.040 A 
ATOM     86  C   UNL A   1      49.870  25.613  31.242  1.00  0.00     0.040 A 
ATOM     87  F   UNL A   1      47.652  25.721  31.996  1.00  0.00    -0.206 F 
ATOM     88  C   UNL A   1      50.828  25.862  30.262  1.00  0.00     0.006 A 
ENDBRANCH  64  81
ENDBRANCH  38  39
ENDBRANCH  30  33
ENDBRANCH  28  29
ENDBRANCH  27  28
ENDBRANCH  26  27
ENDBRANCH   1  26
TORSDOF 16
ENDMDL
MODEL 2
REMARK VINA RESULT:     -10.9      2.511      7.405
REMARK SMILES NC(=O)CC[N@@H+]1[C@@H](C(=O)NCCCCCCNC(=O)c2ccc(-c3c4nc(c(-c5c(F)cccc5F)c5ccc([nH]5)c(-c5c(F)cccc5F)c5nc(c(-c6c(F)cccc6F)c6ccc3[nH]6)C=C5)C=C4)cc2)CC[C@@H]2CCCC[C@H]21
REMARK SMILES IDX 13 1 12 2 11 3 10 4 8 5 9 6 7 8 6 9 81 10 74 12 76 13 80 14
REMARK SMILES IDX 75 15 77 16 79 17 78 18 5 19 4 20 2 21 1 22 3 25 14 26 15 27
REMARK SMILES IDX 16 28 17 29 18 30 19 32 20 33 21 34 73 35 22 36 72 37 23 38
REMARK SMILES IDX 24 39 25 40 66 41 26 42 71 43 65 44 67 45 27 46 70 47 64 48
REMARK SMILES IDX 63 49 28 51 54 52 37 53 53 54 38 55 41 56 52 57 68 58 39 59
REMARK SMILES IDX 40 60 51 62 69 63 42 64 29 65 30 66 35 67 31 68 32 69 34 70
REMARK SMILES IDX 36 71 33 72 55 73 56 74 61 75 57 76 58 77 60 78 62 79 59 80
REMARK SMILES IDX 43 81 44 82 49 83 45 84 46 85 48 86 50 87 47 88
REMARK H PARENT 10 7 6 11 1 23 1 24 17 31 67 50 41 61
REMARK Flexibility Score: inf
ROOT
ATOM      1  C   UNL A   1      37.123  22.457  24.500  1.00  0.00     0.002 C 
ENDROOT
BRANCH   1   2
ATOM      2  C   UNL A   1      36.152  23.080  23.490  1.00  0.00     0.021 C 
BRANCH   2   3
ATOM      3  C   UNL A   1      34.683  22.916  23.869  1.00  0.00     0.116 C 
BRANCH   3   4
ATOM      4  N   UNL A   1      33.805  23.375  22.814  1.00  0.00    -0.351 N 
ATOM      5  C   UNL A   1      33.270  24.610  22.607  1.00  0.00     0.278 C 
ATOM      6  O   UNL A   1      32.584  24.776  21.593  1.00  0.00    -0.268 OA
ATOM      7  H   UNL A   1      33.559  22.693  22.148  1.00  0.00     0.163 HD
BRANCH   5   8
ATOM      8  C   UNL A   1      33.478  25.771  23.608  1.00  0.00     0.274 C 
ATOM      9  N   UNL A   1      32.355  25.896  24.617  1.00  0.00    -0.322 N 
ATOM     10  C   UNL A   1      32.655  27.060  25.520  1.00  0.00     0.187 C 
ATOM     11  H   UNL A   1      31.458  26.075  24.164  1.00  0.00     0.349 HD
ATOM     12  C   UNL A   1      33.763  27.046  22.799  1.00  0.00     0.076 C 
ATOM     13  C   UNL A   1      32.778  28.363  24.682  1.00  0.00     0.048 C 
ATOM     14  C   UNL A   1      31.619  27.258  26.646  1.00  0.00     0.065 C 
ATOM     15  C   UNL A   1      33.937  28.257  23.690  1.00  0.00     0.016 C 
ATOM     16  C   UNL A   1      32.987  29.613  25.549  1.00  0.00     0.010 C 
ATOM     17  C   UNL A   1      31.849  28.517  27.476  1.00  0.00     0.006 C 
ATOM     18  C   UNL A   1      31.905  29.759  26.606  1.00  0.00     0.001 C 
BRANCH   9  19
ATOM     19  C   UNL A   1      32.235  24.607  25.363  1.00  0.00     0.273 C 
BRANCH  19  20
ATOM     20  C   UNL A   1      30.888  23.874  25.300  1.00  0.00     0.161 C 
BRANCH  20  21
ATOM     21  C   UNL A   1      30.167  23.788  26.623  1.00  0.00     0.223 C 
ATOM     22  N   UNL A   1      29.080  24.602  26.743  1.00  0.00    -0.369 N 
ATOM     23  H   UNL A   1      28.557  24.604  27.577  1.00  0.00     0.159 HD
ATOM     24  H   UNL A   1      28.818  25.188  25.997  1.00  0.00     0.159 HD
ATOM     25  O   UNL A   1      30.531  23.080  27.553  1.00  0.00    -0.275 OA
ENDBRANCH  20  21
ENDBRANCH  19  20
ENDBRANCH   9  19
ENDBRANCH   5   8
ENDBRANCH   3   4
ENDBRANCH   2   3
ENDBRANCH   1   2
BRANCH   1  26
ATOM     26  C   UNL A   1      36.745  21.054  24.993  1.00  0.00     0.002 C 
BRANCH  26  27
ATOM     27  C   UNL A   1      37.869  20.017  24.945  1.00  0.00     0.021 C 
BRANCH  27  28
ATOM     28  C   UNL A   1      39.075  20.349  25.817  1.00  0.00     0.116 C 
BRANCH  28  29
ATOM     29  N   UNL A   1      40.057  19.277  25.834  1.00  0.00    -0.352 N 
ATOM     30  C   UNL A   1      41.409  19.350  26.069  1.00  0.00     0.251 C 
ATOM     31  H   UNL A   1      39.704  18.376  25.655  1.00  0.00     0.163 HD
ATOM     32  O   UNL A   1      42.129  18.377  25.894  1.00  0.00    -0.269 OA
BRANCH  30  33
ATOM     33  C   UNL A   1      41.991  20.632  26.514  1.00  0.00     0.039 A 
ATOM     34  C   UNL A   1      42.448  21.542  25.557  1.00  0.00     0.014 A 
ATOM     35  C   UNL A   1      42.065  20.937  27.876  1.00  0.00     0.014 A 
ATOM     36  C   UNL A   1      42.921  22.790  25.964  1.00  0.00     0.010 A 
ATOM     37  C   UNL A   1      42.477  22.204  28.274  1.00  0.00     0.010 A 
ATOM     38  C   UNL A   1      42.909  23.143  27.323  1.00  0.00    -0.014 A 
BRANCH  38  39
ATOM     39  C   UNL A   1      43.364  24.475  27.792  1.00  0.00     0.031 A 
ATOM     40  C   UNL A   1      42.343  25.518  28.153  1.00  0.00     0.074 A 
ATOM     41  C   UNL A   1      44.677  24.775  27.809  1.00  0.00     0.049 A 
ATOM     42  N   UNL A   1      42.511  26.789  28.408  1.00  0.00    -0.248 NA
ATOM     43  C   UNL A   1      40.940  25.074  28.205  1.00  0.00     0.031 C 
ATOM     44  C   UNL A   1      45.764  23.858  27.464  1.00  0.00     0.029 A 
ATOM     45  N   UNL A   1      45.318  25.952  28.108  1.00  0.00    -0.354 N 
ATOM     46  C   UNL A   1      41.238  27.298  28.634  1.00  0.00     0.074 A 
ATOM     47  C   UNL A   1      40.304  26.211  28.436  1.00  0.00     0.031 C 
ATOM     48  C   UNL A   1      46.936  24.505  27.571  1.00  0.00     0.029 A 
ATOM     49  C   UNL A   1      46.681  25.892  27.949  1.00  0.00     0.049 A 
ATOM     50  H   UNL A   1      44.846  26.762  28.408  1.00  0.00     0.167 HD
ATOM     51  C   UNL A   1      40.883  28.553  28.999  1.00  0.00     0.037 A 
ATOM     52  C   UNL A   1      47.617  26.854  28.069  1.00  0.00     0.037 A 
ATOM     53  C   UNL A   1      41.816  29.625  29.218  1.00  0.00     0.049 A 
ATOM     54  C   UNL A   1      47.192  28.247  28.448  1.00  0.00     0.074 A 
ATOM     55  C   UNL A   1      41.557  30.930  29.599  1.00  0.00     0.029 A 
ATOM     56  N   UNL A   1      43.191  29.511  29.083  1.00  0.00    -0.354 N 
ATOM     57  N   UNL A   1      45.987  28.711  28.680  1.00  0.00    -0.248 NA
ATOM     58  C   UNL A   1      48.255  29.253  28.583  1.00  0.00     0.031 C 
ATOM     59  C   UNL A   1      42.774  31.613  29.672  1.00  0.00     0.029 A 
ATOM     60  C   UNL A   1      43.793  30.723  29.376  1.00  0.00     0.049 A 
ATOM     61  H   UNL A   1      43.668  28.691  28.821  1.00  0.00     0.167 HD
ATOM     62  C   UNL A   1      46.152  30.045  29.028  1.00  0.00     0.074 A 
ATOM     63  C   UNL A   1      47.573  30.318  28.980  1.00  0.00     0.031 C 
ATOM     64  C   UNL A   1      45.212  30.963  29.358  1.00  0.00     0.037 A 
BRANCH  51  65
ATOM     65  C   UNL A   1      39.422  28.827  29.200  1.00  0.00     0.057 A 
ATOM     66  C   UNL A   1      38.811  28.658  30.450  1.00  0.00     0.134 A 
ATOM     67  C   UNL A   1      38.627  29.304  28.152  1.00  0.00     0.134 A 
ATOM     68  F   UNL A   1      39.515  28.191  31.493  1.00  0.00    -0.206 F 
ATOM     69  C   UNL A   1      37.458  28.935  30.644  1.00  0.00     0.040 A 
ATOM     70  C   UNL A   1      37.278  29.609  28.340  1.00  0.00     0.040 A 
ATOM     71  F   UNL A   1      39.151  29.493  26.931  1.00  0.00    -0.206 F 
ATOM     72  C   UNL A   1      36.689  29.420  29.588  1.00  0.00     0.006 A 
ENDBRANCH  51  65
BRANCH  52  73
ATOM     73  C   UNL A   1      49.050  26.546  27.832  1.00  0.00     0.057 A 
ATOM     74  C   UNL A   1      49.590  26.578  26.540  1.00  0.00     0.134 A 
ATOM     75  C   UNL A   1      49.903  26.172  28.877  1.00  0.00     0.134 A 
ATOM     76  F   UNL A   1      48.820  26.910  25.494  1.00  0.00    -0.206 F 
ATOM     77  C   UNL A   1      50.917  26.220  26.293  1.00  0.00     0.040 A 
ATOM     78  C   UNL A   1      51.239  25.836  28.647  1.00  0.00     0.040 A 
ATOM     79  F   UNL A   1      49.450  26.128  30.139  1.00  0.00    -0.206 F 
ATOM     80  C   UNL A   1      51.745  25.848  27.350  1.00  0.00     0.006 A 
ENDBRANCH  52  73
BRANCH  64  81
ATOM     81  C   UNL A   1      45.688  32.327  29.758  1.00  0.00     0.057 A 
ATOM     82  C   UNL A   1      45.817  33.369  28.833  1.00  0.00     0.134 A 
ATOM     83  C   UNL A   1      45.959  32.614  31.103  1.00  0.00     0.134 A 
ATOM     84  F   UNL A   1      45.584  33.155  27.530  1.00  0.00    -0.206 F 
ATOM     85  C   UNL A   1      46.215  34.648  29.229  1.00  0.00     0.040 A 
ATOM     86  C   UNL A   1      46.332  33.894  31.514  1.00  0.00     0.040 A 
ATOM     87  F   UNL A   1      45.845  31.660  32.039  1.00  0.00    -0.206 F 
ATOM     88  C   UNL A   1      46.464  34.914  30.575  1.00  0.00     0.006 A 
ENDBRANCH  64  81
ENDBRANCH  38  39
ENDBRANCH  30  33
ENDBRANCH  28  29
ENDBRANCH  27  28
ENDBRANCH  26  27
ENDBRANCH   1  26
TORSDOF 16
ENDMDL
MODEL 3
REMARK VINA RESULT:     -10.9      3.065      8.197
REMARK SMILES NC(=O)CC[N@@H+]1[C@@H](C(=O)NCCCCCCNC(=O)c2ccc(-c3c4nc(c(-c5c(F)cccc5F)c5ccc([nH]5)c(-c5c(F)cccc5F)c5nc(c(-c6c(F)cccc6F)c6ccc3[nH]6)C=C5)C=C4)cc2)CC[C@@H]2CCCC[C@H]21
REMARK SMILES IDX 13 1 12 2 11 3 10 4 8 5 9 6 7 8 6 9 81 10 74 12 76 13 80 14
REMARK SMILES IDX 75 15 77 16 79 17 78 18 5 19 4 20 2 21 1 22 3 25 14 26 15 27
REMARK SMILES IDX 16 28 17 29 18 30 19 32 20 33 21 34 73 35 22 36 72 37 23 38
REMARK SMILES IDX 24 39 25 40 66 41 26 42 71 43 65 44 67 45 27 46 70 47 64 48
REMARK SMILES IDX 63 49 28 51 54 52 37 53 53 54 38 55 41 56 52 57 68 58 39 59
REMARK SMILES IDX 40 60 51 62 69 63 42 64 29 65 30 66 35 67 31 68 32 69 34 70
REMARK SMILES IDX 36 71 33 72 55 73 56 74 61 75 57 76 58 77 60 78 62 79 59 80
REMARK SMILES IDX 43 81 44 82 49 83 45 84 46 85 48 86 50 87 47 88
REMARK H PARENT 10 7 6 11 1 23 1 24 17 31 67 50 41 61
REMARK Flexibility Score: inf
ROOT
ATOM      1  C   UNL A   1      33.958  21.951  24.771  1.00  0.00     0.002 C 
ENDROOT
BRANCH   1   2
ATOM      2  C   UNL A   1      32.975  21.813  23.602  1.00  0.00     0.021 C 
BRANCH   2   3
ATOM      3  C   UNL A   1      32.111  23.050  23.377  1.00  0.00     0.116 C 
BRANCH   3   4
ATOM      4  N   UNL A   1      32.707  23.950  22.413  1.00  0.00    -0.351 N 
ATOM      5  C   UNL A   1      33.111  25.241  22.566  1.00  0.00     0.278 C 
ATOM      6  O   UNL A   1      33.649  25.793  21.600  1.00  0.00    -0.268 OA
ATOM      7  H   UNL A   1      32.839  23.572  21.514  1.00  0.00     0.163 HD
BRANCH   5   8
ATOM      8  C   UNL A   1      32.891  26.017  23.887  1.00  0.00     0.274 C 
ATOM      9  N   UNL A   1      32.453  27.451  23.668  1.00  0.00    -0.322 N 
ATOM     10  C   UNL A   1      32.288  28.107  25.011  1.00  0.00     0.187 C 
ATOM     11  H   UNL A   1      33.148  27.983  23.145  1.00  0.00     0.349 HD
ATOM     12  C   UNL A   1      34.153  25.852  24.747  1.00  0.00     0.076 C 
ATOM     13  C   UNL A   1      33.631  28.063  25.792  1.00  0.00     0.048 C 
ATOM     14  C   UNL A   1      31.774  29.560  24.936  1.00  0.00     0.065 C 
ATOM     15  C   UNL A   1      34.056  26.617  26.050  1.00  0.00     0.016 C 
ATOM     16  C   UNL A   1      33.565  28.802  27.136  1.00  0.00     0.010 C 
ATOM     17  C   UNL A   1      31.736  30.268  26.287  1.00  0.00     0.006 C 
ATOM     18  C   UNL A   1      33.090  30.236  26.972  1.00  0.00     0.001 C 
BRANCH   9  19
ATOM     19  C   UNL A   1      31.190  27.451  22.870  1.00  0.00     0.273 C 
BRANCH  19  20
ATOM     20  C   UNL A   1      30.063  26.513  23.325  1.00  0.00     0.161 C 
BRANCH  20  21
ATOM     21  C   UNL A   1      28.727  27.191  23.500  1.00  0.00     0.223 C 
ATOM     22  N   UNL A   1      27.744  26.407  24.028  1.00  0.00    -0.369 N 
ATOM     23  H   UNL A   1      26.843  26.777  24.172  1.00  0.00     0.159 HD
ATOM     24  H   UNL A   1      27.935  25.470  24.264  1.00  0.00     0.159 HD
ATOM     25  O   UNL A   1      28.500  28.347  23.165  1.00  0.00    -0.275 OA
ENDBRANCH  20  21
ENDBRANCH  19  20
ENDBRANCH   9  19
ENDBRANCH   5   8
ENDBRANCH   3   4
ENDBRANCH   2   3
ENDBRANCH   1   2
BRANCH   1  26
ATOM     26  C   UNL A   1      35.441  21.818  24.400  1.00  0.00     0.002 C 
BRANCH  26  27
ATOM     27  C   UNL A   1      36.153  23.132  24.069  1.00  0.00     0.021 C 
BRANCH  27  28
ATOM     28  C   UNL A   1      37.098  23.631  25.155  1.00  0.00     0.116 C 
BRANCH  28  29
ATOM     29  N   UNL A   1      38.181  22.696  25.419  1.00  0.00    -0.352 N 
ATOM     30  C   UNL A   1      39.369  22.916  26.073  1.00  0.00     0.251 C 
ATOM     31  H   UNL A   1      38.042  21.781  25.084  1.00  0.00     0.163 HD
ATOM     32  O   UNL A   1      40.249  22.066  26.077  1.00  0.00    -0.269 OA
BRANCH  30  33
ATOM     33  C   UNL A   1      39.584  24.208  26.755  1.00  0.00     0.039 A 
ATOM     34  C   UNL A   1      39.066  24.394  28.039  1.00  0.00     0.014 A 
ATOM     35  C   UNL A   1      40.313  25.223  26.129  1.00  0.00     0.014 A 
ATOM     36  C   UNL A   1      39.336  25.580  28.725  1.00  0.00     0.010 A 
ATOM     37  C   UNL A   1      40.634  26.374  26.838  1.00  0.00     0.010 A 
ATOM     38  C   UNL A   1      40.149  26.565  28.143  1.00  0.00    -0.014 A 
BRANCH  38  39
ATOM     39  C   UNL A   1      40.495  27.819  28.855  1.00  0.00     0.031 A 
ATOM     40  C   UNL A   1      41.818  27.926  29.561  1.00  0.00     0.074 A 
ATOM     41  C   UNL A   1      39.595  28.818  28.944  1.00  0.00     0.049 A 
ATOM     42  N   UNL A   1      42.245  28.846  30.386  1.00  0.00    -0.248 NA
ATOM     43  C   UNL A   1      42.778  26.834  29.327  1.00  0.00     0.031 C 
ATOM     44  C   UNL A   1      38.271  28.828  28.321  1.00  0.00     0.029 A 
ATOM     45  N   UNL A   1      39.653  30.012  29.619  1.00  0.00    -0.354 N 
ATOM     46  C   UNL A   1      43.513  28.437  30.781  1.00  0.00     0.074 A 
ATOM     47  C   UNL A   1      43.765  27.161  30.146  1.00  0.00     0.031 C 
ATOM     48  C   UNL A   1      37.642  29.971  28.641  1.00  0.00     0.029 A 
ATOM     49  C   UNL A   1      38.499  30.753  29.527  1.00  0.00     0.049 A 
ATOM     50  H   UNL A   1      40.445  30.310  30.121  1.00  0.00     0.167 HD
ATOM     51  C   UNL A   1      44.397  29.078  31.581  1.00  0.00     0.037 A 
ATOM     52  C   UNL A   1      38.163  31.919  30.111  1.00  0.00     0.037 A 
ATOM     53  C   UNL A   1      44.152  30.357  32.193  1.00  0.00     0.049 A 
ATOM     54  C   UNL A   1      39.153  32.598  31.019  1.00  0.00     0.074 A 
ATOM     55  C   UNL A   1      44.988  31.095  33.012  1.00  0.00     0.029 A 
ATOM     56  N   UNL A   1      42.985  31.091  32.042  1.00  0.00    -0.354 N 
ATOM     57  N   UNL A   1      40.357  32.211  31.367  1.00  0.00    -0.248 NA
ATOM     58  C   UNL A   1      38.740  33.876  31.616  1.00  0.00     0.031 C 
ATOM     59  C   UNL A   1      44.317  32.266  33.377  1.00  0.00     0.029 A 
ATOM     60  C   UNL A   1      43.081  32.275  32.752  1.00  0.00     0.049 A 
ATOM     61  H   UNL A   1      42.207  30.812  31.508  1.00  0.00     0.167 HD
ATOM     62  C   UNL A   1      40.858  33.215  32.186  1.00  0.00     0.074 A 
ATOM     63  C   UNL A   1      39.831  34.229  32.282  1.00  0.00     0.031 C 
ATOM     64  C   UNL A   1      42.061  33.289  32.804  1.00  0.00     0.037 A 
BRANCH  51  65
ATOM     65  C   UNL A   1      45.718  28.412  31.826  1.00  0.00     0.057 A 
ATOM     66  C   UNL A   1      45.900  27.516  32.887  1.00  0.00     0.134 A 
ATOM     67  C   UNL A   1      46.805  28.633  30.973  1.00  0.00     0.134 A 
ATOM     68  F   UNL A   1      44.901  27.271  33.750  1.00  0.00    -0.206 F 
ATOM     69  C   UNL A   1      47.122  26.879  33.103  1.00  0.00     0.040 A 
ATOM     70  C   UNL A   1      48.025  27.982  31.163  1.00  0.00     0.040 A 
ATOM     71  F   UNL A   1      46.697  29.476  29.934  1.00  0.00    -0.206 F 
ATOM     72  C   UNL A   1      48.187  27.106  32.233  1.00  0.00     0.006 A 
ENDBRANCH  51  65
BRANCH  52  73
ATOM     73  C   UNL A   1      36.831  32.529  29.864  1.00  0.00     0.057 A 
ATOM     74  C   UNL A   1      35.719  32.171  30.637  1.00  0.00     0.134 A 
ATOM     75  C   UNL A   1      36.626  33.450  28.830  1.00  0.00     0.134 A 
ATOM     76  F   UNL A   1      35.846  31.280  31.630  1.00  0.00    -0.206 F 
ATOM     77  C   UNL A   1      34.447  32.681  30.369  1.00  0.00     0.040 A 
ATOM     78  C   UNL A   1      35.365  33.988  28.568  1.00  0.00     0.040 A 
ATOM     79  F   UNL A   1      37.652  33.840  28.057  1.00  0.00    -0.206 F 
ATOM     80  C   UNL A   1      34.269  33.594  29.331  1.00  0.00     0.006 A 
ENDBRANCH  52  73
BRANCH  64  81
ATOM     81  C   UNL A   1      42.363  34.535  33.581  1.00  0.00     0.057 A 
ATOM     82  C   UNL A   1      42.881  35.683  32.972  1.00  0.00     0.134 A 
ATOM     83  C   UNL A   1      42.069  34.602  34.950  1.00  0.00     0.134 A 
ATOM     84  F   UNL A   1      43.194  35.678  31.667  1.00  0.00    -0.206 F 
ATOM     85  C   UNL A   1      43.111  36.852  33.700  1.00  0.00     0.040 A 
ATOM     86  C   UNL A   1      42.271  35.772  35.682  1.00  0.00     0.040 A 
ATOM     87  F   UNL A   1      41.562  33.538  35.591  1.00  0.00    -0.206 F 
ATOM     88  C   UNL A   1      42.796  36.900  35.057  1.00  0.00     0.006 A 
ENDBRANCH  64  81
ENDBRANCH  38  39
ENDBRANCH  30  33
ENDBRANCH  28  29
ENDBRANCH  27  28
ENDBRANCH  26  27
ENDBRANCH   1  26
TORSDOF 16
ENDMDL
