MODEL 1
REMARK VINA RESULT:     -12.0      0.000      0.000
REMARK SMILES O=C(Cc1ccccc1)Nc1cccc(C(=O)Nc2ccccc2C(=O)NCCCCCCNC(=O)c2ccc(-c3c4nc(c(-c5c(F)cccc5F)c5ccc([nH]5)c(-c5c(F)cccc5F)c5nc(c(-c6c(F)cccc6F)c6ccc3[nH]6)C=C5)C=C4)cc2)c1
REMARK SMILES IDX 29 1 28 2 27 3 25 4 26 5 24 7 19 8 20 9 21 10 23 11 22 12
REMARK SMILES IDX 18 13 16 14 17 15 15 17 11 18 12 19 91 20 13 21 14 22 10 23
REMARK SMILES IDX 1 24 2 25 3 27 4 28 5 29 9 30 6 31 8 32 7 33 30 34 31 35
REMARK SMILES IDX 32 36 33 37 34 38 35 39 36 41 37 42 38 43 90 44 39 45 89 46
REMARK SMILES IDX 40 47 41 48 42 49 83 50 43 51 88 52 82 53 84 54 44 55 87 56
REMARK SMILES IDX 81 57 80 58 45 60 71 61 54 62 70 63 55 64 58 65 69 66 85 67
REMARK SMILES IDX 56 68 57 69 68 71 86 72 59 73 46 74 47 75 52 76 48 77 49 78
REMARK SMILES IDX 51 79 53 80 50 81 72 82 73 83 78 84 74 85 75 86 77 87 79 88
REMARK SMILES IDX 76 89 60 90 61 91 66 92 62 93 63 94 65 95 67 96 64 97
REMARK H PARENT 27 6 18 16 10 26 34 40 84 59 58 70
REMARK Flexibility Score: inf
ROOT
ATOM      1  C   UNL A   1      33.189  29.177  26.767  1.00  0.00     0.021 C 
ENDROOT
BRANCH   1   2
ATOM      2  C   UNL A   1      33.291  27.661  26.851  1.00  0.00     0.116 C 
BRANCH   2   3
ATOM      3  N   UNL A   1      33.839  27.039  25.672  1.00  0.00    -0.352 N 
ATOM      4  C   UNL A   1      33.258  26.836  24.447  1.00  0.00     0.253 C 
ATOM      5  O   UNL A   1      33.926  26.241  23.596  1.00  0.00    -0.269 OA
ATOM      6  H   UNL A   1      34.764  26.713  25.759  1.00  0.00     0.163 HD
BRANCH   4   7
ATOM      7  C   UNL A   1      31.836  27.190  24.143  1.00  0.00     0.063 A 
ATOM      8  C   UNL A   1      30.646  26.659  24.694  1.00  0.00     0.054 A 
ATOM      9  C   UNL A   1      29.418  27.041  24.113  1.00  0.00     0.027 A 
ATOM     10  C   UNL A   1      29.344  28.025  23.124  1.00  0.00     0.002 A 
ATOM     11  C   UNL A   1      31.734  28.193  23.148  1.00  0.00     0.016 A 
ATOM     12  C   UNL A   1      30.502  28.624  22.659  1.00  0.00     0.001 A 
BRANCH   8  13
ATOM     13  N   UNL A   1      30.478  25.833  25.839  1.00  0.00    -0.321 N 
ATOM     14  C   UNL A   1      30.747  24.493  26.069  1.00  0.00     0.255 C 
ATOM     15  O   UNL A   1      30.364  23.960  27.108  1.00  0.00    -0.269 OA
ATOM     16  H   UNL A   1      30.100  26.303  26.617  1.00  0.00     0.170 HD
BRANCH  14  17
ATOM     17  C   UNL A   1      31.515  23.703  25.090  1.00  0.00     0.042 A 
ATOM     18  C   UNL A   1      33.695  23.107  24.319  1.00  0.00     0.041 A 
ATOM     19  C   UNL A   1      33.162  22.848  23.051  1.00  0.00     0.026 A 
ATOM     20  C   UNL A   1      32.845  23.413  25.366  1.00  0.00     0.040 A 
ATOM     21  C   UNL A   1      31.784  22.921  22.835  1.00  0.00     0.003 A 
ATOM     22  C   UNL A   1      30.953  23.371  23.858  1.00  0.00     0.014 A 
BRANCH  18  23
ATOM     23  N   UNL A   1      35.086  23.205  24.459  1.00  0.00    -0.326 N 
ATOM     24  O   UNL A   1      35.400  22.686  26.719  1.00  0.00    -0.274 OA
ATOM     25  C   UNL A   1      35.827  23.023  25.618  1.00  0.00     0.228 C 
ATOM     26  H   UNL A   1      35.593  23.425  23.644  1.00  0.00     0.169 HD
BRANCH  25  27
ATOM     27  C   UNL A   1      37.309  23.247  25.396  1.00  0.00     0.135 C 
BRANCH  27  28
ATOM     28  C   UNL A   1      38.135  21.985  25.504  1.00  0.00    -0.039 A 
ATOM     29  C   UNL A   1      39.337  21.928  26.232  1.00  0.00     0.004 A 
ATOM     30  C   UNL A   1      37.667  20.809  24.905  1.00  0.00     0.004 A 
ATOM     31  C   UNL A   1      40.056  20.741  26.345  1.00  0.00     0.000 A 
ATOM     32  C   UNL A   1      38.389  19.619  25.016  1.00  0.00     0.000 A 
ATOM     33  C   UNL A   1      39.581  19.586  25.736  1.00  0.00     0.000 A 
ENDBRANCH  27  28
ENDBRANCH  25  27
ENDBRANCH  18  23
ENDBRANCH  14  17
ENDBRANCH   8  13
ENDBRANCH   4   7
ENDBRANCH   2   3
ENDBRANCH   1   2
BRANCH   1  34
ATOM     34  C   UNL A   1      31.777  29.766  26.884  1.00  0.00     0.002 C 
BRANCH  34  35
ATOM     35  C   UNL A   1      31.404  30.902  25.926  1.00  0.00     0.002 C 
BRANCH  35  36
ATOM     36  C   UNL A   1      31.261  32.304  26.518  1.00  0.00     0.021 C 
BRANCH  36  37
ATOM     37  C   UNL A   1      32.506  32.879  27.178  1.00  0.00     0.116 C 
BRANCH  37  38
ATOM     38  N   UNL A   1      32.316  34.227  27.685  1.00  0.00    -0.352 N 
ATOM     39  C   UNL A   1      33.044  34.918  28.618  1.00  0.00     0.251 C 
ATOM     40  H   UNL A   1      31.553  34.716  27.301  1.00  0.00     0.163 HD
ATOM     41  O   UNL A   1      32.660  36.023  28.999  1.00  0.00    -0.269 OA
BRANCH  39  42
ATOM     42  C   UNL A   1      34.272  34.330  29.197  1.00  0.00     0.039 A 
ATOM     43  C   UNL A   1      34.169  33.608  30.389  1.00  0.00     0.014 A 
ATOM     44  C   UNL A   1      35.516  34.493  28.583  1.00  0.00     0.014 A 
ATOM     45  C   UNL A   1      35.303  33.001  30.933  1.00  0.00     0.010 A 
ATOM     46  C   UNL A   1      36.630  33.823  29.084  1.00  0.00     0.010 A 
ATOM     47  C   UNL A   1      36.536  33.075  30.267  1.00  0.00    -0.014 A 
BRANCH  47  48
ATOM     48  C   UNL A   1      37.737  32.381  30.795  1.00  0.00     0.031 A 
ATOM     49  C   UNL A   1      38.459  32.924  31.997  1.00  0.00     0.074 A 
ATOM     50  C   UNL A   1      38.213  31.293  30.156  1.00  0.00     0.049 A 
ATOM     51  N   UNL A   1      39.557  32.496  32.566  1.00  0.00    -0.248 NA
ATOM     52  C   UNL A   1      37.885  34.123  32.627  1.00  0.00     0.031 C 
ATOM     53  C   UNL A   1      37.630  30.696  28.954  1.00  0.00     0.029 A 
ATOM     54  N   UNL A   1      39.302  30.502  30.425  1.00  0.00    -0.354 N 
ATOM     55  C   UNL A   1      39.812  33.379  33.609  1.00  0.00     0.074 A 
ATOM     56  C   UNL A   1      38.786  34.398  33.559  1.00  0.00     0.031 C 
ATOM     57  C   UNL A   1      38.352  29.620  28.602  1.00  0.00     0.029 A 
ATOM     58  C   UNL A   1      39.470  29.475  29.529  1.00  0.00     0.049 A 
ATOM     59  H   UNL A   1      39.904  30.656  31.187  1.00  0.00     0.167 HD
ATOM     60  C   UNL A   1      40.797  33.332  34.537  1.00  0.00     0.037 A 
ATOM     61  C   UNL A   1      40.423  28.527  29.457  1.00  0.00     0.037 A 
ATOM     62  C   UNL A   1      41.803  32.303  34.595  1.00  0.00     0.049 A 
ATOM     63  C   UNL A   1      41.513  28.502  30.494  1.00  0.00     0.074 A 
ATOM     64  C   UNL A   1      42.809  32.135  35.531  1.00  0.00     0.029 A 
ATOM     65  N   UNL A   1      41.932  31.271  33.678  1.00  0.00    -0.354 N 
ATOM     66  N   UNL A   1      41.702  29.304  31.514  1.00  0.00    -0.248 NA
ATOM     67  C   UNL A   1      42.519  27.437  30.372  1.00  0.00     0.031 C 
ATOM     68  C   UNL A   1      43.576  31.028  35.152  1.00  0.00     0.029 A 
ATOM     69  C   UNL A   1      43.016  30.476  34.011  1.00  0.00     0.049 A 
ATOM     70  H   UNL A   1      41.341  31.126  32.905  1.00  0.00     0.167 HD
ATOM     71  C   UNL A   1      42.827  28.824  32.172  1.00  0.00     0.074 A 
ATOM     72  C   UNL A   1      43.269  27.653  31.442  1.00  0.00     0.031 C 
ATOM     73  C   UNL A   1      43.439  29.309  33.280  1.00  0.00     0.037 A 
BRANCH  60  74
ATOM     74  C   UNL A   1      40.834  34.426  35.566  1.00  0.00     0.057 A 
ATOM     75  C   UNL A   1      40.134  34.327  36.775  1.00  0.00     0.134 A 
ATOM     76  C   UNL A   1      41.605  35.577  35.360  1.00  0.00     0.134 A 
ATOM     77  F   UNL A   1      39.368  33.256  37.032  1.00  0.00    -0.206 F 
ATOM     78  C   UNL A   1      40.176  35.345  37.730  1.00  0.00     0.040 A 
ATOM     79  C   UNL A   1      41.679  36.588  36.319  1.00  0.00     0.040 A 
ATOM     80  F   UNL A   1      42.306  35.734  34.227  1.00  0.00    -0.206 F 
ATOM     81  C   UNL A   1      40.957  36.478  37.505  1.00  0.00     0.006 A 
ENDBRANCH  60  74
BRANCH  61  82
ATOM     82  C   UNL A   1      40.381  27.508  28.378  1.00  0.00     0.057 A 
ATOM     83  C   UNL A   1      41.064  27.704  27.171  1.00  0.00     0.134 A 
ATOM     84  C   UNL A   1      39.650  26.321  28.518  1.00  0.00     0.134 A 
ATOM     85  F   UNL A   1      41.766  28.829  26.969  1.00  0.00    -0.206 F 
ATOM     86  C   UNL A   1      41.007  26.768  26.137  1.00  0.00     0.040 A 
ATOM     87  C   UNL A   1      39.607  25.365  27.503  1.00  0.00     0.040 A 
ATOM     88  F   UNL A   1      38.979  26.070  29.652  1.00  0.00    -0.206 F 
ATOM     89  C   UNL A   1      40.280  25.591  26.304  1.00  0.00     0.006 A 
ENDBRANCH  61  82
BRANCH  73  90
ATOM     90  C   UNL A   1      44.629  28.552  33.794  1.00  0.00     0.057 A 
ATOM     91  C   UNL A   1      44.498  27.490  34.698  1.00  0.00     0.134 A 
ATOM     92  C   UNL A   1      45.919  28.865  33.345  1.00  0.00     0.134 A 
ATOM     93  F   UNL A   1      43.292  27.147  35.176  1.00  0.00    -0.206 F 
ATOM     94  C   UNL A   1      45.611  26.782  35.157  1.00  0.00     0.040 A 
ATOM     95  C   UNL A   1      47.035  28.146  33.775  1.00  0.00     0.040 A 
ATOM     96  F   UNL A   1      46.113  29.864  32.472  1.00  0.00    -0.206 F 
ATOM     97  C   UNL A   1      46.883  27.105  34.688  1.00  0.00     0.006 A 
ENDBRANCH  73  90
ENDBRANCH  47  48
ENDBRANCH  39  42
ENDBRANCH  37  38
ENDBRANCH  36  37
ENDBRANCH  35  36
ENDBRANCH  34  35
ENDBRANCH   1  34
TORSDOF 18
ENDMDL
MODEL 2
REMARK VINA RESULT:     -11.9      3.234      6.710
REMARK SMILES O=C(Cc1ccccc1)Nc1cccc(C(=O)Nc2ccccc2C(=O)NCCCCCCNC(=O)c2ccc(-c3c4nc(c(-c5c(F)cccc5F)c5ccc([nH]5)c(-c5c(F)cccc5F)c5nc(c(-c6c(F)cccc6F)c6ccc3[nH]6)C=C5)C=C4)cc2)c1
REMARK SMILES IDX 29 1 28 2 27 3 25 4 26 5 24 7 19 8 20 9 21 10 23 11 22 12
REMARK SMILES IDX 18 13 16 14 17 15 15 17 11 18 12 19 91 20 13 21 14 22 10 23
REMARK SMILES IDX 1 24 2 25 3 27 4 28 5 29 9 30 6 31 8 32 7 33 30 34 31 35
REMARK SMILES IDX 32 36 33 37 34 38 35 39 36 41 37 42 38 43 90 44 39 45 89 46
REMARK SMILES IDX 40 47 41 48 42 49 83 50 43 51 88 52 82 53 84 54 44 55 87 56
REMARK SMILES IDX 81 57 80 58 45 60 71 61 54 62 70 63 55 64 58 65 69 66 85 67
REMARK SMILES IDX 56 68 57 69 68 71 86 72 59 73 46 74 47 75 52 76 48 77 49 78
REMARK SMILES IDX 51 79 53 80 50 81 72 82 73 83 78 84 74 85 75 86 77 87 79 88
REMARK SMILES IDX 76 89 60 90 61 91 66 92 62 93 63 94 65 95 67 96 64 97
REMARK H PARENT 27 6 18 16 10 26 34 40 84 59 58 70
REMARK Flexibility Score: inf
ROOT
ATOM      1  C   UNL A   1      30.448  26.139  26.676  1.00  0.00     0.021 C 
ENDROOT
BRANCH   1   2
ATOM      2  C   UNL A   1      30.668  24.649  26.459  1.00  0.00     0.116 C 
BRANCH   2   3
ATOM      3  N   UNL A   1      30.334  24.187  25.136  1.00  0.00    -0.352 N 
ATOM      4  C   UNL A   1      31.160  23.732  24.140  1.00  0.00     0.253 C 
ATOM      5  O   UNL A   1      30.636  23.422  23.067  1.00  0.00    -0.269 OA
ATOM      6  H   UNL A   1      29.376  24.201  24.914  1.00  0.00     0.163 HD
BRANCH   4   7
ATOM      7  C   UNL A   1      32.652  23.709  24.257  1.00  0.00     0.063 A 
ATOM      8  C   UNL A   1      33.629  23.777  23.236  1.00  0.00     0.054 A 
ATOM      9  C   UNL A   1      34.978  23.562  23.592  1.00  0.00     0.027 A 
ATOM     10  C   UNL A   1      35.378  23.434  24.925  1.00  0.00     0.002 A 
ATOM     11  C   UNL A   1      33.084  23.589  25.601  1.00  0.00     0.016 A 
ATOM     12  C   UNL A   1      34.432  23.476  25.935  1.00  0.00     0.001 A 
BRANCH   8  13
ATOM     13  N   UNL A   1      33.472  24.123  21.865  1.00  0.00    -0.321 N 
ATOM     14  C   UNL A   1      33.018  25.274  21.241  1.00  0.00     0.255 C 
ATOM     15  O   UNL A   1      32.822  25.276  20.027  1.00  0.00    -0.269 OA
ATOM     16  H   UNL A   1      33.735  23.408  21.242  1.00  0.00     0.170 HD
BRANCH  14  17
ATOM     17  C   UNL A   1      32.795  26.509  22.014  1.00  0.00     0.042 A 
ATOM     18  C   UNL A   1      31.192  28.143  22.693  1.00  0.00     0.041 A 
ATOM     19  C   UNL A   1      32.225  29.077  22.839  1.00  0.00     0.026 A 
ATOM     20  C   UNL A   1      31.501  26.827  22.401  1.00  0.00     0.040 A 
ATOM     21  C   UNL A   1      33.557  28.691  22.668  1.00  0.00     0.003 A 
ATOM     22  C   UNL A   1      33.845  27.401  22.233  1.00  0.00     0.014 A 
BRANCH  18  23
ATOM     23  N   UNL A   1      29.867  28.598  22.690  1.00  0.00    -0.326 N 
ATOM     24  O   UNL A   1      28.733  26.844  23.745  1.00  0.00    -0.274 OA
ATOM     25  C   UNL A   1      28.750  27.931  23.173  1.00  0.00     0.228 C 
ATOM     26  H   UNL A   1      29.711  29.490  22.303  1.00  0.00     0.169 HD
BRANCH  25  27
ATOM     27  C   UNL A   1      27.473  28.718  22.965  1.00  0.00     0.135 C 
BRANCH  27  28
ATOM     28  C   UNL A   1      27.707  30.155  22.554  1.00  0.00    -0.039 A 
ATOM     29  C   UNL A   1      27.777  31.206  23.485  1.00  0.00     0.004 A 
ATOM     30  C   UNL A   1      27.917  30.452  21.201  1.00  0.00     0.004 A 
ATOM     31  C   UNL A   1      28.032  32.513  23.079  1.00  0.00     0.000 A 
ATOM     32  C   UNL A   1      28.170  31.763  20.794  1.00  0.00     0.000 A 
ATOM     33  C   UNL A   1      28.228  32.791  21.732  1.00  0.00     0.000 A 
ENDBRANCH  27  28
ENDBRANCH  25  27
ENDBRANCH  18  23
ENDBRANCH  14  17
ENDBRANCH   8  13
ENDBRANCH   4   7
ENDBRANCH   2   3
ENDBRANCH   1   2
BRANCH   1  34
ATOM     34  C   UNL A   1      31.455  27.076  25.997  1.00  0.00     0.002 C 
BRANCH  34  35
ATOM     35  C   UNL A   1      32.393  27.881  26.902  1.00  0.00     0.002 C 
BRANCH  35  36
ATOM     36  C   UNL A   1      33.870  27.938  26.512  1.00  0.00     0.021 C 
BRANCH  36  37
ATOM     37  C   UNL A   1      34.404  29.309  26.123  1.00  0.00     0.116 C 
BRANCH  37  38
ATOM     38  N   UNL A   1      34.109  30.339  27.104  1.00  0.00    -0.352 N 
ATOM     39  C   UNL A   1      34.851  30.761  28.175  1.00  0.00     0.251 C 
ATOM     40  H   UNL A   1      33.250  30.804  26.979  1.00  0.00     0.163 HD
ATOM     41  O   UNL A   1      34.380  31.582  28.963  1.00  0.00    -0.269 OA
BRANCH  39  42
ATOM     42  C   UNL A   1      36.204  30.211  28.413  1.00  0.00     0.039 A 
ATOM     43  C   UNL A   1      37.124  30.222  27.362  1.00  0.00     0.014 A 
ATOM     44  C   UNL A   1      36.565  29.680  29.654  1.00  0.00     0.014 A 
ATOM     45  C   UNL A   1      38.423  29.755  27.571  1.00  0.00     0.010 A 
ATOM     46  C   UNL A   1      37.882  29.286  29.883  1.00  0.00     0.010 A 
ATOM     47  C   UNL A   1      38.822  29.315  28.842  1.00  0.00    -0.014 A 
BRANCH  47  48
ATOM     48  C   UNL A   1      40.217  28.877  29.100  1.00  0.00     0.031 A 
ATOM     49  C   UNL A   1      41.190  29.803  29.775  1.00  0.00     0.074 A 
ATOM     50  C   UNL A   1      40.624  27.665  28.672  1.00  0.00     0.049 A 
ATOM     51  N   UNL A   1      42.462  29.626  30.030  1.00  0.00    -0.248 NA
ATOM     52  C   UNL A   1      40.672  31.114  30.197  1.00  0.00     0.031 C 
ATOM     53  C   UNL A   1      39.790  26.694  27.964  1.00  0.00     0.029 A 
ATOM     54  N   UNL A   1      41.847  27.048  28.763  1.00  0.00    -0.354 N 
ATOM     55  C   UNL A   1      42.897  30.803  30.626  1.00  0.00     0.074 A 
ATOM     56  C   UNL A   1      41.767  31.707  30.645  1.00  0.00     0.031 C 
ATOM     57  C   UNL A   1      40.517  25.594  27.705  1.00  0.00     0.029 A 
ATOM     58  C   UNL A   1      41.877  25.798  28.193  1.00  0.00     0.049 A 
ATOM     59  H   UNL A   1      42.628  27.461  29.196  1.00  0.00     0.167 HD
ATOM     60  C   UNL A   1      44.118  31.095  31.133  1.00  0.00     0.037 A 
ATOM     61  C   UNL A   1      42.889  24.919  28.070  1.00  0.00     0.037 A 
ATOM     62  C   UNL A   1      45.232  30.183  31.131  1.00  0.00     0.049 A 
ATOM     63  C   UNL A   1      44.239  25.271  28.632  1.00  0.00     0.074 A 
ATOM     64  C   UNL A   1      46.493  30.363  31.671  1.00  0.00     0.029 A 
ATOM     65  N   UNL A   1      45.219  28.920  30.557  1.00  0.00    -0.354 N 
ATOM     66  N   UNL A   1      44.617  26.362  29.254  1.00  0.00    -0.248 NA
ATOM     67  C   UNL A   1      45.302  24.267  28.479  1.00  0.00     0.031 C 
ATOM     68  C   UNL A   1      47.258  29.228  31.382  1.00  0.00     0.029 A 
ATOM     69  C   UNL A   1      46.458  28.319  30.709  1.00  0.00     0.049 A 
ATOM     70  H   UNL A   1      44.443  28.513  30.108  1.00  0.00     0.167 HD
ATOM     71  C   UNL A   1      45.949  26.164  29.593  1.00  0.00     0.074 A 
ATOM     72  C   UNL A   1      46.309  24.843  29.119  1.00  0.00     0.031 C 
ATOM     73  C   UNL A   1      46.799  27.001  30.239  1.00  0.00     0.037 A 
BRANCH  60  74
ATOM     74  C   UNL A   1      44.313  32.459  31.732  1.00  0.00     0.057 A 
ATOM     75  C   UNL A   1      44.752  33.547  30.967  1.00  0.00     0.134 A 
ATOM     76  C   UNL A   1      44.024  32.695  33.082  1.00  0.00     0.134 A 
ATOM     77  F   UNL A   1      45.056  33.388  29.670  1.00  0.00    -0.206 F 
ATOM     78  C   UNL A   1      44.926  34.813  31.529  1.00  0.00     0.040 A 
ATOM     79  C   UNL A   1      44.166  33.963  33.648  1.00  0.00     0.040 A 
ATOM     80  F   UNL A   1      43.593  31.700  33.872  1.00  0.00    -0.206 F 
ATOM     81  C   UNL A   1      44.626  35.025  32.873  1.00  0.00     0.006 A 
ENDBRANCH  60  74
BRANCH  61  82
ATOM     82  C   UNL A   1      42.662  23.611  27.406  1.00  0.00     0.057 A 
ATOM     83  C   UNL A   1      42.289  22.480  28.144  1.00  0.00     0.134 A 
ATOM     84  C   UNL A   1      42.820  23.453  26.023  1.00  0.00     0.134 A 
ATOM     85  F   UNL A   1      42.139  22.563  29.474  1.00  0.00    -0.206 F 
ATOM     86  C   UNL A   1      42.102  21.238  27.536  1.00  0.00     0.040 A 
ATOM     87  C   UNL A   1      42.610  22.223  25.398  1.00  0.00     0.040 A 
ATOM     88  F   UNL A   1      43.170  24.498  25.258  1.00  0.00    -0.206 F 
ATOM     89  C   UNL A   1      42.257  21.109  26.157  1.00  0.00     0.006 A 
ENDBRANCH  61  82
BRANCH  73  90
ATOM     90  C   UNL A   1      48.187  26.498  30.506  1.00  0.00     0.057 A 
ATOM     91  C   UNL A   1      48.510  25.793  31.672  1.00  0.00     0.134 A 
ATOM     92  C   UNL A   1      49.205  26.687  29.561  1.00  0.00     0.134 A 
ATOM     93  F   UNL A   1      47.584  25.589  32.621  1.00  0.00    -0.206 F 
ATOM     94  C   UNL A   1      49.802  25.316  31.901  1.00  0.00     0.040 A 
ATOM     95  C   UNL A   1      50.492  26.190  29.767  1.00  0.00     0.040 A 
ATOM     96  F   UNL A   1      48.961  27.344  28.418  1.00  0.00    -0.206 F 
ATOM     97  C   UNL A   1      50.795  25.507  30.943  1.00  0.00     0.006 A 
ENDBRANCH  73  90
ENDBRANCH  47  48
ENDBRANCH  39  42
ENDBRANCH  37  38
ENDBRANCH  36  37
ENDBRANCH  35  36
ENDBRANCH  34  35
ENDBRANCH   1  34
TORSDOF 18
ENDMDL
MODEL 3
REMARK VINA RESULT:     -11.8      0.678      5.940
REMARK SMILES O=C(Cc1ccccc1)Nc1cccc(C(=O)Nc2ccccc2C(=O)NCCCCCCNC(=O)c2ccc(-c3c4nc(c(-c5c(F)cccc5F)c5ccc([nH]5)c(-c5c(F)cccc5F)c5nc(c(-c6c(F)cccc6F)c6ccc3[nH]6)C=C5)C=C4)cc2)c1
REMARK SMILES IDX 29 1 28 2 27 3 25 4 26 5 24 7 19 8 20 9 21 10 23 11 22 12
REMARK SMILES IDX 18 13 16 14 17 15 15 17 11 18 12 19 91 20 13 21 14 22 10 23
REMARK SMILES IDX 1 24 2 25 3 27 4 28 5 29 9 30 6 31 8 32 7 33 30 34 31 35
REMARK SMILES IDX 32 36 33 37 34 38 35 39 36 41 37 42 38 43 90 44 39 45 89 46
REMARK SMILES IDX 40 47 41 48 42 49 83 50 43 51 88 52 82 53 84 54 44 55 87 56
REMARK SMILES IDX 81 57 80 58 45 60 71 61 54 62 70 63 55 64 58 65 69 66 85 67
REMARK SMILES IDX 56 68 57 69 68 71 86 72 59 73 46 74 47 75 52 76 48 77 49 78
REMARK SMILES IDX 51 79 53 80 50 81 72 82 73 83 78 84 74 85 75 86 77 87 79 88
REMARK SMILES IDX 76 89 60 90 61 91 66 92 62 93 63 94 65 95 67 96 64 97
REMARK H PARENT 27 6 18 16 10 26 34 40 84 59 58 70
REMARK Flexibility Score: inf
ROOT
ATOM      1  C   UNL A   1      33.208  28.953  26.984  1.00  0.00     0.021 C 
ENDROOT
BRANCH   1   2
ATOM      2  C   UNL A   1      33.132  27.440  26.843  1.00  0.00     0.116 C 
BRANCH   2   3
ATOM      3  N   UNL A   1      33.700  26.930  25.620  1.00  0.00    -0.352 N 
ATOM      4  C   UNL A   1      33.106  26.741  24.399  1.00  0.00     0.253 C 
ATOM      5  O   UNL A   1      33.799  26.253  23.502  1.00  0.00    -0.269 OA
ATOM      6  H   UNL A   1      34.651  26.683  25.669  1.00  0.00     0.163 HD
BRANCH   4   7
ATOM      7  C   UNL A   1      31.651  26.985  24.146  1.00  0.00     0.063 A 
ATOM      8  C   UNL A   1      30.525  26.393  24.766  1.00  0.00     0.054 A 
ATOM      9  C   UNL A   1      29.250  26.669  24.227  1.00  0.00     0.027 A 
ATOM     10  C   UNL A   1      29.066  27.610  23.211  1.00  0.00     0.002 A 
ATOM     11  C   UNL A   1      31.437  27.944  23.125  1.00  0.00     0.016 A 
ATOM     12  C   UNL A   1      30.158  28.271  22.677  1.00  0.00     0.001 A 
BRANCH   8  13
ATOM     13  N   UNL A   1      30.464  25.598  25.943  1.00  0.00    -0.321 N 
ATOM     14  C   UNL A   1      30.883  24.305  26.217  1.00  0.00     0.255 C 
ATOM     15  O   UNL A   1      30.573  23.774  27.282  1.00  0.00    -0.269 OA
ATOM     16  H   UNL A   1      30.045  26.052  26.709  1.00  0.00     0.170 HD
BRANCH  14  17
ATOM     17  C   UNL A   1      31.722  23.568  25.256  1.00  0.00     0.042 A 
ATOM     18  C   UNL A   1      33.954  23.080  24.562  1.00  0.00     0.041 A 
ATOM     19  C   UNL A   1      33.483  22.824  23.268  1.00  0.00     0.026 A 
ATOM     20  C   UNL A   1      33.051  23.329  25.579  1.00  0.00     0.040 A 
ATOM     21  C   UNL A   1      32.112  22.844  22.999  1.00  0.00     0.003 A 
ATOM     22  C   UNL A   1      31.224  23.238  23.995  1.00  0.00     0.014 A 
BRANCH  18  23
ATOM     23  N   UNL A   1      35.333  23.233  24.759  1.00  0.00    -0.326 N 
ATOM     24  O   UNL A   1      35.909  21.238  25.838  1.00  0.00    -0.274 OA
ATOM     25  C   UNL A   1      36.193  22.346  25.390  1.00  0.00     0.228 C 
ATOM     26  H   UNL A   1      35.736  24.061  24.410  1.00  0.00     0.169 HD
BRANCH  25  27
ATOM     27  C   UNL A   1      37.615  22.865  25.450  1.00  0.00     0.135 C 
BRANCH  27  28
ATOM     28  C   UNL A   1      38.632  21.806  25.810  1.00  0.00    -0.039 A 
ATOM     29  C   UNL A   1      38.595  20.508  25.272  1.00  0.00     0.004 A 
ATOM     30  C   UNL A   1      39.687  22.137  26.670  1.00  0.00     0.004 A 
ATOM     31  C   UNL A   1      39.568  19.566  25.593  1.00  0.00     0.000 A 
ATOM     32  C   UNL A   1      40.662  21.191  26.994  1.00  0.00     0.000 A 
ATOM     33  C   UNL A   1      40.602  19.908  26.455  1.00  0.00     0.000 A 
ENDBRANCH  27  28
ENDBRANCH  25  27
ENDBRANCH  18  23
ENDBRANCH  14  17
ENDBRANCH   8  13
ENDBRANCH   4   7
ENDBRANCH   2   3
ENDBRANCH   1   2
BRANCH   1  34
ATOM     34  C   UNL A   1      31.866  29.686  27.117  1.00  0.00     0.002 C 
BRANCH  34  35
ATOM     35  C   UNL A   1      31.522  30.730  26.051  1.00  0.00     0.002 C 
BRANCH  35  36
ATOM     36  C   UNL A   1      31.341  32.176  26.513  1.00  0.00     0.021 C 
BRANCH  36  37
ATOM     37  C   UNL A   1      32.515  32.787  27.264  1.00  0.00     0.116 C 
BRANCH  37  38
ATOM     38  N   UNL A   1      32.301  34.177  27.630  1.00  0.00    -0.352 N 
ATOM     39  C   UNL A   1      32.989  34.960  28.518  1.00  0.00     0.251 C 
ATOM     40  H   UNL A   1      31.551  34.621  27.172  1.00  0.00     0.163 HD
ATOM     41  O   UNL A   1      32.587  36.095  28.775  1.00  0.00    -0.269 OA
BRANCH  39  42
ATOM     42  C   UNL A   1      34.196  34.441  29.198  1.00  0.00     0.039 A 
ATOM     43  C   UNL A   1      34.037  33.716  30.382  1.00  0.00     0.014 A 
ATOM     44  C   UNL A   1      35.476  34.670  28.685  1.00  0.00     0.014 A 
ATOM     45  C   UNL A   1      35.154  33.172  31.018  1.00  0.00     0.010 A 
ATOM     46  C   UNL A   1      36.580  34.062  29.278  1.00  0.00     0.010 A 
ATOM     47  C   UNL A   1      36.431  33.312  30.453  1.00  0.00    -0.014 A 
BRANCH  47  48
ATOM     48  C   UNL A   1      37.622  32.684  31.081  1.00  0.00     0.031 A 
ATOM     49  C   UNL A   1      38.248  31.464  30.466  1.00  0.00     0.074 A 
ATOM     50  C   UNL A   1      38.103  33.180  32.239  1.00  0.00     0.049 A 
ATOM     51  N   UNL A   1      39.249  30.740  30.898  1.00  0.00    -0.248 NA
ATOM     52  C   UNL A   1      37.654  30.977  29.211  1.00  0.00     0.031 C 
ATOM     53  C   UNL A   1      37.555  34.330  32.959  1.00  0.00     0.029 A 
ATOM     54  N   UNL A   1      39.157  32.771  33.017  1.00  0.00    -0.354 N 
ATOM     55  C   UNL A   1      39.395  29.708  29.980  1.00  0.00     0.074 A 
ATOM     56  C   UNL A   1      38.345  29.867  28.997  1.00  0.00     0.031 C 
ATOM     57  C   UNL A   1      38.290  34.550  34.061  1.00  0.00     0.029 A 
ATOM     58  C   UNL A   1      39.335  33.534  34.146  1.00  0.00     0.049 A 
ATOM     59  H   UNL A   1      39.730  32.005  32.789  1.00  0.00     0.167 HD
ATOM     60  C   UNL A   1      40.331  28.731  29.945  1.00  0.00     0.037 A 
ATOM     61  C   UNL A   1      40.234  33.422  35.142  1.00  0.00     0.037 A 
ATOM     62  C   UNL A   1      41.388  28.590  30.913  1.00  0.00     0.049 A 
ATOM     63  C   UNL A   1      41.258  32.322  35.086  1.00  0.00     0.074 A 
ATOM     64  C   UNL A   1      42.420  27.668  30.934  1.00  0.00     0.029 A 
ATOM     65  N   UNL A   1      41.543  29.391  32.035  1.00  0.00    -0.354 N 
ATOM     66  N   UNL A   1      41.426  31.394  34.175  1.00  0.00    -0.248 NA
ATOM     67  C   UNL A   1      42.221  32.257  36.194  1.00  0.00     0.031 C 
ATOM     68  C   UNL A   1      43.172  27.881  32.093  1.00  0.00     0.029 A 
ATOM     69  C   UNL A   1      42.641  28.970  32.767  1.00  0.00     0.049 A 
ATOM     70  H   UNL A   1      40.960  30.146  32.274  1.00  0.00     0.167 HD
ATOM     71  C   UNL A   1      42.528  30.655  34.582  1.00  0.00     0.074 A 
ATOM     72  C   UNL A   1      42.998  31.252  35.816  1.00  0.00     0.031 C 
ATOM     73  C   UNL A   1      43.101  29.579  33.989  1.00  0.00     0.037 A 
BRANCH  60  74
ATOM     74  C   UNL A   1      40.256  27.736  28.821  1.00  0.00     0.057 A 
ATOM     75  C   UNL A   1      39.511  26.554  28.929  1.00  0.00     0.134 A 
ATOM     76  C   UNL A   1      40.906  27.979  27.605  1.00  0.00     0.134 A 
ATOM     77  F   UNL A   1      38.872  26.255  30.070  1.00  0.00    -0.206 F 
ATOM     78  C   UNL A   1      39.440  25.636  27.879  1.00  0.00     0.040 A 
ATOM     79  C   UNL A   1      40.819  27.083  26.538  1.00  0.00     0.040 A 
ATOM     80  F   UNL A   1      41.632  29.094  27.431  1.00  0.00    -0.206 F 
ATOM     81  C   UNL A   1      40.090  25.904  26.676  1.00  0.00     0.006 A 
ENDBRANCH  60  74
BRANCH  61  82
ATOM     82  C   UNL A   1      40.223  34.391  36.267  1.00  0.00     0.057 A 
ATOM     83  C   UNL A   1      39.464  34.151  37.420  1.00  0.00     0.134 A 
ATOM     84  C   UNL A   1      40.958  35.582  36.217  1.00  0.00     0.134 A 
ATOM     85  F   UNL A   1      38.724  33.037  37.520  1.00  0.00    -0.206 F 
ATOM     86  C   UNL A   1      39.421  35.067  38.472  1.00  0.00     0.040 A 
ATOM     87  C   UNL A   1      40.946  36.494  37.273  1.00  0.00     0.040 A 
ATOM     88  F   UNL A   1      41.710  35.869  35.144  1.00  0.00    -0.206 F 
ATOM     89  C   UNL A   1      40.168  36.242  38.401  1.00  0.00     0.006 A 
ENDBRANCH  61  82
BRANCH  73  90
ATOM     90  C   UNL A   1      44.322  29.002  34.644  1.00  0.00     0.057 A 
ATOM     91  C   UNL A   1      45.612  29.455  34.338  1.00  0.00     0.134 A 
ATOM     92  C   UNL A   1      44.201  28.009  35.625  1.00  0.00     0.134 A 
ATOM     93  F   UNL A   1      45.798  30.396  33.400  1.00  0.00    -0.206 F 
ATOM     94  C   UNL A   1      46.739  28.922  34.967  1.00  0.00     0.040 A 
ATOM     95  C   UNL A   1      45.318  27.490  36.279  1.00  0.00     0.040 A 
ATOM     96  F   UNL A   1      42.994  27.537  35.972  1.00  0.00    -0.206 F 
ATOM     97  C   UNL A   1      46.593  27.942  35.947  1.00  0.00     0.006 A 
ENDBRANCH  73  90
ENDBRANCH  47  48
ENDBRANCH  39  42
ENDBRANCH  37  38
ENDBRANCH  36  37
ENDBRANCH  35  36
ENDBRANCH  34  35
ENDBRANCH   1  34
TORSDOF 18
ENDMDL
