MODEL 1
REMARK VINA RESULT:     -12.5      0.000      0.000
REMARK SMILES O=C(CC1(CC(=O)Nc2ccc3ccccc3n2)CCCCC1)NCCCCCCNC(=O)c1ccc(-c2c3nc(c(-c4c(F)cccc4F)c4ccc([nH]4)c(-c4c(F)cccc4F)c4nc(c(-c5c(F)cccc5F)c5ccc2[nH]5)C=C4)C=C3)cc1
REMARK SMILES IDX 26 1 25 2 24 3 1 4 2 5 3 7 4 8 19 9 23 10 20 11 22 12 21 13
REMARK SMILES IDX 5 14 6 15 7 16 8 17 9 19 10 20 18 21 11 22 17 23 12 24 16 25
REMARK SMILES IDX 13 26 15 27 14 28 27 29 28 30 29 31 30 32 31 33 32 34 33 36
REMARK SMILES IDX 34 37 35 38 87 39 36 40 86 41 37 42 38 43 39 44 80 45 40 46
REMARK SMILES IDX 85 47 79 48 81 49 41 50 84 51 78 52 77 53 42 55 68 56 51 57
REMARK SMILES IDX 67 58 52 59 55 60 66 61 82 62 53 63 54 64 65 66 83 67 56 68
REMARK SMILES IDX 43 69 44 70 49 71 45 72 46 73 48 74 50 75 47 76 69 77 70 78
REMARK SMILES IDX 75 79 71 80 72 81 74 82 76 83 73 84 57 85 58 86 63 87 59 88
REMARK SMILES IDX 60 89 62 90 64 91 61 92
REMARK H PARENT 24 6 8 18 31 35 81 54 55 65
REMARK Flexibility Score: inf
ROOT
ATOM      1  C   UNL A   1      35.837  22.819  23.910  1.00  0.00     0.021 C 
ENDROOT
BRANCH   1   2
ATOM      2  C   UNL A   1      35.717  24.042  24.813  1.00  0.00     0.116 C 
BRANCH   2   3
ATOM      3  N   UNL A   1      34.519  24.799  24.528  1.00  0.00    -0.356 N 
ATOM      4  O   UNL A   1      33.424  24.256  26.467  1.00  0.00    -0.275 OA
ATOM      5  C   UNL A   1      33.481  24.894  25.421  1.00  0.00     0.220 C 
ATOM      6  H   UNL A   1      34.445  25.262  23.663  1.00  0.00     0.163 HD
BRANCH   5   7
ATOM      7  C   UNL A   1      32.409  25.897  25.025  1.00  0.00     0.107 C 
BRANCH   7   8
ATOM      8  C   UNL A   1      32.769  27.399  25.245  1.00  0.00    -0.012 C 
ATOM      9  C   UNL A   1      31.528  28.204  25.749  1.00  0.00     0.008 C 
ATOM     10  C   UNL A   1      33.801  27.571  26.363  1.00  0.00     0.008 C 
ATOM     11  C   UNL A   1      31.814  29.662  26.144  1.00  0.00     0.001 C 
ATOM     12  C   UNL A   1      34.230  29.030  26.540  1.00  0.00     0.001 C 
ATOM     13  C   UNL A   1      33.048  29.847  27.025  1.00  0.00     0.000 C 
BRANCH   8  14
ATOM     14  C   UNL A   1      33.297  27.960  23.883  1.00  0.00     0.108 C 
BRANCH  14  15
ATOM     15  C   UNL A   1      32.898  27.316  22.531  1.00  0.00     0.226 C 
ATOM     16  O   UNL A   1      33.777  26.806  21.825  1.00  0.00    -0.275 OA
ATOM     17  N   UNL A   1      31.595  27.030  22.222  1.00  0.00    -0.311 N 
ATOM     18  H   UNL A   1      31.448  26.141  21.826  1.00  0.00     0.171 HD
BRANCH  17  19
ATOM     19  C   UNL A   1      30.442  27.802  22.380  1.00  0.00     0.133 A 
ATOM     20  C   UNL A   1      29.398  27.287  23.127  1.00  0.00     0.048 A 
ATOM     21  N   UNL A   1      30.348  28.990  21.764  1.00  0.00    -0.231 NA
ATOM     22  C   UNL A   1      28.338  28.135  23.453  1.00  0.00     0.014 A 
ATOM     23  C   UNL A   1      29.334  29.823  22.080  1.00  0.00     0.073 A 
ATOM     24  C   UNL A   1      28.340  29.461  22.999  1.00  0.00     0.000 A 
ATOM     25  C   UNL A   1      29.353  31.136  21.609  1.00  0.00     0.029 A 
ATOM     26  C   UNL A   1      27.451  30.436  23.494  1.00  0.00     0.010 A 
ATOM     27  C   UNL A   1      28.518  32.119  22.144  1.00  0.00     0.002 A 
ATOM     28  C   UNL A   1      27.576  31.770  23.102  1.00  0.00     0.001 A 
ENDBRANCH  17  19
ENDBRANCH  14  15
ENDBRANCH   8  14
ENDBRANCH   7   8
ENDBRANCH   5   7
ENDBRANCH   2   3
ENDBRANCH   1   2
BRANCH   1  29
ATOM     29  C   UNL A   1      37.027  21.902  24.222  1.00  0.00     0.002 C 
BRANCH  29  30
ATOM     30  C   UNL A   1      36.674  20.553  24.858  1.00  0.00     0.002 C 
BRANCH  30  31
ATOM     31  C   UNL A   1      37.838  19.570  24.994  1.00  0.00     0.021 C 
BRANCH  31  32
ATOM     32  C   UNL A   1      39.033  20.084  25.791  1.00  0.00     0.116 C 
BRANCH  32  33
ATOM     33  N   UNL A   1      40.127  19.127  25.838  1.00  0.00    -0.352 N 
ATOM     34  C   UNL A   1      41.455  19.335  26.105  1.00  0.00     0.251 C 
ATOM     35  H   UNL A   1      39.878  18.194  25.650  1.00  0.00     0.163 HD
ATOM     36  O   UNL A   1      42.263  18.415  25.937  1.00  0.00    -0.269 OA
BRANCH  34  37
ATOM     37  C   UNL A   1      41.936  20.655  26.564  1.00  0.00     0.039 A 
ATOM     38  C   UNL A   1      42.318  21.599  25.608  1.00  0.00     0.014 A 
ATOM     39  C   UNL A   1      42.027  20.965  27.925  1.00  0.00     0.014 A 
ATOM     40  C   UNL A   1      42.732  22.870  26.012  1.00  0.00     0.010 A 
ATOM     41  C   UNL A   1      42.365  22.258  28.324  1.00  0.00     0.010 A 
ATOM     42  C   UNL A   1      42.723  23.223  27.372  1.00  0.00    -0.014 A 
BRANCH  42  43
ATOM     43  C   UNL A   1      43.068  24.605  27.797  1.00  0.00     0.031 A 
ATOM     44  C   UNL A   1      44.500  25.054  27.880  1.00  0.00     0.074 A 
ATOM     45  C   UNL A   1      42.080  25.452  28.149  1.00  0.00     0.049 A 
ATOM     46  N   UNL A   1      44.982  26.227  28.207  1.00  0.00    -0.248 NA
ATOM     47  C   UNL A   1      45.530  24.048  27.580  1.00  0.00     0.031 C 
ATOM     48  C   UNL A   1      40.652  25.123  28.169  1.00  0.00     0.029 A 
ATOM     49  N   UNL A   1      42.124  26.763  28.553  1.00  0.00    -0.354 N 
ATOM     50  C   UNL A   1      46.364  26.097  28.163  1.00  0.00     0.074 A 
ATOM     51  C   UNL A   1      46.645  24.717  27.832  1.00  0.00     0.031 C 
ATOM     52  C   UNL A   1      39.955  26.215  28.516  1.00  0.00     0.029 A 
ATOM     53  C   UNL A   1      40.884  27.309  28.781  1.00  0.00     0.049 A 
ATOM     54  H   UNL A   1      42.963  27.264  28.666  1.00  0.00     0.167 HD
ATOM     55  C   UNL A   1      47.313  27.044  28.362  1.00  0.00     0.037 A 
ATOM     56  C   UNL A   1      40.533  28.554  29.153  1.00  0.00     0.037 A 
ATOM     57  C   UNL A   1      47.029  28.422  28.677  1.00  0.00     0.049 A 
ATOM     58  C   UNL A   1      41.605  29.585  29.370  1.00  0.00     0.074 A 
ATOM     59  C   UNL A   1      47.918  29.475  28.819  1.00  0.00     0.029 A 
ATOM     60  N   UNL A   1      45.763  28.935  28.913  1.00  0.00    -0.354 N 
ATOM     61  N   UNL A   1      42.903  29.472  29.234  1.00  0.00    -0.248 NA
ATOM     62  C   UNL A   1      41.157  30.920  29.789  1.00  0.00     0.031 C 
ATOM     63  C   UNL A   1      47.194  30.611  29.200  1.00  0.00     0.029 A 
ATOM     64  C   UNL A   1      45.848  30.281  29.235  1.00  0.00     0.049 A 
ATOM     65  H   UNL A   1      44.926  28.420  28.859  1.00  0.00     0.167 HD
ATOM     66  C   UNL A   1      43.427  30.726  29.522  1.00  0.00     0.074 A 
ATOM     67  C   UNL A   1      42.300  31.589  29.819  1.00  0.00     0.031 C 
ATOM     68  C   UNL A   1      44.722  31.128  29.539  1.00  0.00     0.037 A 
BRANCH  55  69
ATOM     69  C   UNL A   1      48.751  26.617  28.253  1.00  0.00     0.057 A 
ATOM     70  C   UNL A   1      49.456  26.088  29.343  1.00  0.00     0.134 A 
ATOM     71  C   UNL A   1      49.433  26.717  27.034  1.00  0.00     0.134 A 
ATOM     72  F   UNL A   1      48.866  25.972  30.543  1.00  0.00    -0.206 F 
ATOM     73  C   UNL A   1      50.795  25.709  29.235  1.00  0.00     0.040 A 
ATOM     74  C   UNL A   1      50.764  26.312  26.905  1.00  0.00     0.040 A 
ATOM     75  F   UNL A   1      48.819  27.205  25.946  1.00  0.00    -0.206 F 
ATOM     76  C   UNL A   1      51.451  25.816  28.010  1.00  0.00     0.006 A 
ENDBRANCH  55  69
BRANCH  56  77
ATOM     77  C   UNL A   1      39.099  28.911  29.300  1.00  0.00     0.057 A 
ATOM     78  C   UNL A   1      38.377  29.444  28.225  1.00  0.00     0.134 A 
ATOM     79  C   UNL A   1      38.417  28.732  30.509  1.00  0.00     0.134 A 
ATOM     80  F   UNL A   1      38.981  29.656  27.047  1.00  0.00    -0.206 F 
ATOM     81  C   UNL A   1      37.036  29.807  28.352  1.00  0.00     0.040 A 
ATOM     82  C   UNL A   1      37.068  29.064  30.643  1.00  0.00     0.040 A 
ATOM     83  F   UNL A   1      39.050  28.217  31.573  1.00  0.00    -0.206 F 
ATOM     84  C   UNL A   1      36.376  29.610  29.563  1.00  0.00     0.006 A 
ENDBRANCH  56  77
BRANCH  68  85
ATOM     85  C   UNL A   1      44.983  32.572  29.865  1.00  0.00     0.057 A 
ATOM     86  C   UNL A   1      45.004  33.565  28.877  1.00  0.00     0.134 A 
ATOM     87  C   UNL A   1      45.215  32.974  31.187  1.00  0.00     0.134 A 
ATOM     88  F   UNL A   1      44.804  33.248  27.589  1.00  0.00    -0.206 F 
ATOM     89  C   UNL A   1      45.287  34.897  29.186  1.00  0.00     0.040 A 
ATOM     90  C   UNL A   1      45.465  34.307  31.512  1.00  0.00     0.040 A 
ATOM     91  F   UNL A   1      45.199  32.079  32.186  1.00  0.00    -0.206 F 
ATOM     92  C   UNL A   1      45.513  35.272  30.509  1.00  0.00     0.006 A 
ENDBRANCH  68  85
ENDBRANCH  42  43
ENDBRANCH  34  37
ENDBRANCH  32  33
ENDBRANCH  31  32
ENDBRANCH  30  31
ENDBRANCH  29  30
ENDBRANCH   1  29
TORSDOF 17
ENDMDL
MODEL 2
REMARK VINA RESULT:     -12.5      1.813      3.984
REMARK SMILES O=C(CC1(CC(=O)Nc2ccc3ccccc3n2)CCCCC1)NCCCCCCNC(=O)c1ccc(-c2c3nc(c(-c4c(F)cccc4F)c4ccc([nH]4)c(-c4c(F)cccc4F)c4nc(c(-c5c(F)cccc5F)c5ccc2[nH]5)C=C4)C=C3)cc1
REMARK SMILES IDX 26 1 25 2 24 3 1 4 2 5 3 7 4 8 19 9 23 10 20 11 22 12 21 13
REMARK SMILES IDX 5 14 6 15 7 16 8 17 9 19 10 20 18 21 11 22 17 23 12 24 16 25
REMARK SMILES IDX 13 26 15 27 14 28 27 29 28 30 29 31 30 32 31 33 32 34 33 36
REMARK SMILES IDX 34 37 35 38 87 39 36 40 86 41 37 42 38 43 39 44 80 45 40 46
REMARK SMILES IDX 85 47 79 48 81 49 41 50 84 51 78 52 77 53 42 55 68 56 51 57
REMARK SMILES IDX 67 58 52 59 55 60 66 61 82 62 53 63 54 64 65 66 83 67 56 68
REMARK SMILES IDX 43 69 44 70 49 71 45 72 46 73 48 74 50 75 47 76 69 77 70 78
REMARK SMILES IDX 75 79 71 80 72 81 74 82 76 83 73 84 57 85 58 86 63 87 59 88
REMARK SMILES IDX 60 89 62 90 64 91 61 92
REMARK H PARENT 24 6 8 18 31 35 81 54 55 65
REMARK Flexibility Score: inf
ROOT
ATOM      1  C   UNL A   1      35.932  23.139  24.332  1.00  0.00     0.021 C 
ENDROOT
BRANCH   1   2
ATOM      2  C   UNL A   1      34.907  23.455  23.248  1.00  0.00     0.116 C 
BRANCH   2   3
ATOM      3  N   UNL A   1      33.876  24.344  23.732  1.00  0.00    -0.356 N 
ATOM      4  O   UNL A   1      34.027  25.849  22.010  1.00  0.00    -0.275 OA
ATOM      5  C   UNL A   1      33.472  25.452  23.029  1.00  0.00     0.220 C 
ATOM      6  H   UNL A   1      33.447  24.148  24.596  1.00  0.00     0.163 HD
BRANCH   5   7
ATOM      7  C   UNL A   1      32.242  26.138  23.601  1.00  0.00     0.107 C 
BRANCH   7   8
ATOM      8  C   UNL A   1      32.412  26.769  25.017  1.00  0.00    -0.012 C 
ATOM      9  C   UNL A   1      33.844  27.368  25.195  1.00  0.00     0.008 C 
ATOM     10  C   UNL A   1      31.482  27.971  25.211  1.00  0.00     0.008 C 
ATOM     11  C   UNL A   1      34.066  28.151  26.500  1.00  0.00     0.001 C 
ATOM     12  C   UNL A   1      31.573  28.555  26.623  1.00  0.00     0.001 C 
ATOM     13  C   UNL A   1      32.954  29.144  26.836  1.00  0.00     0.000 C 
BRANCH   8  14
ATOM     14  C   UNL A   1      32.129  25.646  26.070  1.00  0.00     0.108 C 
BRANCH  14  15
ATOM     15  C   UNL A   1      30.808  24.836  26.056  1.00  0.00     0.226 C 
ATOM     16  O   UNL A   1      29.779  25.356  26.505  1.00  0.00    -0.275 OA
ATOM     17  N   UNL A   1      30.667  23.694  25.313  1.00  0.00    -0.311 N 
ATOM     18  H   UNL A   1      29.827  23.632  24.803  1.00  0.00     0.171 HD
BRANCH  17  19
ATOM     19  C   UNL A   1      31.527  22.604  25.165  1.00  0.00     0.133 A 
ATOM     20  C   UNL A   1      32.334  22.248  26.230  1.00  0.00     0.048 A 
ATOM     21  N   UNL A   1      31.596  21.967  23.986  1.00  0.00    -0.231 NA
ATOM     22  C   UNL A   1      33.037  21.044  26.154  1.00  0.00     0.014 A 
ATOM     23  C   UNL A   1      32.263  20.797  23.903  1.00  0.00     0.073 A 
ATOM     24  C   UNL A   1      32.935  20.249  25.004  1.00  0.00     0.000 A 
ATOM     25  C   UNL A   1      32.154  20.027  22.745  1.00  0.00     0.029 A 
ATOM     26  C   UNL A   1      33.399  18.920  24.955  1.00  0.00     0.010 A 
ATOM     27  C   UNL A   1      32.553  18.689  22.713  1.00  0.00     0.002 A 
ATOM     28  C   UNL A   1      33.162  18.129  23.829  1.00  0.00     0.001 A 
ENDBRANCH  17  19
ENDBRANCH  14  15
ENDBRANCH   8  14
ENDBRANCH   7   8
ENDBRANCH   5   7
ENDBRANCH   2   3
ENDBRANCH   1   2
BRANCH   1  29
ATOM     29  C   UNL A   1      36.837  21.936  24.035  1.00  0.00     0.002 C 
BRANCH  29  30
ATOM     30  C   UNL A   1      36.574  20.686  24.881  1.00  0.00     0.002 C 
BRANCH  30  31
ATOM     31  C   UNL A   1      37.751  19.716  24.995  1.00  0.00     0.021 C 
BRANCH  31  32
ATOM     32  C   UNL A   1      38.960  20.247  25.760  1.00  0.00     0.116 C 
BRANCH  32  33
ATOM     33  N   UNL A   1      40.076  19.315  25.760  1.00  0.00    -0.352 N 
ATOM     34  C   UNL A   1      41.400  19.541  26.032  1.00  0.00     0.251 C 
ATOM     35  H   UNL A   1      39.848  18.386  25.530  1.00  0.00     0.163 HD
ATOM     36  O   UNL A   1      42.228  18.649  25.819  1.00  0.00    -0.269 OA
BRANCH  34  37
ATOM     37  C   UNL A   1      41.853  20.850  26.548  1.00  0.00     0.039 A 
ATOM     38  C   UNL A   1      42.244  21.833  25.636  1.00  0.00     0.014 A 
ATOM     39  C   UNL A   1      41.908  21.113  27.921  1.00  0.00     0.014 A 
ATOM     40  C   UNL A   1      42.631  23.093  26.094  1.00  0.00     0.010 A 
ATOM     41  C   UNL A   1      42.219  22.394  28.373  1.00  0.00     0.010 A 
ATOM     42  C   UNL A   1      42.587  23.397  27.466  1.00  0.00    -0.014 A 
BRANCH  42  43
ATOM     43  C   UNL A   1      42.902  24.768  27.947  1.00  0.00     0.031 A 
ATOM     44  C   UNL A   1      44.325  25.199  28.171  1.00  0.00     0.074 A 
ATOM     45  C   UNL A   1      41.893  25.618  28.223  1.00  0.00     0.049 A 
ATOM     46  N   UNL A   1      44.784  26.361  28.563  1.00  0.00    -0.248 NA
ATOM     47  C   UNL A   1      45.369  24.188  27.947  1.00  0.00     0.031 C 
ATOM     48  C   UNL A   1      40.468  25.304  28.104  1.00  0.00     0.029 A 
ATOM     49  N   UNL A   1      41.912  26.921  28.654  1.00  0.00    -0.354 N 
ATOM     50  C   UNL A   1      46.163  26.217  28.646  1.00  0.00     0.074 A 
ATOM     51  C   UNL A   1      46.462  24.841  28.315  1.00  0.00     0.031 C 
ATOM     52  C   UNL A   1      39.751  26.397  28.406  1.00  0.00     0.029 A 
ATOM     53  C   UNL A   1      40.661  27.476  28.777  1.00  0.00     0.049 A 
ATOM     54  H   UNL A   1      42.741  27.411  28.855  1.00  0.00     0.167 HD
ATOM     55  C   UNL A   1      47.099  27.150  28.949  1.00  0.00     0.037 A 
ATOM     56  C   UNL A   1      40.288  28.718  29.139  1.00  0.00     0.037 A 
ATOM     57  C   UNL A   1      46.799  28.525  29.264  1.00  0.00     0.049 A 
ATOM     58  C   UNL A   1      41.345  29.733  29.475  1.00  0.00     0.074 A 
ATOM     59  C   UNL A   1      47.680  29.565  29.508  1.00  0.00     0.029 A 
ATOM     60  N   UNL A   1      45.521  29.047  29.391  1.00  0.00    -0.354 N 
ATOM     61  N   UNL A   1      42.649  29.609  29.458  1.00  0.00    -0.248 NA
ATOM     62  C   UNL A   1      40.872  31.065  29.876  1.00  0.00     0.031 C 
ATOM     63  C   UNL A   1      46.934  30.702  29.842  1.00  0.00     0.029 A 
ATOM     64  C   UNL A   1      45.588  30.385  29.746  1.00  0.00     0.049 A 
ATOM     65  H   UNL A   1      44.688  28.542  29.250  1.00  0.00     0.167 HD
ATOM     66  C   UNL A   1      43.155  30.852  29.817  1.00  0.00     0.074 A 
ATOM     67  C   UNL A   1      42.013  31.720  30.025  1.00  0.00     0.031 C 
ATOM     68  C   UNL A   1      44.446  31.239  29.961  1.00  0.00     0.037 A 
BRANCH  55  69
ATOM     69  C   UNL A   1      48.536  26.709  28.966  1.00  0.00     0.057 A 
ATOM     70  C   UNL A   1      49.122  26.118  30.094  1.00  0.00     0.134 A 
ATOM     71  C   UNL A   1      49.340  26.860  27.829  1.00  0.00     0.134 A 
ATOM     72  F   UNL A   1      48.412  25.951  31.221  1.00  0.00    -0.206 F 
ATOM     73  C   UNL A   1      50.463  25.727  30.104  1.00  0.00     0.040 A 
ATOM     74  C   UNL A   1      50.674  26.444  27.815  1.00  0.00     0.040 A 
ATOM     75  F   UNL A   1      48.845  27.410  26.710  1.00  0.00    -0.206 F 
ATOM     76  C   UNL A   1      51.240  25.885  28.958  1.00  0.00     0.006 A 
ENDBRANCH  55  69
BRANCH  56  77
ATOM     77  C   UNL A   1      38.850  29.087  29.160  1.00  0.00     0.057 A 
ATOM     78  C   UNL A   1      38.213  29.559  28.006  1.00  0.00     0.134 A 
ATOM     79  C   UNL A   1      38.081  28.981  30.325  1.00  0.00     0.134 A 
ATOM     80  F   UNL A   1      38.902  29.700  26.865  1.00  0.00    -0.206 F 
ATOM     81  C   UNL A   1      36.869  29.933  28.013  1.00  0.00     0.040 A 
ATOM     82  C   UNL A   1      36.728  29.324  30.339  1.00  0.00     0.040 A 
ATOM     83  F   UNL A   1      38.630  28.527  31.460  1.00  0.00    -0.206 F 
ATOM     84  C   UNL A   1      36.120  29.809  29.182  1.00  0.00     0.006 A 
ENDBRANCH  56  77
BRANCH  68  85
ATOM     85  C   UNL A   1      44.688  32.674  30.338  1.00  0.00     0.057 A 
ATOM     86  C   UNL A   1      44.817  33.079  31.674  1.00  0.00     0.134 A 
ATOM     87  C   UNL A   1      44.795  33.663  29.352  1.00  0.00     0.134 A 
ATOM     88  F   UNL A   1      44.711  32.186  32.669  1.00  0.00    -0.206 F 
ATOM     89  C   UNL A   1      45.002  34.420  32.015  1.00  0.00     0.040 A 
ATOM     90  C   UNL A   1      45.014  35.001  29.680  1.00  0.00     0.040 A 
ATOM     91  F   UNL A   1      44.693  33.345  28.053  1.00  0.00    -0.206 F 
ATOM     92  C   UNL A   1      45.106  35.385  31.015  1.00  0.00     0.006 A 
ENDBRANCH  68  85
ENDBRANCH  42  43
ENDBRANCH  34  37
ENDBRANCH  32  33
ENDBRANCH  31  32
ENDBRANCH  30  31
ENDBRANCH  29  30
ENDBRANCH   1  29
TORSDOF 17
ENDMDL
MODEL 3
REMARK VINA RESULT:     -12.4      0.781      5.989
REMARK SMILES O=C(CC1(CC(=O)Nc2ccc3ccccc3n2)CCCCC1)NCCCCCCNC(=O)c1ccc(-c2c3nc(c(-c4c(F)cccc4F)c4ccc([nH]4)c(-c4c(F)cccc4F)c4nc(c(-c5c(F)cccc5F)c5ccc2[nH]5)C=C4)C=C3)cc1
REMARK SMILES IDX 26 1 25 2 24 3 1 4 2 5 3 7 4 8 19 9 23 10 20 11 22 12 21 13
REMARK SMILES IDX 5 14 6 15 7 16 8 17 9 19 10 20 18 21 11 22 17 23 12 24 16 25
REMARK SMILES IDX 13 26 15 27 14 28 27 29 28 30 29 31 30 32 31 33 32 34 33 36
REMARK SMILES IDX 34 37 35 38 87 39 36 40 86 41 37 42 38 43 39 44 80 45 40 46
REMARK SMILES IDX 85 47 79 48 81 49 41 50 84 51 78 52 77 53 42 55 68 56 51 57
REMARK SMILES IDX 67 58 52 59 55 60 66 61 82 62 53 63 54 64 65 66 83 67 56 68
REMARK SMILES IDX 43 69 44 70 49 71 45 72 46 73 48 74 50 75 47 76 69 77 70 78
REMARK SMILES IDX 75 79 71 80 72 81 74 82 76 83 73 84 57 85 58 86 63 87 59 88
REMARK SMILES IDX 60 89 62 90 64 91 61 92
REMARK H PARENT 24 6 8 18 31 35 81 54 55 65
REMARK Flexibility Score: inf
ROOT
ATOM      1  C   UNL A   1      35.837  22.811  23.870  1.00  0.00     0.021 C 
ENDROOT
BRANCH   1   2
ATOM      2  C   UNL A   1      35.566  23.887  24.917  1.00  0.00     0.116 C 
BRANCH   2   3
ATOM      3  N   UNL A   1      34.409  24.683  24.576  1.00  0.00    -0.356 N 
ATOM      4  O   UNL A   1      33.246  24.260  26.505  1.00  0.00    -0.275 OA
ATOM      5  C   UNL A   1      33.356  24.857  25.438  1.00  0.00     0.220 C 
ATOM      6  H   UNL A   1      34.376  25.118  23.692  1.00  0.00     0.163 HD
BRANCH   5   7
ATOM      7  C   UNL A   1      32.339  25.889  24.980  1.00  0.00     0.107 C 
BRANCH   7   8
ATOM      8  C   UNL A   1      32.736  27.381  25.205  1.00  0.00    -0.012 C 
ATOM      9  C   UNL A   1      31.525  28.207  25.747  1.00  0.00     0.008 C 
ATOM     10  C   UNL A   1      33.797  27.520  26.300  1.00  0.00     0.008 C 
ATOM     11  C   UNL A   1      31.851  29.655  26.149  1.00  0.00     0.001 C 
ATOM     12  C   UNL A   1      34.262  28.967  26.480  1.00  0.00     0.001 C 
ATOM     13  C   UNL A   1      33.110  29.805  27.002  1.00  0.00     0.000 C 
BRANCH   8  14
ATOM     14  C   UNL A   1      33.243  27.944  23.836  1.00  0.00     0.108 C 
BRANCH  14  15
ATOM     15  C   UNL A   1      32.805  27.316  22.489  1.00  0.00     0.226 C 
ATOM     16  O   UNL A   1      33.658  26.777  21.772  1.00  0.00    -0.275 OA
ATOM     17  N   UNL A   1      31.489  27.076  22.195  1.00  0.00    -0.311 N 
ATOM     18  H   UNL A   1      31.306  26.193  21.800  1.00  0.00     0.171 HD
BRANCH  17  19
ATOM     19  C   UNL A   1      30.366  27.888  22.367  1.00  0.00     0.133 A 
ATOM     20  C   UNL A   1      29.316  27.412  23.131  1.00  0.00     0.048 A 
ATOM     21  N   UNL A   1      30.304  29.077  21.748  1.00  0.00    -0.231 NA
ATOM     22  C   UNL A   1      28.291  28.297  23.470  1.00  0.00     0.014 A 
ATOM     23  C   UNL A   1      29.324  29.945  22.075  1.00  0.00     0.073 A 
ATOM     24  C   UNL A   1      28.332  29.621  23.011  1.00  0.00     0.000 A 
ATOM     25  C   UNL A   1      29.381  31.254  21.599  1.00  0.00     0.029 A 
ATOM     26  C   UNL A   1      27.485  30.627  23.515  1.00  0.00     0.010 A 
ATOM     27  C   UNL A   1      28.588  32.268  22.142  1.00  0.00     0.002 A 
ATOM     28  C   UNL A   1      27.649  31.954  23.116  1.00  0.00     0.001 A 
ENDBRANCH  17  19
ENDBRANCH  14  15
ENDBRANCH   8  14
ENDBRANCH   7   8
ENDBRANCH   5   7
ENDBRANCH   2   3
ENDBRANCH   1   2
BRANCH   1  29
ATOM     29  C   UNL A   1      37.028  21.896  24.180  1.00  0.00     0.002 C 
BRANCH  29  30
ATOM     30  C   UNL A   1      36.686  20.586  24.900  1.00  0.00     0.002 C 
BRANCH  30  31
ATOM     31  C   UNL A   1      37.832  19.578  25.001  1.00  0.00     0.021 C 
BRANCH  31  32
ATOM     32  C   UNL A   1      39.071  20.074  25.741  1.00  0.00     0.116 C 
BRANCH  32  33
ATOM     33  N   UNL A   1      40.096  19.050  25.866  1.00  0.00    -0.352 N 
ATOM     34  C   UNL A   1      41.440  19.186  26.097  1.00  0.00     0.251 C 
ATOM     35  H   UNL A   1      39.778  18.123  25.770  1.00  0.00     0.163 HD
ATOM     36  O   UNL A   1      42.177  18.198  26.008  1.00  0.00    -0.269 OA
BRANCH  34  37
ATOM     37  C   UNL A   1      42.021  20.505  26.423  1.00  0.00     0.039 A 
ATOM     38  C   UNL A   1      42.408  21.345  25.376  1.00  0.00     0.014 A 
ATOM     39  C   UNL A   1      42.200  20.916  27.748  1.00  0.00     0.014 A 
ATOM     40  C   UNL A   1      42.916  22.615  25.655  1.00  0.00     0.010 A 
ATOM     41  C   UNL A   1      42.634  22.212  28.023  1.00  0.00     0.010 A 
ATOM     42  C   UNL A   1      42.999  23.074  26.980  1.00  0.00    -0.014 A 
BRANCH  42  43
ATOM     43  C   UNL A   1      43.446  24.461  27.273  1.00  0.00     0.031 A 
ATOM     44  C   UNL A   1      42.463  25.516  27.700  1.00  0.00     0.074 A 
ATOM     45  C   UNL A   1      44.746  24.782  27.115  1.00  0.00     0.049 A 
ATOM     46  N   UNL A   1      42.679  26.767  28.018  1.00  0.00    -0.248 NA
ATOM     47  C   UNL A   1      41.047  25.121  27.753  1.00  0.00     0.031 C 
ATOM     48  C   UNL A   1      45.791  23.867  26.651  1.00  0.00     0.029 A 
ATOM     49  N   UNL A   1      45.410  25.963  27.332  1.00  0.00    -0.354 N 
ATOM     50  C   UNL A   1      41.432  27.311  28.297  1.00  0.00     0.074 A 
ATOM     51  C   UNL A   1      40.458  26.268  28.056  1.00  0.00     0.031 C 
ATOM     52  C   UNL A   1      46.971  24.506  26.666  1.00  0.00     0.029 A 
ATOM     53  C   UNL A   1      46.762  25.883  27.101  1.00  0.00     0.049 A 
ATOM     54  H   UNL A   1      44.962  26.788  27.627  1.00  0.00     0.167 HD
ATOM     55  C   UNL A   1      41.126  28.557  28.732  1.00  0.00     0.037 A 
ATOM     56  C   UNL A   1      47.727  26.812  27.233  1.00  0.00     0.037 A 
ATOM     57  C   UNL A   1      42.100  29.589  28.984  1.00  0.00     0.049 A 
ATOM     58  C   UNL A   1      47.361  28.189  27.713  1.00  0.00     0.074 A 
ATOM     59  C   UNL A   1      41.898  30.858  29.501  1.00  0.00     0.029 A 
ATOM     60  N   UNL A   1      43.457  29.476  28.726  1.00  0.00    -0.354 N 
ATOM     61  N   UNL A   1      46.189  28.661  28.062  1.00  0.00    -0.248 NA
ATOM     62  C   UNL A   1      48.458  29.160  27.821  1.00  0.00     0.031 C 
ATOM     63  C   UNL A   1      43.125  31.533  29.498  1.00  0.00     0.029 A 
ATOM     64  C   UNL A   1      44.101  30.663  29.038  1.00  0.00     0.049 A 
ATOM     65  H   UNL A   1      43.900  28.670  28.373  1.00  0.00     0.167 HD
ATOM     66  C   UNL A   1      46.410  29.973  28.458  1.00  0.00     0.074 A 
ATOM     67  C   UNL A   1      47.833  30.213  28.326  1.00  0.00     0.031 C 
ATOM     68  C   UNL A   1      45.517  30.896  28.893  1.00  0.00     0.037 A 
BRANCH  55  69
ATOM     69  C   UNL A   1      39.673  28.876  28.952  1.00  0.00     0.057 A 
ATOM     70  C   UNL A   1      39.057  28.724  30.202  1.00  0.00     0.134 A 
ATOM     71  C   UNL A   1      38.883  29.362  27.902  1.00  0.00     0.134 A 
ATOM     72  F   UNL A   1      39.752  28.255  31.250  1.00  0.00    -0.206 F 
ATOM     73  C   UNL A   1      37.703  29.008  30.391  1.00  0.00     0.040 A 
ATOM     74  C   UNL A   1      37.535  29.679  28.086  1.00  0.00     0.040 A 
ATOM     75  F   UNL A   1      39.407  29.540  26.680  1.00  0.00    -0.206 F 
ATOM     76  C   UNL A   1      36.940  29.493  29.331  1.00  0.00     0.006 A 
ENDBRANCH  55  69
BRANCH  56  77
ATOM     77  C   UNL A   1      49.142  26.461  26.949  1.00  0.00     0.057 A 
ATOM     78  C   UNL A   1      49.682  26.633  25.668  1.00  0.00     0.134 A 
ATOM     79  C   UNL A   1      49.985  25.945  27.940  1.00  0.00     0.134 A 
ATOM     80  F   UNL A   1      48.918  27.105  24.672  1.00  0.00    -0.206 F 
ATOM     81  C   UNL A   1      51.001  26.286  25.378  1.00  0.00     0.040 A 
ATOM     82  C   UNL A   1      51.315  25.620  27.671  1.00  0.00     0.040 A 
ATOM     83  F   UNL A   1      49.530  25.765  29.188  1.00  0.00    -0.206 F 
ATOM     84  C   UNL A   1      51.824  25.784  26.383  1.00  0.00     0.006 A 
ENDBRANCH  56  77
BRANCH  68  85
ATOM     85  C   UNL A   1      46.062  32.242  29.281  1.00  0.00     0.057 A 
ATOM     86  C   UNL A   1      46.525  32.511  30.576  1.00  0.00     0.134 A 
ATOM     87  C   UNL A   1      46.126  33.283  28.346  1.00  0.00     0.134 A 
ATOM     88  F   UNL A   1      46.480  31.564  31.525  1.00  0.00    -0.206 F 
ATOM     89  C   UNL A   1      46.992  33.776  30.936  1.00  0.00     0.040 A 
ATOM     90  C   UNL A   1      46.622  34.541  28.685  1.00  0.00     0.040 A 
ATOM     91  F   UNL A   1      45.710  33.093  27.084  1.00  0.00    -0.206 F 
ATOM     92  C   UNL A   1      47.047  34.795  29.987  1.00  0.00     0.006 A 
ENDBRANCH  68  85
ENDBRANCH  42  43
ENDBRANCH  34  37
ENDBRANCH  32  33
ENDBRANCH  31  32
ENDBRANCH  30  31
ENDBRANCH  29  30
ENDBRANCH   1  29
TORSDOF 17
ENDMDL
