MODEL 1
REMARK VINA RESULT:     -11.5      0.000      0.000
REMARK SMILES C/C(=N\NC(N)=S)c1nnn(-c2ccc(C(=O)NCCCCCCNC(=O)c3ccc(-c4c5nc(c(-c6c(F)cccc6F)c6ccc([nH]6)c(-c6c(F)cccc6F)c6nc(c(-c7c(F)cccc7F)c7ccc4[nH]7)C=C6)C=C5)cc3)cc2)c1C
REMARK SMILES IDX 20 1 19 2 18 3 16 4 17 5 15 7 12 8 13 9 83 10 14 11 82 12
REMARK SMILES IDX 11 13 8 14 9 15 84 16 10 17 85 18 2 19 1 20 3 21 4 22 5 24
REMARK SMILES IDX 7 25 6 26 21 29 22 30 23 31 24 32 25 33 26 34 27 36 28 37
REMARK SMILES IDX 29 38 81 39 30 40 80 41 31 42 32 43 33 44 74 45 34 46 79 47
REMARK SMILES IDX 73 48 75 49 35 50 78 51 72 52 71 53 36 55 62 56 45 57 61 58
REMARK SMILES IDX 46 59 49 60 60 61 76 62 47 63 48 64 59 66 77 67 50 68 37 69
REMARK SMILES IDX 38 70 43 71 39 72 40 73 42 74 44 75 41 76 63 77 64 78 69 79
REMARK SMILES IDX 65 80 66 81 68 82 70 83 67 84 51 85 52 86 57 87 53 88 54 89
REMARK SMILES IDX 56 90 58 91 55 92
REMARK H PARENT 18 6 4 23 6 27 6 28 25 35 75 54 49 65
REMARK Flexibility Score: inf
ROOT
ATOM      1  C   UNL A   1      34.597  31.172  27.638  1.00  0.00     0.021 C 
ENDROOT
BRANCH   1   2
ATOM      2  C   UNL A   1      33.522  30.092  27.485  1.00  0.00     0.116 C 
BRANCH   2   3
ATOM      3  N   UNL A   1      32.407  30.593  26.700  1.00  0.00    -0.352 N 
ATOM      4  C   UNL A   1      31.808  30.158  25.543  1.00  0.00     0.251 C 
ATOM      5  O   UNL A   1      30.841  30.794  25.123  1.00  0.00    -0.269 OA
ATOM      6  H   UNL A   1      32.000  31.407  27.071  1.00  0.00     0.163 HD
BRANCH   4   7
ATOM      7  C   UNL A   1      32.219  28.914  24.833  1.00  0.00     0.039 A 
ATOM      8  C   UNL A   1      33.060  26.434  23.883  1.00  0.00     0.067 A 
ATOM      9  C   UNL A   1      31.810  26.532  24.494  1.00  0.00     0.029 A 
ATOM     10  C   UNL A   1      33.826  27.570  23.623  1.00  0.00     0.029 A 
ATOM     11  C   UNL A   1      31.410  27.774  24.995  1.00  0.00     0.016 A 
ATOM     12  C   UNL A   1      33.369  28.816  24.046  1.00  0.00     0.016 A 
BRANCH   8  13
ATOM     13  N   UNL A   1      33.622  25.173  23.631  1.00  0.00    -0.217 N 
ATOM     14  C   UNL A   1      34.554  23.221  23.805  1.00  0.00     0.132 A 
ATOM     15  N   UNL A   1      34.310  23.482  22.480  1.00  0.00    -0.128 NA
ATOM     16  C   UNL A   1      34.092  24.274  24.569  1.00  0.00     0.071 A 
ATOM     17  N   UNL A   1      33.670  24.641  22.395  1.00  0.00    -0.061 NA
ATOM     18  C   UNL A   1      33.947  24.441  26.034  1.00  0.00     0.069 C 
BRANCH  14  19
ATOM     19  C   UNL A   1      35.020  21.925  24.266  1.00  0.00     0.087 C 
ATOM     20  C   UNL A   1      36.514  21.764  24.357  1.00  0.00     0.071 C 
ATOM     21  N   UNL A   1      34.091  21.075  24.592  1.00  0.00    -0.176 NA
BRANCH  21  22
ATOM     22  N   UNL A   1      34.375  19.854  25.132  1.00  0.00    -0.254 N 
ATOM     23  H   UNL A   1      35.243  19.789  25.594  1.00  0.00     0.193 HD
BRANCH  22  24
ATOM     24  C   UNL A   1      33.622  18.697  25.128  1.00  0.00     0.184 C 
ATOM     25  S   UNL A   1      33.563  17.469  24.009  1.00  0.00    -0.040 S 
BRANCH  24  26
ATOM     26  N   UNL A   1      32.820  18.605  26.234  1.00  0.00    -0.375 N 
ATOM     27  H   UNL A   1      33.220  18.450  27.120  1.00  0.00     0.159 HD
ATOM     28  H   UNL A   1      31.844  18.694  26.143  1.00  0.00     0.159 HD
ENDBRANCH  24  26
ENDBRANCH  22  24
ENDBRANCH  21  22
ENDBRANCH  14  19
ENDBRANCH   8  13
ENDBRANCH   4   7
ENDBRANCH   2   3
ENDBRANCH   1   2
BRANCH   1  29
ATOM     29  C   UNL A   1      34.033  32.545  28.027  1.00  0.00     0.002 C 
BRANCH  29  30
ATOM     30  C   UNL A   1      35.071  33.665  28.217  1.00  0.00     0.002 C 
BRANCH  30  31
ATOM     31  C   UNL A   1      34.562  34.981  28.825  1.00  0.00     0.021 C 
BRANCH  31  32
ATOM     32  C   UNL A   1      33.232  34.851  29.549  1.00  0.00     0.116 C 
BRANCH  32  33
ATOM     33  N   UNL A   1      33.229  35.534  30.849  1.00  0.00    -0.352 N 
ATOM     34  C   UNL A   1      33.809  35.146  32.040  1.00  0.00     0.251 C 
ATOM     35  H   UNL A   1      32.745  36.391  30.874  1.00  0.00     0.163 HD
ATOM     36  O   UNL A   1      33.415  35.605  33.114  1.00  0.00    -0.269 OA
BRANCH  34  37
ATOM     37  C   UNL A   1      34.921  34.185  32.013  1.00  0.00     0.039 A 
ATOM     38  C   UNL A   1      34.734  32.809  31.853  1.00  0.00     0.014 A 
ATOM     39  C   UNL A   1      36.199  34.713  32.133  1.00  0.00     0.014 A 
ATOM     40  C   UNL A   1      35.861  31.992  31.768  1.00  0.00     0.010 A 
ATOM     41  C   UNL A   1      37.274  33.964  31.770  1.00  0.00     0.010 A 
ATOM     42  C   UNL A   1      37.130  32.590  31.723  1.00  0.00    -0.014 A 
BRANCH  42  43
ATOM     43  C   UNL A   1      38.355  31.828  31.553  1.00  0.00     0.031 A 
ATOM     44  C   UNL A   1      39.040  31.513  32.828  1.00  0.00     0.074 A 
ATOM     45  C   UNL A   1      38.685  31.240  30.380  1.00  0.00     0.049 A 
ATOM     46  N   UNL A   1      40.144  32.012  33.267  1.00  0.00    -0.248 NA
ATOM     47  C   UNL A   1      38.324  30.683  33.810  1.00  0.00     0.031 C 
ATOM     48  C   UNL A   1      37.912  31.180  29.131  1.00  0.00     0.029 A 
ATOM     49  N   UNL A   1      39.765  30.469  30.088  1.00  0.00    -0.354 N 
ATOM     50  C   UNL A   1      40.387  31.369  34.476  1.00  0.00     0.074 A 
ATOM     51  C   UNL A   1      39.144  30.756  34.861  1.00  0.00     0.031 C 
ATOM     52  C   UNL A   1      38.436  30.242  28.311  1.00  0.00     0.029 A 
ATOM     53  C   UNL A   1      39.673  29.761  28.893  1.00  0.00     0.049 A 
ATOM     54  H   UNL A   1      40.553  30.415  30.677  1.00  0.00     0.167 HD
ATOM     55  C   UNL A   1      41.662  31.152  34.900  1.00  0.00     0.037 A 
ATOM     56  C   UNL A   1      40.553  28.834  28.437  1.00  0.00     0.037 A 
ATOM     57  C   UNL A   1      42.593  31.974  34.162  1.00  0.00     0.049 A 
ATOM     58  C   UNL A   1      41.821  29.039  29.180  1.00  0.00     0.074 A 
ATOM     59  C   UNL A   1      42.744  33.333  33.959  1.00  0.00     0.029 A 
ATOM     60  N   UNL A   1      43.315  31.369  33.160  1.00  0.00    -0.354 N 
ATOM     61  N   UNL A   1      42.575  30.095  29.045  1.00  0.00    -0.248 NA
ATOM     62  C   UNL A   1      41.996  28.299  30.420  1.00  0.00     0.031 C 
ATOM     63  C   UNL A   1      43.123  33.461  32.589  1.00  0.00     0.029 A 
ATOM     64  C   UNL A   1      43.262  32.179  32.057  1.00  0.00     0.049 A 
ATOM     65  H   UNL A   1      43.786  30.507  33.226  1.00  0.00     0.167 HD
ATOM     66  C   UNL A   1      42.987  30.401  30.335  1.00  0.00     0.074 A 
ATOM     67  C   UNL A   1      42.664  29.214  31.127  1.00  0.00     0.031 C 
ATOM     68  C   UNL A   1      43.269  31.687  30.697  1.00  0.00     0.037 A 
BRANCH  55  69
ATOM     69  C   UNL A   1      42.109  29.926  35.661  1.00  0.00     0.057 A 
ATOM     70  C   UNL A   1      43.035  30.083  36.709  1.00  0.00     0.134 A 
ATOM     71  C   UNL A   1      41.913  28.595  35.238  1.00  0.00     0.134 A 
ATOM     72  F   UNL A   1      43.315  31.298  37.204  1.00  0.00    -0.206 F 
ATOM     73  C   UNL A   1      43.776  29.013  37.226  1.00  0.00     0.040 A 
ATOM     74  C   UNL A   1      42.608  27.513  35.783  1.00  0.00     0.040 A 
ATOM     75  F   UNL A   1      41.121  28.268  34.210  1.00  0.00    -0.206 F 
ATOM     76  C   UNL A   1      43.571  27.724  36.755  1.00  0.00     0.006 A 
ENDBRANCH  55  69
BRANCH  56  77
ATOM     77  C   UNL A   1      40.292  27.607  27.649  1.00  0.00     0.057 A 
ATOM     78  C   UNL A   1      40.951  27.373  26.432  1.00  0.00     0.134 A 
ATOM     79  C   UNL A   1      39.619  26.505  28.206  1.00  0.00     0.134 A 
ATOM     80  F   UNL A   1      41.655  28.349  25.841  1.00  0.00    -0.206 F 
ATOM     81  C   UNL A   1      40.968  26.110  25.823  1.00  0.00     0.040 A 
ATOM     82  C   UNL A   1      39.625  25.241  27.605  1.00  0.00     0.040 A 
ATOM     83  F   UNL A   1      39.014  26.595  29.399  1.00  0.00    -0.206 F 
ATOM     84  C   UNL A   1      40.315  25.035  26.417  1.00  0.00     0.006 A 
ENDBRANCH  56  77
BRANCH  68  85
ATOM     85  C   UNL A   1      43.371  32.722  29.606  1.00  0.00     0.057 A 
ATOM     86  C   UNL A   1      42.366  33.653  29.299  1.00  0.00     0.134 A 
ATOM     87  C   UNL A   1      44.594  32.880  28.948  1.00  0.00     0.134 A 
ATOM     88  F   UNL A   1      41.191  33.646  29.940  1.00  0.00    -0.206 F 
ATOM     89  C   UNL A   1      42.560  34.670  28.357  1.00  0.00     0.040 A 
ATOM     90  C   UNL A   1      44.814  33.910  28.031  1.00  0.00     0.040 A 
ATOM     91  F   UNL A   1      45.621  32.061  29.227  1.00  0.00    -0.206 F 
ATOM     92  C   UNL A   1      43.791  34.805  27.725  1.00  0.00     0.006 A 
ENDBRANCH  68  85
ENDBRANCH  42  43
ENDBRANCH  34  37
ENDBRANCH  32  33
ENDBRANCH  31  32
ENDBRANCH  30  31
ENDBRANCH  29  30
ENDBRANCH   1  29
TORSDOF 18
ENDMDL
MODEL 2
REMARK VINA RESULT:     -11.3      3.624      8.719
REMARK SMILES C/C(=N\NC(N)=S)c1nnn(-c2ccc(C(=O)NCCCCCCNC(=O)c3ccc(-c4c5nc(c(-c6c(F)cccc6F)c6ccc([nH]6)c(-c6c(F)cccc6F)c6nc(c(-c7c(F)cccc7F)c7ccc4[nH]7)C=C6)C=C5)cc3)cc2)c1C
REMARK SMILES IDX 20 1 19 2 18 3 16 4 17 5 15 7 12 8 13 9 83 10 14 11 82 12
REMARK SMILES IDX 11 13 8 14 9 15 84 16 10 17 85 18 2 19 1 20 3 21 4 22 5 24
REMARK SMILES IDX 7 25 6 26 21 29 22 30 23 31 24 32 25 33 26 34 27 36 28 37
REMARK SMILES IDX 29 38 81 39 30 40 80 41 31 42 32 43 33 44 74 45 34 46 79 47
REMARK SMILES IDX 73 48 75 49 35 50 78 51 72 52 71 53 36 55 62 56 45 57 61 58
REMARK SMILES IDX 46 59 49 60 60 61 76 62 47 63 48 64 59 66 77 67 50 68 37 69
REMARK SMILES IDX 38 70 43 71 39 72 40 73 42 74 44 75 41 76 63 77 64 78 69 79
REMARK SMILES IDX 65 80 66 81 68 82 70 83 67 84 51 85 52 86 57 87 53 88 54 89
REMARK SMILES IDX 56 90 58 91 55 92
REMARK H PARENT 18 6 4 23 6 27 6 28 25 35 75 54 49 65
REMARK Flexibility Score: inf
ROOT
ATOM      1  C   UNL A   1      35.624  21.485  25.872  1.00  0.00     0.021 C 
ENDROOT
BRANCH   1   2
ATOM      2  C   UNL A   1      35.419  20.398  24.812  1.00  0.00     0.116 C 
BRANCH   2   3
ATOM      3  N   UNL A   1      34.180  19.679  25.054  1.00  0.00    -0.352 N 
ATOM      4  C   UNL A   1      32.860  20.060  25.049  1.00  0.00     0.251 C 
ATOM      5  O   UNL A   1      32.013  19.196  25.272  1.00  0.00    -0.269 OA
ATOM      6  H   UNL A   1      34.313  18.727  25.265  1.00  0.00     0.163 HD
BRANCH   4   7
ATOM      7  C   UNL A   1      32.415  21.439  24.703  1.00  0.00     0.039 A 
ATOM      8  C   UNL A   1      31.969  24.074  23.919  1.00  0.00     0.067 A 
ATOM      9  C   UNL A   1      32.096  23.093  22.936  1.00  0.00     0.029 A 
ATOM     10  C   UNL A   1      31.928  23.739  25.272  1.00  0.00     0.029 A 
ATOM     11  C   UNL A   1      32.350  21.778  23.338  1.00  0.00     0.016 A 
ATOM     12  C   UNL A   1      32.089  22.409  25.653  1.00  0.00     0.016 A 
BRANCH   8  13
ATOM     13  N   UNL A   1      32.005  25.431  23.564  1.00  0.00    -0.217 N 
ATOM     14  C   UNL A   1      31.501  27.493  23.109  1.00  0.00     0.132 A 
ATOM     15  N   UNL A   1      32.850  27.314  22.929  1.00  0.00    -0.128 NA
ATOM     16  C   UNL A   1      30.939  26.310  23.548  1.00  0.00     0.071 A 
ATOM     17  N   UNL A   1      33.156  26.073  23.286  1.00  0.00    -0.061 NA
ATOM     18  C   UNL A   1      29.583  25.990  24.050  1.00  0.00     0.069 C 
BRANCH  14  19
ATOM     19  C   UNL A   1      30.879  28.804  23.045  1.00  0.00     0.087 C 
ATOM     20  C   UNL A   1      30.871  29.585  24.331  1.00  0.00     0.071 C 
ATOM     21  N   UNL A   1      30.449  29.167  21.873  1.00  0.00    -0.176 NA
BRANCH  21  22
ATOM     22  N   UNL A   1      29.931  30.408  21.636  1.00  0.00    -0.254 N 
ATOM     23  H   UNL A   1      30.581  31.147  21.661  1.00  0.00     0.193 HD
BRANCH  22  24
ATOM     24  C   UNL A   1      28.628  30.777  21.368  1.00  0.00     0.184 C 
ATOM     25  S   UNL A   1      28.030  32.196  20.744  1.00  0.00    -0.040 S 
BRANCH  24  26
ATOM     26  N   UNL A   1      27.740  29.785  21.687  1.00  0.00    -0.375 N 
ATOM     27  H   UNL A   1      28.067  28.880  21.896  1.00  0.00     0.159 HD
ATOM     28  H   UNL A   1      26.774  29.976  21.708  1.00  0.00     0.159 HD
ENDBRANCH  24  26
ENDBRANCH  22  24
ENDBRANCH  21  22
ENDBRANCH  14  19
ENDBRANCH   8  13
ENDBRANCH   4   7
ENDBRANCH   2   3
ENDBRANCH   1   2
BRANCH   1  29
ATOM     29  C   UNL A   1      36.253  22.769  25.315  1.00  0.00     0.002 C 
BRANCH  29  30
ATOM     30  C   UNL A   1      37.690  23.066  25.782  1.00  0.00     0.002 C 
BRANCH  30  31
ATOM     31  C   UNL A   1      38.695  21.907  25.697  1.00  0.00     0.021 C 
BRANCH  31  32
ATOM     32  C   UNL A   1      39.866  22.036  26.657  1.00  0.00     0.116 C 
BRANCH  32  33
ATOM     33  N   UNL A   1      41.159  22.102  25.964  1.00  0.00    -0.352 N 
ATOM     34  C   UNL A   1      41.998  23.185  25.783  1.00  0.00     0.251 C 
ATOM     35  H   UNL A   1      41.473  21.255  25.573  1.00  0.00     0.163 HD
ATOM     36  O   UNL A   1      42.836  23.190  24.880  1.00  0.00    -0.269 OA
BRANCH  34  37
ATOM     37  C   UNL A   1      41.890  24.331  26.696  1.00  0.00     0.039 A 
ATOM     38  C   UNL A   1      42.726  24.506  27.802  1.00  0.00     0.014 A 
ATOM     39  C   UNL A   1      40.914  25.271  26.397  1.00  0.00     0.014 A 
ATOM     40  C   UNL A   1      42.588  25.666  28.562  1.00  0.00     0.010 A 
ATOM     41  C   UNL A   1      40.974  26.508  26.959  1.00  0.00     0.010 A 
ATOM     42  C   UNL A   1      41.705  26.665  28.121  1.00  0.00    -0.014 A 
BRANCH  42  43
ATOM     43  C   UNL A   1      41.555  27.939  28.800  1.00  0.00     0.031 A 
ATOM     44  C   UNL A   1      42.606  28.923  28.456  1.00  0.00     0.074 A 
ATOM     45  C   UNL A   1      40.424  28.277  29.463  1.00  0.00     0.049 A 
ATOM     46  N   UNL A   1      43.566  29.340  29.210  1.00  0.00    -0.248 NA
ATOM     47  C   UNL A   1      42.711  29.361  27.054  1.00  0.00     0.031 C 
ATOM     48  C   UNL A   1      39.165  27.526  29.579  1.00  0.00     0.029 A 
ATOM     49  N   UNL A   1      40.127  29.439  30.102  1.00  0.00    -0.354 N 
ATOM     50  C   UNL A   1      44.252  30.282  28.450  1.00  0.00     0.074 A 
ATOM     51  C   UNL A   1      43.836  30.079  27.089  1.00  0.00     0.031 C 
ATOM     52  C   UNL A   1      38.189  28.336  30.044  1.00  0.00     0.029 A 
ATOM     53  C   UNL A   1      38.782  29.603  30.424  1.00  0.00     0.049 A 
ATOM     54  H   UNL A   1      40.810  30.114  30.321  1.00  0.00     0.167 HD
ATOM     55  C   UNL A   1      44.873  31.334  29.051  1.00  0.00     0.037 A 
ATOM     56  C   UNL A   1      38.210  30.717  30.946  1.00  0.00     0.037 A 
ATOM     57  C   UNL A   1      45.023  31.098  30.468  1.00  0.00     0.049 A 
ATOM     58  C   UNL A   1      39.304  31.531  31.532  1.00  0.00     0.074 A 
ATOM     59  C   UNL A   1      45.632  30.122  31.234  1.00  0.00     0.029 A 
ATOM     60  N   UNL A   1      44.142  31.733  31.312  1.00  0.00    -0.354 N 
ATOM     61  N   UNL A   1      39.996  31.168  32.576  1.00  0.00    -0.248 NA
ATOM     62  C   UNL A   1      39.941  32.512  30.667  1.00  0.00     0.031 C 
ATOM     63  C   UNL A   1      44.743  29.903  32.329  1.00  0.00     0.029 A 
ATOM     64  C   UNL A   1      43.688  30.809  32.216  1.00  0.00     0.049 A 
ATOM     65  H   UNL A   1      43.885  32.682  31.273  1.00  0.00     0.167 HD
ATOM     66  C   UNL A   1      41.303  31.525  32.273  1.00  0.00     0.074 A 
ATOM     67  C   UNL A   1      41.194  32.420  31.121  1.00  0.00     0.031 C 
ATOM     68  C   UNL A   1      42.359  30.829  32.788  1.00  0.00     0.037 A 
BRANCH  55  69
ATOM     69  C   UNL A   1      44.962  32.721  28.458  1.00  0.00     0.057 A 
ATOM     70  C   UNL A   1      46.224  33.211  28.075  1.00  0.00     0.134 A 
ATOM     71  C   UNL A   1      43.942  33.693  28.519  1.00  0.00     0.134 A 
ATOM     72  F   UNL A   1      47.282  32.390  27.981  1.00  0.00    -0.206 F 
ATOM     73  C   UNL A   1      46.471  34.573  27.864  1.00  0.00     0.040 A 
ATOM     74  C   UNL A   1      44.165  35.047  28.258  1.00  0.00     0.040 A 
ATOM     75  F   UNL A   1      42.699  33.418  28.929  1.00  0.00    -0.206 F 
ATOM     76  C   UNL A   1      45.441  35.497  27.965  1.00  0.00     0.006 A 
ENDBRANCH  55  69
BRANCH  56  77
ATOM     77  C   UNL A   1      36.856  31.270  30.710  1.00  0.00     0.057 A 
ATOM     78  C   UNL A   1      36.017  31.617  31.780  1.00  0.00     0.134 A 
ATOM     79  C   UNL A   1      36.467  31.746  29.445  1.00  0.00     0.134 A 
ATOM     80  F   UNL A   1      36.323  31.246  33.032  1.00  0.00    -0.206 F 
ATOM     81  C   UNL A   1      34.878  32.417  31.607  1.00  0.00     0.040 A 
ATOM     82  C   UNL A   1      35.331  32.540  29.259  1.00  0.00     0.040 A 
ATOM     83  F   UNL A   1      37.231  31.533  28.362  1.00  0.00    -0.206 F 
ATOM     84  C   UNL A   1      34.539  32.893  30.345  1.00  0.00     0.006 A 
ENDBRANCH  56  77
BRANCH  68  85
ATOM     85  C   UNL A   1      42.083  29.836  33.887  1.00  0.00     0.057 A 
ATOM     86  C   UNL A   1      41.804  28.477  33.675  1.00  0.00     0.134 A 
ATOM     87  C   UNL A   1      42.262  30.241  35.213  1.00  0.00     0.134 A 
ATOM     88  F   UNL A   1      41.706  27.970  32.441  1.00  0.00    -0.206 F 
ATOM     89  C   UNL A   1      41.674  27.574  34.737  1.00  0.00     0.040 A 
ATOM     90  C   UNL A   1      42.168  29.344  36.280  1.00  0.00     0.040 A 
ATOM     91  F   UNL A   1      42.583  31.514  35.492  1.00  0.00    -0.206 F 
ATOM     92  C   UNL A   1      41.864  28.005  36.045  1.00  0.00     0.006 A 
ENDBRANCH  68  85
ENDBRANCH  42  43
ENDBRANCH  34  37
ENDBRANCH  32  33
ENDBRANCH  31  32
ENDBRANCH  30  31
ENDBRANCH  29  30
ENDBRANCH   1  29
TORSDOF 18
ENDMDL
MODEL 3
REMARK VINA RESULT:     -11.1      3.438      9.255
REMARK SMILES C/C(=N\NC(N)=S)c1nnn(-c2ccc(C(=O)NCCCCCCNC(=O)c3ccc(-c4c5nc(c(-c6c(F)cccc6F)c6ccc([nH]6)c(-c6c(F)cccc6F)c6nc(c(-c7c(F)cccc7F)c7ccc4[nH]7)C=C6)C=C5)cc3)cc2)c1C
REMARK SMILES IDX 20 1 19 2 18 3 16 4 17 5 15 7 12 8 13 9 83 10 14 11 82 12
REMARK SMILES IDX 11 13 8 14 9 15 84 16 10 17 85 18 2 19 1 20 3 21 4 22 5 24
REMARK SMILES IDX 7 25 6 26 21 29 22 30 23 31 24 32 25 33 26 34 27 36 28 37
REMARK SMILES IDX 29 38 81 39 30 40 80 41 31 42 32 43 33 44 74 45 34 46 79 47
REMARK SMILES IDX 73 48 75 49 35 50 78 51 72 52 71 53 36 55 62 56 45 57 61 58
REMARK SMILES IDX 46 59 49 60 60 61 76 62 47 63 48 64 59 66 77 67 50 68 37 69
REMARK SMILES IDX 38 70 43 71 39 72 40 73 42 74 44 75 41 76 63 77 64 78 69 79
REMARK SMILES IDX 65 80 66 81 68 82 70 83 67 84 51 85 52 86 57 87 53 88 54 89
REMARK SMILES IDX 56 90 58 91 55 92
REMARK H PARENT 18 6 4 23 6 27 6 28 25 35 75 54 49 65
REMARK Flexibility Score: inf
ROOT
ATOM      1  C   UNL A   1      33.787  22.938  25.550  1.00  0.00     0.021 C 
ENDROOT
BRANCH   1   2
ATOM      2  C   UNL A   1      33.197  24.276  26.003  1.00  0.00     0.116 C 
BRANCH   2   3
ATOM      3  N   UNL A   1      32.058  24.635  25.176  1.00  0.00    -0.352 N 
ATOM      4  C   UNL A   1      31.430  25.829  24.916  1.00  0.00     0.251 C 
ATOM      5  O   UNL A   1      30.482  25.819  24.131  1.00  0.00    -0.269 OA
ATOM      6  H   UNL A   1      31.656  23.870  24.708  1.00  0.00     0.163 HD
BRANCH   4   7
ATOM      7  C   UNL A   1      31.897  27.130  25.470  1.00  0.00     0.039 A 
ATOM      8  C   UNL A   1      32.371  29.673  26.506  1.00  0.00     0.067 A 
ATOM      9  C   UNL A   1      31.795  28.707  27.330  1.00  0.00     0.029 A 
ATOM     10  C   UNL A   1      32.831  29.349  25.229  1.00  0.00     0.029 A 
ATOM     11  C   UNL A   1      31.532  27.443  26.792  1.00  0.00     0.016 A 
ATOM     12  C   UNL A   1      32.646  28.057  24.741  1.00  0.00     0.016 A 
BRANCH   8  13
ATOM     13  N   UNL A   1      32.384  31.018  26.903  1.00  0.00    -0.217 N 
ATOM     14  C   UNL A   1      32.889  32.942  27.772  1.00  0.00     0.132 A 
ATOM     15  N   UNL A   1      31.700  33.056  27.097  1.00  0.00    -0.128 NA
ATOM     16  C   UNL A   1      33.368  31.654  27.637  1.00  0.00     0.071 A 
ATOM     17  N   UNL A   1      31.444  31.896  26.506  1.00  0.00    -0.061 NA
ATOM     18  C   UNL A   1      34.663  31.039  28.009  1.00  0.00     0.069 C 
BRANCH  14  19
ATOM     19  C   UNL A   1      33.579  34.095  28.324  1.00  0.00     0.087 C 
ATOM     20  C   UNL A   1      34.919  34.407  27.712  1.00  0.00     0.071 C 
ATOM     21  N   UNL A   1      32.937  34.749  29.245  1.00  0.00    -0.176 NA
BRANCH  21  22
ATOM     22  N   UNL A   1      33.415  35.907  29.787  1.00  0.00    -0.254 N 
ATOM     23  H   UNL A   1      34.128  36.350  29.272  1.00  0.00     0.193 HD
BRANCH  22  24
ATOM     24  C   UNL A   1      33.043  36.548  30.952  1.00  0.00     0.184 C 
ATOM     25  S   UNL A   1      32.214  35.967  32.270  1.00  0.00    -0.040 S 
BRANCH  24  26
ATOM     26  N   UNL A   1      33.441  37.858  30.964  1.00  0.00    -0.375 N 
ATOM     27  H   UNL A   1      34.128  38.170  30.330  1.00  0.00     0.159 HD
ATOM     28  H   UNL A   1      33.042  38.489  31.606  1.00  0.00     0.159 HD
ENDBRANCH  24  26
ENDBRANCH  22  24
ENDBRANCH  21  22
ENDBRANCH  14  19
ENDBRANCH   8  13
ENDBRANCH   4   7
ENDBRANCH   2   3
ENDBRANCH   1   2
BRANCH   1  29
ATOM     29  C   UNL A   1      34.163  22.909  24.062  1.00  0.00     0.002 C 
BRANCH  29  30
ATOM     30  C   UNL A   1      35.659  23.084  23.747  1.00  0.00     0.002 C 
BRANCH  30  31
ATOM     31  C   UNL A   1      36.636  22.183  24.518  1.00  0.00     0.021 C 
BRANCH  31  32
ATOM     32  C   UNL A   1      37.621  22.945  25.389  1.00  0.00     0.116 C 
BRANCH  32  33
ATOM     33  N   UNL A   1      38.517  22.055  26.139  1.00  0.00    -0.352 N 
ATOM     34  C   UNL A   1      39.682  22.358  26.815  1.00  0.00     0.251 C 
ATOM     35  H   UNL A   1      38.247  21.109  26.164  1.00  0.00     0.163 HD
ATOM     36  O   UNL A   1      40.512  21.482  27.066  1.00  0.00    -0.269 OA
BRANCH  34  37
ATOM     37  C   UNL A   1      39.916  23.742  27.251  1.00  0.00     0.039 A 
ATOM     38  C   UNL A   1      38.946  24.743  27.160  1.00  0.00     0.014 A 
ATOM     39  C   UNL A   1      41.165  24.018  27.790  1.00  0.00     0.014 A 
ATOM     40  C   UNL A   1      39.247  26.006  27.669  1.00  0.00     0.010 A 
ATOM     41  C   UNL A   1      41.347  25.146  28.527  1.00  0.00     0.010 A 
ATOM     42  C   UNL A   1      40.456  26.190  28.357  1.00  0.00    -0.014 A 
BRANCH  42  43
ATOM     43  C   UNL A   1      40.820  27.445  28.991  1.00  0.00     0.031 A 
ATOM     44  C   UNL A   1      41.946  28.141  28.328  1.00  0.00     0.074 A 
ATOM     45  C   UNL A   1      40.036  28.040  29.920  1.00  0.00     0.049 A 
ATOM     46  N   UNL A   1      43.148  28.285  28.771  1.00  0.00    -0.248 NA
ATOM     47  C   UNL A   1      41.766  28.571  26.932  1.00  0.00     0.031 C 
ATOM     48  C   UNL A   1      38.713  27.627  30.410  1.00  0.00     0.029 A 
ATOM     49  N   UNL A   1      40.225  29.223  30.561  1.00  0.00    -0.354 N 
ATOM     50  C   UNL A   1      43.810  29.042  27.810  1.00  0.00     0.074 A 
ATOM     51  C   UNL A   1      42.998  28.983  26.625  1.00  0.00     0.031 C 
ATOM     52  C   UNL A   1      38.135  28.645  31.085  1.00  0.00     0.029 A 
ATOM     53  C   UNL A   1      39.105  29.712  31.229  1.00  0.00     0.049 A 
ATOM     54  H   UNL A   1      41.087  29.699  30.554  1.00  0.00     0.167 HD
ATOM     55  C   UNL A   1      44.813  29.888  28.169  1.00  0.00     0.037 A 
ATOM     56  C   UNL A   1      38.993  30.921  31.835  1.00  0.00     0.037 A 
ATOM     57  C   UNL A   1      45.285  29.588  29.501  1.00  0.00     0.049 A 
ATOM     58  C   UNL A   1      40.373  31.420  32.061  1.00  0.00     0.074 A 
ATOM     59  C   UNL A   1      45.818  28.472  30.117  1.00  0.00     0.029 A 
ATOM     60  N   UNL A   1      44.856  30.404  30.523  1.00  0.00    -0.354 N 
ATOM     61  N   UNL A   1      41.214  30.869  32.893  1.00  0.00    -0.248 NA
ATOM     62  C   UNL A   1      40.970  32.230  31.011  1.00  0.00     0.031 C 
ATOM     63  C   UNL A   1      45.240  28.458  31.422  1.00  0.00     0.029 A 
ATOM     64  C   UNL A   1      44.454  29.602  31.558  1.00  0.00     0.049 A 
ATOM     65  H   UNL A   1      44.842  31.388  30.511  1.00  0.00     0.167 HD
ATOM     66  C   UNL A   1      42.432  30.893  32.229  1.00  0.00     0.074 A 
ATOM     67  C   UNL A   1      42.236  31.814  31.110  1.00  0.00     0.031 C 
ATOM     68  C   UNL A   1      43.382  29.942  32.469  1.00  0.00     0.037 A 
BRANCH  55  69
ATOM     69  C   UNL A   1      45.077  31.222  27.511  1.00  0.00     0.057 A 
ATOM     70  C   UNL A   1      46.342  31.455  26.941  1.00  0.00     0.134 A 
ATOM     71  C   UNL A   1      44.276  32.373  27.665  1.00  0.00     0.134 A 
ATOM     72  F   UNL A   1      47.203  30.445  26.741  1.00  0.00    -0.206 F 
ATOM     73  C   UNL A   1      46.808  32.740  26.639  1.00  0.00     0.040 A 
ATOM     74  C   UNL A   1      44.711  33.655  27.318  1.00  0.00     0.040 A 
ATOM     75  F   UNL A   1      43.074  32.349  28.250  1.00  0.00    -0.206 F 
ATOM     76  C   UNL A   1      45.995  33.847  26.838  1.00  0.00     0.006 A 
ENDBRANCH  55  69
BRANCH  56  77
ATOM     77  C   UNL A   1      37.808  31.803  31.950  1.00  0.00     0.057 A 
ATOM     78  C   UNL A   1      37.248  32.418  30.820  1.00  0.00     0.134 A 
ATOM     79  C   UNL A   1      37.024  31.830  33.117  1.00  0.00     0.134 A 
ATOM     80  F   UNL A   1      37.901  32.410  29.648  1.00  0.00    -0.206 F 
ATOM     81  C   UNL A   1      35.971  32.995  30.840  1.00  0.00     0.040 A 
ATOM     82  C   UNL A   1      35.750  32.407  33.151  1.00  0.00     0.040 A 
ATOM     83  F   UNL A   1      37.430  31.213  34.237  1.00  0.00    -0.206 F 
ATOM     84  C   UNL A   1      35.211  32.979  32.005  1.00  0.00     0.006 A 
ENDBRANCH  56  77
BRANCH  68  85
ATOM     85  C   UNL A   1      43.182  29.024  33.646  1.00  0.00     0.057 A 
ATOM     86  C   UNL A   1      43.490  29.359  34.975  1.00  0.00     0.134 A 
ATOM     87  C   UNL A   1      42.507  27.816  33.445  1.00  0.00     0.134 A 
ATOM     88  F   UNL A   1      44.051  30.533  35.285  1.00  0.00    -0.206 F 
ATOM     89  C   UNL A   1      43.171  28.514  36.044  1.00  0.00     0.040 A 
ATOM     90  C   UNL A   1      42.153  26.979  34.505  1.00  0.00     0.040 A 
ATOM     91  F   UNL A   1      42.132  27.452  32.208  1.00  0.00    -0.206 F 
ATOM     92  C   UNL A   1      42.493  27.323  35.811  1.00  0.00     0.006 A 
ENDBRANCH  68  85
ENDBRANCH  42  43
ENDBRANCH  34  37
ENDBRANCH  32  33
ENDBRANCH  31  32
ENDBRANCH  30  31
ENDBRANCH  29  30
ENDBRANCH   1  29
TORSDOF 18
ENDMDL
