MODEL 1
REMARK VINA RESULT:     -11.6      0.000      0.000
REMARK SMILES O=C(NCCCCCCNC(=O)c1cc(=O)[nH]c2c(Br)cccc12)c1ccc(-c2c3nc(c(-c4c(F)cccc4F)c4ccc([nH]4)c(-c4c(F)cccc4F)c4nc(c(-c5c(F)cccc5F)c5ccc2[nH]5)C=C4)C=C3)cc1
REMARK SMILES IDX 5 1 4 2 3 3 1 4 2 5 25 7 26 8 78 9 27 10 77 11 28 12 29 13
REMARK SMILES IDX 30 14 71 15 31 16 76 17 70 18 72 19 32 20 75 21 69 22 68 23
REMARK SMILES IDX 33 25 59 26 42 27 58 28 43 29 46 30 57 31 73 32 44 33 45 34
REMARK SMILES IDX 56 36 74 37 47 38 34 39 35 40 40 41 36 42 37 43 39 44 41 45
REMARK SMILES IDX 38 46 60 47 61 48 66 49 62 50 63 51 65 52 67 53 64 54 48 55
REMARK SMILES IDX 49 56 54 57 50 58 51 59 53 60 55 61 52 62 6 63 7 64 8 65
REMARK SMILES IDX 9 66 10 67 11 68 12 70 13 71 14 72 24 73 15 74 18 75 23 76
REMARK SMILES IDX 16 77 17 78 19 79 22 80 20 82 21 83
REMARK H PARENT 3 6 72 24 46 35 10 69 17 81
REMARK Flexibility Score: inf
ROOT
ATOM      1  C   UNL A   1      38.071  19.995  24.979  1.00  0.00     0.021 C 
ENDROOT
BRANCH   1   2
ATOM      2  C   UNL A   1      39.086  20.157  26.106  1.00  0.00     0.116 C 
BRANCH   2   3
ATOM      3  N   UNL A   1      40.162  19.185  26.022  1.00  0.00    -0.352 N 
ATOM      4  O   UNL A   1      42.276  18.447  25.814  1.00  0.00    -0.269 OA
ATOM      5  C   UNL A   1      41.518  19.376  26.080  1.00  0.00     0.251 C 
ATOM      6  H   UNL A   1      39.874  18.251  25.905  1.00  0.00     0.163 HD
BRANCH   5   7
ATOM      7  C   UNL A   1      42.080  20.692  26.457  1.00  0.00     0.039 A 
ATOM      8  C   UNL A   1      42.222  20.995  27.814  1.00  0.00     0.014 A 
ATOM      9  C   UNL A   1      42.397  21.650  25.489  1.00  0.00     0.014 A 
ATOM     10  C   UNL A   1      42.695  22.250  28.203  1.00  0.00     0.010 A 
ATOM     11  C   UNL A   1      42.928  22.879  25.876  1.00  0.00     0.010 A 
ATOM     12  C   UNL A   1      43.055  23.200  27.236  1.00  0.00    -0.014 A 
BRANCH  12  13
ATOM     13  C   UNL A   1      43.494  24.561  27.628  1.00  0.00     0.031 A 
ATOM     14  C   UNL A   1      42.470  25.590  28.020  1.00  0.00     0.074 A 
ATOM     15  C   UNL A   1      44.799  24.889  27.593  1.00  0.00     0.049 A 
ATOM     16  N   UNL A   1      42.635  26.852  28.325  1.00  0.00    -0.248 NA
ATOM     17  C   UNL A   1      41.069  25.142  28.050  1.00  0.00     0.031 C 
ATOM     18  C   UNL A   1      45.886  23.991  27.207  1.00  0.00     0.029 A 
ATOM     19  N   UNL A   1      45.427  26.075  27.878  1.00  0.00    -0.354 N 
ATOM     20  C   UNL A   1      41.360  27.352  28.564  1.00  0.00     0.074 A 
ATOM     21  C   UNL A   1      40.431  26.270  28.317  1.00  0.00     0.031 C 
ATOM     22  C   UNL A   1      47.051  24.655  27.288  1.00  0.00     0.029 A 
ATOM     23  C   UNL A   1      46.787  26.031  27.699  1.00  0.00     0.049 A 
ATOM     24  H   UNL A   1      44.948  26.880  28.181  1.00  0.00     0.167 HD
ATOM     25  C   UNL A   1      40.997  28.591  28.973  1.00  0.00     0.037 A 
ATOM     26  C   UNL A   1      47.714  26.998  27.838  1.00  0.00     0.037 A 
ATOM     27  C   UNL A   1      41.925  29.659  29.238  1.00  0.00     0.049 A 
ATOM     28  C   UNL A   1      47.288  28.373  28.265  1.00  0.00     0.074 A 
ATOM     29  C   UNL A   1      41.665  30.930  29.721  1.00  0.00     0.029 A 
ATOM     30  N   UNL A   1      43.294  29.581  29.031  1.00  0.00    -0.354 N 
ATOM     31  N   UNL A   1      46.086  28.818  28.544  1.00  0.00    -0.248 NA
ATOM     32  C   UNL A   1      48.349  29.383  28.396  1.00  0.00     0.031 C 
ATOM     33  C   UNL A   1      42.875  31.635  29.764  1.00  0.00     0.029 A 
ATOM     34  C   UNL A   1      43.891  30.792  29.346  1.00  0.00     0.049 A 
ATOM     35  H   UNL A   1      43.772  28.784  28.710  1.00  0.00     0.167 HD
ATOM     36  C   UNL A   1      46.245  30.154  28.888  1.00  0.00     0.074 A 
ATOM     37  C   UNL A   1      47.664  30.440  28.807  1.00  0.00     0.031 C 
ATOM     38  C   UNL A   1      45.302  31.064  29.235  1.00  0.00     0.037 A 
BRANCH  25  39
ATOM     39  C   UNL A   1      39.527  28.847  29.145  1.00  0.00     0.057 A 
ATOM     40  C   UNL A   1      38.906  28.644  30.383  1.00  0.00     0.134 A 
ATOM     41  C   UNL A   1      38.730  29.315  28.092  1.00  0.00     0.134 A 
ATOM     42  F   UNL A   1      39.609  28.191  31.432  1.00  0.00    -0.206 F 
ATOM     43  C   UNL A   1      37.549  28.911  30.571  1.00  0.00     0.040 A 
ATOM     44  C   UNL A   1      37.379  29.614  28.275  1.00  0.00     0.040 A 
ATOM     45  F   UNL A   1      39.266  29.547  26.883  1.00  0.00    -0.206 F 
ATOM     46  C   UNL A   1      36.784  29.409  29.519  1.00  0.00     0.006 A 
ENDBRANCH  25  39
BRANCH  26  47
ATOM     47  C   UNL A   1      49.141  26.691  27.570  1.00  0.00     0.057 A 
ATOM     48  C   UNL A   1      49.989  26.227  28.582  1.00  0.00     0.134 A 
ATOM     49  C   UNL A   1      49.690  26.869  26.296  1.00  0.00     0.134 A 
ATOM     50  F   UNL A   1      49.521  26.039  29.825  1.00  0.00    -0.206 F 
ATOM     51  C   UNL A   1      51.337  25.962  28.340  1.00  0.00     0.040 A 
ATOM     52  C   UNL A   1      51.032  26.589  26.035  1.00  0.00     0.040 A 
ATOM     53  F   UNL A   1      48.920  27.293  25.283  1.00  0.00    -0.206 F 
ATOM     54  C   UNL A   1      51.861  26.139  27.061  1.00  0.00     0.006 A 
ENDBRANCH  26  47
BRANCH  38  55
ATOM     55  C   UNL A   1      45.780  32.453  29.544  1.00  0.00     0.057 A 
ATOM     56  C   UNL A   1      45.843  33.431  28.544  1.00  0.00     0.134 A 
ATOM     57  C   UNL A   1      46.191  32.818  30.833  1.00  0.00     0.134 A 
ATOM     58  F   UNL A   1      45.469  33.146  27.288  1.00  0.00    -0.206 F 
ATOM     59  C   UNL A   1      46.299  34.721  28.815  1.00  0.00     0.040 A 
ATOM     60  C   UNL A   1      46.626  34.112  31.121  1.00  0.00     0.040 A 
ATOM     61  F   UNL A   1      46.139  31.931  31.839  1.00  0.00    -0.206 F 
ATOM     62  C   UNL A   1      46.686  35.067  30.107  1.00  0.00     0.006 A 
ENDBRANCH  38  55
ENDBRANCH  12  13
ENDBRANCH   5   7
ENDBRANCH   2   3
ENDBRANCH   1   2
BRANCH   1  63
ATOM     63  C   UNL A   1      37.413  21.292  24.502  1.00  0.00     0.002 C 
BRANCH  63  64
ATOM     64  C   UNL A   1      35.913  21.415  24.784  1.00  0.00     0.002 C 
BRANCH  64  65
ATOM     65  C   UNL A   1      35.539  22.143  26.079  1.00  0.00     0.021 C 
BRANCH  65  66
ATOM     66  C   UNL A   1      34.392  21.518  26.871  1.00  0.00     0.116 C 
BRANCH  66  67
ATOM     67  N   UNL A   1      33.682  20.507  26.105  1.00  0.00    -0.352 N 
ATOM     68  C   UNL A   1      32.508  20.604  25.419  1.00  0.00     0.252 C 
ATOM     69  H   UNL A   1      34.113  19.622  26.079  1.00  0.00     0.163 HD
ATOM     70  O   UNL A   1      32.014  19.608  24.897  1.00  0.00    -0.269 OA
BRANCH  68  71
ATOM     71  C   UNL A   1      31.834  21.923  25.342  1.00  0.00     0.054 A 
ATOM     72  C   UNL A   1      31.052  22.252  26.383  1.00  0.00     0.086 A 
ATOM     73  C   UNL A   1      32.051  22.878  24.241  1.00  0.00     0.012 A 
ATOM     74  C   UNL A   1      30.311  23.526  26.405  1.00  0.00     0.249 A 
ATOM     75  C   UNL A   1      31.366  24.104  24.274  1.00  0.00     0.063 A 
ATOM     76  C   UNL A   1      32.905  22.608  23.163  1.00  0.00     0.011 A 
ATOM     77  O   UNL A   1      29.544  23.784  27.327  1.00  0.00    -0.270 OA
ATOM     78  N   UNL A   1      30.510  24.373  25.356  1.00  0.00    -0.321 N 
ATOM     79  C   UNL A   1      31.538  25.039  23.245  1.00  0.00     0.042 A 
ATOM     80  C   UNL A   1      33.078  23.544  22.141  1.00  0.00     0.002 A 
ATOM     81  H   UNL A   1      30.023  25.229  25.356  1.00  0.00     0.170 HD
ATOM     82  Br  UNL A   1      30.630  26.706  23.258  1.00  0.00    -0.049 Br
ATOM     83  C   UNL A   1      32.395  24.760  22.180  1.00  0.00     0.018 A 
ENDBRANCH  68  71
ENDBRANCH  66  67
ENDBRANCH  65  66
ENDBRANCH  64  65
ENDBRANCH  63  64
ENDBRANCH   1  63
TORSDOF 13
ENDMDL
MODEL 2
REMARK VINA RESULT:     -11.6      2.681      7.348
REMARK SMILES O=C(NCCCCCCNC(=O)c1cc(=O)[nH]c2c(Br)cccc12)c1ccc(-c2c3nc(c(-c4c(F)cccc4F)c4ccc([nH]4)c(-c4c(F)cccc4F)c4nc(c(-c5c(F)cccc5F)c5ccc2[nH]5)C=C4)C=C3)cc1
REMARK SMILES IDX 5 1 4 2 3 3 1 4 2 5 25 7 26 8 78 9 27 10 77 11 28 12 29 13
REMARK SMILES IDX 30 14 71 15 31 16 76 17 70 18 72 19 32 20 75 21 69 22 68 23
REMARK SMILES IDX 33 25 59 26 42 27 58 28 43 29 46 30 57 31 73 32 44 33 45 34
REMARK SMILES IDX 56 36 74 37 47 38 34 39 35 40 40 41 36 42 37 43 39 44 41 45
REMARK SMILES IDX 38 46 60 47 61 48 66 49 62 50 63 51 65 52 67 53 64 54 48 55
REMARK SMILES IDX 49 56 54 57 50 58 51 59 53 60 55 61 52 62 6 63 7 64 8 65
REMARK SMILES IDX 9 66 10 67 11 68 12 70 13 71 14 72 24 73 15 74 18 75 23 76
REMARK SMILES IDX 16 77 17 78 19 79 22 80 20 82 21 83
REMARK H PARENT 3 6 72 24 46 35 10 69 17 81
REMARK Flexibility Score: inf
ROOT
ATOM      1  C   UNL A   1      33.526  28.605  25.591  1.00  0.00     0.021 C 
ENDROOT
BRANCH   1   2
ATOM      2  C   UNL A   1      33.745  28.634  27.100  1.00  0.00     0.116 C 
BRANCH   2   3
ATOM      3  N   UNL A   1      33.707  29.983  27.636  1.00  0.00    -0.352 N 
ATOM      4  O   UNL A   1      34.378  31.745  28.862  1.00  0.00    -0.269 OA
ATOM      5  C   UNL A   1      34.661  30.670  28.340  1.00  0.00     0.251 C 
ATOM      6  H   UNL A   1      32.872  30.477  27.469  1.00  0.00     0.163 HD
BRANCH   5   7
ATOM      7  C   UNL A   1      36.031  30.129  28.482  1.00  0.00     0.039 A 
ATOM      8  C   UNL A   1      36.402  29.558  29.703  1.00  0.00     0.014 A 
ATOM      9  C   UNL A   1      36.968  30.244  27.450  1.00  0.00     0.014 A 
ATOM     10  C   UNL A   1      37.705  29.090  29.887  1.00  0.00     0.010 A 
ATOM     11  C   UNL A   1      38.249  29.721  27.613  1.00  0.00     0.010 A 
ATOM     12  C   UNL A   1      38.637  29.164  28.842  1.00  0.00    -0.014 A 
BRANCH  12  13
ATOM     13  C   UNL A   1      40.043  28.737  29.039  1.00  0.00     0.031 A 
ATOM     14  C   UNL A   1      41.034  29.692  29.645  1.00  0.00     0.074 A 
ATOM     15  C   UNL A   1      40.442  27.515  28.641  1.00  0.00     0.049 A 
ATOM     16  N   UNL A   1      42.321  29.543  29.836  1.00  0.00    -0.248 NA
ATOM     17  C   UNL A   1      40.510  30.999  30.070  1.00  0.00     0.031 C 
ATOM     18  C   UNL A   1      39.585  26.507  28.019  1.00  0.00     0.029 A 
ATOM     19  N   UNL A   1      41.678  26.921  28.692  1.00  0.00    -0.354 N 
ATOM     20  C   UNL A   1      42.760  30.742  30.385  1.00  0.00     0.074 A 
ATOM     21  C   UNL A   1      41.614  31.624  30.446  1.00  0.00     0.031 C 
ATOM     22  C   UNL A   1      40.319  25.413  27.754  1.00  0.00     0.029 A 
ATOM     23  C   UNL A   1      41.701  25.657  28.158  1.00  0.00     0.049 A 
ATOM     24  H   UNL A   1      42.471  27.359  29.076  1.00  0.00     0.167 HD
ATOM     25  C   UNL A   1      44.000  31.072  30.820  1.00  0.00     0.037 A 
ATOM     26  C   UNL A   1      42.726  24.799  27.999  1.00  0.00     0.037 A 
ATOM     27  C   UNL A   1      45.134  30.187  30.778  1.00  0.00     0.049 A 
ATOM     28  C   UNL A   1      44.099  25.195  28.461  1.00  0.00     0.074 A 
ATOM     29  C   UNL A   1      46.416  30.400  31.254  1.00  0.00     0.029 A 
ATOM     30  N   UNL A   1      45.122  28.919  30.215  1.00  0.00    -0.354 N 
ATOM     31  N   UNL A   1      44.491  26.308  29.032  1.00  0.00    -0.248 NA
ATOM     32  C   UNL A   1      45.174  24.212  28.257  1.00  0.00     0.031 C 
ATOM     33  C   UNL A   1      47.191  29.277  30.939  1.00  0.00     0.029 A 
ATOM     34  C   UNL A   1      46.382  28.349  30.303  1.00  0.00     0.049 A 
ATOM     35  H   UNL A   1      44.334  28.487  29.814  1.00  0.00     0.167 HD
ATOM     36  C   UNL A   1      45.853  26.161  29.259  1.00  0.00     0.074 A 
ATOM     37  C   UNL A   1      46.214  24.839  28.789  1.00  0.00     0.031 C 
ATOM     38  C   UNL A   1      46.728  27.041  29.806  1.00  0.00     0.037 A 
BRANCH  25  39
ATOM     39  C   UNL A   1      44.182  32.459  31.368  1.00  0.00     0.057 A 
ATOM     40  C   UNL A   1      44.520  33.522  30.523  1.00  0.00     0.134 A 
ATOM     41  C   UNL A   1      44.000  32.748  32.728  1.00  0.00     0.134 A 
ATOM     42  F   UNL A   1      44.715  33.315  29.212  1.00  0.00    -0.206 F 
ATOM     43  C   UNL A   1      44.657  34.824  31.006  1.00  0.00     0.040 A 
ATOM     44  C   UNL A   1      44.105  34.050  33.218  1.00  0.00     0.040 A 
ATOM     45  F   UNL A   1      43.658  31.778  33.589  1.00  0.00    -0.206 F 
ATOM     46  C   UNL A   1      44.437  35.093  32.356  1.00  0.00     0.006 A 
ENDBRANCH  25  39
BRANCH  26  47
ATOM     47  C   UNL A   1      42.485  23.475  27.372  1.00  0.00     0.057 A 
ATOM     48  C   UNL A   1      42.089  22.370  28.134  1.00  0.00     0.134 A 
ATOM     49  C   UNL A   1      42.660  23.286  25.997  1.00  0.00     0.134 A 
ATOM     50  F   UNL A   1      41.908  22.488  29.457  1.00  0.00    -0.206 F 
ATOM     51  C   UNL A   1      41.886  21.118  27.551  1.00  0.00     0.040 A 
ATOM     52  C   UNL A   1      42.442  22.044  25.399  1.00  0.00     0.040 A 
ATOM     53  F   UNL A   1      43.020  24.314  25.215  1.00  0.00    -0.206 F 
ATOM     54  C   UNL A   1      42.059  20.954  26.178  1.00  0.00     0.006 A 
ENDBRANCH  26  47
BRANCH  38  55
ATOM     55  C   UNL A   1      48.158  26.600  29.911  1.00  0.00     0.057 A 
ATOM     56  C   UNL A   1      48.611  25.889  31.028  1.00  0.00     0.134 A 
ATOM     57  C   UNL A   1      49.091  26.893  28.907  1.00  0.00     0.134 A 
ATOM     58  F   UNL A   1      47.770  25.581  32.027  1.00  0.00    -0.206 F 
ATOM     59  C   UNL A   1      49.942  25.485  31.144  1.00  0.00     0.040 A 
ATOM     60  C   UNL A   1      50.419  26.473  29.002  1.00  0.00     0.040 A 
ATOM     61  F   UNL A   1      48.716  27.557  27.804  1.00  0.00    -0.206 F 
ATOM     62  C   UNL A   1      50.848  25.772  30.126  1.00  0.00     0.006 A 
ENDBRANCH  38  55
ENDBRANCH  12  13
ENDBRANCH   5   7
ENDBRANCH   2   3
ENDBRANCH   1   2
BRANCH   1  63
ATOM     63  C   UNL A   1      33.783  27.253  24.920  1.00  0.00     0.002 C 
BRANCH  63  64
ATOM     64  C   UNL A   1      32.726  26.805  23.908  1.00  0.00     0.002 C 
BRANCH  64  65
ATOM     65  C   UNL A   1      32.950  25.425  23.281  1.00  0.00     0.021 C 
BRANCH  65  66
ATOM     66  C   UNL A   1      31.988  24.333  23.746  1.00  0.00     0.116 C 
BRANCH  66  67
ATOM     67  N   UNL A   1      31.674  24.443  25.160  1.00  0.00    -0.352 N 
ATOM     68  C   UNL A   1      32.013  23.616  26.191  1.00  0.00     0.252 C 
ATOM     69  H   UNL A   1      31.138  25.229  25.411  1.00  0.00     0.163 HD
ATOM     70  O   UNL A   1      31.580  23.829  27.319  1.00  0.00    -0.269 OA
BRANCH  68  71
ATOM     71  C   UNL A   1      32.886  22.450  25.912  1.00  0.00     0.054 A 
ATOM     72  C   UNL A   1      32.265  21.273  25.731  1.00  0.00     0.086 A 
ATOM     73  C   UNL A   1      34.347  22.555  25.755  1.00  0.00     0.012 A 
ATOM     74  C   UNL A   1      33.032  20.041  25.474  1.00  0.00     0.249 A 
ATOM     75  C   UNL A   1      35.076  21.385  25.483  1.00  0.00     0.063 A 
ATOM     76  C   UNL A   1      35.035  23.770  25.872  1.00  0.00     0.011 A 
ATOM     77  O   UNL A   1      32.458  18.959  25.382  1.00  0.00    -0.270 OA
ATOM     78  N   UNL A   1      34.384  20.167  25.366  1.00  0.00    -0.321 N 
ATOM     79  C   UNL A   1      36.467  21.437  25.332  1.00  0.00     0.042 A 
ATOM     80  C   UNL A   1      36.423  23.819  25.716  1.00  0.00     0.002 A 
ATOM     81  H   UNL A   1      34.910  19.353  25.193  1.00  0.00     0.170 HD
ATOM     82  Br  UNL A   1      37.484  19.877  24.963  1.00  0.00    -0.049 Br
ATOM     83  C   UNL A   1      37.140  22.654  25.446  1.00  0.00     0.018 A 
ENDBRANCH  68  71
ENDBRANCH  66  67
ENDBRANCH  65  66
ENDBRANCH  64  65
ENDBRANCH  63  64
ENDBRANCH   1  63
TORSDOF 13
ENDMDL
MODEL 3
REMARK VINA RESULT:     -11.5      0.384      6.356
REMARK SMILES O=C(NCCCCCCNC(=O)c1cc(=O)[nH]c2c(Br)cccc12)c1ccc(-c2c3nc(c(-c4c(F)cccc4F)c4ccc([nH]4)c(-c4c(F)cccc4F)c4nc(c(-c5c(F)cccc5F)c5ccc2[nH]5)C=C4)C=C3)cc1
REMARK SMILES IDX 5 1 4 2 3 3 1 4 2 5 25 7 26 8 78 9 27 10 77 11 28 12 29 13
REMARK SMILES IDX 30 14 71 15 31 16 76 17 70 18 72 19 32 20 75 21 69 22 68 23
REMARK SMILES IDX 33 25 59 26 42 27 58 28 43 29 46 30 57 31 73 32 44 33 45 34
REMARK SMILES IDX 56 36 74 37 47 38 34 39 35 40 40 41 36 42 37 43 39 44 41 45
REMARK SMILES IDX 38 46 60 47 61 48 66 49 62 50 63 51 65 52 67 53 64 54 48 55
REMARK SMILES IDX 49 56 54 57 50 58 51 59 53 60 55 61 52 62 6 63 7 64 8 65
REMARK SMILES IDX 9 66 10 67 11 68 12 70 13 71 14 72 24 73 15 74 18 75 23 76
REMARK SMILES IDX 16 77 17 78 19 79 22 80 20 82 21 83
REMARK H PARENT 3 6 72 24 46 35 10 69 17 81
REMARK Flexibility Score: inf
ROOT
ATOM      1  C   UNL A   1      38.345  20.004  24.814  1.00  0.00     0.021 C 
ENDROOT
BRANCH   1   2
ATOM      2  C   UNL A   1      39.110  19.887  26.127  1.00  0.00     0.116 C 
BRANCH   2   3
ATOM      3  N   UNL A   1      40.265  19.013  26.016  1.00  0.00    -0.352 N 
ATOM      4  O   UNL A   1      42.428  18.461  25.741  1.00  0.00    -0.269 OA
ATOM      5  C   UNL A   1      41.600  19.324  26.024  1.00  0.00     0.251 C 
ATOM      6  H   UNL A   1      40.057  18.055  25.920  1.00  0.00     0.163 HD
BRANCH   5   7
ATOM      7  C   UNL A   1      42.055  20.689  26.365  1.00  0.00     0.039 A 
ATOM      8  C   UNL A   1      42.231  21.019  27.713  1.00  0.00     0.014 A 
ATOM      9  C   UNL A   1      42.240  21.662  25.377  1.00  0.00     0.014 A 
ATOM     10  C   UNL A   1      42.604  22.316  28.070  1.00  0.00     0.010 A 
ATOM     11  C   UNL A   1      42.672  22.938  25.731  1.00  0.00     0.010 A 
ATOM     12  C   UNL A   1      42.832  23.284  27.082  1.00  0.00    -0.014 A 
BRANCH  12  13
ATOM     13  C   UNL A   1      43.161  24.684  27.443  1.00  0.00     0.031 A 
ATOM     14  C   UNL A   1      44.591  25.148  27.401  1.00  0.00     0.074 A 
ATOM     15  C   UNL A   1      42.192  25.526  27.846  1.00  0.00     0.049 A 
ATOM     16  N   UNL A   1      45.100  26.303  27.746  1.00  0.00    -0.248 NA
ATOM     17  C   UNL A   1      45.584  24.169  26.931  1.00  0.00     0.031 C 
ATOM     18  C   UNL A   1      40.773  25.192  27.953  1.00  0.00     0.029 A 
ATOM     19  N   UNL A   1      42.261  26.835  28.252  1.00  0.00    -0.354 N 
ATOM     20  C   UNL A   1      46.471  26.184  27.551  1.00  0.00     0.074 A 
ATOM     21  C   UNL A   1      46.718  24.827  27.109  1.00  0.00     0.031 C 
ATOM     22  C   UNL A   1      40.102  26.272  28.387  1.00  0.00     0.029 A 
ATOM     23  C   UNL A   1      41.048  27.360  28.618  1.00  0.00     0.049 A 
ATOM     24  H   UNL A   1      43.101  27.348  28.277  1.00  0.00     0.167 HD
ATOM     25  C   UNL A   1      47.435  27.123  27.704  1.00  0.00     0.037 A 
ATOM     26  C   UNL A   1      40.737  28.578  29.101  1.00  0.00     0.037 A 
ATOM     27  C   UNL A   1      47.186  28.477  28.123  1.00  0.00     0.049 A 
ATOM     28  C   UNL A   1      41.824  29.596  29.291  1.00  0.00     0.074 A 
ATOM     29  C   UNL A   1      48.083  29.524  28.244  1.00  0.00     0.029 A 
ATOM     30  N   UNL A   1      45.944  28.967  28.500  1.00  0.00    -0.354 N 
ATOM     31  N   UNL A   1      43.109  29.490  29.048  1.00  0.00    -0.248 NA
ATOM     32  C   UNL A   1      41.418  30.906  29.822  1.00  0.00     0.031 C 
ATOM     33  C   UNL A   1      47.390  30.637  28.738  1.00  0.00     0.029 A 
ATOM     34  C   UNL A   1      46.056  30.294  28.885  1.00  0.00     0.049 A 
ATOM     35  H   UNL A   1      45.107  28.450  28.494  1.00  0.00     0.167 HD
ATOM     36  C   UNL A   1      43.663  30.716  29.391  1.00  0.00     0.074 A 
ATOM     37  C   UNL A   1      42.571  31.559  29.835  1.00  0.00     0.031 C 
ATOM     38  C   UNL A   1      44.960  31.109  29.348  1.00  0.00     0.037 A 
BRANCH  25  39
ATOM     39  C   UNL A   1      48.849  26.699  27.422  1.00  0.00     0.057 A 
ATOM     40  C   UNL A   1      49.661  26.198  28.446  1.00  0.00     0.134 A 
ATOM     41  C   UNL A   1      49.399  26.764  26.135  1.00  0.00     0.134 A 
ATOM     42  F   UNL A   1      49.200  26.114  29.703  1.00  0.00    -0.206 F 
ATOM     43  C   UNL A   1      50.965  25.764  28.197  1.00  0.00     0.040 A 
ATOM     44  C   UNL A   1      50.690  26.306  25.868  1.00  0.00     0.040 A 
ATOM     45  F   UNL A   1      48.668  27.218  25.105  1.00  0.00    -0.206 F 
ATOM     46  C   UNL A   1      51.478  25.806  26.903  1.00  0.00     0.006 A 
ENDBRANCH  25  39
BRANCH  26  47
ATOM     47  C   UNL A   1      39.327  28.898  29.435  1.00  0.00     0.057 A 
ATOM     48  C   UNL A   1      38.461  29.453  28.487  1.00  0.00     0.134 A 
ATOM     49  C   UNL A   1      38.820  28.666  30.718  1.00  0.00     0.134 A 
ATOM     50  F   UNL A   1      38.890  29.702  27.240  1.00  0.00    -0.206 F 
ATOM     51  C   UNL A   1      37.142  29.778  28.805  1.00  0.00     0.040 A 
ATOM     52  C   UNL A   1      37.497  28.968  31.045  1.00  0.00     0.040 A 
ATOM     53  F   UNL A   1      39.599  28.117  31.662  1.00  0.00    -0.206 F 
ATOM     54  C   UNL A   1      36.656  29.532  30.088  1.00  0.00     0.006 A 
ENDBRANCH  26  47
BRANCH  38  55
ATOM     55  C   UNL A   1      45.262  32.508  29.801  1.00  0.00     0.057 A 
ATOM     56  C   UNL A   1      45.607  32.774  31.131  1.00  0.00     0.134 A 
ATOM     57  C   UNL A   1      45.198  33.594  28.918  1.00  0.00     0.134 A 
ATOM     58  F   UNL A   1      45.681  31.780  32.028  1.00  0.00    -0.206 F 
ATOM     59  C   UNL A   1      45.875  34.072  31.568  1.00  0.00     0.040 A 
ATOM     60  C   UNL A   1      45.488  34.893  29.338  1.00  0.00     0.040 A 
ATOM     61  F   UNL A   1      44.890  33.402  27.626  1.00  0.00    -0.206 F 
ATOM     62  C   UNL A   1      45.823  35.135  30.669  1.00  0.00     0.006 A 
ENDBRANCH  38  55
ENDBRANCH  12  13
ENDBRANCH   5   7
ENDBRANCH   2   3
ENDBRANCH   1   2
BRANCH   1  63
ATOM     63  C   UNL A   1      37.567  21.309  24.626  1.00  0.00     0.002 C 
BRANCH  63  64
ATOM     64  C   UNL A   1      36.061  21.226  24.889  1.00  0.00     0.002 C 
BRANCH  64  65
ATOM     65  C   UNL A   1      35.540  22.090  26.042  1.00  0.00     0.021 C 
BRANCH  65  66
ATOM     66  C   UNL A   1      34.439  21.455  26.889  1.00  0.00     0.116 C 
BRANCH  66  67
ATOM     67  N   UNL A   1      33.707  20.433  26.161  1.00  0.00    -0.352 N 
ATOM     68  C   UNL A   1      32.528  20.529  25.481  1.00  0.00     0.252 C 
ATOM     69  H   UNL A   1      34.122  19.540  26.159  1.00  0.00     0.163 HD
ATOM     70  O   UNL A   1      32.014  19.526  24.995  1.00  0.00    -0.269 OA
BRANCH  68  71
ATOM     71  C   UNL A   1      31.876  21.856  25.369  1.00  0.00     0.054 A 
ATOM     72  C   UNL A   1      31.058  22.203  26.377  1.00  0.00     0.086 A 
ATOM     73  C   UNL A   1      32.148  22.799  24.271  1.00  0.00     0.012 A 
ATOM     74  C   UNL A   1      30.335  23.487  26.360  1.00  0.00     0.249 A 
ATOM     75  C   UNL A   1      31.480  24.034  24.269  1.00  0.00     0.063 A 
ATOM     76  C   UNL A   1      33.040  22.510  23.229  1.00  0.00     0.011 A 
ATOM     77  O   UNL A   1      29.536  23.761  27.251  1.00  0.00    -0.270 OA
ATOM     78  N   UNL A   1      30.586  24.323  25.314  1.00  0.00    -0.321 N 
ATOM     79  C   UNL A   1      31.704  24.959  23.241  1.00  0.00     0.042 A 
ATOM     80  C   UNL A   1      33.266  23.436  22.208  1.00  0.00     0.002 A 
ATOM     81  H   UNL A   1      30.111  25.185  25.290  1.00  0.00     0.170 HD
ATOM     82  Br  UNL A   1      30.819  26.638  23.207  1.00  0.00    -0.049 Br
ATOM     83  C   UNL A   1      32.598  24.661  22.213  1.00  0.00     0.018 A 
ENDBRANCH  68  71
ENDBRANCH  66  67
ENDBRANCH  65  66
ENDBRANCH  64  65
ENDBRANCH  63  64
ENDBRANCH   1  63
TORSDOF 13
ENDMDL
