MODEL 1
REMARK VINA RESULT:     -13.3      0.000      0.000
REMARK SMILES Cn1cc(C[C@@H](NC(=O)OCC2c3ccccc3-c3ccccc32)C(=O)NCCCCCCNC(=O)c2ccc(-c3c4nc(c(-c5c(F)cccc5F)c5ccc([nH]5)c(-c5c(F)cccc5F)c5nc(c(-c6c(F)cccc6F)c6ccc3[nH]6)C=C5)C=C4)cc2)c2ccccc21
REMARK SMILES IDX 29 1 28 2 27 3 25 4 26 5 6 7 5 8 4 9 1 10 2 11 3 12 96 13
REMARK SMILES IDX 91 14 95 15 92 16 94 17 93 18 7 19 8 20 9 22 10 23 11 24
REMARK SMILES IDX 12 25 13 26 24 27 14 28 18 29 19 30 23 31 15 32 17 33 20 34
REMARK SMILES IDX 22 35 16 36 21 37 30 38 31 39 32 40 33 41 34 42 35 43 36 45
REMARK SMILES IDX 37 46 38 47 90 48 39 49 89 50 40 51 41 52 42 53 83 54 43 55
REMARK SMILES IDX 88 56 82 57 84 58 44 59 87 60 81 61 80 62 45 64 71 65 54 66
REMARK SMILES IDX 70 67 55 68 58 69 69 70 85 71 56 72 57 73 68 75 86 76 59 77
REMARK SMILES IDX 46 78 47 79 52 80 48 81 49 82 51 83 53 84 50 85 72 86 73 87
REMARK SMILES IDX 78 88 74 89 75 90 77 91 79 92 76 93 60 94 61 95 66 96 62 97
REMARK SMILES IDX 63 98 65 99 67 100 64 101
REMARK H PARENT 27 6 7 21 34 44 84 63 58 74
REMARK Flexibility Score: inf
ROOT
ATOM      1  C   UNL A   1      33.808  29.118  27.138  1.00  0.00     0.021 C 
ENDROOT
BRANCH   1   2
ATOM      2  C   UNL A   1      34.072  28.075  26.060  1.00  0.00     0.116 C 
BRANCH   2   3
ATOM      3  N   UNL A   1      34.356  28.692  24.777  1.00  0.00    -0.354 N 
ATOM      4  C   UNL A   1      33.888  28.389  23.527  1.00  0.00     0.243 C 
ATOM      5  O   UNL A   1      34.269  29.099  22.591  1.00  0.00    -0.273 OA
ATOM      6  H   UNL A   1      34.986  29.447  24.811  1.00  0.00     0.163 HD
BRANCH   4   7
ATOM      7  C   UNL A   1      33.023  27.136  23.269  1.00  0.00     0.179 C 
BRANCH   7   8
ATOM      8  C   UNL A   1      31.749  27.217  24.154  1.00  0.00     0.073 C 
BRANCH   8   9
ATOM      9  C   UNL A   1      30.611  28.056  23.633  1.00  0.00    -0.020 A 
ATOM     10  C   UNL A   1      29.253  30.782  21.661  1.00  0.00     0.149 C 
ATOM     11  N   UNL A   1      29.507  29.665  22.544  1.00  0.00    -0.350 N 
ATOM     12  C   UNL A   1      30.748  29.241  22.933  1.00  0.00     0.090 A 
ATOM     13  C   UNL A   1      28.536  28.828  23.049  1.00  0.00     0.048 A 
ATOM     14  C   UNL A   1      29.203  27.760  23.656  1.00  0.00     0.003 A 
ATOM     15  C   UNL A   1      27.135  28.904  22.988  1.00  0.00     0.027 A 
ATOM     16  C   UNL A   1      28.423  26.688  24.143  1.00  0.00     0.010 A 
ATOM     17  C   UNL A   1      26.393  27.865  23.556  1.00  0.00     0.002 A 
ATOM     18  C   UNL A   1      27.027  26.763  24.115  1.00  0.00     0.001 A 
ENDBRANCH   8   9
ENDBRANCH   7   8
BRANCH   7  19
ATOM     19  N   UNL A   1      32.742  26.785  21.875  1.00  0.00    -0.309 N 
ATOM     20  C   UNL A   1      32.807  25.596  21.227  1.00  0.00     0.407 C 
ATOM     21  H   UNL A   1      32.459  27.541  21.312  1.00  0.00     0.167 HD
ATOM     22  O   UNL A   1      33.210  25.546  20.066  1.00  0.00    -0.225 OA
BRANCH  20  23
ATOM     23  O   UNL A   1      32.360  24.533  21.938  1.00  0.00    -0.449 OA
BRANCH  23  24
ATOM     24  C   UNL A   1      33.211  23.363  21.905  1.00  0.00     0.248 C 
BRANCH  24  25
ATOM     25  C   UNL A   1      33.449  22.727  23.291  1.00  0.00     0.088 C 
ATOM     26  C   UNL A   1      34.834  23.038  23.850  1.00  0.00    -0.029 A 
ATOM     27  C   UNL A   1      32.546  23.266  24.393  1.00  0.00    -0.029 A 
ATOM     28  C   UNL A   1      36.070  22.644  23.358  1.00  0.00     0.005 A 
ATOM     29  C   UNL A   1      34.719  23.762  25.056  1.00  0.00    -0.014 A 
ATOM     30  C   UNL A   1      33.316  23.943  25.362  1.00  0.00    -0.014 A 
ATOM     31  C   UNL A   1      31.165  23.198  24.490  1.00  0.00     0.005 A 
ATOM     32  C   UNL A   1      37.209  22.995  24.085  1.00  0.00     0.000 A 
ATOM     33  C   UNL A   1      35.851  24.118  25.771  1.00  0.00     0.009 A 
ATOM     34  C   UNL A   1      32.697  24.630  26.393  1.00  0.00     0.009 A 
ATOM     35  C   UNL A   1      30.541  23.901  25.521  1.00  0.00     0.000 A 
ATOM     36  C   UNL A   1      37.101  23.729  25.278  1.00  0.00     0.001 A 
ATOM     37  C   UNL A   1      31.300  24.621  26.456  1.00  0.00     0.001 A 
ENDBRANCH  24  25
ENDBRANCH  23  24
ENDBRANCH  20  23
ENDBRANCH   7  19
ENDBRANCH   4   7
ENDBRANCH   2   3
ENDBRANCH   1   2
BRANCH   1  38
ATOM     38  C   UNL A   1      32.329  29.495  27.270  1.00  0.00     0.002 C 
BRANCH  38  39
ATOM     39  C   UNL A   1      31.811  30.489  26.222  1.00  0.00     0.002 C 
BRANCH  39  40
ATOM     40  C   UNL A   1      31.475  31.887  26.750  1.00  0.00     0.021 C 
BRANCH  40  41
ATOM     41  C   UNL A   1      32.662  32.670  27.305  1.00  0.00     0.116 C 
BRANCH  41  42
ATOM     42  N   UNL A   1      32.333  34.061  27.576  1.00  0.00    -0.352 N 
ATOM     43  C   UNL A   1      32.913  34.931  28.464  1.00  0.00     0.251 C 
ATOM     44  H   UNL A   1      31.589  34.430  27.047  1.00  0.00     0.163 HD
ATOM     45  O   UNL A   1      32.419  36.036  28.666  1.00  0.00    -0.269 OA
BRANCH  43  46
ATOM     46  C   UNL A   1      34.121  34.518  29.202  1.00  0.00     0.039 A 
ATOM     47  C   UNL A   1      33.978  34.011  30.497  1.00  0.00     0.014 A 
ATOM     48  C   UNL A   1      35.385  34.610  28.612  1.00  0.00     0.014 A 
ATOM     49  C   UNL A   1      35.095  33.517  31.171  1.00  0.00     0.010 A 
ATOM     50  C   UNL A   1      36.491  34.072  29.265  1.00  0.00     0.010 A 
ATOM     51  C   UNL A   1      36.350  33.506  30.542  1.00  0.00    -0.014 A 
BRANCH  51  52
ATOM     52  C   UNL A   1      37.522  32.859  31.180  1.00  0.00     0.031 A 
ATOM     53  C   UNL A   1      38.153  31.648  30.560  1.00  0.00     0.074 A 
ATOM     54  C   UNL A   1      37.958  33.320  32.368  1.00  0.00     0.049 A 
ATOM     55  N   UNL A   1      39.115  30.891  31.023  1.00  0.00    -0.248 NA
ATOM     56  C   UNL A   1      37.617  31.216  29.260  1.00  0.00     0.031 C 
ATOM     57  C   UNL A   1      37.398  34.463  33.090  1.00  0.00     0.029 A 
ATOM     58  N   UNL A   1      38.962  32.869  33.187  1.00  0.00    -0.354 N 
ATOM     59  C   UNL A   1      39.293  29.889  30.080  1.00  0.00     0.074 A 
ATOM     60  C   UNL A   1      38.317  30.112  29.036  1.00  0.00     0.031 C 
ATOM     61  C   UNL A   1      38.070  34.629  34.240  1.00  0.00     0.029 A 
ATOM     62  C   UNL A   1      39.082  33.584  34.353  1.00  0.00     0.049 A 
ATOM     63  H   UNL A   1      39.541  32.105  32.960  1.00  0.00     0.167 HD
ATOM     64  C   UNL A   1      40.200  28.884  30.080  1.00  0.00     0.037 A 
ATOM     65  C   UNL A   1      39.906  33.408  35.402  1.00  0.00     0.037 A 
ATOM     66  C   UNL A   1      41.187  28.679  31.108  1.00  0.00     0.049 A 
ATOM     67  C   UNL A   1      40.888  32.274  35.386  1.00  0.00     0.074 A 
ATOM     68  C   UNL A   1      42.202  27.739  31.155  1.00  0.00     0.029 A 
ATOM     69  N   UNL A   1      41.276  29.423  32.275  1.00  0.00    -0.354 N 
ATOM     70  N   UNL A   1      41.090  31.371  34.458  1.00  0.00    -0.248 NA
ATOM     71  C   UNL A   1      41.754  32.129  36.566  1.00  0.00     0.031 C 
ATOM     72  C   UNL A   1      42.883  27.890  32.368  1.00  0.00     0.029 A 
ATOM     73  C   UNL A   1      42.312  28.946  33.061  1.00  0.00     0.049 A 
ATOM     74  H   UNL A   1      40.691  30.179  32.509  1.00  0.00     0.167 HD
ATOM     75  C   UNL A   1      42.111  30.559  34.932  1.00  0.00     0.074 A 
ATOM     76  C   UNL A   1      42.498  31.085  36.226  1.00  0.00     0.031 C 
ATOM     77  C   UNL A   1      42.675  29.473  34.351  1.00  0.00     0.037 A 
BRANCH  64  78
ATOM     78  C   UNL A   1      40.171  27.930  28.926  1.00  0.00     0.057 A 
ATOM     79  C   UNL A   1      40.865  28.192  27.738  1.00  0.00     0.134 A 
ATOM     80  C   UNL A   1      39.474  26.719  29.017  1.00  0.00     0.134 A 
ATOM     81  F   UNL A   1      41.542  29.340  27.586  1.00  0.00    -0.206 F 
ATOM     82  C   UNL A   1      40.850  27.292  26.671  1.00  0.00     0.040 A 
ATOM     83  C   UNL A   1      39.468  25.801  27.964  1.00  0.00     0.040 A 
ATOM     84  F   UNL A   1      38.792  26.406  30.128  1.00  0.00    -0.206 F 
ATOM     85  C   UNL A   1      40.155  26.089  26.786  1.00  0.00     0.006 A 
ENDBRANCH  64  78
BRANCH  65  86
ATOM     86  C   UNL A   1      39.835  34.333  36.559  1.00  0.00     0.057 A 
ATOM     87  C   UNL A   1      40.560  35.528  36.568  1.00  0.00     0.134 A 
ATOM     88  C   UNL A   1      39.043  34.046  37.676  1.00  0.00     0.134 A 
ATOM     89  F   UNL A   1      41.351  35.845  35.533  1.00  0.00    -0.206 F 
ATOM     90  C   UNL A   1      40.509  36.405  37.652  1.00  0.00     0.040 A 
ATOM     91  C   UNL A   1      38.967  34.922  38.760  1.00  0.00     0.040 A 
ATOM     92  F   UNL A   1      38.322  32.916  37.724  1.00  0.00    -0.206 F 
ATOM     93  C   UNL A   1      39.706  36.104  38.751  1.00  0.00     0.006 A 
ENDBRANCH  65  86
BRANCH  77  94
ATOM     94  C   UNL A   1      43.768  28.787  35.109  1.00  0.00     0.057 A 
ATOM     95  C   UNL A   1      45.110  29.150  34.944  1.00  0.00     0.134 A 
ATOM     96  C   UNL A   1      43.476  27.778  36.034  1.00  0.00     0.134 A 
ATOM     97  F   UNL A   1      45.454  30.100  34.061  1.00  0.00    -0.206 F 
ATOM     98  C   UNL A   1      46.127  28.523  35.666  1.00  0.00     0.040 A 
ATOM     99  C   UNL A   1      44.482  27.157  36.775  1.00  0.00     0.040 A 
ATOM    100  F   UNL A   1      42.209  27.387  36.239  1.00  0.00    -0.206 F 
ATOM    101  C   UNL A   1      45.813  27.528  36.589  1.00  0.00     0.006 A 
ENDBRANCH  77  94
ENDBRANCH  51  52
ENDBRANCH  43  46
ENDBRANCH  41  42
ENDBRANCH  40  41
ENDBRANCH  39  40
ENDBRANCH  38  39
ENDBRANCH   1  38
TORSDOF 19
ENDMDL
MODEL 2
REMARK VINA RESULT:     -13.1      0.742      5.719
REMARK SMILES Cn1cc(C[C@@H](NC(=O)OCC2c3ccccc3-c3ccccc32)C(=O)NCCCCCCNC(=O)c2ccc(-c3c4nc(c(-c5c(F)cccc5F)c5ccc([nH]5)c(-c5c(F)cccc5F)c5nc(c(-c6c(F)cccc6F)c6ccc3[nH]6)C=C5)C=C4)cc2)c2ccccc21
REMARK SMILES IDX 29 1 28 2 27 3 25 4 26 5 6 7 5 8 4 9 1 10 2 11 3 12 96 13
REMARK SMILES IDX 91 14 95 15 92 16 94 17 93 18 7 19 8 20 9 22 10 23 11 24
REMARK SMILES IDX 12 25 13 26 24 27 14 28 18 29 19 30 23 31 15 32 17 33 20 34
REMARK SMILES IDX 22 35 16 36 21 37 30 38 31 39 32 40 33 41 34 42 35 43 36 45
REMARK SMILES IDX 37 46 38 47 90 48 39 49 89 50 40 51 41 52 42 53 83 54 43 55
REMARK SMILES IDX 88 56 82 57 84 58 44 59 87 60 81 61 80 62 45 64 71 65 54 66
REMARK SMILES IDX 70 67 55 68 58 69 69 70 85 71 56 72 57 73 68 75 86 76 59 77
REMARK SMILES IDX 46 78 47 79 52 80 48 81 49 82 51 83 53 84 50 85 72 86 73 87
REMARK SMILES IDX 78 88 74 89 75 90 77 91 79 92 76 93 60 94 61 95 66 96 62 97
REMARK SMILES IDX 63 98 65 99 67 100 64 101
REMARK H PARENT 27 6 7 21 34 44 84 63 58 74
REMARK Flexibility Score: inf
ROOT
ATOM      1  C   UNL A   1      33.758  29.425  27.096  1.00  0.00     0.021 C 
ENDROOT
BRANCH   1   2
ATOM      2  C   UNL A   1      34.122  28.325  26.108  1.00  0.00     0.116 C 
BRANCH   2   3
ATOM      3  N   UNL A   1      34.318  28.851  24.770  1.00  0.00    -0.354 N 
ATOM      4  C   UNL A   1      33.867  28.389  23.563  1.00  0.00     0.243 C 
ATOM      5  O   UNL A   1      34.155  29.049  22.560  1.00  0.00    -0.273 OA
ATOM      6  H   UNL A   1      34.863  29.669  24.722  1.00  0.00     0.163 HD
BRANCH   4   7
ATOM      7  C   UNL A   1      33.139  27.033  23.437  1.00  0.00     0.179 C 
BRANCH   7   8
ATOM      8  C   UNL A   1      32.034  26.955  24.526  1.00  0.00     0.073 C 
BRANCH   8   9
ATOM      9  C   UNL A   1      30.615  27.174  24.071  1.00  0.00    -0.020 A 
ATOM     10  C   UNL A   1      27.066  26.416  24.094  1.00  0.00     0.149 C 
ATOM     11  N   UNL A   1      28.406  26.909  23.859  1.00  0.00    -0.350 N 
ATOM     12  C   UNL A   1      29.547  26.342  24.357  1.00  0.00     0.090 A 
ATOM     13  C   UNL A   1      28.707  28.062  23.168  1.00  0.00     0.048 A 
ATOM     14  C   UNL A   1      30.070  28.302  23.362  1.00  0.00     0.003 A 
ATOM     15  C   UNL A   1      27.889  28.927  22.423  1.00  0.00     0.027 A 
ATOM     16  C   UNL A   1      30.605  29.508  22.857  1.00  0.00     0.010 A 
ATOM     17  C   UNL A   1      28.471  30.069  21.865  1.00  0.00     0.002 A 
ATOM     18  C   UNL A   1      29.810  30.364  22.090  1.00  0.00     0.001 A 
ENDBRANCH   8   9
ENDBRANCH   7   8
BRANCH   7  19
ATOM     19  N   UNL A   1      32.674  26.637  22.105  1.00  0.00    -0.309 N 
ATOM     20  C   UNL A   1      32.708  25.441  21.470  1.00  0.00     0.407 C 
ATOM     21  H   UNL A   1      32.268  27.366  21.582  1.00  0.00     0.167 HD
ATOM     22  O   UNL A   1      32.935  25.387  20.263  1.00  0.00    -0.225 OA
BRANCH  20  23
ATOM     23  O   UNL A   1      32.432  24.371  22.255  1.00  0.00    -0.449 OA
BRANCH  23  24
ATOM     24  C   UNL A   1      33.323  23.241  22.099  1.00  0.00     0.248 C 
BRANCH  24  25
ATOM     25  C   UNL A   1      33.635  22.508  23.420  1.00  0.00     0.088 C 
ATOM     26  C   UNL A   1      34.981  22.913  24.015  1.00  0.00    -0.029 A 
ATOM     27  C   UNL A   1      32.684  22.840  24.563  1.00  0.00    -0.029 A 
ATOM     28  C   UNL A   1      36.250  22.703  23.495  1.00  0.00     0.005 A 
ATOM     29  C   UNL A   1      34.793  23.504  25.282  1.00  0.00    -0.014 A 
ATOM     30  C   UNL A   1      33.380  23.502  25.596  1.00  0.00    -0.014 A 
ATOM     31  C   UNL A   1      31.319  22.614  24.645  1.00  0.00     0.005 A 
ATOM     32  C   UNL A   1      37.347  23.106  24.258  1.00  0.00     0.000 A 
ATOM     33  C   UNL A   1      35.883  23.912  26.034  1.00  0.00     0.009 A 
ATOM     34  C   UNL A   1      32.695  24.018  26.683  1.00  0.00     0.009 A 
ATOM     35  C   UNL A   1      30.627  23.145  25.734  1.00  0.00     0.000 A 
ATOM     36  C   UNL A   1      37.166  23.709  25.514  1.00  0.00     0.001 A 
ATOM     37  C   UNL A   1      31.307  23.852  26.737  1.00  0.00     0.001 A 
ENDBRANCH  24  25
ENDBRANCH  23  24
ENDBRANCH  20  23
ENDBRANCH   7  19
ENDBRANCH   4   7
ENDBRANCH   2   3
ENDBRANCH   1   2
BRANCH   1  38
ATOM     38  C   UNL A   1      32.250  29.684  27.191  1.00  0.00     0.002 C 
BRANCH  38  39
ATOM     39  C   UNL A   1      31.686  30.655  26.146  1.00  0.00     0.002 C 
BRANCH  39  40
ATOM     40  C   UNL A   1      31.429  32.081  26.644  1.00  0.00     0.021 C 
BRANCH  40  41
ATOM     41  C   UNL A   1      32.635  32.770  27.279  1.00  0.00     0.116 C 
BRANCH  41  42
ATOM     42  N   UNL A   1      32.357  34.150  27.645  1.00  0.00    -0.352 N 
ATOM     43  C   UNL A   1      32.975  34.939  28.583  1.00  0.00     0.251 C 
ATOM     44  H   UNL A   1      31.622  34.579  27.150  1.00  0.00     0.163 HD
ATOM     45  O   UNL A   1      32.523  36.044  28.863  1.00  0.00    -0.269 OA
BRANCH  43  46
ATOM     46  C   UNL A   1      34.175  34.436  29.278  1.00  0.00     0.039 A 
ATOM     47  C   UNL A   1      34.030  33.879  30.552  1.00  0.00     0.014 A 
ATOM     48  C   UNL A   1      35.431  34.492  28.667  1.00  0.00     0.014 A 
ATOM     49  C   UNL A   1      35.133  33.303  31.182  1.00  0.00     0.010 A 
ATOM     50  C   UNL A   1      36.521  33.874  29.275  1.00  0.00     0.010 A 
ATOM     51  C   UNL A   1      36.375  33.259  30.529  1.00  0.00    -0.014 A 
BRANCH  51  52
ATOM     52  C   UNL A   1      37.525  32.529  31.115  1.00  0.00     0.031 A 
ATOM     53  C   UNL A   1      38.212  33.051  32.342  1.00  0.00     0.074 A 
ATOM     54  C   UNL A   1      37.999  31.439  30.483  1.00  0.00     0.049 A 
ATOM     55  N   UNL A   1      39.289  32.606  32.936  1.00  0.00    -0.248 NA
ATOM     56  C   UNL A   1      37.624  34.244  32.972  1.00  0.00     0.031 C 
ATOM     57  C   UNL A   1      37.441  30.860  29.259  1.00  0.00     0.029 A 
ATOM     58  N   UNL A   1      39.071  30.634  30.773  1.00  0.00    -0.354 N 
ATOM     59  C   UNL A   1      39.517  33.468  34.000  1.00  0.00     0.074 A 
ATOM     60  C   UNL A   1      38.487  34.483  33.950  1.00  0.00     0.031 C 
ATOM     61  C   UNL A   1      38.171  29.790  28.907  1.00  0.00     0.029 A 
ATOM     62  C   UNL A   1      39.266  29.628  29.858  1.00  0.00     0.049 A 
ATOM     63  H   UNL A   1      39.646  30.765  31.562  1.00  0.00     0.167 HD
ATOM     64  C   UNL A   1      40.489  33.407  34.940  1.00  0.00     0.037 A 
ATOM     65  C   UNL A   1      40.228  28.691  29.785  1.00  0.00     0.037 A 
ATOM     66  C   UNL A   1      41.497  32.382  35.002  1.00  0.00     0.049 A 
ATOM     67  C   UNL A   1      41.306  28.658  30.830  1.00  0.00     0.074 A 
ATOM     68  C   UNL A   1      42.473  32.188  35.965  1.00  0.00     0.029 A 
ATOM     69  N   UNL A   1      41.664  31.381  34.056  1.00  0.00    -0.354 N 
ATOM     70  N   UNL A   1      41.472  29.440  31.868  1.00  0.00    -0.248 NA
ATOM     71  C   UNL A   1      42.333  27.616  30.689  1.00  0.00     0.031 C 
ATOM     72  C   UNL A   1      43.254  31.092  35.582  1.00  0.00     0.029 A 
ATOM     73  C   UNL A   1      42.743  30.584  34.398  1.00  0.00     0.049 A 
ATOM     74  H   UNL A   1      41.097  31.256  33.261  1.00  0.00     0.167 HD
ATOM     75  C   UNL A   1      42.613  28.981  32.511  1.00  0.00     0.074 A 
ATOM     76  C   UNL A   1      43.090  27.840  31.755  1.00  0.00     0.031 C 
ATOM     77  C   UNL A   1      43.212  29.462  33.627  1.00  0.00     0.037 A 
BRANCH  64  78
ATOM     78  C   UNL A   1      40.503  34.479  35.986  1.00  0.00     0.057 A 
ATOM     79  C   UNL A   1      41.250  35.652  35.825  1.00  0.00     0.134 A 
ATOM     80  C   UNL A   1      39.732  34.355  37.148  1.00  0.00     0.134 A 
ATOM     81  F   UNL A   1      42.018  35.825  34.739  1.00  0.00    -0.206 F 
ATOM     82  C   UNL A   1      41.247  36.658  36.794  1.00  0.00     0.040 A 
ATOM     83  C   UNL A   1      39.704  35.362  38.115  1.00  0.00     0.040 A 
ATOM     84  F   UNL A   1      38.991  33.258  37.361  1.00  0.00    -0.206 F 
ATOM     85  C   UNL A   1      40.466  36.516  37.940  1.00  0.00     0.006 A 
ENDBRANCH  64  78
BRANCH  65  86
ATOM     86  C   UNL A   1      40.215  27.703  28.679  1.00  0.00     0.057 A 
ATOM     87  C   UNL A   1      40.879  27.964  27.476  1.00  0.00     0.134 A 
ATOM     88  C   UNL A   1      39.544  26.482  28.799  1.00  0.00     0.134 A 
ATOM     89  F   UNL A   1      41.521  29.127  27.299  1.00  0.00    -0.206 F 
ATOM     90  C   UNL A   1      40.869  27.047  26.424  1.00  0.00     0.040 A 
ATOM     91  C   UNL A   1      39.541  25.547  27.763  1.00  0.00     0.040 A 
ATOM     92  F   UNL A   1      38.892  26.174  29.930  1.00  0.00    -0.206 F 
ATOM     93  C   UNL A   1      40.202  25.832  26.569  1.00  0.00     0.006 A 
ENDBRANCH  65  86
BRANCH  77  94
ATOM     94  C   UNL A   1      44.447  28.754  34.094  1.00  0.00     0.057 A 
ATOM     95  C   UNL A   1      45.722  29.174  33.699  1.00  0.00     0.134 A 
ATOM     96  C   UNL A   1      44.362  27.666  34.971  1.00  0.00     0.134 A 
ATOM     97  F   UNL A   1      45.867  30.202  32.848  1.00  0.00    -0.206 F 
ATOM     98  C   UNL A   1      46.873  28.526  34.151  1.00  0.00     0.040 A 
ATOM     99  C   UNL A   1      45.506  27.023  35.444  1.00  0.00     0.040 A 
ATOM    100  F   UNL A   1      43.168  27.219  35.388  1.00  0.00    -0.206 F 
ATOM    101  C   UNL A   1      46.766  27.451  35.031  1.00  0.00     0.006 A 
ENDBRANCH  77  94
ENDBRANCH  51  52
ENDBRANCH  43  46
ENDBRANCH  41  42
ENDBRANCH  40  41
ENDBRANCH  39  40
ENDBRANCH  38  39
ENDBRANCH   1  38
TORSDOF 19
ENDMDL
MODEL 3
REMARK VINA RESULT:     -12.9      1.140      5.989
REMARK SMILES Cn1cc(C[C@@H](NC(=O)OCC2c3ccccc3-c3ccccc32)C(=O)NCCCCCCNC(=O)c2ccc(-c3c4nc(c(-c5c(F)cccc5F)c5ccc([nH]5)c(-c5c(F)cccc5F)c5nc(c(-c6c(F)cccc6F)c6ccc3[nH]6)C=C5)C=C4)cc2)c2ccccc21
REMARK SMILES IDX 29 1 28 2 27 3 25 4 26 5 6 7 5 8 4 9 1 10 2 11 3 12 96 13
REMARK SMILES IDX 91 14 95 15 92 16 94 17 93 18 7 19 8 20 9 22 10 23 11 24
REMARK SMILES IDX 12 25 13 26 24 27 14 28 18 29 19 30 23 31 15 32 17 33 20 34
REMARK SMILES IDX 22 35 16 36 21 37 30 38 31 39 32 40 33 41 34 42 35 43 36 45
REMARK SMILES IDX 37 46 38 47 90 48 39 49 89 50 40 51 41 52 42 53 83 54 43 55
REMARK SMILES IDX 88 56 82 57 84 58 44 59 87 60 81 61 80 62 45 64 71 65 54 66
REMARK SMILES IDX 70 67 55 68 58 69 69 70 85 71 56 72 57 73 68 75 86 76 59 77
REMARK SMILES IDX 46 78 47 79 52 80 48 81 49 82 51 83 53 84 50 85 72 86 73 87
REMARK SMILES IDX 78 88 74 89 75 90 77 91 79 92 76 93 60 94 61 95 66 96 62 97
REMARK SMILES IDX 63 98 65 99 67 100 64 101
REMARK H PARENT 27 6 7 21 34 44 84 63 58 74
REMARK Flexibility Score: inf
ROOT
ATOM      1  C   UNL A   1      33.832  29.422  26.905  1.00  0.00     0.021 C 
ENDROOT
BRANCH   1   2
ATOM      2  C   UNL A   1      34.112  28.257  25.965  1.00  0.00     0.116 C 
BRANCH   2   3
ATOM      3  N   UNL A   1      34.367  28.711  24.610  1.00  0.00    -0.354 N 
ATOM      4  C   UNL A   1      33.898  28.237  23.415  1.00  0.00     0.243 C 
ATOM      5  O   UNL A   1      34.250  28.831  22.392  1.00  0.00    -0.273 OA
ATOM      6  H   UNL A   1      34.973  29.482  24.540  1.00  0.00     0.163 HD
BRANCH   4   7
ATOM      7  C   UNL A   1      33.070  26.936  23.331  1.00  0.00     0.179 C 
BRANCH   7   8
ATOM      8  C   UNL A   1      31.797  27.096  24.205  1.00  0.00     0.073 C 
BRANCH   8   9
ATOM      9  C   UNL A   1      30.693  27.957  23.647  1.00  0.00    -0.020 A 
ATOM     10  C   UNL A   1      29.447  30.667  21.581  1.00  0.00     0.149 C 
ATOM     11  N   UNL A   1      29.655  29.569  22.500  1.00  0.00    -0.350 N 
ATOM     12  C   UNL A   1      30.877  29.116  22.914  1.00  0.00     0.090 A 
ATOM     13  C   UNL A   1      28.651  28.781  23.019  1.00  0.00     0.048 A 
ATOM     14  C   UNL A   1      29.275  27.710  23.665  1.00  0.00     0.003 A 
ATOM     15  C   UNL A   1      27.254  28.903  22.941  1.00  0.00     0.027 A 
ATOM     16  C   UNL A   1      28.454  26.680  24.174  1.00  0.00     0.010 A 
ATOM     17  C   UNL A   1      26.471  27.907  23.532  1.00  0.00     0.002 A 
ATOM     18  C   UNL A   1      27.062  26.801  24.130  1.00  0.00     0.001 A 
ENDBRANCH   8   9
ENDBRANCH   7   8
BRANCH   7  19
ATOM     19  N   UNL A   1      32.797  26.395  21.996  1.00  0.00    -0.309 N 
ATOM     20  C   UNL A   1      32.837  25.125  21.526  1.00  0.00     0.407 C 
ATOM     21  H   UNL A   1      32.541  27.070  21.327  1.00  0.00     0.167 HD
ATOM     22  O   UNL A   1      33.252  24.898  20.392  1.00  0.00    -0.225 OA
BRANCH  20  23
ATOM     23  O   UNL A   1      32.352  24.186  22.376  1.00  0.00    -0.449 OA
BRANCH  23  24
ATOM     24  C   UNL A   1      33.156  22.989  22.500  1.00  0.00     0.248 C 
BRANCH  24  25
ATOM     25  C   UNL A   1      33.246  22.449  23.943  1.00  0.00     0.088 C 
ATOM     26  C   UNL A   1      33.300  20.925  23.998  1.00  0.00    -0.029 A 
ATOM     27  C   UNL A   1      34.527  22.827  24.676  1.00  0.00    -0.029 A 
ATOM     28  C   UNL A   1      32.322  20.015  23.624  1.00  0.00     0.005 A 
ATOM     29  C   UNL A   1      34.512  20.503  24.585  1.00  0.00    -0.014 A 
ATOM     30  C   UNL A   1      35.285  21.670  24.955  1.00  0.00    -0.014 A 
ATOM     31  C   UNL A   1      34.990  24.088  25.015  1.00  0.00     0.005 A 
ATOM     32  C   UNL A   1      32.574  18.657  23.831  1.00  0.00     0.000 A 
ATOM     33  C   UNL A   1      34.764  19.155  24.780  1.00  0.00     0.009 A 
ATOM     34  C   UNL A   1      36.553  21.777  25.502  1.00  0.00     0.009 A 
ATOM     35  C   UNL A   1      36.272  24.198  25.552  1.00  0.00     0.000 A 
ATOM     36  C   UNL A   1      33.785  18.231  24.400  1.00  0.00     0.001 A 
ATOM     37  C   UNL A   1      37.052  23.054  25.782  1.00  0.00     0.001 A 
ENDBRANCH  24  25
ENDBRANCH  23  24
ENDBRANCH  20  23
ENDBRANCH   7  19
ENDBRANCH   4   7
ENDBRANCH   2   3
ENDBRANCH   1   2
BRANCH   1  38
ATOM     38  C   UNL A   1      32.337  29.670  27.137  1.00  0.00     0.002 C 
BRANCH  38  39
ATOM     39  C   UNL A   1      31.676  30.648  26.157  1.00  0.00     0.002 C 
BRANCH  39  40
ATOM     40  C   UNL A   1      31.425  32.057  26.701  1.00  0.00     0.021 C 
BRANCH  40  41
ATOM     41  C   UNL A   1      32.653  32.755  27.280  1.00  0.00     0.116 C 
BRANCH  41  42
ATOM     42  N   UNL A   1      32.390  34.141  27.633  1.00  0.00    -0.352 N 
ATOM     43  C   UNL A   1      33.016  34.931  28.565  1.00  0.00     0.251 C 
ATOM     44  H   UNL A   1      31.661  34.573  27.133  1.00  0.00     0.163 HD
ATOM     45  O   UNL A   1      32.575  36.044  28.834  1.00  0.00    -0.269 OA
BRANCH  43  46
ATOM     46  C   UNL A   1      34.208  34.421  29.268  1.00  0.00     0.039 A 
ATOM     47  C   UNL A   1      34.039  33.766  30.491  1.00  0.00     0.014 A 
ATOM     48  C   UNL A   1      35.482  34.567  28.711  1.00  0.00     0.014 A 
ATOM     49  C   UNL A   1      35.140  33.185  31.119  1.00  0.00     0.010 A 
ATOM     50  C   UNL A   1      36.572  33.945  29.314  1.00  0.00     0.010 A 
ATOM     51  C   UNL A   1      36.405  33.234  30.513  1.00  0.00    -0.014 A 
BRANCH  51  52
ATOM     52  C   UNL A   1      37.560  32.504  31.088  1.00  0.00     0.031 A 
ATOM     53  C   UNL A   1      38.261  33.027  32.307  1.00  0.00     0.074 A 
ATOM     54  C   UNL A   1      38.027  31.412  30.453  1.00  0.00     0.049 A 
ATOM     55  N   UNL A   1      39.344  32.582  32.890  1.00  0.00    -0.248 NA
ATOM     56  C   UNL A   1      37.681  34.221  32.941  1.00  0.00     0.031 C 
ATOM     57  C   UNL A   1      37.456  30.832  29.236  1.00  0.00     0.029 A 
ATOM     58  N   UNL A   1      39.101  30.606  30.733  1.00  0.00    -0.354 N 
ATOM     59  C   UNL A   1      39.583  33.445  33.950  1.00  0.00     0.074 A 
ATOM     60  C   UNL A   1      38.554  34.461  33.910  1.00  0.00     0.031 C 
ATOM     61  C   UNL A   1      38.182  29.761  28.878  1.00  0.00     0.029 A 
ATOM     62  C   UNL A   1      39.286  29.599  29.818  1.00  0.00     0.049 A 
ATOM     63  H   UNL A   1      39.685  30.738  31.516  1.00  0.00     0.167 HD
ATOM     64  C   UNL A   1      40.565  33.384  34.881  1.00  0.00     0.037 A 
ATOM     65  C   UNL A   1      40.247  28.661  29.736  1.00  0.00     0.037 A 
ATOM     66  C   UNL A   1      41.573  32.359  34.933  1.00  0.00     0.049 A 
ATOM     67  C   UNL A   1      41.335  28.629  30.769  1.00  0.00     0.074 A 
ATOM     68  C   UNL A   1      42.559  32.166  35.886  1.00  0.00     0.029 A 
ATOM     69  N   UNL A   1      41.729  31.357  33.988  1.00  0.00    -0.354 N 
ATOM     70  N   UNL A   1      41.513  29.413  31.805  1.00  0.00    -0.248 NA
ATOM     71  C   UNL A   1      42.360  27.586  30.620  1.00  0.00     0.031 C 
ATOM     72  C   UNL A   1      43.335  31.068  35.497  1.00  0.00     0.029 A 
ATOM     73  C   UNL A   1      42.812  30.559  34.319  1.00  0.00     0.049 A 
ATOM     74  H   UNL A   1      41.154  31.231  33.199  1.00  0.00     0.167 HD
ATOM     75  C   UNL A   1      42.660  28.953  32.437  1.00  0.00     0.074 A 
ATOM     76  C   UNL A   1      43.128  27.811  31.677  1.00  0.00     0.031 C 
ATOM     77  C   UNL A   1      43.271  29.435  33.545  1.00  0.00     0.037 A 
BRANCH  64  78
ATOM     78  C   UNL A   1      40.591  34.458  35.925  1.00  0.00     0.057 A 
ATOM     79  C   UNL A   1      41.332  35.634  35.751  1.00  0.00     0.134 A 
ATOM     80  C   UNL A   1      39.837  34.333  37.098  1.00  0.00     0.134 A 
ATOM     81  F   UNL A   1      42.083  35.808  34.654  1.00  0.00    -0.206 F 
ATOM     82  C   UNL A   1      41.339  36.640  36.719  1.00  0.00     0.040 A 
ATOM     83  C   UNL A   1      39.821  35.342  38.064  1.00  0.00     0.040 A 
ATOM     84  F   UNL A   1      39.103  33.234  37.324  1.00  0.00    -0.206 F 
ATOM     85  C   UNL A   1      40.576  36.497  37.876  1.00  0.00     0.006 A 
ENDBRANCH  64  78
BRANCH  65  86
ATOM     86  C   UNL A   1      40.221  27.672  28.632  1.00  0.00     0.057 A 
ATOM     87  C   UNL A   1      39.525  26.467  28.764  1.00  0.00     0.134 A 
ATOM     88  C   UNL A   1      40.885  27.909  27.424  1.00  0.00     0.134 A 
ATOM     89  F   UNL A   1      38.886  26.179  29.907  1.00  0.00    -0.206 F 
ATOM     90  C   UNL A   1      39.496  25.524  27.736  1.00  0.00     0.040 A 
ATOM     91  C   UNL A   1      40.852  26.984  26.379  1.00  0.00     0.040 A 
ATOM     92  F   UNL A   1      41.568  29.048  27.237  1.00  0.00    -0.206 F 
ATOM     93  C   UNL A   1      40.158  25.784  26.536  1.00  0.00     0.006 A 
ENDBRANCH  65  86
BRANCH  77  94
ATOM     94  C   UNL A   1      44.510  28.728  34.000  1.00  0.00     0.057 A 
ATOM     95  C   UNL A   1      44.448  27.630  34.867  1.00  0.00     0.134 A 
ATOM     96  C   UNL A   1      45.772  29.125  33.543  1.00  0.00     0.134 A 
ATOM     97  F   UNL A   1      43.268  27.212  35.351  1.00  0.00    -0.206 F 
ATOM     98  C   UNL A   1      45.602  26.959  35.275  1.00  0.00     0.040 A 
ATOM     99  C   UNL A   1      46.931  28.450  33.928  1.00  0.00     0.040 A 
ATOM    100  F   UNL A   1      45.897  30.167  32.708  1.00  0.00    -0.206 F 
ATOM    101  C   UNL A   1      46.847  27.366  34.800  1.00  0.00     0.006 A 
ENDBRANCH  77  94
ENDBRANCH  51  52
ENDBRANCH  43  46
ENDBRANCH  41  42
ENDBRANCH  40  41
ENDBRANCH  39  40
ENDBRANCH  38  39
ENDBRANCH   1  38
TORSDOF 19
ENDMDL
