MODEL 1
REMARK VINA RESULT:     -10.6      0.000      0.000
REMARK SMILES C[C@@H]1C[C@H]([NH3+])CN(S(=O)(=O)CCCC(=O)NCCCCCCNC(=O)c2ccc(-c3c4nc(c(-c5c(F)cccc5F)c5ccc([nH]5)c(-c5c(F)cccc5F)c5nc(c(-c6c(F)cccc6F)c6ccc3[nH]6)C=C5)C=C4)cc2)C1
REMARK SMILES IDX 18 1 17 2 16 3 14 4 15 5 13 7 12 8 11 9 8 10 9 11 10 12 7 13
REMARK SMILES IDX 1 14 2 15 3 16 80 17 4 18 6 19 5 20 19 24 20 25 21 26 22 27
REMARK SMILES IDX 23 28 24 29 25 31 26 32 27 33 79 34 28 35 78 36 29 37 30 38
REMARK SMILES IDX 31 39 72 40 32 41 77 42 71 43 73 44 33 45 76 46 70 47 69 48
REMARK SMILES IDX 34 50 60 51 43 52 59 53 44 54 47 55 58 56 74 57 45 58 46 59
REMARK SMILES IDX 57 61 75 62 48 63 35 64 36 65 41 66 37 67 38 68 40 69 42 70
REMARK SMILES IDX 39 71 61 72 62 73 67 74 63 75 64 76 66 77 68 78 65 79 49 80
REMARK SMILES IDX 50 81 55 82 51 83 52 84 54 85 56 86 53 87
REMARK H PARENT 16 6 5 21 5 22 5 23 23 30 73 49 47 60
REMARK Flexibility Score: inf
ROOT
ATOM      1  C   UNL A   1      31.721  28.518  27.501  1.00  0.00     0.021 C 
ENDROOT
BRANCH   1   2
ATOM      2  C   UNL A   1      32.087  27.321  26.641  1.00  0.00     0.116 C 
BRANCH   2   3
ATOM      3  N   UNL A   1      31.235  26.169  26.799  1.00  0.00    -0.356 N 
ATOM      4  C   UNL A   1      30.509  25.468  25.891  1.00  0.00     0.220 C 
ATOM      5  O   UNL A   1      30.337  24.271  26.146  1.00  0.00    -0.275 OA
ATOM      6  H   UNL A   1      31.168  25.833  27.722  1.00  0.00     0.163 HD
BRANCH   4   7
ATOM      7  C   UNL A   1      29.968  26.030  24.577  1.00  0.00     0.101 C 
BRANCH   7   8
ATOM      8  C   UNL A   1      30.829  26.034  23.325  1.00  0.00     0.027 C 
BRANCH   8   9
ATOM      9  C   UNL A   1      32.251  25.513  23.363  1.00  0.00     0.155 C 
BRANCH   9  10
ATOM     10  S   UNL A   1      32.668  23.810  22.954  1.00  0.00     0.214 S 
ATOM     11  O   UNL A   1      33.253  23.850  21.622  1.00  0.00    -0.212 OA
ATOM     12  O   UNL A   1      31.468  23.037  23.190  1.00  0.00    -0.212 OA
BRANCH  10  13
ATOM     13  N   UNL A   1      33.883  23.136  23.970  1.00  0.00    -0.196 NA
ATOM     14  C   UNL A   1      36.953  22.273  23.985  1.00  0.00     0.009 C 
ATOM     15  C   UNL A   1      36.309  23.471  24.683  1.00  0.00     0.007 C 
ATOM     16  C   UNL A   1      35.920  23.200  26.140  1.00  0.00     0.071 C 
ATOM     17  C   UNL A   1      35.124  24.017  23.877  1.00  0.00     0.106 C 
ATOM     18  C   UNL A   1      34.650  22.372  26.279  1.00  0.00     0.196 C 
ATOM     19  C   UNL A   1      33.530  22.993  25.420  1.00  0.00     0.167 C 
BRANCH  18  20
ATOM     20  N   UNL A   1      34.905  20.959  25.972  1.00  0.00    -0.354 N 
ATOM     21  H   UNL A   1      35.502  20.894  25.147  1.00  0.00     0.344 HD
ATOM     22  H   UNL A   1      34.021  20.486  25.789  1.00  0.00     0.344 HD
ATOM     23  H   UNL A   1      35.371  20.517  26.765  1.00  0.00     0.344 HD
ENDBRANCH  18  20
ENDBRANCH  10  13
ENDBRANCH   9  10
ENDBRANCH   8   9
ENDBRANCH   7   8
ENDBRANCH   4   7
ENDBRANCH   2   3
ENDBRANCH   1   2
BRANCH   1  24
ATOM     24  C   UNL A   1      32.425  29.794  27.036  1.00  0.00     0.002 C 
BRANCH  24  25
ATOM     25  C   UNL A   1      31.586  30.724  26.144  1.00  0.00     0.002 C 
BRANCH  25  26
ATOM     26  C   UNL A   1      31.387  32.150  26.664  1.00  0.00     0.021 C 
BRANCH  26  27
ATOM     27  C   UNL A   1      32.655  32.823  27.176  1.00  0.00     0.116 C 
BRANCH  27  28
ATOM     28  N   UNL A   1      32.417  34.198  27.590  1.00  0.00    -0.352 N 
ATOM     29  C   UNL A   1      33.016  34.935  28.575  1.00  0.00     0.251 C 
ATOM     30  H   UNL A   1      31.717  34.670  27.083  1.00  0.00     0.163 HD
ATOM     31  O   UNL A   1      32.551  36.021  28.903  1.00  0.00    -0.269 OA
BRANCH  29  32
ATOM     32  C   UNL A   1      34.219  34.411  29.248  1.00  0.00     0.039 A 
ATOM     33  C   UNL A   1      34.066  33.700  30.440  1.00  0.00     0.014 A 
ATOM     34  C   UNL A   1      35.489  34.628  28.708  1.00  0.00     0.014 A 
ATOM     35  C   UNL A   1      35.188  33.158  31.064  1.00  0.00     0.010 A 
ATOM     36  C   UNL A   1      36.596  34.019  29.287  1.00  0.00     0.010 A 
ATOM     37  C   UNL A   1      36.457  33.287  30.475  1.00  0.00    -0.014 A 
BRANCH  37  38
ATOM     38  C   UNL A   1      37.653  32.663  31.089  1.00  0.00     0.031 A 
ATOM     39  C   UNL A   1      38.273  31.447  30.462  1.00  0.00     0.074 A 
ATOM     40  C   UNL A   1      38.139  33.159  32.241  1.00  0.00     0.049 A 
ATOM     41  N   UNL A   1      39.281  30.725  30.879  1.00  0.00    -0.248 NA
ATOM     42  C   UNL A   1      37.663  30.960  29.213  1.00  0.00     0.031 C 
ATOM     43  C   UNL A   1      37.590  34.307  32.967  1.00  0.00     0.029 A 
ATOM     44  N   UNL A   1      39.200  32.755  33.012  1.00  0.00    -0.354 N 
ATOM     45  C   UNL A   1      39.417  29.696  29.955  1.00  0.00     0.074 A 
ATOM     46  C   UNL A   1      38.353  29.852  28.988  1.00  0.00     0.031 C 
ATOM     47  C   UNL A   1      38.333  34.529  34.063  1.00  0.00     0.029 A 
ATOM     48  C   UNL A   1      39.380  33.516  34.142  1.00  0.00     0.049 A 
ATOM     49  H   UNL A   1      39.776  31.993  32.778  1.00  0.00     0.167 HD
ATOM     50  C   UNL A   1      40.358  28.725  29.908  1.00  0.00     0.037 A 
ATOM     51  C   UNL A   1      40.282  33.401  35.134  1.00  0.00     0.037 A 
ATOM     52  C   UNL A   1      41.421  28.587  30.867  1.00  0.00     0.049 A 
ATOM     53  C   UNL A   1      41.304  32.301  35.066  1.00  0.00     0.074 A 
ATOM     54  C   UNL A   1      42.460  27.672  30.876  1.00  0.00     0.029 A 
ATOM     55  N   UNL A   1      41.577  29.382  31.993  1.00  0.00    -0.354 N 
ATOM     56  N   UNL A   1      41.468  31.379  34.147  1.00  0.00    -0.248 NA
ATOM     57  C   UNL A   1      42.270  32.227  36.170  1.00  0.00     0.031 C 
ATOM     58  C   UNL A   1      43.211  27.878  32.037  1.00  0.00     0.029 A 
ATOM     59  C   UNL A   1      42.679  28.960  32.719  1.00  0.00     0.049 A 
ATOM     60  H   UNL A   1      40.992  30.134  32.239  1.00  0.00     0.167 HD
ATOM     61  C   UNL A   1      42.571  30.636  34.547  1.00  0.00     0.074 A 
ATOM     62  C   UNL A   1      43.046  31.225  35.781  1.00  0.00     0.031 C 
ATOM     63  C   UNL A   1      43.141  29.562  33.945  1.00  0.00     0.037 A 
BRANCH  50  64
ATOM     64  C   UNL A   1      40.276  27.733  28.781  1.00  0.00     0.057 A 
ATOM     65  C   UNL A   1      40.944  27.935  27.566  1.00  0.00     0.134 A 
ATOM     66  C   UNL A   1      39.547  26.546  28.926  1.00  0.00     0.134 A 
ATOM     67  F   UNL A   1      41.649  29.057  27.355  1.00  0.00    -0.206 F 
ATOM     68  C   UNL A   1      40.868  27.007  26.526  1.00  0.00     0.040 A 
ATOM     69  C   UNL A   1      39.489  25.596  27.905  1.00  0.00     0.040 A 
ATOM     70  F   UNL A   1      38.888  26.285  30.065  1.00  0.00    -0.206 F 
ATOM     71  C   UNL A   1      40.144  25.828  26.698  1.00  0.00     0.006 A 
ENDBRANCH  50  64
BRANCH  51  72
ATOM     72  C   UNL A   1      40.268  34.360  36.267  1.00  0.00     0.057 A 
ATOM     73  C   UNL A   1      40.973  35.568  36.202  1.00  0.00     0.134 A 
ATOM     74  C   UNL A   1      39.558  34.092  37.445  1.00  0.00     0.134 A 
ATOM     75  F   UNL A   1      41.685  35.876  35.108  1.00  0.00    -0.206 F 
ATOM     76  C   UNL A   1      40.994  36.462  37.273  1.00  0.00     0.040 A 
ATOM     77  C   UNL A   1      39.546  34.992  38.513  1.00  0.00     0.040 A 
ATOM     78  F   UNL A   1      38.854  32.958  37.568  1.00  0.00    -0.206 F 
ATOM     79  C   UNL A   1      40.274  36.177  38.431  1.00  0.00     0.006 A 
ENDBRANCH  51  72
BRANCH  63  80
ATOM     80  C   UNL A   1      44.364  28.979  34.593  1.00  0.00     0.057 A 
ATOM     81  C   UNL A   1      44.291  27.896  35.476  1.00  0.00     0.134 A 
ATOM     82  C   UNL A   1      45.636  29.485  34.295  1.00  0.00     0.134 A 
ATOM     83  F   UNL A   1      43.102  27.372  35.814  1.00  0.00    -0.206 F 
ATOM     84  C   UNL A   1      45.437  27.352  36.059  1.00  0.00     0.040 A 
ATOM     85  C   UNL A   1      46.790  28.931  34.846  1.00  0.00     0.040 A 
ATOM     86  F   UNL A   1      45.777  30.517  33.448  1.00  0.00    -0.206 F 
ATOM     87  C   UNL A   1      46.692  27.865  35.737  1.00  0.00     0.006 A 
ENDBRANCH  63  80
ENDBRANCH  37  38
ENDBRANCH  29  32
ENDBRANCH  27  28
ENDBRANCH  26  27
ENDBRANCH  25  26
ENDBRANCH  24  25
ENDBRANCH   1  24
TORSDOF 18
ENDMDL
MODEL 2
REMARK VINA RESULT:     -10.4      1.339      6.446
REMARK SMILES C[C@@H]1C[C@H]([NH3+])CN(S(=O)(=O)CCCC(=O)NCCCCCCNC(=O)c2ccc(-c3c4nc(c(-c5c(F)cccc5F)c5ccc([nH]5)c(-c5c(F)cccc5F)c5nc(c(-c6c(F)cccc6F)c6ccc3[nH]6)C=C5)C=C4)cc2)C1
REMARK SMILES IDX 18 1 17 2 16 3 14 4 15 5 13 7 12 8 11 9 8 10 9 11 10 12 7 13
REMARK SMILES IDX 1 14 2 15 3 16 80 17 4 18 6 19 5 20 19 24 20 25 21 26 22 27
REMARK SMILES IDX 23 28 24 29 25 31 26 32 27 33 79 34 28 35 78 36 29 37 30 38
REMARK SMILES IDX 31 39 72 40 32 41 77 42 71 43 73 44 33 45 76 46 70 47 69 48
REMARK SMILES IDX 34 50 60 51 43 52 59 53 44 54 47 55 58 56 74 57 45 58 46 59
REMARK SMILES IDX 57 61 75 62 48 63 35 64 36 65 41 66 37 67 38 68 40 69 42 70
REMARK SMILES IDX 39 71 61 72 62 73 67 74 63 75 64 76 66 77 68 78 65 79 49 80
REMARK SMILES IDX 50 81 55 82 51 83 52 84 54 85 56 86 53 87
REMARK H PARENT 16 6 5 21 5 22 5 23 23 30 73 49 47 60
REMARK Flexibility Score: inf
ROOT
ATOM      1  C   UNL A   1      33.153  28.942  25.213  1.00  0.00     0.021 C 
ENDROOT
BRANCH   1   2
ATOM      2  C   UNL A   1      33.454  28.636  23.756  1.00  0.00     0.116 C 
BRANCH   2   3
ATOM      3  N   UNL A   1      33.783  27.261  23.473  1.00  0.00    -0.356 N 
ATOM      4  C   UNL A   1      33.091  26.300  22.808  1.00  0.00     0.220 C 
ATOM      5  O   UNL A   1      33.774  25.441  22.240  1.00  0.00    -0.275 OA
ATOM      6  H   UNL A   1      34.656  26.968  23.821  1.00  0.00     0.163 HD
BRANCH   4   7
ATOM      7  C   UNL A   1      31.571  26.255  22.660  1.00  0.00     0.101 C 
BRANCH   7   8
ATOM      8  C   UNL A   1      30.679  26.133  23.883  1.00  0.00     0.027 C 
BRANCH   8   9
ATOM      9  C   UNL A   1      30.663  24.860  24.705  1.00  0.00     0.155 C 
BRANCH   9  10
ATOM     10  S   UNL A   1      31.767  24.598  26.103  1.00  0.00     0.214 S 
ATOM     11  O   UNL A   1      30.922  24.165  27.205  1.00  0.00    -0.212 OA
ATOM     12  O   UNL A   1      32.547  25.810  26.228  1.00  0.00    -0.212 OA
BRANCH  10  13
ATOM     13  N   UNL A   1      32.895  23.322  25.859  1.00  0.00    -0.196 NA
ATOM     14  C   UNL A   1      33.080  20.266  24.968  1.00  0.00     0.009 C 
ATOM     15  C   UNL A   1      33.530  21.502  24.189  1.00  0.00     0.007 C 
ATOM     16  C   UNL A   1      35.012  21.844  24.377  1.00  0.00     0.071 C 
ATOM     17  C   UNL A   1      32.632  22.709  24.488  1.00  0.00     0.106 C 
ATOM     18  C   UNL A   1      35.310  22.514  25.711  1.00  0.00     0.196 C 
ATOM     19  C   UNL A   1      34.346  23.698  25.923  1.00  0.00     0.167 C 
BRANCH  18  20
ATOM     20  N   UNL A   1      35.285  21.538  26.808  1.00  0.00    -0.354 N 
ATOM     21  H   UNL A   1      34.366  21.097  26.850  1.00  0.00     0.344 HD
ATOM     22  H   UNL A   1      35.473  22.014  27.690  1.00  0.00     0.344 HD
ATOM     23  H   UNL A   1      35.997  20.825  26.646  1.00  0.00     0.344 HD
ENDBRANCH  18  20
ENDBRANCH  10  13
ENDBRANCH   9  10
ENDBRANCH   8   9
ENDBRANCH   7   8
ENDBRANCH   4   7
ENDBRANCH   2   3
ENDBRANCH   1   2
BRANCH   1  24
ATOM     24  C   UNL A   1      32.058  30.000  25.361  1.00  0.00     0.002 C 
BRANCH  24  25
ATOM     25  C   UNL A   1      31.767  30.453  26.801  1.00  0.00     0.002 C 
BRANCH  25  26
ATOM     26  C   UNL A   1      31.521  31.951  26.995  1.00  0.00     0.021 C 
BRANCH  26  27
ATOM     27  C   UNL A   1      32.778  32.811  26.971  1.00  0.00     0.116 C 
BRANCH  27  28
ATOM     28  N   UNL A   1      32.561  34.117  27.574  1.00  0.00    -0.352 N 
ATOM     29  C   UNL A   1      33.139  34.682  28.678  1.00  0.00     0.251 C 
ATOM     30  H   UNL A   1      31.896  34.681  27.117  1.00  0.00     0.163 HD
ATOM     31  O   UNL A   1      32.690  35.723  29.146  1.00  0.00    -0.269 OA
BRANCH  29  32
ATOM     32  C   UNL A   1      34.298  34.026  29.311  1.00  0.00     0.039 A 
ATOM     33  C   UNL A   1      34.071  33.060  30.294  1.00  0.00     0.014 A 
ATOM     34  C   UNL A   1      35.601  34.368  28.939  1.00  0.00     0.014 A 
ATOM     35  C   UNL A   1      35.154  32.398  30.868  1.00  0.00     0.010 A 
ATOM     36  C   UNL A   1      36.674  33.650  29.453  1.00  0.00     0.010 A 
ATOM     37  C   UNL A   1      36.461  32.665  30.428  1.00  0.00    -0.014 A 
BRANCH  37  38
ATOM     38  C   UNL A   1      37.621  31.925  30.979  1.00  0.00     0.031 A 
ATOM     39  C   UNL A   1      38.149  32.262  32.344  1.00  0.00     0.074 A 
ATOM     40  C   UNL A   1      38.230  30.994  30.223  1.00  0.00     0.049 A 
ATOM     41  N   UNL A   1      39.186  31.772  32.974  1.00  0.00    -0.248 NA
ATOM     42  C   UNL A   1      37.433  33.310  33.092  1.00  0.00     0.031 C 
ATOM     43  C   UNL A   1      37.836  30.616  28.864  1.00  0.00     0.029 A 
ATOM     44  N   UNL A   1      39.319  30.201  30.485  1.00  0.00    -0.354 N 
ATOM     45  C   UNL A   1      39.254  32.457  34.180  1.00  0.00     0.074 A 
ATOM     46  C   UNL A   1      38.190  33.437  34.172  1.00  0.00     0.031 C 
ATOM     47  C   UNL A   1      38.654  29.648  28.422  1.00  0.00     0.029 A 
ATOM     48  C   UNL A   1      39.656  29.368  29.445  1.00  0.00     0.049 A 
ATOM     49  H   UNL A   1      39.811  30.227  31.337  1.00  0.00     0.167 HD
ATOM     50  C   UNL A   1      40.112  32.268  35.210  1.00  0.00     0.037 A 
ATOM     51  C   UNL A   1      40.667  28.488  29.328  1.00  0.00     0.037 A 
ATOM     52  C   UNL A   1      41.158  31.280  35.214  1.00  0.00     0.049 A 
ATOM     53  C   UNL A   1      41.618  28.312  30.479  1.00  0.00     0.074 A 
ATOM     54  C   UNL A   1      42.044  30.968  36.231  1.00  0.00     0.029 A 
ATOM     55  N   UNL A   1      41.464  30.449  34.147  1.00  0.00    -0.354 N 
ATOM     56  N   UNL A   1      41.626  28.913  31.645  1.00  0.00    -0.248 NA
ATOM     57  C   UNL A   1      42.697  27.332  30.302  1.00  0.00     0.031 C 
ATOM     58  C   UNL A   1      42.921  29.988  35.758  1.00  0.00     0.029 A 
ATOM     59  C   UNL A   1      42.544  29.644  34.471  1.00  0.00     0.049 A 
ATOM     60  H   UNL A   1      40.984  30.433  33.288  1.00  0.00     0.167 HD
ATOM     61  C   UNL A   1      42.689  28.363  32.349  1.00  0.00     0.074 A 
ATOM     62  C   UNL A   1      43.293  27.369  31.486  1.00  0.00     0.031 C 
ATOM     63  C   UNL A   1      43.128  28.654  33.600  1.00  0.00     0.037 A 
BRANCH  50  64
ATOM     64  C   UNL A   1      39.955  33.151  36.415  1.00  0.00     0.057 A 
ATOM     65  C   UNL A   1      40.700  34.327  36.576  1.00  0.00     0.134 A 
ATOM     66  C   UNL A   1      39.022  32.840  37.413  1.00  0.00     0.134 A 
ATOM     67  F   UNL A   1      41.621  34.679  35.665  1.00  0.00    -0.206 F 
ATOM     68  C   UNL A   1      40.545  35.146  37.696  1.00  0.00     0.040 A 
ATOM     69  C   UNL A   1      38.835  33.666  38.522  1.00  0.00     0.040 A 
ATOM     70  F   UNL A   1      38.270  31.732  37.321  1.00  0.00    -0.206 F 
ATOM     71  C   UNL A   1      39.602  34.819  38.669  1.00  0.00     0.006 A 
ENDBRANCH  50  64
BRANCH  51  72
ATOM     72  C   UNL A   1      40.825  27.697  28.081  1.00  0.00     0.057 A 
ATOM     73  C   UNL A   1      40.227  26.439  27.942  1.00  0.00     0.134 A 
ATOM     74  C   UNL A   1      41.580  28.174  27.002  1.00  0.00     0.134 A 
ATOM     75  F   UNL A   1      39.505  25.920  28.946  1.00  0.00    -0.206 F 
ATOM     76  C   UNL A   1      40.395  25.672  26.788  1.00  0.00     0.040 A 
ATOM     77  C   UNL A   1      41.732  27.430  25.831  1.00  0.00     0.040 A 
ATOM     78  F   UNL A   1      42.170  29.376  27.067  1.00  0.00    -0.206 F 
ATOM     79  C   UNL A   1      41.146  26.172  25.725  1.00  0.00     0.006 A 
ENDBRANCH  51  72
BRANCH  63  80
ATOM     80  C   UNL A   1      44.292  27.862  34.122  1.00  0.00     0.057 A 
ATOM     81  C   UNL A   1      44.123  26.628  34.759  1.00  0.00     0.134 A 
ATOM     82  C   UNL A   1      45.602  28.325  33.946  1.00  0.00     0.134 A 
ATOM     83  F   UNL A   1      42.894  26.133  34.971  1.00  0.00    -0.206 F 
ATOM     84  C   UNL A   1      45.215  25.892  35.225  1.00  0.00     0.040 A 
ATOM     85  C   UNL A   1      46.703  27.586  34.379  1.00  0.00     0.040 A 
ATOM     86  F   UNL A   1      45.835  29.497  33.334  1.00  0.00    -0.206 F 
ATOM     87  C   UNL A   1      46.510  26.368  35.027  1.00  0.00     0.006 A 
ENDBRANCH  63  80
ENDBRANCH  37  38
ENDBRANCH  29  32
ENDBRANCH  27  28
ENDBRANCH  26  27
ENDBRANCH  25  26
ENDBRANCH  24  25
ENDBRANCH   1  24
TORSDOF 18
ENDMDL
MODEL 3
REMARK VINA RESULT:     -10.4      1.174      6.325
REMARK SMILES C[C@@H]1C[C@H]([NH3+])CN(S(=O)(=O)CCCC(=O)NCCCCCCNC(=O)c2ccc(-c3c4nc(c(-c5c(F)cccc5F)c5ccc([nH]5)c(-c5c(F)cccc5F)c5nc(c(-c6c(F)cccc6F)c6ccc3[nH]6)C=C5)C=C4)cc2)C1
REMARK SMILES IDX 18 1 17 2 16 3 14 4 15 5 13 7 12 8 11 9 8 10 9 11 10 12 7 13
REMARK SMILES IDX 1 14 2 15 3 16 80 17 4 18 6 19 5 20 19 24 20 25 21 26 22 27
REMARK SMILES IDX 23 28 24 29 25 31 26 32 27 33 79 34 28 35 78 36 29 37 30 38
REMARK SMILES IDX 31 39 72 40 32 41 77 42 71 43 73 44 33 45 76 46 70 47 69 48
REMARK SMILES IDX 34 50 60 51 43 52 59 53 44 54 47 55 58 56 74 57 45 58 46 59
REMARK SMILES IDX 57 61 75 62 48 63 35 64 36 65 41 66 37 67 38 68 40 69 42 70
REMARK SMILES IDX 39 71 61 72 62 73 67 74 63 75 64 76 66 77 68 78 65 79 49 80
REMARK SMILES IDX 50 81 55 82 51 83 52 84 54 85 56 86 53 87
REMARK H PARENT 16 6 5 21 5 22 5 23 23 30 73 49 47 60
REMARK Flexibility Score: inf
ROOT
ATOM      1  C   UNL A   1      32.321  28.081  25.308  1.00  0.00     0.021 C 
ENDROOT
BRANCH   1   2
ATOM      2  C   UNL A   1      32.078  27.049  26.396  1.00  0.00     0.116 C 
BRANCH   2   3
ATOM      3  N   UNL A   1      30.723  26.568  26.494  1.00  0.00    -0.356 N 
ATOM      4  C   UNL A   1      30.183  25.361  26.181  1.00  0.00     0.220 C 
ATOM      5  O   UNL A   1      29.193  25.027  26.841  1.00  0.00    -0.275 OA
ATOM      6  H   UNL A   1      30.079  27.225  26.845  1.00  0.00     0.163 HD
BRANCH   4   7
ATOM      7  C   UNL A   1      30.746  24.389  25.146  1.00  0.00     0.101 C 
BRANCH   7   8
ATOM      8  C   UNL A   1      30.709  24.727  23.666  1.00  0.00     0.027 C 
BRANCH   8   9
ATOM      9  C   UNL A   1      31.972  24.680  22.830  1.00  0.00     0.155 C 
BRANCH   9  10
ATOM     10  S   UNL A   1      32.919  23.167  22.594  1.00  0.00     0.214 S 
ATOM     11  O   UNL A   1      33.752  23.395  21.423  1.00  0.00    -0.212 OA
ATOM     12  O   UNL A   1      31.955  22.089  22.592  1.00  0.00    -0.212 OA
BRANCH  10  13
ATOM     13  N   UNL A   1      34.014  22.833  23.879  1.00  0.00    -0.196 NA
ATOM     14  C   UNL A   1      36.831  23.722  25.078  1.00  0.00     0.009 C 
ATOM     15  C   UNL A   1      35.439  23.992  25.648  1.00  0.00     0.007 C 
ATOM     16  C   UNL A   1      34.988  22.961  26.689  1.00  0.00     0.071 C 
ATOM     17  C   UNL A   1      34.399  24.155  24.533  1.00  0.00     0.106 C 
ATOM     18  C   UNL A   1      34.536  21.644  26.075  1.00  0.00     0.196 C 
ATOM     19  C   UNL A   1      33.511  21.918  24.957  1.00  0.00     0.167 C 
BRANCH  18  20
ATOM     20  N   UNL A   1      35.688  20.849  25.627  1.00  0.00    -0.354 N 
ATOM     21  H   UNL A   1      35.629  19.912  26.026  1.00  0.00     0.344 HD
ATOM     22  H   UNL A   1      36.550  21.296  25.937  1.00  0.00     0.344 HD
ATOM     23  H   UNL A   1      35.683  20.786  24.609  1.00  0.00     0.344 HD
ENDBRANCH  18  20
ENDBRANCH  10  13
ENDBRANCH   9  10
ENDBRANCH   8   9
ENDBRANCH   7   8
ENDBRANCH   4   7
ENDBRANCH   2   3
ENDBRANCH   1   2
BRANCH   1  24
ATOM     24  C   UNL A   1      31.494  29.350  25.528  1.00  0.00     0.002 C 
BRANCH  24  25
ATOM     25  C   UNL A   1      31.772  30.099  26.843  1.00  0.00     0.002 C 
BRANCH  25  26
ATOM     26  C   UNL A   1      31.489  31.603  26.827  1.00  0.00     0.021 C 
BRANCH  26  27
ATOM     27  C   UNL A   1      32.732  32.484  26.837  1.00  0.00     0.116 C 
BRANCH  27  28
ATOM     28  N   UNL A   1      32.476  33.789  27.427  1.00  0.00    -0.352 N 
ATOM     29  C   UNL A   1      33.102  34.422  28.467  1.00  0.00     0.251 C 
ATOM     30  H   UNL A   1      31.738  34.294  27.015  1.00  0.00     0.163 HD
ATOM     31  O   UNL A   1      32.622  35.443  28.948  1.00  0.00    -0.269 OA
BRANCH  29  32
ATOM     32  C   UNL A   1      34.351  33.862  29.014  1.00  0.00     0.039 A 
ATOM     33  C   UNL A   1      34.277  32.987  30.100  1.00  0.00     0.014 A 
ATOM     34  C   UNL A   1      35.588  34.207  28.463  1.00  0.00     0.014 A 
ATOM     35  C   UNL A   1      35.445  32.414  30.599  1.00  0.00     0.010 A 
ATOM     36  C   UNL A   1      36.741  33.573  28.908  1.00  0.00     0.010 A 
ATOM     37  C   UNL A   1      36.681  32.678  29.986  1.00  0.00    -0.014 A 
BRANCH  37  38
ATOM     38  C   UNL A   1      37.926  32.028  30.461  1.00  0.00     0.031 A 
ATOM     39  C   UNL A   1      38.717  32.644  31.579  1.00  0.00     0.074 A 
ATOM     40  C   UNL A   1      38.369  30.918  29.843  1.00  0.00     0.049 A 
ATOM     41  N   UNL A   1      39.858  32.261  32.093  1.00  0.00    -0.248 NA
ATOM     42  C   UNL A   1      38.169  33.870  32.183  1.00  0.00     0.031 C 
ATOM     43  C   UNL A   1      37.709  30.257  28.714  1.00  0.00     0.029 A 
ATOM     44  N   UNL A   1      39.485  30.154  30.069  1.00  0.00    -0.354 N 
ATOM     45  C   UNL A   1      40.168  33.201  33.067  1.00  0.00     0.074 A 
ATOM     46  C   UNL A   1      39.127  34.205  33.034  1.00  0.00     0.031 C 
ATOM     47  C   UNL A   1      38.419  29.173  28.364  1.00  0.00     0.029 A 
ATOM     48  C   UNL A   1      39.605  29.088  29.210  1.00  0.00     0.049 A 
ATOM     49  H   UNL A   1      40.138  30.350  30.778  1.00  0.00     0.167 HD
ATOM     50  C   UNL A   1      41.214  33.212  33.926  1.00  0.00     0.037 A 
ATOM     51  C   UNL A   1      40.569  28.155  29.110  1.00  0.00     0.037 A 
ATOM     52  C   UNL A   1      42.237  32.201  33.961  1.00  0.00     0.049 A 
ATOM     53  C   UNL A   1      41.731  28.201  30.063  1.00  0.00     0.074 A 
ATOM     54  C   UNL A   1      43.307  32.087  34.831  1.00  0.00     0.029 A 
ATOM     55  N   UNL A   1      42.320  31.131  33.081  1.00  0.00    -0.354 N 
ATOM     56  N   UNL A   1      41.974  29.054  31.030  1.00  0.00    -0.248 NA
ATOM     57  C   UNL A   1      42.749  27.154  29.917  1.00  0.00     0.031 C 
ATOM     58  C   UNL A   1      44.070  30.982  34.442  1.00  0.00     0.029 A 
ATOM     59  C   UNL A   1      43.441  30.369  33.370  1.00  0.00     0.049 A 
ATOM     60  H   UNL A   1      41.678  30.941  32.361  1.00  0.00     0.167 HD
ATOM     61  C   UNL A   1      43.155  28.629  31.624  1.00  0.00     0.074 A 
ATOM     62  C   UNL A   1      43.570  27.433  30.920  1.00  0.00     0.031 C 
ATOM     63  C   UNL A   1      43.836  29.178  32.661  1.00  0.00     0.037 A 
BRANCH  50  64
ATOM     64  C   UNL A   1      41.304  34.356  34.896  1.00  0.00     0.057 A 
ATOM     65  C   UNL A   1      41.915  35.571  34.556  1.00  0.00     0.134 A 
ATOM     66  C   UNL A   1      40.743  34.254  36.175  1.00  0.00     0.134 A 
ATOM     67  F   UNL A   1      42.485  35.732  33.352  1.00  0.00    -0.206 F 
ATOM     68  C   UNL A   1      41.990  36.631  35.461  1.00  0.00     0.040 A 
ATOM     69  C   UNL A   1      40.784  35.318  37.078  1.00  0.00     0.040 A 
ATOM     70  F   UNL A   1      40.137  33.122  36.566  1.00  0.00    -0.206 F 
ATOM     71  C   UNL A   1      41.414  36.508  36.724  1.00  0.00     0.006 A 
ENDBRANCH  50  64
BRANCH  51  72
ATOM     72  C   UNL A   1      40.472  27.091  28.078  1.00  0.00     0.057 A 
ATOM     73  C   UNL A   1      39.726  25.928  28.307  1.00  0.00     0.134 A 
ATOM     74  C   UNL A   1      41.126  27.204  26.845  1.00  0.00     0.134 A 
ATOM     75  F   UNL A   1      39.089  25.753  29.474  1.00  0.00    -0.206 F 
ATOM     76  C   UNL A   1      39.653  24.907  27.358  1.00  0.00     0.040 A 
ATOM     77  C   UNL A   1      41.038  26.203  25.876  1.00  0.00     0.040 A 
ATOM     78  F   UNL A   1      41.848  28.297  26.560  1.00  0.00    -0.206 F 
ATOM     79  C   UNL A   1      40.307  25.047  26.136  1.00  0.00     0.006 A 
ENDBRANCH  51  72
BRANCH  63  80
ATOM     80  C   UNL A   1      45.078  28.470  33.120  1.00  0.00     0.057 A 
ATOM     81  C   UNL A   1      45.039  27.441  34.067  1.00  0.00     0.134 A 
ATOM     82  C   UNL A   1      46.326  28.798  32.573  1.00  0.00     0.134 A 
ATOM     83  F   UNL A   1      43.878  27.086  34.640  1.00  0.00    -0.206 F 
ATOM     84  C   UNL A   1      46.200  26.779  34.473  1.00  0.00     0.040 A 
ATOM     85  C   UNL A   1      47.488  28.124  32.947  1.00  0.00     0.040 A 
ATOM     86  F   UNL A   1      46.432  29.769  31.652  1.00  0.00    -0.206 F 
ATOM     87  C   UNL A   1      47.427  27.115  33.905  1.00  0.00     0.006 A 
ENDBRANCH  63  80
ENDBRANCH  37  38
ENDBRANCH  29  32
ENDBRANCH  27  28
ENDBRANCH  26  27
ENDBRANCH  25  26
ENDBRANCH  24  25
ENDBRANCH   1  24
TORSDOF 18
ENDMDL
