MODEL 1
REMARK VINA RESULT:     -11.7      0.000      0.000
REMARK SMILES COc1ccc2cc([C@@H](C)C(=O)NCCCCCCNC(=O)c3ccc(-c4c5nc(c(-c6c(F)cccc6F)c6ccc([nH]6)c(-c6c(F)cccc6F)c6nc(c(-c7c(F)cccc7F)c7ccc4[nH]7)C=C6)C=C5)cc3)ccc2c1
REMARK SMILES IDX 16 1 15 2 14 3 13 4 11 5 12 6 9 8 10 9 8 10 3 11 4 12 80 13
REMARK SMILES IDX 5 14 79 15 6 16 78 17 7 18 77 19 2 20 1 21 17 22 18 23 19 24
REMARK SMILES IDX 20 25 21 26 22 28 23 29 24 30 76 31 25 32 75 33 26 34 27 35
REMARK SMILES IDX 28 36 69 37 29 38 74 39 68 40 70 41 30 42 73 43 67 44 66 45
REMARK SMILES IDX 31 47 57 48 40 49 56 50 41 51 44 52 55 53 71 54 42 55 43 56
REMARK SMILES IDX 54 58 72 59 45 60 32 61 33 62 38 63 34 64 35 65 37 66 39 67
REMARK SMILES IDX 36 68 58 69 59 70 64 71 60 72 61 73 63 74 65 75 62 76 46 77
REMARK SMILES IDX 47 78 52 79 48 80 49 81 51 82 53 83 50 84
REMARK H PARENT 13 7 20 27 70 46 44 57
REMARK Flexibility Score: inf
ROOT
ATOM      1  C   UNL A   1      32.170  29.626  26.092  1.00  0.00     0.002 C 
ENDROOT
BRANCH   1   2
ATOM      2  C   UNL A   1      31.622  28.423  26.866  1.00  0.00     0.021 C 
BRANCH   2   3
ATOM      3  C   UNL A   1      32.304  27.097  26.520  1.00  0.00     0.116 C 
BRANCH   3   4
ATOM      4  N   UNL A   1      31.472  25.961  26.864  1.00  0.00    -0.356 N 
ATOM      5  C   UNL A   1      30.793  25.063  26.100  1.00  0.00     0.227 C 
ATOM      6  O   UNL A   1      30.082  24.256  26.713  1.00  0.00    -0.274 OA
ATOM      7  H   UNL A   1      31.381  25.812  27.832  1.00  0.00     0.163 HD
BRANCH   5   8
ATOM      8  C   UNL A   1      30.874  24.996  24.567  1.00  0.00     0.105 C 
ATOM      9  C   UNL A   1      32.061  24.196  24.031  1.00  0.00     0.023 C 
BRANCH   8  10
ATOM     10  C   UNL A   1      30.615  26.330  23.883  1.00  0.00    -0.035 A 
ATOM     11  C   UNL A   1      28.600  30.470  21.712  1.00  0.00     0.119 A 
ATOM     12  C   UNL A   1      27.565  29.842  22.400  1.00  0.00     0.047 A 
ATOM     13  C   UNL A   1      29.879  29.906  21.720  1.00  0.00     0.055 A 
ATOM     14  C   UNL A   1      27.821  28.690  23.144  1.00  0.00     0.012 A 
ATOM     15  C   UNL A   1      30.147  28.732  22.445  1.00  0.00    -0.015 A 
ATOM     16  C   UNL A   1      29.108  28.133  23.183  1.00  0.00    -0.018 A 
ATOM     17  C   UNL A   1      31.414  28.134  22.449  1.00  0.00     0.009 A 
ATOM     18  C   UNL A   1      29.371  26.971  23.928  1.00  0.00     0.013 A 
ATOM     19  C   UNL A   1      31.638  26.938  23.139  1.00  0.00     0.005 A 
BRANCH  11  20
ATOM     20  O   UNL A   1      28.463  31.613  20.973  1.00  0.00    -0.497 OA
ATOM     21  C   UNL A   1      28.179  32.788  21.729  1.00  0.00     0.278 C 
ENDBRANCH  11  20
ENDBRANCH   8  10
ENDBRANCH   5   8
ENDBRANCH   3   4
ENDBRANCH   2   3
ENDBRANCH   1   2
BRANCH   1  22
ATOM     22  C   UNL A   1      31.107  30.581  25.533  1.00  0.00     0.002 C 
BRANCH  22  23
ATOM     23  C   UNL A   1      31.084  31.985  26.146  1.00  0.00     0.021 C 
BRANCH  23  24
ATOM     24  C   UNL A   1      32.310  32.346  26.983  1.00  0.00     0.116 C 
BRANCH  24  25
ATOM     25  N   UNL A   1      32.304  33.745  27.382  1.00  0.00    -0.352 N 
ATOM     26  C   UNL A   1      33.079  34.401  28.306  1.00  0.00     0.251 C 
ATOM     27  H   UNL A   1      31.642  34.307  26.919  1.00  0.00     0.163 HD
ATOM     28  O   UNL A   1      32.778  35.534  28.666  1.00  0.00    -0.269 OA
BRANCH  26  29
ATOM     29  C   UNL A   1      34.276  33.747  28.879  1.00  0.00     0.039 A 
ATOM     30  C   UNL A   1      35.541  34.222  28.524  1.00  0.00     0.014 A 
ATOM     31  C   UNL A   1      34.156  32.641  29.727  1.00  0.00     0.014 A 
ATOM     32  C   UNL A   1      36.685  33.630  29.066  1.00  0.00     0.010 A 
ATOM     33  C   UNL A   1      35.293  32.087  30.310  1.00  0.00     0.010 A 
ATOM     34  C   UNL A   1      36.568  32.577  29.988  1.00  0.00    -0.014 A 
BRANCH  34  35
ATOM     35  C   UNL A   1      37.766  31.982  30.634  1.00  0.00     0.031 A 
ATOM     36  C   UNL A   1      38.529  30.883  29.947  1.00  0.00     0.074 A 
ATOM     37  C   UNL A   1      38.121  32.380  31.870  1.00  0.00     0.049 A 
ATOM     38  N   UNL A   1      39.528  30.167  30.396  1.00  0.00    -0.248 NA
ATOM     39  C   UNL A   1      38.100  30.530  28.585  1.00  0.00     0.031 C 
ATOM     40  C   UNL A   1      37.442  33.412  32.655  1.00  0.00     0.029 A 
ATOM     41  N   UNL A   1      39.134  31.951  32.691  1.00  0.00    -0.354 N 
ATOM     42  C   UNL A   1      39.838  29.272  29.380  1.00  0.00     0.074 A 
ATOM     43  C   UNL A   1      38.894  29.507  28.307  1.00  0.00     0.031 C 
ATOM     44  C   UNL A   1      38.060  33.540  33.841  1.00  0.00     0.029 A 
ATOM     45  C   UNL A   1      39.154  32.576  33.914  1.00  0.00     0.049 A 
ATOM     46  H   UNL A   1      39.785  31.259  32.429  1.00  0.00     0.167 HD
ATOM     47  C   UNL A   1      40.830  28.350  29.337  1.00  0.00     0.037 A 
ATOM     48  C   UNL A   1      39.952  32.384  34.980  1.00  0.00     0.037 A 
ATOM     49  C   UNL A   1      41.783  28.132  30.394  1.00  0.00     0.049 A 
ATOM     50  C   UNL A   1      41.039  31.347  34.910  1.00  0.00     0.074 A 
ATOM     51  C   UNL A   1      42.851  27.252  30.423  1.00  0.00     0.029 A 
ATOM     52  N   UNL A   1      41.784  28.803  31.607  1.00  0.00    -0.354 N 
ATOM     53  N   UNL A   1      41.347  30.539  33.925  1.00  0.00    -0.248 NA
ATOM     54  C   UNL A   1      41.890  31.197  36.099  1.00  0.00     0.031 C 
ATOM     55  C   UNL A   1      43.479  27.367  31.669  1.00  0.00     0.029 A 
ATOM     56  C   UNL A   1      42.825  28.346  32.399  1.00  0.00     0.049 A 
ATOM     57  H   UNL A   1      41.140  29.501  31.867  1.00  0.00     0.167 HD
ATOM     58  C   UNL A   1      42.440  29.804  34.364  1.00  0.00     0.074 A 
ATOM     59  C   UNL A   1      42.751  30.272  35.699  1.00  0.00     0.031 C 
ATOM     60  C   UNL A   1      43.125  28.827  33.722  1.00  0.00     0.037 A 
BRANCH  47  61
ATOM     61  C   UNL A   1      40.944  27.511  28.099  1.00  0.00     0.057 A 
ATOM     62  C   UNL A   1      40.268  26.291  27.973  1.00  0.00     0.134 A 
ATOM     63  C   UNL A   1      41.695  27.951  27.001  1.00  0.00     0.134 A 
ATOM     64  F   UNL A   1      39.541  25.809  28.991  1.00  0.00    -0.206 F 
ATOM     65  C   UNL A   1      40.351  25.528  26.806  1.00  0.00     0.040 A 
ATOM     66  C   UNL A   1      41.767  27.208  25.821  1.00  0.00     0.040 A 
ATOM     67  F   UNL A   1      42.363  29.113  27.055  1.00  0.00    -0.206 F 
ATOM     68  C   UNL A   1      41.095  25.991  25.724  1.00  0.00     0.006 A 
ENDBRANCH  47  61
BRANCH  48  69
ATOM     69  C   UNL A   1      39.762  33.193  36.210  1.00  0.00     0.057 A 
ATOM     70  C   UNL A   1      38.879  32.781  37.214  1.00  0.00     0.134 A 
ATOM     71  C   UNL A   1      40.441  34.402  36.401  1.00  0.00     0.134 A 
ATOM     72  F   UNL A   1      38.185  31.643  37.078  1.00  0.00    -0.206 F 
ATOM     73  C   UNL A   1      38.660  33.554  38.356  1.00  0.00     0.040 A 
ATOM     74  C   UNL A   1      40.250  35.173  37.549  1.00  0.00     0.040 A 
ATOM     75  F   UNL A   1      41.306  34.847  35.478  1.00  0.00    -0.206 F 
ATOM     76  C   UNL A   1      39.351  34.752  38.527  1.00  0.00     0.006 A 
ENDBRANCH  48  69
BRANCH  60  77
ATOM     77  C   UNL A   1      44.293  28.223  34.442  1.00  0.00     0.057 A 
ATOM     78  C   UNL A   1      45.576  28.777  34.359  1.00  0.00     0.134 A 
ATOM     79  C   UNL A   1      44.124  27.094  35.253  1.00  0.00     0.134 A 
ATOM     80  F   UNL A   1      45.804  29.850  33.586  1.00  0.00    -0.206 F 
ATOM     81  C   UNL A   1      46.657  28.216  35.041  1.00  0.00     0.040 A 
ATOM     82  C   UNL A   1      45.191  26.538  35.959  1.00  0.00     0.040 A 
ATOM     83  F   UNL A   1      42.918  26.521  35.380  1.00  0.00    -0.206 F 
ATOM     84  C   UNL A   1      46.464  27.096  35.849  1.00  0.00     0.006 A 
ENDBRANCH  60  77
ENDBRANCH  34  35
ENDBRANCH  26  29
ENDBRANCH  24  25
ENDBRANCH  23  24
ENDBRANCH  22  23
ENDBRANCH   1  22
TORSDOF 15
ENDMDL
MODEL 2
REMARK VINA RESULT:     -11.5      4.922     10.043
REMARK SMILES COc1ccc2cc([C@@H](C)C(=O)NCCCCCCNC(=O)c3ccc(-c4c5nc(c(-c6c(F)cccc6F)c6ccc([nH]6)c(-c6c(F)cccc6F)c6nc(c(-c7c(F)cccc7F)c7ccc4[nH]7)C=C6)C=C5)cc3)ccc2c1
REMARK SMILES IDX 16 1 15 2 14 3 13 4 11 5 12 6 9 8 10 9 8 10 3 11 4 12 80 13
REMARK SMILES IDX 5 14 79 15 6 16 78 17 7 18 77 19 2 20 1 21 17 22 18 23 19 24
REMARK SMILES IDX 20 25 21 26 22 28 23 29 24 30 76 31 25 32 75 33 26 34 27 35
REMARK SMILES IDX 28 36 69 37 29 38 74 39 68 40 70 41 30 42 73 43 67 44 66 45
REMARK SMILES IDX 31 47 57 48 40 49 56 50 41 51 44 52 55 53 71 54 42 55 43 56
REMARK SMILES IDX 54 58 72 59 45 60 32 61 33 62 38 63 34 64 35 65 37 66 39 67
REMARK SMILES IDX 36 68 58 69 59 70 64 71 60 72 61 73 63 74 65 75 62 76 46 77
REMARK SMILES IDX 47 78 52 79 48 80 49 81 51 82 53 83 50 84
REMARK H PARENT 13 7 20 27 70 46 44 57
REMARK Flexibility Score: inf
ROOT
ATOM      1  C   UNL A   1      36.222  21.702  24.493  1.00  0.00     0.002 C 
ENDROOT
BRANCH   1   2
ATOM      2  C   UNL A   1      35.674  22.654  25.561  1.00  0.00     0.021 C 
BRANCH   2   3
ATOM      3  C   UNL A   1      35.002  23.907  24.992  1.00  0.00     0.116 C 
BRANCH   3   4
ATOM      4  N   UNL A   1      33.749  24.192  25.661  1.00  0.00    -0.356 N 
ATOM      5  C   UNL A   1      32.455  24.126  25.244  1.00  0.00     0.227 C 
ATOM      6  O   UNL A   1      31.604  24.539  26.042  1.00  0.00    -0.274 OA
ATOM      7  H   UNL A   1      33.853  24.491  26.593  1.00  0.00     0.163 HD
BRANCH   5   8
ATOM      8  C   UNL A   1      32.015  23.569  23.881  1.00  0.00     0.105 C 
ATOM      9  C   UNL A   1      30.726  24.181  23.334  1.00  0.00     0.023 C 
BRANCH   8  10
ATOM     10  C   UNL A   1      32.121  22.055  23.777  1.00  0.00    -0.035 A 
ATOM     11  C   UNL A   1      32.944  17.087  24.526  1.00  0.00     0.119 A 
ATOM     12  C   UNL A   1      33.026  17.693  25.777  1.00  0.00     0.047 A 
ATOM     13  C   UNL A   1      32.693  17.868  23.393  1.00  0.00     0.055 A 
ATOM     14  C   UNL A   1      32.796  19.064  25.903  1.00  0.00     0.012 A 
ATOM     15  C   UNL A   1      32.482  19.253  23.502  1.00  0.00    -0.015 A 
ATOM     16  C   UNL A   1      32.513  19.851  24.777  1.00  0.00    -0.018 A 
ATOM     17  C   UNL A   1      32.253  20.060  22.379  1.00  0.00     0.009 A 
ATOM     18  C   UNL A   1      32.284  21.231  24.898  1.00  0.00     0.013 A 
ATOM     19  C   UNL A   1      32.098  21.444  22.514  1.00  0.00     0.005 A 
BRANCH  11  20
ATOM     20  O   UNL A   1      33.128  15.752  24.294  1.00  0.00    -0.497 OA
ATOM     21  C   UNL A   1      32.841  14.903  25.403  1.00  0.00     0.278 C 
ENDBRANCH  11  20
ENDBRANCH   8  10
ENDBRANCH   5   8
ENDBRANCH   3   4
ENDBRANCH   2   3
ENDBRANCH   1   2
BRANCH   1  22
ATOM     22  C   UNL A   1      36.185  20.214  24.866  1.00  0.00     0.002 C 
BRANCH  22  23
ATOM     23  C   UNL A   1      37.529  19.481  24.816  1.00  0.00     0.021 C 
BRANCH  23  24
ATOM     24  C   UNL A   1      38.652  20.133  25.621  1.00  0.00     0.116 C 
BRANCH  24  25
ATOM     25  N   UNL A   1      39.815  19.266  25.733  1.00  0.00    -0.352 N 
ATOM     26  C   UNL A   1      41.116  19.573  26.047  1.00  0.00     0.251 C 
ATOM     27  H   UNL A   1      39.643  18.313  25.557  1.00  0.00     0.163 HD
ATOM     28  O   UNL A   1      42.001  18.742  25.874  1.00  0.00    -0.269 OA
BRANCH  26  29
ATOM     29  C   UNL A   1      41.462  20.907  26.584  1.00  0.00     0.039 A 
ATOM     30  C   UNL A   1      41.404  21.115  27.965  1.00  0.00     0.014 A 
ATOM     31  C   UNL A   1      41.798  21.963  25.731  1.00  0.00     0.014 A 
ATOM     32  C   UNL A   1      41.742  22.362  28.497  1.00  0.00     0.010 A 
ATOM     33  C   UNL A   1      42.189  23.189  26.264  1.00  0.00     0.010 A 
ATOM     34  C   UNL A   1      42.167  23.400  27.652  1.00  0.00    -0.014 A 
BRANCH  34  35
ATOM     35  C   UNL A   1      42.602  24.710  28.199  1.00  0.00     0.031 A 
ATOM     36  C   UNL A   1      41.598  25.804  28.436  1.00  0.00     0.074 A 
ATOM     37  C   UNL A   1      43.911  24.939  28.413  1.00  0.00     0.049 A 
ATOM     38  N   UNL A   1      41.798  27.044  28.802  1.00  0.00    -0.248 NA
ATOM     39  C   UNL A   1      40.185  25.464  28.212  1.00  0.00     0.031 C 
ATOM     40  C   UNL A   1      44.988  23.971  28.190  1.00  0.00     0.029 A 
ATOM     41  N   UNL A   1      44.563  26.065  28.851  1.00  0.00    -0.354 N 
ATOM     42  C   UNL A   1      40.542  27.635  28.840  1.00  0.00     0.074 A 
ATOM     43  C   UNL A   1      39.589  26.630  28.419  1.00  0.00     0.031 C 
ATOM     44  C   UNL A   1      46.163  24.544  28.498  1.00  0.00     0.029 A 
ATOM     45  C   UNL A   1      45.928  25.926  28.904  1.00  0.00     0.049 A 
ATOM     46  H   UNL A   1      44.096  26.895  29.103  1.00  0.00     0.167 HD
ATOM     47  C   UNL A   1      40.211  28.896  29.209  1.00  0.00     0.037 A 
ATOM     48  C   UNL A   1      46.885  26.815  29.228  1.00  0.00     0.037 A 
ATOM     49  C   UNL A   1      41.155  29.889  29.650  1.00  0.00     0.049 A 
ATOM     50  C   UNL A   1      46.490  28.211  29.623  1.00  0.00     0.074 A 
ATOM     51  C   UNL A   1      40.908  31.179  30.087  1.00  0.00     0.029 A 
ATOM     52  N   UNL A   1      42.527  29.701  29.713  1.00  0.00    -0.354 N 
ATOM     53  N   UNL A   1      45.294  28.741  29.696  1.00  0.00    -0.248 NA
ATOM     54  C   UNL A   1      47.579  29.131  29.984  1.00  0.00     0.031 C 
ATOM     55  C   UNL A   1      42.136  31.783  30.382  1.00  0.00     0.029 A 
ATOM     56  C   UNL A   1      43.142  30.856  30.166  1.00  0.00     0.049 A 
ATOM     57  H   UNL A   1      42.995  28.869  29.470  1.00  0.00     0.167 HD
ATOM     58  C   UNL A   1      45.483  30.046  30.134  1.00  0.00     0.074 A 
ATOM     59  C   UNL A   1      46.907  30.222  30.323  1.00  0.00     0.031 C 
ATOM     60  C   UNL A   1      44.560  31.013  30.357  1.00  0.00     0.037 A 
BRANCH  47  61
ATOM     61  C   UNL A   1      38.759  29.272  29.163  1.00  0.00     0.057 A 
ATOM     62  C   UNL A   1      38.133  29.641  27.966  1.00  0.00     0.134 A 
ATOM     63  C   UNL A   1      37.967  29.217  30.317  1.00  0.00     0.134 A 
ATOM     64  F   UNL A   1      38.838  29.724  26.828  1.00  0.00    -0.206 F 
ATOM     65  C   UNL A   1      36.774  29.960  27.921  1.00  0.00     0.040 A 
ATOM     66  C   UNL A   1      36.602  29.511  30.280  1.00  0.00     0.040 A 
ATOM     67  F   UNL A   1      38.503  28.866  31.495  1.00  0.00    -0.206 F 
ATOM     68  C   UNL A   1      36.004  29.887  29.079  1.00  0.00     0.006 A 
ENDBRANCH  47  61
BRANCH  48  69
ATOM     69  C   UNL A   1      48.315  26.418  29.197  1.00  0.00     0.057 A 
ATOM     70  C   UNL A   1      49.097  26.626  28.055  1.00  0.00     0.134 A 
ATOM     71  C   UNL A   1      48.926  25.804  30.296  1.00  0.00     0.134 A 
ATOM     72  F   UNL A   1      48.561  27.191  26.964  1.00  0.00    -0.206 F 
ATOM     73  C   UNL A   1      50.431  26.219  28.000  1.00  0.00     0.040 A 
ATOM     74  C   UNL A   1      50.266  25.413  30.263  1.00  0.00     0.040 A 
ATOM     75  F   UNL A   1      48.231  25.583  31.422  1.00  0.00    -0.206 F 
ATOM     76  C   UNL A   1      51.020  25.614  29.108  1.00  0.00     0.006 A 
ENDBRANCH  48  69
BRANCH  60  77
ATOM     77  C   UNL A   1      45.061  32.334  30.858  1.00  0.00     0.057 A 
ATOM     78  C   UNL A   1      45.217  32.592  32.226  1.00  0.00     0.134 A 
ATOM     79  C   UNL A   1      45.421  33.347  29.962  1.00  0.00     0.134 A 
ATOM     80  F   UNL A   1      44.875  31.666  33.135  1.00  0.00    -0.206 F 
ATOM     81  C   UNL A   1      45.694  33.820  32.685  1.00  0.00     0.040 A 
ATOM     82  C   UNL A   1      45.922  34.570  30.407  1.00  0.00     0.040 A 
ATOM     83  F   UNL A   1      45.301  33.160  28.638  1.00  0.00    -0.206 F 
ATOM     84  C   UNL A   1      46.053  34.812  31.774  1.00  0.00     0.006 A 
ENDBRANCH  60  77
ENDBRANCH  34  35
ENDBRANCH  26  29
ENDBRANCH  24  25
ENDBRANCH  23  24
ENDBRANCH  22  23
ENDBRANCH   1  22
TORSDOF 15
ENDMDL
MODEL 3
REMARK VINA RESULT:     -11.5      4.910      9.618
REMARK SMILES COc1ccc2cc([C@@H](C)C(=O)NCCCCCCNC(=O)c3ccc(-c4c5nc(c(-c6c(F)cccc6F)c6ccc([nH]6)c(-c6c(F)cccc6F)c6nc(c(-c7c(F)cccc7F)c7ccc4[nH]7)C=C6)C=C5)cc3)ccc2c1
REMARK SMILES IDX 16 1 15 2 14 3 13 4 11 5 12 6 9 8 10 9 8 10 3 11 4 12 80 13
REMARK SMILES IDX 5 14 79 15 6 16 78 17 7 18 77 19 2 20 1 21 17 22 18 23 19 24
REMARK SMILES IDX 20 25 21 26 22 28 23 29 24 30 76 31 25 32 75 33 26 34 27 35
REMARK SMILES IDX 28 36 69 37 29 38 74 39 68 40 70 41 30 42 73 43 67 44 66 45
REMARK SMILES IDX 31 47 57 48 40 49 56 50 41 51 44 52 55 53 71 54 42 55 43 56
REMARK SMILES IDX 54 58 72 59 45 60 32 61 33 62 38 63 34 64 35 65 37 66 39 67
REMARK SMILES IDX 36 68 58 69 59 70 64 71 60 72 61 73 63 74 65 75 62 76 46 77
REMARK SMILES IDX 47 78 52 79 48 80 49 81 51 82 53 83 50 84
REMARK H PARENT 13 7 20 27 70 46 44 57
REMARK Flexibility Score: inf
ROOT
ATOM      1  C   UNL A   1      36.735  21.897  24.825  1.00  0.00     0.002 C 
ENDROOT
BRANCH   1   2
ATOM      2  C   UNL A   1      36.022  22.728  23.753  1.00  0.00     0.021 C 
BRANCH   2   3
ATOM      3  C   UNL A   1      35.238  23.920  24.308  1.00  0.00     0.116 C 
BRANCH   3   4
ATOM      4  N   UNL A   1      34.209  24.359  23.387  1.00  0.00    -0.356 N 
ATOM      5  C   UNL A   1      32.866  24.145  23.350  1.00  0.00     0.227 C 
ATOM      6  O   UNL A   1      32.272  24.585  22.357  1.00  0.00    -0.274 OA
ATOM      7  H   UNL A   1      34.545  24.916  22.649  1.00  0.00     0.163 HD
BRANCH   5   8
ATOM      8  C   UNL A   1      32.076  23.420  24.450  1.00  0.00     0.105 C 
ATOM      9  C   UNL A   1      31.921  24.215  25.747  1.00  0.00     0.023 C 
BRANCH   8  10
ATOM     10  C   UNL A   1      32.460  21.957  24.616  1.00  0.00    -0.035 A 
ATOM     11  C   UNL A   1      33.139  16.934  24.148  1.00  0.00     0.119 A 
ATOM     12  C   UNL A   1      32.715  17.392  22.903  1.00  0.00     0.047 A 
ATOM     13  C   UNL A   1      33.275  17.835  25.208  1.00  0.00     0.055 A 
ATOM     14  C   UNL A   1      32.488  18.754  22.703  1.00  0.00     0.012 A 
ATOM     15  C   UNL A   1      33.028  19.206  25.027  1.00  0.00    -0.015 A 
ATOM     16  C   UNL A   1      32.652  19.671  23.752  1.00  0.00    -0.018 A 
ATOM     17  C   UNL A   1      33.135  20.126  26.079  1.00  0.00     0.009 A 
ATOM     18  C   UNL A   1      32.423  21.043  23.556  1.00  0.00     0.013 A 
ATOM     19  C   UNL A   1      32.833  21.477  25.881  1.00  0.00     0.005 A 
BRANCH  11  20
ATOM     20  O   UNL A   1      33.410  15.626  24.445  1.00  0.00    -0.497 OA
ATOM     21  C   UNL A   1      32.601  15.062  25.473  1.00  0.00     0.278 C 
ENDBRANCH  11  20
ENDBRANCH   8  10
ENDBRANCH   5   8
ENDBRANCH   3   4
ENDBRANCH   2   3
ENDBRANCH   1   2
BRANCH   1  22
ATOM     22  C   UNL A   1      36.453  20.390  24.777  1.00  0.00     0.002 C 
BRANCH  22  23
ATOM     23  C   UNL A   1      37.660  19.478  25.021  1.00  0.00     0.021 C 
BRANCH  23  24
ATOM     24  C   UNL A   1      38.857  20.153  25.687  1.00  0.00     0.116 C 
BRANCH  24  25
ATOM     25  N   UNL A   1      40.000  19.259  25.788  1.00  0.00    -0.352 N 
ATOM     26  C   UNL A   1      41.314  19.537  26.069  1.00  0.00     0.251 C 
ATOM     27  H   UNL A   1      39.800  18.308  25.629  1.00  0.00     0.163 HD
ATOM     28  O   UNL A   1      42.175  18.681  25.890  1.00  0.00    -0.269 OA
BRANCH  26  29
ATOM     29  C   UNL A   1      41.705  20.869  26.580  1.00  0.00     0.039 A 
ATOM     30  C   UNL A   1      42.176  21.827  25.679  1.00  0.00     0.014 A 
ATOM     31  C   UNL A   1      41.651  21.161  27.947  1.00  0.00     0.014 A 
ATOM     32  C   UNL A   1      42.536  23.098  26.137  1.00  0.00     0.010 A 
ATOM     33  C   UNL A   1      41.957  22.444  28.396  1.00  0.00     0.010 A 
ATOM     34  C   UNL A   1      42.399  23.425  27.495  1.00  0.00    -0.014 A 
BRANCH  34  35
ATOM     35  C   UNL A   1      42.704  24.791  27.993  1.00  0.00     0.031 A 
ATOM     36  C   UNL A   1      44.104  25.151  28.407  1.00  0.00     0.074 A 
ATOM     37  C   UNL A   1      41.706  25.682  28.141  1.00  0.00     0.049 A 
ATOM     38  N   UNL A   1      44.542  26.250  28.966  1.00  0.00    -0.248 NA
ATOM     39  C   UNL A   1      45.143  24.135  28.181  1.00  0.00     0.031 C 
ATOM     40  C   UNL A   1      40.300  25.443  27.808  1.00  0.00     0.029 A 
ATOM     41  N   UNL A   1      41.718  26.966  28.627  1.00  0.00    -0.354 N 
ATOM     42  C   UNL A   1      45.902  26.054  29.170  1.00  0.00     0.074 A 
ATOM     43  C   UNL A   1      46.209  24.715  28.713  1.00  0.00     0.031 C 
ATOM     44  C   UNL A   1      39.587  26.545  28.094  1.00  0.00     0.029 A 
ATOM     45  C   UNL A   1      40.477  27.553  28.663  1.00  0.00     0.049 A 
ATOM     46  H   UNL A   1      42.539  27.423  28.923  1.00  0.00     0.167 HD
ATOM     47  C   UNL A   1      46.815  26.917  29.676  1.00  0.00     0.037 A 
ATOM     48  C   UNL A   1      40.094  28.761  29.118  1.00  0.00     0.037 A 
ATOM     49  C   UNL A   1      46.515  28.258  30.109  1.00  0.00     0.049 A 
ATOM     50  C   UNL A   1      41.127  29.696  29.684  1.00  0.00     0.074 A 
ATOM     51  C   UNL A   1      47.382  29.222  30.593  1.00  0.00     0.029 A 
ATOM     52  N   UNL A   1      45.250  28.823  30.106  1.00  0.00    -0.354 N 
ATOM     53  N   UNL A   1      42.416  29.511  29.829  1.00  0.00    -0.248 NA
ATOM     54  C   UNL A   1      40.651  31.007  30.147  1.00  0.00     0.031 C 
ATOM     55  C   UNL A   1      46.635  30.360  30.916  1.00  0.00     0.029 A 
ATOM     56  C   UNL A   1      45.310  30.117  30.595  1.00  0.00     0.049 A 
ATOM     57  H   UNL A   1      44.429  28.371  29.802  1.00  0.00     0.167 HD
ATOM     58  C   UNL A   1      42.909  30.689  30.376  1.00  0.00     0.074 A 
ATOM     59  C   UNL A   1      41.782  31.587  30.522  1.00  0.00     0.031 C 
ATOM     60  C   UNL A   1      44.180  31.000  30.727  1.00  0.00     0.037 A 
BRANCH  47  61
ATOM     61  C   UNL A   1      48.235  26.443  29.779  1.00  0.00     0.057 A 
ATOM     62  C   UNL A   1      49.165  26.676  28.757  1.00  0.00     0.134 A 
ATOM     63  C   UNL A   1      48.691  25.792  30.933  1.00  0.00     0.134 A 
ATOM     64  F   UNL A   1      48.788  27.285  27.623  1.00  0.00    -0.206 F 
ATOM     65  C   UNL A   1      50.493  26.262  28.871  1.00  0.00     0.040 A 
ATOM     66  C   UNL A   1      50.023  25.394  31.067  1.00  0.00     0.040 A 
ATOM     67  F   UNL A   1      47.854  25.543  31.950  1.00  0.00    -0.206 F 
ATOM     68  C   UNL A   1      50.926  25.626  30.032  1.00  0.00     0.006 A 
ENDBRANCH  47  61
BRANCH  48  69
ATOM     69  C   UNL A   1      38.667  29.164  29.055  1.00  0.00     0.057 A 
ATOM     70  C   UNL A   1      38.107  29.654  27.870  1.00  0.00     0.134 A 
ATOM     71  C   UNL A   1      37.838  29.087  30.180  1.00  0.00     0.134 A 
ATOM     72  F   UNL A   1      38.858  29.769  26.766  1.00  0.00    -0.206 F 
ATOM     73  C   UNL A   1      36.777  30.075  27.811  1.00  0.00     0.040 A 
ATOM     74  C   UNL A   1      36.499  29.482  30.129  1.00  0.00     0.040 A 
ATOM     75  F   UNL A   1      38.314  28.620  31.344  1.00  0.00    -0.206 F 
ATOM     76  C   UNL A   1      35.968  29.985  28.942  1.00  0.00     0.006 A 
ENDBRANCH  48  69
BRANCH  60  77
ATOM     77  C   UNL A   1      44.422  32.375  31.275  1.00  0.00     0.057 A 
ATOM     78  C   UNL A   1      44.359  32.643  32.648  1.00  0.00     0.134 A 
ATOM     79  C   UNL A   1      44.753  33.434  30.421  1.00  0.00     0.134 A 
ATOM     80  F   UNL A   1      44.033  31.673  33.515  1.00  0.00    -0.206 F 
ATOM     81  C   UNL A   1      44.597  33.923  33.150  1.00  0.00     0.040 A 
ATOM     82  C   UNL A   1      45.016  34.712  30.913  1.00  0.00     0.040 A 
ATOM     83  F   UNL A   1      44.836  33.240  29.095  1.00  0.00    -0.206 F 
ATOM     84  C   UNL A   1      44.932  34.961  32.282  1.00  0.00     0.006 A 
ENDBRANCH  60  77
ENDBRANCH  34  35
ENDBRANCH  26  29
ENDBRANCH  24  25
ENDBRANCH  23  24
ENDBRANCH  22  23
ENDBRANCH   1  22
TORSDOF 15
ENDMDL
