MODEL 1
REMARK VINA RESULT:     -11.4      0.000      0.000
REMARK SMILES CC(C)c1cc(OCC(=O)NCCCCCCNC(=O)c2ccc(-c3c4nc(c(-c5c(F)cccc5F)c5ccc([nH]5)c(-c5c(F)cccc5F)c5nc(c(-c6c(F)cccc6F)c6ccc3[nH]6)C=C5)C=C4)cc2)nc(Nc2ccc(F)cc2F)n1
REMARK SMILES IDX 13 1 12 2 11 3 9 4 10 5 8 7 7 8 6 9 4 10 5 11 86 12 76 13
REMARK SMILES IDX 75 14 2 15 1 16 3 17 77 18 78 20 79 21 84 22 80 23 83 24
REMARK SMILES IDX 85 25 81 26 82 27 14 28 15 29 16 30 17 31 18 32 19 33 20 35
REMARK SMILES IDX 21 36 22 37 74 38 23 39 73 40 24 41 25 42 26 43 67 44 27 45
REMARK SMILES IDX 72 46 66 47 68 48 28 49 71 50 65 51 64 52 29 54 55 55 38 56
REMARK SMILES IDX 54 57 39 58 42 59 53 60 69 61 40 62 41 63 52 65 70 66 43 67
REMARK SMILES IDX 30 68 31 69 36 70 32 71 33 72 35 73 37 74 34 75 56 76 57 77
REMARK SMILES IDX 62 78 58 79 59 80 61 81 63 82 60 83 44 84 45 85 50 86 46 87
REMARK SMILES IDX 47 88 49 89 51 90 48 91
REMARK H PARENT 11 6 77 19 18 34 68 53 42 64
REMARK Flexibility Score: inf
ROOT
ATOM      1  C   UNL A   1      34.701  31.493  28.503  1.00  0.00     0.021 C 
ENDROOT
BRANCH   1   2
ATOM      2  C   UNL A   1      33.597  31.232  27.480  1.00  0.00     0.116 C 
BRANCH   2   3
ATOM      3  N   UNL A   1      32.950  29.956  27.700  1.00  0.00    -0.353 N 
ATOM      4  C   UNL A   1      33.101  28.798  26.998  1.00  0.00     0.258 C 
ATOM      5  O   UNL A   1      32.457  27.805  27.339  1.00  0.00    -0.271 OA
ATOM      6  H   UNL A   1      32.318  29.919  28.453  1.00  0.00     0.163 HD
BRANCH   4   7
ATOM      7  C   UNL A   1      34.081  28.744  25.818  1.00  0.00     0.331 C 
BRANCH   7   8
ATOM      8  O   UNL A   1      33.594  29.127  24.544  1.00  0.00    -0.467 OA
BRANCH   8   9
ATOM      9  C   UNL A   1      32.581  28.398  23.989  1.00  0.00     0.218 A 
ATOM     10  C   UNL A   1      31.570  26.524  23.006  1.00  0.00     0.052 A 
ATOM     11  C   UNL A   1      32.718  27.138  23.451  1.00  0.00     0.092 A 
ATOM     12  N   UNL A   1      30.385  27.160  23.049  1.00  0.00    -0.217 NA
ATOM     13  C   UNL A   1      30.333  28.398  23.559  1.00  0.00     0.230 A 
ATOM     14  N   UNL A   1      31.405  29.045  24.031  1.00  0.00    -0.177 NA
BRANCH  10  15
ATOM     15  C   UNL A   1      31.539  25.113  22.451  1.00  0.00     0.032 C 
ATOM     16  C   UNL A   1      32.904  24.433  22.302  1.00  0.00     0.014 C 
ATOM     17  C   UNL A   1      30.622  24.240  23.313  1.00  0.00     0.014 C 
ENDBRANCH  10  15
BRANCH  13  18
ATOM     18  N   UNL A   1      29.139  29.111  23.517  1.00  0.00    -0.322 N 
ATOM     19  H   UNL A   1      28.417  28.777  24.097  1.00  0.00     0.170 HD
BRANCH  18  20
ATOM     20  C   UNL A   1      28.836  30.244  22.754  1.00  0.00     0.077 A 
ATOM     21  C   UNL A   1      28.318  30.081  21.461  1.00  0.00     0.032 A 
ATOM     22  C   UNL A   1      28.924  31.549  23.272  1.00  0.00     0.149 A 
ATOM     23  C   UNL A   1      27.890  31.188  20.723  1.00  0.00     0.041 A 
ATOM     24  C   UNL A   1      28.515  32.657  22.537  1.00  0.00     0.080 A 
ATOM     25  F   UNL A   1      29.463  31.762  24.482  1.00  0.00    -0.205 F 
ATOM     26  C   UNL A   1      27.992  32.464  21.269  1.00  0.00     0.126 A 
ATOM     27  F   UNL A   1      27.574  33.519  20.559  1.00  0.00    -0.207 F 
ENDBRANCH  18  20
ENDBRANCH  13  18
ENDBRANCH   8   9
ENDBRANCH   7   8
ENDBRANCH   4   7
ENDBRANCH   2   3
ENDBRANCH   1   2
BRANCH   1  28
ATOM     28  C   UNL A   1      34.510  32.766  29.341  1.00  0.00     0.002 C 
BRANCH  28  29
ATOM     29  C   UNL A   1      34.459  34.078  28.550  1.00  0.00     0.002 C 
BRANCH  29  30
ATOM     30  C   UNL A   1      33.220  34.941  28.792  1.00  0.00     0.021 C 
BRANCH  30  31
ATOM     31  C   UNL A   1      33.458  36.178  29.649  1.00  0.00     0.116 C 
BRANCH  31  32
ATOM     32  N   UNL A   1      32.504  36.287  30.742  1.00  0.00    -0.352 N 
ATOM     33  C   UNL A   1      32.546  35.723  31.992  1.00  0.00     0.251 C 
ATOM     34  H   UNL A   1      31.714  36.844  30.558  1.00  0.00     0.163 HD
ATOM     35  O   UNL A   1      31.561  35.777  32.727  1.00  0.00    -0.269 OA
BRANCH  33  36
ATOM     36  C   UNL A   1      33.767  35.027  32.451  1.00  0.00     0.039 A 
ATOM     37  C   UNL A   1      33.654  33.734  32.967  1.00  0.00     0.014 A 
ATOM     38  C   UNL A   1      35.018  35.645  32.381  1.00  0.00     0.014 A 
ATOM     39  C   UNL A   1      34.801  33.037  33.351  1.00  0.00     0.010 A 
ATOM     40  C   UNL A   1      36.167  34.923  32.692  1.00  0.00     0.010 A 
ATOM     41  C   UNL A   1      36.072  33.612  33.182  1.00  0.00    -0.014 A 
BRANCH  41  42
ATOM     42  C   UNL A   1      37.308  32.858  33.510  1.00  0.00     0.031 A 
ATOM     43  C   UNL A   1      38.065  33.152  34.776  1.00  0.00     0.074 A 
ATOM     44  C   UNL A   1      37.784  31.949  32.636  1.00  0.00     0.049 A 
ATOM     45  N   UNL A   1      39.194  32.643  35.202  1.00  0.00    -0.248 NA
ATOM     46  C   UNL A   1      37.492  34.171  35.670  1.00  0.00     0.031 C 
ATOM     47  C   UNL A   1      37.169  31.603  31.354  1.00  0.00     0.029 A 
ATOM     48  N   UNL A   1      38.904  31.156  32.690  1.00  0.00    -0.354 N 
ATOM     49  C   UNL A   1      39.471  33.288  36.401  1.00  0.00     0.074 A 
ATOM     50  C   UNL A   1      38.421  34.263  36.609  1.00  0.00     0.031 C 
ATOM     51  C   UNL A   1      37.903  30.652  30.755  1.00  0.00     0.029 A 
ATOM     52  C   UNL A   1      39.063  30.351  31.588  1.00  0.00     0.049 A 
ATOM     53  H   UNL A   1      39.535  31.164  33.446  1.00  0.00     0.167 HD
ATOM     54  C   UNL A   1      40.495  33.075  37.261  1.00  0.00     0.037 A 
ATOM     55  C   UNL A   1      40.037  29.473  31.281  1.00  0.00     0.037 A 
ATOM     56  C   UNL A   1      41.526  32.090  37.062  1.00  0.00     0.049 A 
ATOM     57  C   UNL A   1      41.172  29.266  32.246  1.00  0.00     0.074 A 
ATOM     58  C   UNL A   1      42.569  31.752  37.907  1.00  0.00     0.029 A 
ATOM     59  N   UNL A   1      41.646  31.287  35.938  1.00  0.00    -0.354 N 
ATOM     60  N   UNL A   1      41.382  29.831  33.410  1.00  0.00    -0.248 NA
ATOM     61  C   UNL A   1      42.205  28.296  31.855  1.00  0.00     0.031 C 
ATOM     62  C   UNL A   1      43.352  30.785  37.271  1.00  0.00     0.029 A 
ATOM     63  C   UNL A   1      42.764  30.476  36.055  1.00  0.00     0.049 A 
ATOM     64  H   UNL A   1      41.030  31.293  35.170  1.00  0.00     0.167 HD
ATOM     65  C   UNL A   1      42.548  29.262  33.905  1.00  0.00     0.074 A 
ATOM     66  C   UNL A   1      42.994  28.298  32.920  1.00  0.00     0.031 C 
ATOM     67  C   UNL A   1      43.192  29.515  35.071  1.00  0.00     0.037 A 
BRANCH  54  68
ATOM     68  C   UNL A   1      40.554  33.926  38.498  1.00  0.00     0.057 A 
ATOM     69  C   UNL A   1      41.306  35.107  38.550  1.00  0.00     0.134 A 
ATOM     70  C   UNL A   1      39.819  33.580  39.638  1.00  0.00     0.134 A 
ATOM     71  F   UNL A   1      42.043  35.491  37.495  1.00  0.00    -0.206 F 
ATOM     72  C   UNL A   1      41.345  35.899  39.698  1.00  0.00     0.040 A 
ATOM     73  C   UNL A   1      39.825  34.379  40.783  1.00  0.00     0.040 A 
ATOM     74  F   UNL A   1      39.071  32.466  39.656  1.00  0.00    -0.206 F 
ATOM     75  C   UNL A   1      40.595  35.539  40.817  1.00  0.00     0.006 A 
ENDBRANCH  54  68
BRANCH  55  76
ATOM     76  C   UNL A   1      39.977  28.706  30.009  1.00  0.00     0.057 A 
ATOM     77  C   UNL A   1      39.274  27.498  29.929  1.00  0.00     0.134 A 
ATOM     78  C   UNL A   1      40.633  29.147  28.854  1.00  0.00     0.134 A 
ATOM     79  F   UNL A   1      38.641  27.012  31.008  1.00  0.00    -0.206 F 
ATOM     80  C   UNL A   1      39.245  26.745  28.754  1.00  0.00     0.040 A 
ATOM     81  C   UNL A   1      40.588  28.419  27.665  1.00  0.00     0.040 A 
ATOM     82  F   UNL A   1      41.318  30.301  28.862  1.00  0.00    -0.206 F 
ATOM     83  C   UNL A   1      39.900  27.208  27.616  1.00  0.00     0.006 A 
ENDBRANCH  55  76
BRANCH  67  84
ATOM     84  C   UNL A   1      44.423  28.707  35.366  1.00  0.00     0.057 A 
ATOM     85  C   UNL A   1      44.363  27.478  36.035  1.00  0.00     0.134 A 
ATOM     86  C   UNL A   1      45.682  29.150  34.937  1.00  0.00     0.134 A 
ATOM     87  F   UNL A   1      43.191  27.004  36.481  1.00  0.00    -0.206 F 
ATOM     88  C   UNL A   1      45.514  26.730  36.290  1.00  0.00     0.040 A 
ATOM     89  C   UNL A   1      46.836  28.397  35.160  1.00  0.00     0.040 A 
ATOM     90  F   UNL A   1      45.810  30.313  34.283  1.00  0.00    -0.206 F 
ATOM     91  C   UNL A   1      46.753  27.186  35.845  1.00  0.00     0.006 A 
ENDBRANCH  67  84
ENDBRANCH  41  42
ENDBRANCH  33  36
ENDBRANCH  31  32
ENDBRANCH  30  31
ENDBRANCH  29  30
ENDBRANCH  28  29
ENDBRANCH   1  28
TORSDOF 18
ENDMDL
MODEL 2
REMARK VINA RESULT:     -11.3      4.056      6.475
REMARK SMILES CC(C)c1cc(OCC(=O)NCCCCCCNC(=O)c2ccc(-c3c4nc(c(-c5c(F)cccc5F)c5ccc([nH]5)c(-c5c(F)cccc5F)c5nc(c(-c6c(F)cccc6F)c6ccc3[nH]6)C=C5)C=C4)cc2)nc(Nc2ccc(F)cc2F)n1
REMARK SMILES IDX 13 1 12 2 11 3 9 4 10 5 8 7 7 8 6 9 4 10 5 11 86 12 76 13
REMARK SMILES IDX 75 14 2 15 1 16 3 17 77 18 78 20 79 21 84 22 80 23 83 24
REMARK SMILES IDX 85 25 81 26 82 27 14 28 15 29 16 30 17 31 18 32 19 33 20 35
REMARK SMILES IDX 21 36 22 37 74 38 23 39 73 40 24 41 25 42 26 43 67 44 27 45
REMARK SMILES IDX 72 46 66 47 68 48 28 49 71 50 65 51 64 52 29 54 55 55 38 56
REMARK SMILES IDX 54 57 39 58 42 59 53 60 69 61 40 62 41 63 52 65 70 66 43 67
REMARK SMILES IDX 30 68 31 69 36 70 32 71 33 72 35 73 37 74 34 75 56 76 57 77
REMARK SMILES IDX 62 78 58 79 59 80 61 81 63 82 60 83 44 84 45 85 50 86 46 87
REMARK SMILES IDX 47 88 49 89 51 90 48 91
REMARK H PARENT 11 6 77 19 18 34 68 53 42 64
REMARK Flexibility Score: inf
ROOT
ATOM      1  C   UNL A   1      34.118  25.569  24.241  1.00  0.00     0.021 C 
ENDROOT
BRANCH   1   2
ATOM      2  C   UNL A   1      34.390  24.498  25.295  1.00  0.00     0.116 C 
BRANCH   2   3
ATOM      3  N   UNL A   1      35.758  24.540  25.767  1.00  0.00    -0.353 N 
ATOM      4  C   UNL A   1      36.732  23.599  25.625  1.00  0.00     0.258 C 
ATOM      5  O   UNL A   1      37.847  23.817  26.100  1.00  0.00    -0.271 OA
ATOM      6  H   UNL A   1      36.020  25.355  26.253  1.00  0.00     0.163 HD
BRANCH   4   7
ATOM      7  C   UNL A   1      36.432  22.300  24.862  1.00  0.00     0.331 C 
BRANCH   7   8
ATOM      8  O   UNL A   1      35.936  21.203  25.607  1.00  0.00    -0.467 OA
BRANCH   8   9
ATOM      9  C   UNL A   1      34.712  20.693  25.277  1.00  0.00     0.218 A 
ATOM     10  C   UNL A   1      33.203  19.152  24.357  1.00  0.00     0.052 A 
ATOM     11  C   UNL A   1      34.506  19.560  24.524  1.00  0.00     0.092 A 
ATOM     12  N   UNL A   1      32.184  19.870  24.864  1.00  0.00    -0.217 NA
ATOM     13  C   UNL A   1      32.460  20.980  25.562  1.00  0.00     0.230 A 
ATOM     14  N   UNL A   1      33.703  21.422  25.782  1.00  0.00    -0.177 NA
BRANCH  10  15
ATOM     15  C   UNL A   1      32.810  17.889  23.614  1.00  0.00     0.032 C 
ATOM     16  C   UNL A   1      32.270  18.100  22.196  1.00  0.00     0.014 C 
ATOM     17  C   UNL A   1      34.001  16.926  23.571  1.00  0.00     0.014 C 
ENDBRANCH  10  15
BRANCH  13  18
ATOM     18  N   UNL A   1      31.419  21.791  26.006  1.00  0.00    -0.322 N 
ATOM     19  H   UNL A   1      30.941  21.478  26.808  1.00  0.00     0.170 HD
BRANCH  18  20
ATOM     20  C   UNL A   1      30.968  22.995  25.455  1.00  0.00     0.077 A 
ATOM     21  C   UNL A   1      30.515  24.013  26.307  1.00  0.00     0.032 A 
ATOM     22  C   UNL A   1      31.052  23.274  24.078  1.00  0.00     0.149 A 
ATOM     23  C   UNL A   1      30.176  25.268  25.797  1.00  0.00     0.041 A 
ATOM     24  C   UNL A   1      30.700  24.517  23.560  1.00  0.00     0.080 A 
ATOM     25  F   UNL A   1      31.427  22.317  23.215  1.00  0.00    -0.205 F 
ATOM     26  C   UNL A   1      30.274  25.507  24.429  1.00  0.00     0.126 A 
ATOM     27  F   UNL A   1      29.953  26.715  23.947  1.00  0.00    -0.207 F 
ENDBRANCH  18  20
ENDBRANCH  13  18
ENDBRANCH   8   9
ENDBRANCH   7   8
ENDBRANCH   4   7
ENDBRANCH   2   3
ENDBRANCH   1   2
BRANCH   1  28
ATOM     28  C   UNL A   1      33.661  26.922  24.805  1.00  0.00     0.002 C 
BRANCH  28  29
ATOM     29  C   UNL A   1      33.218  26.913  26.272  1.00  0.00     0.002 C 
BRANCH  29  30
ATOM     30  C   UNL A   1      33.152  28.284  26.945  1.00  0.00     0.021 C 
BRANCH  30  31
ATOM     31  C   UNL A   1      33.971  29.374  26.261  1.00  0.00     0.116 C 
BRANCH  31  32
ATOM     32  N   UNL A   1      33.844  30.661  26.926  1.00  0.00    -0.352 N 
ATOM     33  C   UNL A   1      34.593  31.190  27.946  1.00  0.00     0.251 C 
ATOM     34  H   UNL A   1      33.115  31.235  26.597  1.00  0.00     0.163 HD
ATOM     35  O   UNL A   1      34.229  32.223  28.508  1.00  0.00    -0.269 OA
BRANCH  33  36
ATOM     36  C   UNL A   1      35.826  30.508  28.392  1.00  0.00     0.039 A 
ATOM     37  C   UNL A   1      37.006  30.704  27.670  1.00  0.00     0.014 A 
ATOM     38  C   UNL A   1      35.823  29.672  29.513  1.00  0.00     0.014 A 
ATOM     39  C   UNL A   1      38.194  30.116  28.108  1.00  0.00     0.010 A 
ATOM     40  C   UNL A   1      37.021  29.150  29.992  1.00  0.00     0.010 A 
ATOM     41  C   UNL A   1      38.219  29.363  29.294  1.00  0.00    -0.014 A 
BRANCH  41  42
ATOM     42  C   UNL A   1      39.487  28.797  29.820  1.00  0.00     0.031 A 
ATOM     43  C   UNL A   1      40.144  29.400  31.031  1.00  0.00     0.074 A 
ATOM     44  C   UNL A   1      40.080  27.777  29.170  1.00  0.00     0.049 A 
ATOM     45  N   UNL A   1      41.280  29.084  31.599  1.00  0.00    -0.248 NA
ATOM     46  C   UNL A   1      39.444  30.523  31.675  1.00  0.00     0.031 C 
ATOM     47  C   UNL A   1      39.569  27.132  27.959  1.00  0.00     0.029 A 
ATOM     48  N   UNL A   1      41.251  27.108  29.431  1.00  0.00    -0.354 N 
ATOM     49  C   UNL A   1      41.437  29.975  32.653  1.00  0.00     0.074 A 
ATOM     50  C   UNL A   1      40.307  30.878  32.615  1.00  0.00     0.031 C 
ATOM     51  C   UNL A   1      40.407  26.146  27.597  1.00  0.00     0.029 A 
ATOM     52  C   UNL A   1      41.534  26.117  28.523  1.00  0.00     0.049 A 
ATOM     53  H   UNL A   1      41.834  27.320  30.196  1.00  0.00     0.167 HD
ATOM     54  C   UNL A   1      42.422  30.025  33.582  1.00  0.00     0.037 A 
ATOM     55  C   UNL A   1      42.587  25.281  28.442  1.00  0.00     0.037 A 
ATOM     56  C   UNL A   1      43.534  29.111  33.631  1.00  0.00     0.049 A 
ATOM     57  C   UNL A   1      43.676  25.368  29.476  1.00  0.00     0.074 A 
ATOM     58  C   UNL A   1      44.548  29.038  34.571  1.00  0.00     0.029 A 
ATOM     59  N   UNL A   1      43.780  28.114  32.699  1.00  0.00    -0.354 N 
ATOM     60  N   UNL A   1      43.774  26.168  30.510  1.00  0.00    -0.248 NA
ATOM     61  C   UNL A   1      44.799  24.430  29.335  1.00  0.00     0.031 C 
ATOM     62  C   UNL A   1      45.436  28.033  34.178  1.00  0.00     0.029 A 
ATOM     63  C   UNL A   1      44.946  27.440  33.026  1.00  0.00     0.049 A 
ATOM     64  H   UNL A   1      43.211  27.915  31.921  1.00  0.00     0.167 HD
ATOM     65  C   UNL A   1      44.948  25.810  31.159  1.00  0.00     0.074 A 
ATOM     66  C   UNL A   1      45.522  24.711  30.409  1.00  0.00     0.031 C 
ATOM     67  C   UNL A   1      45.502  26.343  32.276  1.00  0.00     0.037 A 
BRANCH  54  68
ATOM     68  C   UNL A   1      42.345  31.106  34.622  1.00  0.00     0.057 A 
ATOM     69  C   UNL A   1      41.674  30.918  35.838  1.00  0.00     0.134 A 
ATOM     70  C   UNL A   1      42.982  32.337  34.422  1.00  0.00     0.134 A 
ATOM     71  F   UNL A   1      41.033  29.766  36.089  1.00  0.00    -0.206 F 
ATOM     72  C   UNL A   1      41.619  31.923  36.805  1.00  0.00     0.040 A 
ATOM     73  C   UNL A   1      42.960  33.339  35.393  1.00  0.00     0.040 A 
ATOM     74  F   UNL A   1      43.650  32.583  33.283  1.00  0.00    -0.206 F 
ATOM     75  C   UNL A   1      42.270  33.136  36.586  1.00  0.00     0.006 A 
ENDBRANCH  54  68
BRANCH  55  76
ATOM     76  C   UNL A   1      42.660  24.275  27.351  1.00  0.00     0.057 A 
ATOM     77  C   UNL A   1      42.177  22.974  27.537  1.00  0.00     0.134 A 
ATOM     78  C   UNL A   1      43.228  24.579  26.108  1.00  0.00     0.134 A 
ATOM     79  F   UNL A   1      41.640  22.615  28.713  1.00  0.00    -0.206 F 
ATOM     80  C   UNL A   1      42.277  22.006  26.536  1.00  0.00     0.040 A 
ATOM     81  C   UNL A   1      43.309  23.629  25.089  1.00  0.00     0.040 A 
ATOM     82  F   UNL A   1      43.702  25.809  25.862  1.00  0.00    -0.206 F 
ATOM     83  C   UNL A   1      42.841  22.334  25.306  1.00  0.00     0.006 A 
ENDBRANCH  55  76
BRANCH  67  84
ATOM     84  C   UNL A   1      46.770  25.718  32.781  1.00  0.00     0.057 A 
ATOM     85  C   UNL A   1      48.030  26.116  32.316  1.00  0.00     0.134 A 
ATOM     86  C   UNL A   1      46.730  24.731  33.774  1.00  0.00     0.134 A 
ATOM     87  F   UNL A   1      48.138  27.047  31.357  1.00  0.00    -0.206 F 
ATOM     88  C   UNL A   1      49.203  25.537  32.803  1.00  0.00     0.040 A 
ATOM     89  C   UNL A   1      47.896  24.166  34.291  1.00  0.00     0.040 A 
ATOM     90  F   UNL A   1      45.557  24.310  34.270  1.00  0.00    -0.206 F 
ATOM     91  C   UNL A   1      49.138  24.564  33.799  1.00  0.00     0.006 A 
ENDBRANCH  67  84
ENDBRANCH  41  42
ENDBRANCH  33  36
ENDBRANCH  31  32
ENDBRANCH  30  31
ENDBRANCH  29  30
ENDBRANCH  28  29
ENDBRANCH   1  28
TORSDOF 18
ENDMDL
MODEL 3
REMARK VINA RESULT:     -11.3      5.071     10.057
REMARK SMILES CC(C)c1cc(OCC(=O)NCCCCCCNC(=O)c2ccc(-c3c4nc(c(-c5c(F)cccc5F)c5ccc([nH]5)c(-c5c(F)cccc5F)c5nc(c(-c6c(F)cccc6F)c6ccc3[nH]6)C=C5)C=C4)cc2)nc(Nc2ccc(F)cc2F)n1
REMARK SMILES IDX 13 1 12 2 11 3 9 4 10 5 8 7 7 8 6 9 4 10 5 11 86 12 76 13
REMARK SMILES IDX 75 14 2 15 1 16 3 17 77 18 78 20 79 21 84 22 80 23 83 24
REMARK SMILES IDX 85 25 81 26 82 27 14 28 15 29 16 30 17 31 18 32 19 33 20 35
REMARK SMILES IDX 21 36 22 37 74 38 23 39 73 40 24 41 25 42 26 43 67 44 27 45
REMARK SMILES IDX 72 46 66 47 68 48 28 49 71 50 65 51 64 52 29 54 55 55 38 56
REMARK SMILES IDX 54 57 39 58 42 59 53 60 69 61 40 62 41 63 52 65 70 66 43 67
REMARK SMILES IDX 30 68 31 69 36 70 32 71 33 72 35 73 37 74 34 75 56 76 57 77
REMARK SMILES IDX 62 78 58 79 59 80 61 81 63 82 60 83 44 84 45 85 50 86 46 87
REMARK SMILES IDX 47 88 49 89 51 90 48 91
REMARK H PARENT 11 6 77 19 18 34 68 53 42 64
REMARK Flexibility Score: inf
ROOT
ATOM      1  C   UNL A   1      36.428  23.093  25.408  1.00  0.00     0.021 C 
ENDROOT
BRANCH   1   2
ATOM      2  C   UNL A   1      35.071  23.781  25.271  1.00  0.00     0.116 C 
BRANCH   2   3
ATOM      3  N   UNL A   1      34.313  23.260  24.152  1.00  0.00    -0.353 N 
ATOM      4  C   UNL A   1      33.767  23.944  23.108  1.00  0.00     0.258 C 
ATOM      5  O   UNL A   1      33.150  23.320  22.244  1.00  0.00    -0.271 OA
ATOM      6  H   UNL A   1      34.174  22.286  24.144  1.00  0.00     0.163 HD
BRANCH   4   7
ATOM      7  C   UNL A   1      33.946  25.466  23.016  1.00  0.00     0.331 C 
BRANCH   7   8
ATOM      8  O   UNL A   1      32.832  26.233  22.598  1.00  0.00    -0.467 OA
BRANCH   8   9
ATOM      9  C   UNL A   1      32.396  27.243  23.409  1.00  0.00     0.218 A 
ATOM     10  C   UNL A   1      32.538  28.830  25.129  1.00  0.00     0.052 A 
ATOM     11  C   UNL A   1      33.101  27.761  24.472  1.00  0.00     0.092 A 
ATOM     12  N   UNL A   1      31.328  29.300  24.775  1.00  0.00    -0.217 NA
ATOM     13  C   UNL A   1      30.686  28.725  23.748  1.00  0.00     0.230 A 
ATOM     14  N   UNL A   1      31.185  27.698  23.051  1.00  0.00    -0.177 NA
BRANCH  10  15
ATOM     15  C   UNL A   1      33.216  29.559  26.274  1.00  0.00     0.032 C 
ATOM     16  C   UNL A   1      32.440  30.749  26.848  1.00  0.00     0.014 C 
ATOM     17  C   UNL A   1      33.539  28.567  27.396  1.00  0.00     0.014 C 
ENDBRANCH  10  15
BRANCH  13  18
ATOM     18  N   UNL A   1      29.392  29.127  23.433  1.00  0.00    -0.322 N 
ATOM     19  H   UNL A   1      28.667  28.550  23.769  1.00  0.00     0.170 HD
BRANCH  18  20
ATOM     20  C   UNL A   1      28.990  30.248  22.699  1.00  0.00     0.077 A 
ATOM     21  C   UNL A   1      28.508  30.078  21.393  1.00  0.00     0.032 A 
ATOM     22  C   UNL A   1      28.944  31.539  23.258  1.00  0.00     0.149 A 
ATOM     23  C   UNL A   1      27.985  31.160  20.682  1.00  0.00     0.041 A 
ATOM     24  C   UNL A   1      28.440  32.625  22.550  1.00  0.00     0.080 A 
ATOM     25  F   UNL A   1      29.443  31.765  24.483  1.00  0.00    -0.205 F 
ATOM     26  C   UNL A   1      27.955  32.422  21.268  1.00  0.00     0.126 A 
ATOM     27  F   UNL A   1      27.446  33.454  20.583  1.00  0.00    -0.207 F 
ENDBRANCH  18  20
ENDBRANCH  13  18
ENDBRANCH   8   9
ENDBRANCH   7   8
ENDBRANCH   4   7
ENDBRANCH   2   3
ENDBRANCH   1   2
BRANCH   1  28
ATOM     28  C   UNL A   1      36.682  21.967  24.396  1.00  0.00     0.002 C 
BRANCH  28  29
ATOM     29  C   UNL A   1      36.520  20.542  24.936  1.00  0.00     0.002 C 
BRANCH  29  30
ATOM     30  C   UNL A   1      37.774  19.670  24.872  1.00  0.00     0.021 C 
BRANCH  30  31
ATOM     31  C   UNL A   1      38.971  20.212  25.646  1.00  0.00     0.116 C 
BRANCH  31  32
ATOM     32  N   UNL A   1      40.047  19.239  25.754  1.00  0.00    -0.352 N 
ATOM     33  C   UNL A   1      41.366  19.434  26.072  1.00  0.00     0.251 C 
ATOM     34  H   UNL A   1      39.791  18.306  25.571  1.00  0.00     0.163 HD
ATOM     35  O   UNL A   1      42.176  18.517  25.940  1.00  0.00    -0.269 OA
BRANCH  33  36
ATOM     36  C   UNL A   1      41.827  20.755  26.552  1.00  0.00     0.039 A 
ATOM     37  C   UNL A   1      42.276  21.693  25.619  1.00  0.00     0.014 A 
ATOM     38  C   UNL A   1      41.822  21.068  27.914  1.00  0.00     0.014 A 
ATOM     39  C   UNL A   1      42.660  22.966  26.046  1.00  0.00     0.010 A 
ATOM     40  C   UNL A   1      42.131  22.360  28.329  1.00  0.00     0.010 A 
ATOM     41  C   UNL A   1      42.556  23.323  27.401  1.00  0.00    -0.014 A 
BRANCH  41  42
ATOM     42  C   UNL A   1      42.882  24.696  27.863  1.00  0.00     0.031 A 
ATOM     43  C   UNL A   1      44.310  25.094  28.115  1.00  0.00     0.074 A 
ATOM     44  C   UNL A   1      41.885  25.568  28.115  1.00  0.00     0.049 A 
ATOM     45  N   UNL A   1      44.785  26.223  28.578  1.00  0.00    -0.248 NA
ATOM     46  C   UNL A   1      45.340  24.080  27.835  1.00  0.00     0.031 C 
ATOM     47  C   UNL A   1      40.457  25.292  27.953  1.00  0.00     0.029 A 
ATOM     48  N   UNL A   1      41.922  26.863  28.571  1.00  0.00    -0.354 N 
ATOM     49  C   UNL A   1      46.161  26.050  28.657  1.00  0.00     0.074 A 
ATOM     50  C   UNL A   1      46.441  24.691  28.245  1.00  0.00     0.031 C 
ATOM     51  C   UNL A   1      39.756  26.390  28.279  1.00  0.00     0.029 A 
ATOM     52  C   UNL A   1      40.680  27.432  28.714  1.00  0.00     0.049 A 
ATOM     53  H   UNL A   1      42.760  27.338  28.777  1.00  0.00     0.167 HD
ATOM     54  C   UNL A   1      47.109  26.948  29.020  1.00  0.00     0.037 A 
ATOM     55  C   UNL A   1      40.325  28.655  29.152  1.00  0.00     0.037 A 
ATOM     56  C   UNL A   1      46.830  28.306  29.408  1.00  0.00     0.049 A 
ATOM     57  C   UNL A   1      41.396  29.628  29.565  1.00  0.00     0.074 A 
ATOM     58  C   UNL A   1      47.725  29.311  29.729  1.00  0.00     0.029 A 
ATOM     59  N   UNL A   1      45.559  28.848  29.530  1.00  0.00    -0.354 N 
ATOM     60  N   UNL A   1      42.698  29.475  29.565  1.00  0.00    -0.248 NA
ATOM     61  C   UNL A   1      40.947  30.947  30.034  1.00  0.00     0.031 C 
ATOM     62  C   UNL A   1      46.996  30.445  30.099  1.00  0.00     0.029 A 
ATOM     63  C   UNL A   1      45.647  30.165  29.952  1.00  0.00     0.049 A 
ATOM     64  H   UNL A   1      44.719  28.368  29.347  1.00  0.00     0.167 HD
ATOM     65  C   UNL A   1      43.223  30.684  30.000  1.00  0.00     0.074 A 
ATOM     66  C   UNL A   1      42.100  31.565  30.244  1.00  0.00     0.031 C 
ATOM     67  C   UNL A   1      44.521  31.034  30.182  1.00  0.00     0.037 A 
BRANCH  54  68
ATOM     68  C   UNL A   1      48.539  26.490  29.017  1.00  0.00     0.057 A 
ATOM     69  C   UNL A   1      49.129  25.893  30.140  1.00  0.00     0.134 A 
ATOM     70  C   UNL A   1      49.326  26.610  27.865  1.00  0.00     0.134 A 
ATOM     71  F   UNL A   1      48.435  25.757  31.281  1.00  0.00    -0.206 F 
ATOM     72  C   UNL A   1      50.455  25.458  30.125  1.00  0.00     0.040 A 
ATOM     73  C   UNL A   1      50.643  26.151  27.827  1.00  0.00     0.040 A 
ATOM     74  F   UNL A   1      48.823  27.164  26.750  1.00  0.00    -0.206 F 
ATOM     75  C   UNL A   1      51.214  25.579  28.962  1.00  0.00     0.006 A 
ENDBRANCH  54  68
BRANCH  55  76
ATOM     76  C   UNL A   1      38.891  29.041  29.209  1.00  0.00     0.057 A 
ATOM     77  C   UNL A   1      38.242  29.569  28.087  1.00  0.00     0.134 A 
ATOM     78  C   UNL A   1      38.142  28.911  30.384  1.00  0.00     0.134 A 
ATOM     79  F   UNL A   1      38.912  29.736  26.936  1.00  0.00    -0.206 F 
ATOM     80  C   UNL A   1      36.907  29.976  28.137  1.00  0.00     0.040 A 
ATOM     81  C   UNL A   1      36.799  29.287  30.441  1.00  0.00     0.040 A 
ATOM     82  F   UNL A   1      38.702  28.405  31.493  1.00  0.00    -0.206 F 
ATOM     83  C   UNL A   1      36.181  29.831  29.317  1.00  0.00     0.006 A 
ENDBRANCH  55  76
BRANCH  67  84
ATOM     84  C   UNL A   1      44.798  32.441  30.626  1.00  0.00     0.057 A 
ATOM     85  C   UNL A   1      44.955  33.491  29.712  1.00  0.00     0.134 A 
ATOM     86  C   UNL A   1      44.869  32.755  31.990  1.00  0.00     0.134 A 
ATOM     87  F   UNL A   1      44.911  33.256  28.393  1.00  0.00    -0.206 F 
ATOM     88  C   UNL A   1      45.198  34.798  30.138  1.00  0.00     0.040 A 
ATOM     89  C   UNL A   1      45.081  34.062  32.429  1.00  0.00     0.040 A 
ATOM     90  F   UNL A   1      44.718  31.799  32.918  1.00  0.00    -0.206 F 
ATOM     91  C   UNL A   1      45.254  35.087  31.501  1.00  0.00     0.006 A 
ENDBRANCH  67  84
ENDBRANCH  41  42
ENDBRANCH  33  36
ENDBRANCH  31  32
ENDBRANCH  30  31
ENDBRANCH  29  30
ENDBRANCH  28  29
ENDBRANCH   1  28
TORSDOF 18
ENDMDL
