MODEL 1
REMARK VINA RESULT:      -8.8      0.000      0.000
REMARK SMILES CC[C@@H](C)[C@H](NC(=O)[C@H](C)N1C(=O)N2CCC3=c4cc(OC)ccc4=N[C@H]3[C@@]2(C)C1=O)C(=O)NCCCCCCNC(=O)c1ccc(-c2c3nc(c(-c4c(F)cccc4F)c4ccc([nH]4)c(-c4c(F)cccc4F)c4nc(c(-c5c(F)cccc5F)c5ccc2[nH]5)C=C4)C=C3)cc1
REMARK SMILES IDX 36 1 35 2 34 3 32 4 33 5 5 7 3 8 4 9 2 10 1 11 6 12 7 13
REMARK SMILES IDX 8 15 9 16 10 17 11 18 12 19 30 20 14 21 13 22 28 23 31 24
REMARK SMILES IDX 15 25 27 26 29 27 16 28 17 29 26 30 18 31 25 32 19 33 24 34
REMARK SMILES IDX 20 35 23 36 21 37 22 38 37 39 38 40 39 41 40 42 41 43 42 44
REMARK SMILES IDX 43 46 44 47 45 48 97 49 46 50 96 51 47 52 48 53 49 54 90 55
REMARK SMILES IDX 50 56 95 57 89 58 91 59 51 60 94 61 88 62 87 63 52 65 78 66
REMARK SMILES IDX 61 67 77 68 62 69 65 70 76 71 92 72 63 73 64 74 75 76 93 77
REMARK SMILES IDX 66 78 53 79 54 80 59 81 55 82 56 83 58 84 60 85 57 86 79 87
REMARK SMILES IDX 80 88 85 89 81 90 82 91 84 92 86 93 83 94 67 95 68 96 73 97
REMARK SMILES IDX 69 98 70 99 72 100 74 101 71 102
REMARK H PARENT 34 6 6 14 41 45 91 64 65 75
REMARK Flexibility Score: inf
ROOT
ATOM      1  C   UNL A   1      45.188  23.645  24.544  1.00  0.00     0.021 C 
ENDROOT
BRANCH   1   2
ATOM      2  C   UNL A   1      45.192  25.090  25.020  1.00  0.00     0.116 C 
BRANCH   2   3
ATOM      3  N   UNL A   1      43.932  25.797  24.932  1.00  0.00    -0.354 N 
ATOM      4  C   UNL A   1      43.550  27.026  25.376  1.00  0.00     0.242 C 
ATOM      5  O   UNL A   1      42.525  27.504  24.876  1.00  0.00    -0.273 OA
ATOM      6  H   UNL A   1      43.222  25.297  24.468  1.00  0.00     0.163 HD
BRANCH   4   7
ATOM      7  C   UNL A   1      44.383  27.858  26.367  1.00  0.00     0.174 C 
BRANCH   7   8
ATOM      8  C   UNL A   1      43.472  28.385  27.547  1.00  0.00     0.018 C 
ATOM      9  C   UNL A   1      42.482  29.510  27.194  1.00  0.00     0.010 C 
BRANCH   8  10
ATOM     10  C   UNL A   1      44.309  28.814  28.777  1.00  0.00     0.002 C 
ATOM     11  C   UNL A   1      44.435  30.336  28.907  1.00  0.00     0.004 C 
ENDBRANCH   8  10
ENDBRANCH   7   8
BRANCH   7  12
ATOM     12  N   UNL A   1      45.144  28.894  25.694  1.00  0.00    -0.342 N 
ATOM     13  C   UNL A   1      46.356  29.464  25.864  1.00  0.00     0.243 C 
ATOM     14  H   UNL A   1      44.660  29.273  24.926  1.00  0.00     0.164 HD
ATOM     15  O   UNL A   1      46.395  30.509  25.200  1.00  0.00    -0.273 OA
BRANCH  13  16
ATOM     16  C   UNL A   1      47.568  29.071  26.839  1.00  0.00     0.181 C 
ATOM     17  C   UNL A   1      48.505  30.172  27.269  1.00  0.00     0.042 C 
BRANCH  16  18
ATOM     18  N   UNL A   1      48.271  27.853  26.369  1.00  0.00    -0.250 N 
ATOM     19  C   UNL A   1      49.392  27.680  25.538  1.00  0.00     0.328 C 
ATOM     20  C   UNL A   1      48.141  26.756  27.148  1.00  0.00     0.259 C 
ATOM     21  N   UNL A   1      50.045  26.414  25.951  1.00  0.00    -0.307 N 
ATOM     22  O   UNL A   1      49.864  28.482  24.745  1.00  0.00    -0.248 OA
ATOM     23  C   UNL A   1      49.529  26.231  27.289  1.00  0.00     0.147 C 
ATOM     24  O   UNL A   1      47.141  26.371  27.736  1.00  0.00    -0.271 OA
ATOM     25  C   UNL A   1      51.559  26.113  25.872  1.00  0.00     0.127 C 
ATOM     26  C   UNL A   1      50.465  27.238  28.063  1.00  0.00     0.168 C 
ATOM     27  C   UNL A   1      49.463  24.753  27.672  1.00  0.00     0.048 C 
ATOM     28  C   UNL A   1      52.351  25.954  27.402  1.00  0.00     0.055 C 
ATOM     29  C   UNL A   1      51.677  26.655  28.664  1.00  0.00    -0.032 C 
ATOM     30  N   UNL A   1      50.478  28.733  28.187  1.00  0.00    -0.274 NA
ATOM     31  C   UNL A   1      52.108  27.599  29.546  1.00  0.00     0.005 A 
ATOM     32  C   UNL A   1      51.627  28.845  28.803  1.00  0.00     0.066 A 
ATOM     33  C   UNL A   1      51.461  27.862  30.892  1.00  0.00     0.056 A 
ATOM     34  C   UNL A   1      52.264  30.086  29.256  1.00  0.00     0.032 A 
ATOM     35  C   UNL A   1      51.352  29.164  31.286  1.00  0.00     0.119 A 
ATOM     36  C   UNL A   1      52.115  30.201  30.583  1.00  0.00     0.048 A 
BRANCH  35  37
ATOM     37  O   UNL A   1      50.302  29.616  32.070  1.00  0.00    -0.497 OA
ATOM     38  C   UNL A   1      49.105  29.859  31.294  1.00  0.00     0.278 C 
ENDBRANCH  35  37
ENDBRANCH  16  18
ENDBRANCH  13  16
ENDBRANCH   7  12
ENDBRANCH   4   7
ENDBRANCH   2   3
ENDBRANCH   1   2
BRANCH   1  39
ATOM     39  C   UNL A   1      46.143  22.674  25.233  1.00  0.00     0.002 C 
BRANCH  39  40
ATOM     40  C   UNL A   1      46.240  21.262  24.652  1.00  0.00     0.002 C 
BRANCH  40  41
ATOM     41  C   UNL A   1      44.920  20.534  24.411  1.00  0.00     0.021 C 
BRANCH  41  42
ATOM     42  C   UNL A   1      44.254  19.936  25.642  1.00  0.00     0.116 C 
BRANCH  42  43
ATOM     43  N   UNL A   1      42.972  19.308  25.368  1.00  0.00    -0.352 N 
ATOM     44  C   UNL A   1      41.730  19.766  25.748  1.00  0.00     0.251 C 
ATOM     45  H   UNL A   1      42.994  18.467  24.857  1.00  0.00     0.163 HD
ATOM     46  O   UNL A   1      40.709  19.132  25.520  1.00  0.00    -0.269 OA
BRANCH  44  47
ATOM     47  C   UNL A   1      41.670  21.046  26.483  1.00  0.00     0.039 A 
ATOM     48  C   UNL A   1      42.062  22.226  25.846  1.00  0.00     0.014 A 
ATOM     49  C   UNL A   1      41.354  21.034  27.843  1.00  0.00     0.014 A 
ATOM     50  C   UNL A   1      42.257  23.377  26.602  1.00  0.00     0.010 A 
ATOM     51  C   UNL A   1      41.495  22.207  28.588  1.00  0.00     0.010 A 
ATOM     52  C   UNL A   1      41.985  23.377  27.982  1.00  0.00    -0.014 A 
BRANCH  52  53
ATOM     53  C   UNL A   1      42.211  24.611  28.775  1.00  0.00     0.031 A 
ATOM     54  C   UNL A   1      41.183  25.709  28.810  1.00  0.00     0.074 A 
ATOM     55  C   UNL A   1      43.339  24.722  29.500  1.00  0.00     0.049 A 
ATOM     56  N   UNL A   1      41.223  26.858  29.439  1.00  0.00    -0.248 NA
ATOM     57  C   UNL A   1      39.950  25.493  28.037  1.00  0.00     0.031 C 
ATOM     58  C   UNL A   1      44.406  23.721  29.557  1.00  0.00     0.029 A 
ATOM     59  N   UNL A   1      43.771  25.719  30.337  1.00  0.00    -0.354 N 
ATOM     60  C   UNL A   1      40.035  27.507  29.126  1.00  0.00     0.074 A 
ATOM     61  C   UNL A   1      39.302  26.634  28.233  1.00  0.00     0.031 C 
ATOM     62  C   UNL A   1      45.350  24.134  30.416  1.00  0.00     0.029 A 
ATOM     63  C   UNL A   1      44.984  25.451  30.923  1.00  0.00     0.049 A 
ATOM     64  H   UNL A   1      43.262  26.544  30.501  1.00  0.00     0.167 HD
ATOM     65  C   UNL A   1      39.594  28.717  29.548  1.00  0.00     0.037 A 
ATOM     66  C   UNL A   1      45.727  26.193  31.763  1.00  0.00     0.037 A 
ATOM     67  C   UNL A   1      40.318  29.579  30.448  1.00  0.00     0.049 A 
ATOM     68  C   UNL A   1      45.236  27.548  32.177  1.00  0.00     0.074 A 
ATOM     69  C   UNL A   1      39.942  30.813  30.953  1.00  0.00     0.029 A 
ATOM     70  N   UNL A   1      41.569  29.298  30.976  1.00  0.00    -0.354 N 
ATOM     71  N   UNL A   1      44.110  28.146  31.875  1.00  0.00    -0.248 NA
ATOM     72  C   UNL A   1      46.127  28.338  33.037  1.00  0.00     0.031 C 
ATOM     73  C   UNL A   1      40.980  31.292  31.760  1.00  0.00     0.029 A 
ATOM     74  C   UNL A   1      41.988  30.342  31.785  1.00  0.00     0.049 A 
ATOM     75  H   UNL A   1      42.083  28.476  30.802  1.00  0.00     0.167 HD
ATOM     76  C   UNL A   1      44.155  29.380  32.509  1.00  0.00     0.074 A 
ATOM     77  C   UNL A   1      45.408  29.433  33.234  1.00  0.00     0.031 C 
ATOM     78  C   UNL A   1      43.245  30.383  32.487  1.00  0.00     0.037 A 
BRANCH  65  79
ATOM     79  C   UNL A   1      38.268  29.191  29.028  1.00  0.00     0.057 A 
ATOM     80  C   UNL A   1      38.141  29.652  27.711  1.00  0.00     0.134 A 
ATOM     81  C   UNL A   1      37.128  29.230  29.840  1.00  0.00     0.134 A 
ATOM     82  F   UNL A   1      39.197  29.647  26.883  1.00  0.00    -0.206 F 
ATOM     83  C   UNL A   1      36.927  30.135  27.221  1.00  0.00     0.040 A 
ATOM     84  C   UNL A   1      35.903  29.693  29.354  1.00  0.00     0.040 A 
ATOM     85  F   UNL A   1      37.179  28.791  31.106  1.00  0.00    -0.206 F 
ATOM     86  C   UNL A   1      35.802  30.153  28.042  1.00  0.00     0.006 A 
ENDBRANCH  65  79
BRANCH  66  87
ATOM     87  C   UNL A   1      47.027  25.675  32.253  1.00  0.00     0.057 A 
ATOM     88  C   UNL A   1      48.218  25.925  31.562  1.00  0.00     0.134 A 
ATOM     89  C   UNL A   1      47.105  24.918  33.427  1.00  0.00     0.134 A 
ATOM     90  F   UNL A   1      48.205  26.641  30.428  1.00  0.00    -0.206 F 
ATOM     91  C   UNL A   1      49.441  25.431  32.014  1.00  0.00     0.040 A 
ATOM     92  C   UNL A   1      48.325  24.439  33.904  1.00  0.00     0.040 A 
ATOM     93  F   UNL A   1      45.999  24.665  34.141  1.00  0.00    -0.206 F 
ATOM     94  C   UNL A   1      49.497  24.690  33.193  1.00  0.00     0.006 A 
ENDBRANCH  66  87
BRANCH  78  95
ATOM     95  C   UNL A   1      43.581  31.613  33.274  1.00  0.00     0.057 A 
ATOM     96  C   UNL A   1      43.217  31.723  34.621  1.00  0.00     0.134 A 
ATOM     97  C   UNL A   1      44.267  32.687  32.695  1.00  0.00     0.134 A 
ATOM     98  F   UNL A   1      42.556  30.729  35.233  1.00  0.00    -0.206 F 
ATOM     99  C   UNL A   1      43.531  32.860  35.368  1.00  0.00     0.040 A 
ATOM    100  C   UNL A   1      44.604  33.820  33.437  1.00  0.00     0.040 A 
ATOM    101  F   UNL A   1      44.658  32.632  31.413  1.00  0.00    -0.206 F 
ATOM    102  C   UNL A   1      44.232  33.909  34.777  1.00  0.00     0.006 A 
ENDBRANCH  78  95
ENDBRANCH  52  53
ENDBRANCH  44  47
ENDBRANCH  42  43
ENDBRANCH  41  42
ENDBRANCH  40  41
ENDBRANCH  39  40
ENDBRANCH   1  39
TORSDOF 19
ENDMDL
MODEL 2
REMARK VINA RESULT:      -8.6      5.433     12.578
REMARK SMILES CC[C@@H](C)[C@H](NC(=O)[C@H](C)N1C(=O)N2CCC3=c4cc(OC)ccc4=N[C@H]3[C@@]2(C)C1=O)C(=O)NCCCCCCNC(=O)c1ccc(-c2c3nc(c(-c4c(F)cccc4F)c4ccc([nH]4)c(-c4c(F)cccc4F)c4nc(c(-c5c(F)cccc5F)c5ccc2[nH]5)C=C4)C=C3)cc1
REMARK SMILES IDX 36 1 35 2 34 3 32 4 33 5 5 7 3 8 4 9 2 10 1 11 6 12 7 13
REMARK SMILES IDX 8 15 9 16 10 17 11 18 12 19 30 20 14 21 13 22 28 23 31 24
REMARK SMILES IDX 15 25 27 26 29 27 16 28 17 29 26 30 18 31 25 32 19 33 24 34
REMARK SMILES IDX 20 35 23 36 21 37 22 38 37 39 38 40 39 41 40 42 41 43 42 44
REMARK SMILES IDX 43 46 44 47 45 48 97 49 46 50 96 51 47 52 48 53 49 54 90 55
REMARK SMILES IDX 50 56 95 57 89 58 91 59 51 60 94 61 88 62 87 63 52 65 78 66
REMARK SMILES IDX 61 67 77 68 62 69 65 70 76 71 92 72 63 73 64 74 75 76 93 77
REMARK SMILES IDX 66 78 53 79 54 80 59 81 55 82 56 83 58 84 60 85 57 86 79 87
REMARK SMILES IDX 80 88 85 89 81 90 82 91 84 92 86 93 83 94 67 95 68 96 73 97
REMARK SMILES IDX 69 98 70 99 72 100 74 101 71 102
REMARK H PARENT 34 6 6 14 41 45 91 64 65 75
REMARK Flexibility Score: inf
ROOT
ATOM      1  C   UNL A   1      38.046  20.618  25.241  1.00  0.00     0.021 C 
ENDROOT
BRANCH   1   2
ATOM      2  C   UNL A   1      36.708  21.043  24.655  1.00  0.00     0.116 C 
BRANCH   2   3
ATOM      3  N   UNL A   1      35.539  20.358  25.166  1.00  0.00    -0.354 N 
ATOM      4  C   UNL A   1      34.239  20.748  25.280  1.00  0.00     0.242 C 
ATOM      5  O   UNL A   1      33.402  19.852  25.441  1.00  0.00    -0.273 OA
ATOM      6  H   UNL A   1      35.717  19.446  25.490  1.00  0.00     0.163 HD
BRANCH   4   7
ATOM      7  C   UNL A   1      33.781  22.208  25.115  1.00  0.00     0.174 C 
BRANCH   7   8
ATOM      8  C   UNL A   1      34.380  23.108  26.269  1.00  0.00     0.018 C 
ATOM      9  C   UNL A   1      35.792  23.674  26.028  1.00  0.00     0.010 C 
BRANCH   8  10
ATOM     10  C   UNL A   1      34.349  22.389  27.639  1.00  0.00     0.002 C 
ATOM     11  C   UNL A   1      32.952  22.375  28.270  1.00  0.00     0.004 C 
ENDBRANCH   8  10
ENDBRANCH   7   8
BRANCH   7  12
ATOM     12  N   UNL A   1      32.340  22.306  24.970  1.00  0.00    -0.342 N 
ATOM     13  C   UNL A   1      31.466  23.294  24.681  1.00  0.00     0.243 C 
ATOM     14  H   UNL A   1      31.891  21.444  25.117  1.00  0.00     0.164 HD
ATOM     15  O   UNL A   1      30.327  22.910  24.981  1.00  0.00    -0.273 OA
BRANCH  13  16
ATOM     16  C   UNL A   1      31.716  24.801  24.190  1.00  0.00     0.181 C 
ATOM     17  C   UNL A   1      32.287  25.001  22.808  1.00  0.00     0.042 C 
BRANCH  16  18
ATOM     18  N   UNL A   1      32.401  25.605  25.230  1.00  0.00    -0.250 N 
ATOM     19  C   UNL A   1      33.565  26.393  25.189  1.00  0.00     0.328 C 
ATOM     20  C   UNL A   1      31.628  26.034  26.253  1.00  0.00     0.259 C 
ATOM     21  N   UNL A   1      33.404  27.455  26.211  1.00  0.00    -0.307 N 
ATOM     22  O   UNL A   1      34.469  26.347  24.367  1.00  0.00    -0.248 OA
ATOM     23  C   UNL A   1      31.970  27.477  26.399  1.00  0.00     0.147 C 
ATOM     24  O   UNL A   1      30.736  25.423  26.822  1.00  0.00    -0.271 OA
ATOM     25  C   UNL A   1      33.995  28.881  26.130  1.00  0.00     0.127 C 
ATOM     26  C   UNL A   1      31.558  28.314  25.128  1.00  0.00     0.168 C 
ATOM     27  C   UNL A   1      31.593  27.934  27.808  1.00  0.00     0.048 C 
ATOM     28  C   UNL A   1      32.827  30.145  25.952  1.00  0.00     0.055 C 
ATOM     29  C   UNL A   1      31.409  29.764  25.335  1.00  0.00    -0.032 C 
ATOM     30  N   UNL A   1      31.442  27.971  23.672  1.00  0.00    -0.274 NA
ATOM     31  C   UNL A   1      30.723  30.197  24.240  1.00  0.00     0.005 A 
ATOM     32  C   UNL A   1      31.254  29.187  23.224  1.00  0.00     0.066 A 
ATOM     33  C   UNL A   1      29.236  29.984  24.031  1.00  0.00     0.056 A 
ATOM     34  C   UNL A   1      31.040  29.585  21.828  1.00  0.00     0.032 A 
ATOM     35  C   UNL A   1      28.824  29.670  22.768  1.00  0.00     0.119 A 
ATOM     36  C   UNL A   1      29.742  29.856  21.639  1.00  0.00     0.048 A 
BRANCH  35  37
ATOM     37  O   UNL A   1      27.728  28.858  22.526  1.00  0.00    -0.497 OA
ATOM     38  C   UNL A   1      27.705  27.699  23.392  1.00  0.00     0.278 C 
ENDBRANCH  35  37
ENDBRANCH  16  18
ENDBRANCH  13  16
ENDBRANCH   7  12
ENDBRANCH   4   7
ENDBRANCH   2   3
ENDBRANCH   1   2
BRANCH   1  39
ATOM     39  C   UNL A   1      38.974  21.719  25.749  1.00  0.00     0.002 C 
BRANCH  39  40
ATOM     40  C   UNL A   1      40.023  21.320  26.789  1.00  0.00     0.002 C 
BRANCH  40  41
ATOM     41  C   UNL A   1      41.484  21.467  26.371  1.00  0.00     0.021 C 
BRANCH  41  42
ATOM     42  C   UNL A   1      42.147  22.792  26.720  1.00  0.00     0.116 C 
BRANCH  42  43
ATOM     43  N   UNL A   1      42.352  23.664  25.576  1.00  0.00    -0.352 N 
ATOM     44  C   UNL A   1      42.385  25.041  25.584  1.00  0.00     0.251 C 
ATOM     45  H   UNL A   1      42.483  23.225  24.705  1.00  0.00     0.163 HD
ATOM     46  O   UNL A   1      42.506  25.692  24.555  1.00  0.00    -0.269 OA
BRANCH  44  47
ATOM     47  C   UNL A   1      42.231  25.721  26.887  1.00  0.00     0.039 A 
ATOM     48  C   UNL A   1      41.056  25.543  27.622  1.00  0.00     0.014 A 
ATOM     49  C   UNL A   1      43.203  26.638  27.294  1.00  0.00     0.014 A 
ATOM     50  C   UNL A   1      40.798  26.376  28.706  1.00  0.00     0.010 A 
ATOM     51  C   UNL A   1      42.965  27.432  28.418  1.00  0.00     0.010 A 
ATOM     52  C   UNL A   1      41.745  27.334  29.109  1.00  0.00    -0.014 A 
BRANCH  52  53
ATOM     53  C   UNL A   1      41.446  28.223  30.260  1.00  0.00     0.031 A 
ATOM     54  C   UNL A   1      42.282  28.179  31.511  1.00  0.00     0.074 A 
ATOM     55  C   UNL A   1      40.434  29.104  30.158  1.00  0.00     0.049 A 
ATOM     56  N   UNL A   1      42.153  28.873  32.613  1.00  0.00    -0.248 NA
ATOM     57  C   UNL A   1      43.405  27.229  31.528  1.00  0.00     0.031 C 
ATOM     58  C   UNL A   1      39.560  29.251  28.992  1.00  0.00     0.029 A 
ATOM     59  N   UNL A   1      39.978  30.050  31.039  1.00  0.00    -0.354 N 
ATOM     60  C   UNL A   1      43.164  28.435  33.461  1.00  0.00     0.074 A 
ATOM     61  C   UNL A   1      43.886  27.399  32.753  1.00  0.00     0.031 C 
ATOM     62  C   UNL A   1      38.699  30.256  29.214  1.00  0.00     0.029 A 
ATOM     63  C   UNL A   1      38.924  30.784  30.554  1.00  0.00     0.049 A 
ATOM     64  H   UNL A   1      40.370  30.190  31.931  1.00  0.00     0.167 HD
ATOM     65  C   UNL A   1      43.466  28.862  34.711  1.00  0.00     0.037 A 
ATOM     66  C   UNL A   1      38.205  31.762  31.133  1.00  0.00     0.037 A 
ATOM     67  C   UNL A   1      42.756  29.904  35.410  1.00  0.00     0.049 A 
ATOM     68  C   UNL A   1      38.531  32.182  32.535  1.00  0.00     0.074 A 
ATOM     69  C   UNL A   1      43.003  30.423  36.670  1.00  0.00     0.029 A 
ATOM     70  N   UNL A   1      41.657  30.585  34.907  1.00  0.00    -0.354 N 
ATOM     71  N   UNL A   1      39.492  31.761  33.321  1.00  0.00    -0.248 NA
ATOM     72  C   UNL A   1      37.663  33.203  33.136  1.00  0.00     0.031 C 
ATOM     73  C   UNL A   1      42.033  31.395  36.943  1.00  0.00     0.029 A 
ATOM     74  C   UNL A   1      41.202  31.504  35.839  1.00  0.00     0.049 A 
ATOM     75  H   UNL A   1      41.260  30.436  34.019  1.00  0.00     0.167 HD
ATOM     76  C   UNL A   1      39.346  32.467  34.507  1.00  0.00     0.074 A 
ATOM     77  C   UNL A   1      38.222  33.362  34.327  1.00  0.00     0.031 C 
ATOM     78  C   UNL A   1      40.073  32.377  35.647  1.00  0.00     0.037 A 
BRANCH  65  79
ATOM     79  C   UNL A   1      44.608  28.191  35.415  1.00  0.00     0.057 A 
ATOM     80  C   UNL A   1      45.912  28.690  35.298  1.00  0.00     0.134 A 
ATOM     81  C   UNL A   1      44.427  27.029  36.175  1.00  0.00     0.134 A 
ATOM     82  F   UNL A   1      46.155  29.796  34.579  1.00  0.00    -0.206 F 
ATOM     83  C   UNL A   1      46.994  28.056  35.910  1.00  0.00     0.040 A 
ATOM     84  C   UNL A   1      45.500  26.398  36.809  1.00  0.00     0.040 A 
ATOM     85  F   UNL A   1      43.203  26.507  36.338  1.00  0.00    -0.206 F 
ATOM     86  C   UNL A   1      46.790  26.909  36.673  1.00  0.00     0.006 A 
ENDBRANCH  65  79
BRANCH  66  87
ATOM     87  C   UNL A   1      37.090  32.397  30.391  1.00  0.00     0.057 A 
ATOM     88  C   UNL A   1      35.765  31.979  30.566  1.00  0.00     0.134 A 
ATOM     89  C   UNL A   1      37.327  33.441  29.489  1.00  0.00     0.134 A 
ATOM     90  F   UNL A   1      35.478  30.982  31.415  1.00  0.00    -0.206 F 
ATOM     91  C   UNL A   1      34.716  32.568  29.863  1.00  0.00     0.040 A 
ATOM     92  C   UNL A   1      36.283  34.055  28.796  1.00  0.00     0.040 A 
ATOM     93  F   UNL A   1      38.573  33.896  29.296  1.00  0.00    -0.206 F 
ATOM     94  C   UNL A   1      34.973  33.614  28.978  1.00  0.00     0.006 A 
ENDBRANCH  66  87
BRANCH  78  95
ATOM     95  C   UNL A   1      39.667  33.274  36.776  1.00  0.00     0.057 A 
ATOM     96  C   UNL A   1      38.666  32.888  37.675  1.00  0.00     0.134 A 
ATOM     97  C   UNL A   1      40.270  34.523  36.971  1.00  0.00     0.134 A 
ATOM     98  F   UNL A   1      38.049  31.705  37.540  1.00  0.00    -0.206 F 
ATOM     99  C   UNL A   1      38.284  33.711  38.736  1.00  0.00     0.040 A 
ATOM    100  C   UNL A   1      39.911  35.346  38.038  1.00  0.00     0.040 A 
ATOM    101  F   UNL A   1      41.248  34.940  36.152  1.00  0.00    -0.206 F 
ATOM    102  C   UNL A   1      38.912  34.941  38.922  1.00  0.00     0.006 A 
ENDBRANCH  78  95
ENDBRANCH  52  53
ENDBRANCH  44  47
ENDBRANCH  42  43
ENDBRANCH  41  42
ENDBRANCH  40  41
ENDBRANCH  39  40
ENDBRANCH   1  39
TORSDOF 19
ENDMDL
MODEL 3
REMARK VINA RESULT:      -8.6      5.151     12.647
REMARK SMILES CC[C@@H](C)[C@H](NC(=O)[C@H](C)N1C(=O)N2CCC3=c4cc(OC)ccc4=N[C@H]3[C@@]2(C)C1=O)C(=O)NCCCCCCNC(=O)c1ccc(-c2c3nc(c(-c4c(F)cccc4F)c4ccc([nH]4)c(-c4c(F)cccc4F)c4nc(c(-c5c(F)cccc5F)c5ccc2[nH]5)C=C4)C=C3)cc1
REMARK SMILES IDX 36 1 35 2 34 3 32 4 33 5 5 7 3 8 4 9 2 10 1 11 6 12 7 13
REMARK SMILES IDX 8 15 9 16 10 17 11 18 12 19 30 20 14 21 13 22 28 23 31 24
REMARK SMILES IDX 15 25 27 26 29 27 16 28 17 29 26 30 18 31 25 32 19 33 24 34
REMARK SMILES IDX 20 35 23 36 21 37 22 38 37 39 38 40 39 41 40 42 41 43 42 44
REMARK SMILES IDX 43 46 44 47 45 48 97 49 46 50 96 51 47 52 48 53 49 54 90 55
REMARK SMILES IDX 50 56 95 57 89 58 91 59 51 60 94 61 88 62 87 63 52 65 78 66
REMARK SMILES IDX 61 67 77 68 62 69 65 70 76 71 92 72 63 73 64 74 75 76 93 77
REMARK SMILES IDX 66 78 53 79 54 80 59 81 55 82 56 83 58 84 60 85 57 86 79 87
REMARK SMILES IDX 80 88 85 89 81 90 82 91 84 92 86 93 83 94 67 95 68 96 73 97
REMARK SMILES IDX 69 98 70 99 72 100 74 101 71 102
REMARK H PARENT 34 6 6 14 41 45 91 64 65 75
REMARK Flexibility Score: inf
ROOT
ATOM      1  C   UNL A   1      40.041  28.926  27.658  1.00  0.00     0.021 C 
ENDROOT
BRANCH   1   2
ATOM      2  C   UNL A   1      38.578  29.284  27.443  1.00  0.00     0.116 C 
BRANCH   2   3
ATOM      3  N   UNL A   1      37.750  29.333  28.629  1.00  0.00    -0.354 N 
ATOM      4  C   UNL A   1      36.509  29.851  28.847  1.00  0.00     0.242 C 
ATOM      5  O   UNL A   1      35.914  29.461  29.858  1.00  0.00    -0.273 OA
ATOM      6  H   UNL A   1      38.159  28.918  29.423  1.00  0.00     0.163 HD
BRANCH   4   7
ATOM      7  C   UNL A   1      35.805  30.791  27.854  1.00  0.00     0.174 C 
BRANCH   7   8
ATOM      8  C   UNL A   1      36.358  32.265  28.001  1.00  0.00     0.018 C 
ATOM      9  C   UNL A   1      37.248  32.539  29.227  1.00  0.00     0.010 C 
BRANCH   8  10
ATOM     10  C   UNL A   1      35.223  33.317  27.954  1.00  0.00     0.002 C 
ATOM     11  C   UNL A   1      34.895  33.899  29.333  1.00  0.00     0.004 C 
ENDBRANCH   8  10
ENDBRANCH   7   8
BRANCH   7  12
ATOM     12  N   UNL A   1      34.360  30.685  27.944  1.00  0.00    -0.342 N 
ATOM     13  C   UNL A   1      33.419  29.868  27.425  1.00  0.00     0.243 C 
ATOM     14  H   UNL A   1      33.971  31.377  28.526  1.00  0.00     0.164 HD
ATOM     15  O   UNL A   1      32.310  30.399  27.578  1.00  0.00    -0.273 OA
BRANCH  13  16
ATOM     16  C   UNL A   1      33.563  28.507  26.587  1.00  0.00     0.181 C 
ATOM     17  C   UNL A   1      34.928  28.158  26.049  1.00  0.00     0.042 C 
BRANCH  16  18
ATOM     18  N   UNL A   1      32.483  28.371  25.581  1.00  0.00    -0.250 N 
ATOM     19  C   UNL A   1      32.491  28.478  24.179  1.00  0.00     0.328 C 
ATOM     20  C   UNL A   1      31.421  27.620  25.949  1.00  0.00     0.259 C 
ATOM     21  N   UNL A   1      31.398  27.613  23.674  1.00  0.00    -0.307 N 
ATOM     22  O   UNL A   1      33.329  29.024  23.476  1.00  0.00    -0.248 OA
ATOM     23  C   UNL A   1      31.184  26.716  24.788  1.00  0.00     0.147 C 
ATOM     24  O   UNL A   1      30.879  27.577  27.043  1.00  0.00    -0.271 OA
ATOM     25  C   UNL A   1      31.392  26.862  22.322  1.00  0.00     0.127 C 
ATOM     26  C   UNL A   1      32.389  25.726  24.553  1.00  0.00     0.168 C 
ATOM     27  C   UNL A   1      29.742  26.213  24.839  1.00  0.00     0.048 C 
ATOM     28  C   UNL A   1      31.466  25.138  22.445  1.00  0.00     0.055 C 
ATOM     29  C   UNL A   1      32.083  24.514  23.774  1.00  0.00    -0.032 C 
ATOM     30  N   UNL A   1      33.863  25.830  24.817  1.00  0.00    -0.274 NA
ATOM     31  C   UNL A   1      33.136  23.681  24.011  1.00  0.00     0.005 A 
ATOM     32  C   UNL A   1      34.226  24.736  24.195  1.00  0.00     0.066 A 
ATOM     33  C   UNL A   1      33.333  22.909  25.302  1.00  0.00     0.056 A 
ATOM     34  C   UNL A   1      35.588  24.204  24.075  1.00  0.00     0.032 A 
ATOM     35  C   UNL A   1      34.607  22.818  25.783  1.00  0.00     0.119 A 
ATOM     36  C   UNL A   1      35.737  23.173  24.917  1.00  0.00     0.048 A 
BRANCH  35  37
ATOM     37  O   UNL A   1      34.884  22.754  27.139  1.00  0.00    -0.497 OA
ATOM     38  C   UNL A   1      33.731  22.350  27.914  1.00  0.00     0.278 C 
ENDBRANCH  35  37
ENDBRANCH  16  18
ENDBRANCH  13  16
ENDBRANCH   7  12
ENDBRANCH   4   7
ENDBRANCH   2   3
ENDBRANCH   1   2
BRANCH   1  39
ATOM     39  C   UNL A   1      40.390  27.447  27.802  1.00  0.00     0.002 C 
BRANCH  39  40
ATOM     40  C   UNL A   1      40.407  26.607  26.524  1.00  0.00     0.002 C 
BRANCH  40  41
ATOM     41  C   UNL A   1      39.849  25.191  26.632  1.00  0.00     0.021 C 
BRANCH  41  42
ATOM     42  C   UNL A   1      40.503  24.295  27.675  1.00  0.00     0.116 C 
BRANCH  42  43
ATOM     43  N   UNL A   1      41.218  23.163  27.109  1.00  0.00    -0.352 N 
ATOM     44  C   UNL A   1      42.486  23.172  26.573  1.00  0.00     0.251 C 
ATOM     45  H   UNL A   1      40.746  22.299  27.111  1.00  0.00     0.163 HD
ATOM     46  O   UNL A   1      42.981  22.175  26.065  1.00  0.00    -0.269 OA
BRANCH  44  47
ATOM     47  C   UNL A   1      43.228  24.449  26.596  1.00  0.00     0.039 A 
ATOM     48  C   UNL A   1      43.475  25.125  25.398  1.00  0.00     0.014 A 
ATOM     49  C   UNL A   1      43.789  24.888  27.797  1.00  0.00     0.014 A 
ATOM     50  C   UNL A   1      44.387  26.174  25.383  1.00  0.00     0.010 A 
ATOM     51  C   UNL A   1      44.660  25.980  27.787  1.00  0.00     0.010 A 
ATOM     52  C   UNL A   1      44.996  26.606  26.574  1.00  0.00    -0.014 A 
BRANCH  52  53
ATOM     53  C   UNL A   1      45.977  27.720  26.537  1.00  0.00     0.031 A 
ATOM     54  C   UNL A   1      47.447  27.452  26.357  1.00  0.00     0.074 A 
ATOM     55  C   UNL A   1      45.530  28.986  26.628  1.00  0.00     0.049 A 
ATOM     56  N   UNL A   1      48.441  28.303  26.314  1.00  0.00    -0.248 NA
ATOM     57  C   UNL A   1      47.855  26.046  26.208  1.00  0.00     0.031 C 
ATOM     58  C   UNL A   1      44.128  29.373  26.794  1.00  0.00     0.029 A 
ATOM     59  N   UNL A   1      46.204  30.179  26.582  1.00  0.00    -0.354 N 
ATOM     60  C   UNL A   1      49.592  27.540  26.152  1.00  0.00     0.074 A 
ATOM     61  C   UNL A   1      49.175  26.153  26.125  1.00  0.00     0.031 C 
ATOM     62  C   UNL A   1      44.040  30.712  26.794  1.00  0.00     0.029 A 
ATOM     63  C   UNL A   1      45.382  31.274  26.687  1.00  0.00     0.049 A 
ATOM     64  H   UNL A   1      47.181  30.244  26.482  1.00  0.00     0.167 HD
ATOM     65  C   UNL A   1      50.875  27.957  26.032  1.00  0.00     0.037 A 
ATOM     66  C   UNL A   1      45.678  32.585  26.713  1.00  0.00     0.037 A 
ATOM     67  C   UNL A   1      51.288  29.338  26.044  1.00  0.00     0.049 A 
ATOM     68  C   UNL A   1      47.112  33.016  26.625  1.00  0.00     0.074 A 
ATOM     69  C   UNL A   1      52.562  29.861  25.904  1.00  0.00     0.029 A 
ATOM     70  N   UNL A   1      50.432  30.417  26.209  1.00  0.00    -0.354 N 
ATOM     71  N   UNL A   1      48.186  32.283  26.468  1.00  0.00    -0.248 NA
ATOM     72  C   UNL A   1      47.374  34.457  26.732  1.00  0.00     0.031 C 
ATOM     73  C   UNL A   1      52.481  31.254  26.018  1.00  0.00     0.029 A 
ATOM     74  C   UNL A   1      51.152  31.600  26.195  1.00  0.00     0.049 A 
ATOM     75  H   UNL A   1      49.455  30.350  26.321  1.00  0.00     0.167 HD
ATOM     76  C   UNL A   1      49.252  33.172  26.455  1.00  0.00     0.074 A 
ATOM     77  C   UNL A   1      48.691  34.501  26.592  1.00  0.00     0.031 C 
ATOM     78  C   UNL A   1      50.578  32.912  26.347  1.00  0.00     0.037 A 
BRANCH  65  79
ATOM     79  C   UNL A   1      51.935  26.904  25.889  1.00  0.00     0.057 A 
ATOM     80  C   UNL A   1      52.249  26.373  24.632  1.00  0.00     0.134 A 
ATOM     81  C   UNL A   1      52.615  26.387  26.998  1.00  0.00     0.134 A 
ATOM     82  F   UNL A   1      51.629  26.820  23.530  1.00  0.00    -0.206 F 
ATOM     83  C   UNL A   1      53.202  25.363  24.484  1.00  0.00     0.040 A 
ATOM     84  C   UNL A   1      53.585  25.391  26.859  1.00  0.00     0.040 A 
ATOM     85  F   UNL A   1      52.371  26.861  28.229  1.00  0.00    -0.206 F 
ATOM     86  C   UNL A   1      53.877  24.873  25.598  1.00  0.00     0.006 A 
ENDBRANCH  65  79
BRANCH  66  87
ATOM     87  C   UNL A   1      44.592  33.585  26.848  1.00  0.00     0.057 A 
ATOM     88  C   UNL A   1      44.156  34.022  28.105  1.00  0.00     0.134 A 
ATOM     89  C   UNL A   1      43.967  34.128  25.720  1.00  0.00     0.134 A 
ATOM     90  F   UNL A   1      44.715  33.534  29.222  1.00  0.00    -0.206 F 
ATOM     91  C   UNL A   1      43.128  34.955  28.236  1.00  0.00     0.040 A 
ATOM     92  C   UNL A   1      42.955  35.080  25.836  1.00  0.00     0.040 A 
ATOM     93  F   UNL A   1      44.358  33.761  24.491  1.00  0.00    -0.206 F 
ATOM     94  C   UNL A   1      42.528  35.492  27.098  1.00  0.00     0.006 A 
ENDBRANCH  66  87
BRANCH  78  95
ATOM     95  C   UNL A   1      51.498  34.094  26.372  1.00  0.00     0.057 A 
ATOM     96  C   UNL A   1      51.810  34.784  25.195  1.00  0.00     0.134 A 
ATOM     97  C   UNL A   1      52.074  34.549  27.565  1.00  0.00     0.134 A 
ATOM     98  F   UNL A   1      51.293  34.396  24.020  1.00  0.00    -0.206 F 
ATOM     99  C   UNL A   1      52.660  35.891  25.204  1.00  0.00     0.040 A 
ATOM    100  C   UNL A   1      52.908  35.666  27.590  1.00  0.00     0.040 A 
ATOM    101  F   UNL A   1      51.797  33.940  28.728  1.00  0.00    -0.206 F 
ATOM    102  C   UNL A   1      53.206  36.338  26.406  1.00  0.00     0.006 A 
ENDBRANCH  78  95
ENDBRANCH  52  53
ENDBRANCH  44  47
ENDBRANCH  42  43
ENDBRANCH  41  42
ENDBRANCH  40  41
ENDBRANCH  39  40
ENDBRANCH   1  39
TORSDOF 19
ENDMDL
