MODEL 1
REMARK VINA RESULT:     -10.7      0.000      0.000
REMARK SMILES CC[C@](C)(NC(=O)N[C@@H]1C[C@@H]1C)C(=O)NCCCCCCNC(=O)c1ccc(-c2c3nc(c(-c4c(F)cccc4F)c4ccc([nH]4)c(-c4c(F)cccc4F)c4nc(c(-c5c(F)cccc5F)c5ccc2[nH]5)C=C4)C=C3)cc1
REMARK SMILES IDX 18 1 17 2 16 3 15 4 13 5 14 6 3 8 4 9 2 10 1 11 5 12 6 13
REMARK SMILES IDX 7 15 8 16 9 18 10 19 11 20 12 21 19 22 20 23 21 24 22 25
REMARK SMILES IDX 23 26 24 28 25 29 26 30 78 31 27 32 77 33 28 34 29 35 30 36
REMARK SMILES IDX 71 37 31 38 76 39 70 40 72 41 32 42 75 43 69 44 68 45 33 47
REMARK SMILES IDX 59 48 42 49 58 50 43 51 46 52 57 53 73 54 44 55 45 56 56 58
REMARK SMILES IDX 74 59 47 60 34 61 35 62 40 63 36 64 37 65 39 66 41 67 38 68
REMARK SMILES IDX 60 69 61 70 66 71 62 72 63 73 65 74 67 75 64 76 48 77 49 78
REMARK SMILES IDX 54 79 50 80 51 81 53 82 55 83 52 84
REMARK H PARENT 15 7 5 14 8 17 22 27 72 46 46 57
REMARK Flexibility Score: inf
ROOT
ATOM      1  C   UNL A   1      32.279  29.736  27.187  1.00  0.00     0.002 C 
ENDROOT
BRANCH   1   2
ATOM      2  C   UNL A   1      33.542  28.968  26.814  1.00  0.00     0.021 C 
BRANCH   2   3
ATOM      3  C   UNL A   1      33.415  27.463  26.557  1.00  0.00     0.116 C 
BRANCH   3   4
ATOM      4  N   UNL A   1      33.714  26.969  25.217  1.00  0.00    -0.354 N 
ATOM      5  C   UNL A   1      32.927  26.482  24.203  1.00  0.00     0.245 C 
ATOM      6  O   UNL A   1      33.414  26.489  23.067  1.00  0.00    -0.272 OA
ATOM      7  H   UNL A   1      34.673  26.990  24.995  1.00  0.00     0.163 HD
BRANCH   5   8
ATOM      8  C   UNL A   1      31.441  26.091  24.434  1.00  0.00     0.117 C 
ATOM      9  C   UNL A   1      30.810  25.194  23.354  1.00  0.00     0.045 C 
BRANCH   8  10
ATOM     10  C   UNL A   1      30.637  27.441  24.445  1.00  0.00     0.035 C 
ATOM     11  C   UNL A   1      29.576  27.574  23.348  1.00  0.00     0.007 C 
ENDBRANCH   8  10
BRANCH   8  12
ATOM     12  N   UNL A   1      31.328  25.411  25.737  1.00  0.00    -0.324 N 
ATOM     13  C   UNL A   1      31.759  24.232  26.219  1.00  0.00     0.315 C 
ATOM     14  H   UNL A   1      30.827  25.938  26.402  1.00  0.00     0.166 HD
ATOM     15  O   UNL A   1      31.419  23.950  27.373  1.00  0.00    -0.249 OA
ATOM     16  N   UNL A   1      32.609  23.388  25.592  1.00  0.00    -0.335 N 
ATOM     17  H   UNL A   1      33.165  22.866  26.214  1.00  0.00     0.165 HD
BRANCH  16  18
ATOM     18  C   UNL A   1      32.874  23.094  24.219  1.00  0.00     0.087 C 
ATOM     19  C   UNL A   1      33.635  21.817  23.916  1.00  0.00     0.030 C 
ATOM     20  C   UNL A   1      34.195  23.131  23.473  1.00  0.00     0.010 C 
ATOM     21  C   UNL A   1      35.533  23.524  23.982  1.00  0.00     0.010 C 
ENDBRANCH  16  18
ENDBRANCH   8  12
ENDBRANCH   5   8
ENDBRANCH   3   4
ENDBRANCH   2   3
ENDBRANCH   1   2
BRANCH   1  22
ATOM     22  C   UNL A   1      31.685  30.628  26.097  1.00  0.00     0.002 C 
BRANCH  22  23
ATOM     23  C   UNL A   1      31.444  32.075  26.515  1.00  0.00     0.021 C 
BRANCH  23  24
ATOM     24  C   UNL A   1      32.562  32.682  27.347  1.00  0.00     0.116 C 
BRANCH  24  25
ATOM     25  N   UNL A   1      32.361  34.099  27.616  1.00  0.00    -0.352 N 
ATOM     26  C   UNL A   1      33.026  34.886  28.532  1.00  0.00     0.251 C 
ATOM     27  H   UNL A   1      31.670  34.549  27.078  1.00  0.00     0.163 HD
ATOM     28  O   UNL A   1      32.677  36.033  28.762  1.00  0.00    -0.269 OA
BRANCH  26  29
ATOM     29  C   UNL A   1      34.160  34.285  29.262  1.00  0.00     0.039 A 
ATOM     30  C   UNL A   1      33.913  33.523  30.405  1.00  0.00     0.014 A 
ATOM     31  C   UNL A   1      35.453  34.395  28.743  1.00  0.00     0.014 A 
ATOM     32  C   UNL A   1      34.959  32.804  30.989  1.00  0.00     0.010 A 
ATOM     33  C   UNL A   1      36.470  33.613  29.273  1.00  0.00     0.010 A 
ATOM     34  C   UNL A   1      36.235  32.813  30.404  1.00  0.00    -0.014 A 
BRANCH  34  35
ATOM     35  C   UNL A   1      37.361  32.019  30.961  1.00  0.00     0.031 A 
ATOM     36  C   UNL A   1      37.875  32.341  32.338  1.00  0.00     0.074 A 
ATOM     37  C   UNL A   1      37.976  31.086  30.208  1.00  0.00     0.049 A 
ATOM     38  N   UNL A   1      38.934  31.885  32.955  1.00  0.00    -0.248 NA
ATOM     39  C   UNL A   1      37.118  33.343  33.109  1.00  0.00     0.031 C 
ATOM     40  C   UNL A   1      37.605  30.713  28.840  1.00  0.00     0.029 A 
ATOM     41  N   UNL A   1      39.063  30.292  30.482  1.00  0.00    -0.354 N 
ATOM     42  C   UNL A   1      38.991  32.570  34.162  1.00  0.00     0.074 A 
ATOM     43  C   UNL A   1      37.888  33.504  34.174  1.00  0.00     0.031 C 
ATOM     44  C   UNL A   1      38.439  29.754  28.404  1.00  0.00     0.029 A 
ATOM     45  C   UNL A   1      39.427  29.472  29.441  1.00  0.00     0.049 A 
ATOM     46  H   UNL A   1      39.538  30.310  31.345  1.00  0.00     0.167 HD
ATOM     47  C   UNL A   1      39.869  32.419  35.179  1.00  0.00     0.037 A 
ATOM     48  C   UNL A   1      40.449  28.602  29.333  1.00  0.00     0.037 A 
ATOM     49  C   UNL A   1      40.925  31.442  35.192  1.00  0.00     0.049 A 
ATOM     50  C   UNL A   1      41.393  28.432  30.494  1.00  0.00     0.074 A 
ATOM     51  C   UNL A   1      41.813  31.151  36.212  1.00  0.00     0.029 A 
ATOM     52  N   UNL A   1      41.223  30.592  34.140  1.00  0.00    -0.354 N 
ATOM     53  N   UNL A   1      41.392  29.038  31.656  1.00  0.00    -0.248 NA
ATOM     54  C   UNL A   1      42.480  27.455  30.329  1.00  0.00     0.031 C 
ATOM     55  C   UNL A   1      42.674  30.146  35.763  1.00  0.00     0.029 A 
ATOM     56  C   UNL A   1      42.293  29.784  34.480  1.00  0.00     0.049 A 
ATOM     57  H   UNL A   1      40.746  30.568  33.279  1.00  0.00     0.167 HD
ATOM     58  C   UNL A   1      42.447  28.488  32.373  1.00  0.00     0.074 A 
ATOM     59  C   UNL A   1      43.063  27.495  31.519  1.00  0.00     0.031 C 
ATOM     60  C   UNL A   1      42.868  28.777  33.628  1.00  0.00     0.037 A 
BRANCH  47  61
ATOM     61  C   UNL A   1      39.721  33.315  36.372  1.00  0.00     0.057 A 
ATOM     62  C   UNL A   1      40.407  34.532  36.473  1.00  0.00     0.134 A 
ATOM     63  C   UNL A   1      38.837  32.982  37.406  1.00  0.00     0.134 A 
ATOM     64  F   UNL A   1      41.278  34.901  35.522  1.00  0.00    -0.206 F 
ATOM     65  C   UNL A   1      40.233  35.378  37.567  1.00  0.00     0.040 A 
ATOM     66  C   UNL A   1      38.634  33.833  38.494  1.00  0.00     0.040 A 
ATOM     67  F   UNL A   1      38.146  31.833  37.370  1.00  0.00    -0.206 F 
ATOM     68  C   UNL A   1      39.337  35.034  38.578  1.00  0.00     0.006 A 
ENDBRANCH  47  61
BRANCH  48  69
ATOM     69  C   UNL A   1      40.638  27.804  28.093  1.00  0.00     0.057 A 
ATOM     70  C   UNL A   1      40.078  26.527  27.965  1.00  0.00     0.134 A 
ATOM     71  C   UNL A   1      41.418  28.274  27.030  1.00  0.00     0.134 A 
ATOM     72  F   UNL A   1      39.338  26.013  28.959  1.00  0.00    -0.206 F 
ATOM     73  C   UNL A   1      40.312  25.733  26.841  1.00  0.00     0.040 A 
ATOM     74  C   UNL A   1      41.639  27.501  25.887  1.00  0.00     0.040 A 
ATOM     75  F   UNL A   1      41.977  29.491  27.085  1.00  0.00    -0.206 F 
ATOM     76  C   UNL A   1      41.094  26.221  25.797  1.00  0.00     0.006 A 
ENDBRANCH  48  69
BRANCH  60  77
ATOM     77  C   UNL A   1      44.008  27.974  34.178  1.00  0.00     0.057 A 
ATOM     78  C   UNL A   1      45.334  28.416  34.097  1.00  0.00     0.134 A 
ATOM     79  C   UNL A   1      43.763  26.773  34.856  1.00  0.00     0.134 A 
ATOM     80  F   UNL A   1      45.632  29.553  33.450  1.00  0.00    -0.206 F 
ATOM     81  C   UNL A   1      46.379  27.682  34.658  1.00  0.00     0.040 A 
ATOM     82  C   UNL A   1      44.797  26.045  35.444  1.00  0.00     0.040 A 
ATOM     83  F   UNL A   1      42.514  26.301  34.978  1.00  0.00    -0.206 F 
ATOM     84  C   UNL A   1      46.112  26.498  35.342  1.00  0.00     0.006 A 
ENDBRANCH  60  77
ENDBRANCH  34  35
ENDBRANCH  26  29
ENDBRANCH  24  25
ENDBRANCH  23  24
ENDBRANCH  22  23
ENDBRANCH   1  22
TORSDOF 16
ENDMDL
MODEL 2
REMARK VINA RESULT:     -10.7      1.381      2.643
REMARK SMILES CC[C@](C)(NC(=O)N[C@@H]1C[C@@H]1C)C(=O)NCCCCCCNC(=O)c1ccc(-c2c3nc(c(-c4c(F)cccc4F)c4ccc([nH]4)c(-c4c(F)cccc4F)c4nc(c(-c5c(F)cccc5F)c5ccc2[nH]5)C=C4)C=C3)cc1
REMARK SMILES IDX 18 1 17 2 16 3 15 4 13 5 14 6 3 8 4 9 2 10 1 11 5 12 6 13
REMARK SMILES IDX 7 15 8 16 9 18 10 19 11 20 12 21 19 22 20 23 21 24 22 25
REMARK SMILES IDX 23 26 24 28 25 29 26 30 78 31 27 32 77 33 28 34 29 35 30 36
REMARK SMILES IDX 71 37 31 38 76 39 70 40 72 41 32 42 75 43 69 44 68 45 33 47
REMARK SMILES IDX 59 48 42 49 58 50 43 51 46 52 57 53 73 54 44 55 45 56 56 58
REMARK SMILES IDX 74 59 47 60 34 61 35 62 40 63 36 64 37 65 39 66 41 67 38 68
REMARK SMILES IDX 60 69 61 70 66 71 62 72 63 73 65 74 67 75 64 76 48 77 49 78
REMARK SMILES IDX 54 79 50 80 51 81 53 82 55 83 52 84
REMARK H PARENT 15 7 5 14 8 17 22 27 72 46 46 57
REMARK Flexibility Score: inf
ROOT
ATOM      1  C   UNL A   1      32.357  30.029  27.362  1.00  0.00     0.002 C 
ENDROOT
BRANCH   1   2
ATOM      2  C   UNL A   1      33.871  29.857  27.298  1.00  0.00     0.021 C 
BRANCH   2   3
ATOM      3  C   UNL A   1      34.427  28.722  26.432  1.00  0.00     0.116 C 
BRANCH   3   4
ATOM      4  N   UNL A   1      34.427  28.902  24.984  1.00  0.00    -0.354 N 
ATOM      5  C   UNL A   1      33.793  28.242  23.961  1.00  0.00     0.245 C 
ATOM      6  O   UNL A   1      33.694  28.844  22.886  1.00  0.00    -0.272 OA
ATOM      7  H   UNL A   1      34.995  29.647  24.680  1.00  0.00     0.163 HD
BRANCH   5   8
ATOM      8  C   UNL A   1      33.089  26.874  24.179  1.00  0.00     0.117 C 
ATOM      9  C   UNL A   1      31.812  26.908  25.038  1.00  0.00     0.045 C 
BRANCH   8  10
ATOM     10  C   UNL A   1      34.131  25.969  24.930  1.00  0.00     0.035 C 
ATOM     11  C   UNL A   1      34.416  24.618  24.268  1.00  0.00     0.007 C 
ENDBRANCH   8  10
BRANCH   8  12
ATOM     12  N   UNL A   1      32.758  26.298  22.863  1.00  0.00    -0.324 N 
ATOM     13  C   UNL A   1      31.796  26.532  21.954  1.00  0.00     0.315 C 
ATOM     14  H   UNL A   1      33.379  25.584  22.590  1.00  0.00     0.166 HD
ATOM     15  O   UNL A   1      31.783  25.796  20.961  1.00  0.00    -0.249 OA
ATOM     16  N   UNL A   1      30.918  27.560  21.982  1.00  0.00    -0.335 N 
ATOM     17  H   UNL A   1      30.637  27.854  21.086  1.00  0.00     0.165 HD
BRANCH  16  18
ATOM     18  C   UNL A   1      30.313  28.311  23.036  1.00  0.00     0.087 C 
ATOM     19  C   UNL A   1      28.797  28.368  23.067  1.00  0.00     0.030 C 
ATOM     20  C   UNL A   1      29.580  29.638  22.962  1.00  0.00     0.010 C 
ATOM     21  C   UNL A   1      29.348  30.502  21.777  1.00  0.00     0.010 C 
ENDBRANCH  16  18
ENDBRANCH   8  12
ENDBRANCH   5   8
ENDBRANCH   3   4
ENDBRANCH   2   3
ENDBRANCH   1   2
BRANCH   1  22
ATOM     22  C   UNL A   1      31.719  30.820  26.220  1.00  0.00     0.002 C 
BRANCH  22  23
ATOM     23  C   UNL A   1      31.490  32.298  26.516  1.00  0.00     0.021 C 
BRANCH  23  24
ATOM     24  C   UNL A   1      32.480  32.902  27.498  1.00  0.00     0.116 C 
BRANCH  24  25
ATOM     25  N   UNL A   1      32.254  34.323  27.728  1.00  0.00    -0.352 N 
ATOM     26  C   UNL A   1      32.940  35.158  28.583  1.00  0.00     0.251 C 
ATOM     27  H   UNL A   1      31.525  34.735  27.210  1.00  0.00     0.163 HD
ATOM     28  O   UNL A   1      32.572  36.303  28.791  1.00  0.00    -0.269 OA
BRANCH  26  29
ATOM     29  C   UNL A   1      34.125  34.612  29.277  1.00  0.00     0.039 A 
ATOM     30  C   UNL A   1      33.982  34.076  30.558  1.00  0.00     0.014 A 
ATOM     31  C   UNL A   1      35.347  34.541  28.604  1.00  0.00     0.014 A 
ATOM     32  C   UNL A   1      35.055  33.396  31.139  1.00  0.00     0.010 A 
ATOM     33  C   UNL A   1      36.382  33.791  29.148  1.00  0.00     0.010 A 
ATOM     34  C   UNL A   1      36.249  33.215  30.422  1.00  0.00    -0.014 A 
BRANCH  34  35
ATOM     35  C   UNL A   1      37.393  32.451  30.982  1.00  0.00     0.031 A 
ATOM     36  C   UNL A   1      38.024  32.912  32.268  1.00  0.00     0.074 A 
ATOM     37  C   UNL A   1      37.922  31.415  30.299  1.00  0.00     0.049 A 
ATOM     38  N   UNL A   1      39.116  32.492  32.852  1.00  0.00    -0.248 NA
ATOM     39  C   UNL A   1      37.358  34.022  32.970  1.00  0.00     0.031 C 
ATOM     40  C   UNL A   1      37.432  30.900  29.018  1.00  0.00     0.029 A 
ATOM     41  N   UNL A   1      39.005  30.620  30.582  1.00  0.00    -0.354 N 
ATOM     42  C   UNL A   1      39.288  33.310  33.961  1.00  0.00     0.074 A 
ATOM     43  C   UNL A   1      38.215  34.278  33.947  1.00  0.00     0.031 C 
ATOM     44  C   UNL A   1      38.202  29.867  28.635  1.00  0.00     0.029 A 
ATOM     45  C   UNL A   1      39.262  29.672  29.620  1.00  0.00     0.049 A 
ATOM     46  H   UNL A   1      39.548  30.720  31.398  1.00  0.00     0.167 HD
ATOM     47  C   UNL A   1      40.241  33.245  34.919  1.00  0.00     0.037 A 
ATOM     48  C   UNL A   1      40.249  28.759  29.538  1.00  0.00     0.037 A 
ATOM     49  C   UNL A   1      41.267  32.240  34.967  1.00  0.00     0.049 A 
ATOM     50  C   UNL A   1      41.278  28.691  30.635  1.00  0.00     0.074 A 
ATOM     51  C   UNL A   1      42.226  32.036  35.943  1.00  0.00     0.029 A 
ATOM     52  N   UNL A   1      41.458  31.263  34.003  1.00  0.00    -0.354 N 
ATOM     53  N   UNL A   1      41.386  29.427  31.715  1.00  0.00    -0.248 NA
ATOM     54  C   UNL A   1      42.322  27.663  30.505  1.00  0.00     0.031 C 
ATOM     55  C   UNL A   1      43.021  30.955  35.552  1.00  0.00     0.029 A 
ATOM     56  C   UNL A   1      42.529  30.462  34.354  1.00  0.00     0.049 A 
ATOM     57  H   UNL A   1      40.913  31.157  33.190  1.00  0.00     0.167 HD
ATOM     58  C   UNL A   1      42.480  28.926  32.409  1.00  0.00     0.074 A 
ATOM     59  C   UNL A   1      42.999  27.820  31.634  1.00  0.00     0.031 C 
ATOM     60  C   UNL A   1      43.007  29.343  33.585  1.00  0.00     0.037 A 
BRANCH  47  61
ATOM     61  C   UNL A   1      40.212  34.278  36.005  1.00  0.00     0.057 A 
ATOM     62  C   UNL A   1      40.842  35.520  35.862  1.00  0.00     0.134 A 
ATOM     63  C   UNL A   1      39.497  34.048  37.188  1.00  0.00     0.134 A 
ATOM     64  F   UNL A   1      41.555  35.797  34.759  1.00  0.00    -0.206 F 
ATOM     65  C   UNL A   1      40.778  36.491  36.861  1.00  0.00     0.040 A 
ATOM     66  C   UNL A   1      39.402  35.021  38.184  1.00  0.00     0.040 A 
ATOM     67  F   UNL A   1      38.867  32.881  37.387  1.00  0.00    -0.206 F 
ATOM     68  C   UNL A   1      40.048  36.246  38.023  1.00  0.00     0.006 A 
ENDBRANCH  47  61
BRANCH  48  69
ATOM     69  C   UNL A   1      40.317  27.817  28.391  1.00  0.00     0.057 A 
ATOM     70  C   UNL A   1      39.727  26.549  28.463  1.00  0.00     0.134 A 
ATOM     71  C   UNL A   1      41.009  28.139  27.217  1.00  0.00     0.134 A 
ATOM     72  F   UNL A   1      39.068  26.175  29.570  1.00  0.00    -0.206 F 
ATOM     73  C   UNL A   1      39.850  25.623  27.426  1.00  0.00     0.040 A 
ATOM     74  C   UNL A   1      41.118  27.232  26.160  1.00  0.00     0.040 A 
ATOM     75  F   UNL A   1      41.591  29.339  27.080  1.00  0.00    -0.206 F 
ATOM     76  C   UNL A   1      40.547  25.965  26.269  1.00  0.00     0.006 A 
ENDBRANCH  48  69
BRANCH  60  77
ATOM     77  C   UNL A   1      44.166  28.568  34.138  1.00  0.00     0.057 A 
ATOM     78  C   UNL A   1      43.985  27.440  34.946  1.00  0.00     0.134 A 
ATOM     79  C   UNL A   1      45.478  28.924  33.801  1.00  0.00     0.134 A 
ATOM     80  F   UNL A   1      42.752  27.057  35.312  1.00  0.00    -0.206 F 
ATOM     81  C   UNL A   1      45.071  26.699  35.412  1.00  0.00     0.040 A 
ATOM     82  C   UNL A   1      46.570  28.175  34.240  1.00  0.00     0.040 A 
ATOM     83  F   UNL A   1      45.717  29.989  33.022  1.00  0.00    -0.206 F 
ATOM     84  C   UNL A   1      46.368  27.061  35.052  1.00  0.00     0.006 A 
ENDBRANCH  60  77
ENDBRANCH  34  35
ENDBRANCH  26  29
ENDBRANCH  24  25
ENDBRANCH  23  24
ENDBRANCH  22  23
ENDBRANCH   1  22
TORSDOF 16
ENDMDL
MODEL 3
REMARK VINA RESULT:     -10.6      1.278      3.009
REMARK SMILES CC[C@](C)(NC(=O)N[C@@H]1C[C@@H]1C)C(=O)NCCCCCCNC(=O)c1ccc(-c2c3nc(c(-c4c(F)cccc4F)c4ccc([nH]4)c(-c4c(F)cccc4F)c4nc(c(-c5c(F)cccc5F)c5ccc2[nH]5)C=C4)C=C3)cc1
REMARK SMILES IDX 18 1 17 2 16 3 15 4 13 5 14 6 3 8 4 9 2 10 1 11 5 12 6 13
REMARK SMILES IDX 7 15 8 16 9 18 10 19 11 20 12 21 19 22 20 23 21 24 22 25
REMARK SMILES IDX 23 26 24 28 25 29 26 30 78 31 27 32 77 33 28 34 29 35 30 36
REMARK SMILES IDX 71 37 31 38 76 39 70 40 72 41 32 42 75 43 69 44 68 45 33 47
REMARK SMILES IDX 59 48 42 49 58 50 43 51 46 52 57 53 73 54 44 55 45 56 56 58
REMARK SMILES IDX 74 59 47 60 34 61 35 62 40 63 36 64 37 65 39 66 41 67 38 68
REMARK SMILES IDX 60 69 61 70 66 71 62 72 63 73 65 74 67 75 64 76 48 77 49 78
REMARK SMILES IDX 54 79 50 80 51 81 53 82 55 83 52 84
REMARK H PARENT 15 7 5 14 8 17 22 27 72 46 46 57
REMARK Flexibility Score: inf
ROOT
ATOM      1  C   UNL A   1      32.020  29.621  27.274  1.00  0.00     0.002 C 
ENDROOT
BRANCH   1   2
ATOM      2  C   UNL A   1      33.091  28.622  26.850  1.00  0.00     0.021 C 
BRANCH   2   3
ATOM      3  C   UNL A   1      32.638  27.220  26.432  1.00  0.00     0.116 C 
BRANCH   3   4
ATOM      4  N   UNL A   1      31.325  27.082  25.809  1.00  0.00    -0.354 N 
ATOM      5  C   UNL A   1      30.914  26.586  24.596  1.00  0.00     0.245 C 
ATOM      6  O   UNL A   1      29.725  26.263  24.501  1.00  0.00    -0.272 OA
ATOM      7  H   UNL A   1      30.586  27.410  26.371  1.00  0.00     0.163 HD
BRANCH   5   8
ATOM      8  C   UNL A   1      31.918  26.291  23.448  1.00  0.00     0.117 C 
ATOM      9  C   UNL A   1      31.298  26.094  22.052  1.00  0.00     0.045 C 
BRANCH   8  10
ATOM     10  C   UNL A   1      32.629  24.944  23.834  1.00  0.00     0.035 C 
ATOM     11  C   UNL A   1      33.933  24.659  23.083  1.00  0.00     0.007 C 
ENDBRANCH   8  10
BRANCH   8  12
ATOM     12  N   UNL A   1      32.895  27.391  23.380  1.00  0.00    -0.324 N 
ATOM     13  C   UNL A   1      32.804  28.711  23.143  1.00  0.00     0.315 C 
ATOM     14  H   UNL A   1      33.819  27.094  23.544  1.00  0.00     0.166 HD
ATOM     15  O   UNL A   1      33.867  29.340  23.098  1.00  0.00    -0.249 OA
ATOM     16  N   UNL A   1      31.655  29.419  23.056  1.00  0.00    -0.335 N 
ATOM     17  H   UNL A   1      31.752  30.353  23.351  1.00  0.00     0.165 HD
BRANCH  16  18
ATOM     18  C   UNL A   1      30.329  29.099  22.629  1.00  0.00     0.087 C 
ATOM     19  C   UNL A   1      29.709  29.985  21.565  1.00  0.00     0.030 C 
ATOM     20  C   UNL A   1      29.036  29.847  22.892  1.00  0.00     0.010 C 
ATOM     21  C   UNL A   1      28.826  31.077  23.697  1.00  0.00     0.010 C 
ENDBRANCH  16  18
ENDBRANCH   8  12
ENDBRANCH   5   8
ENDBRANCH   3   4
ENDBRANCH   2   3
ENDBRANCH   1   2
BRANCH   1  22
ATOM     22  C   UNL A   1      31.611  30.657  26.227  1.00  0.00     0.002 C 
BRANCH  22  23
ATOM     23  C   UNL A   1      31.355  32.055  26.777  1.00  0.00     0.021 C 
BRANCH  23  24
ATOM     24  C   UNL A   1      32.548  32.993  26.686  1.00  0.00     0.116 C 
BRANCH  24  25
ATOM     25  N   UNL A   1      32.402  34.178  27.521  1.00  0.00    -0.352 N 
ATOM     26  C   UNL A   1      33.151  34.530  28.622  1.00  0.00     0.251 C 
ATOM     27  H   UNL A   1      31.683  34.800  27.268  1.00  0.00     0.163 HD
ATOM     28  O   UNL A   1      32.848  35.482  29.324  1.00  0.00    -0.269 OA
BRANCH  26  29
ATOM     29  C   UNL A   1      34.323  33.695  28.956  1.00  0.00     0.039 A 
ATOM     30  C   UNL A   1      35.601  34.255  28.908  1.00  0.00     0.014 A 
ATOM     31  C   UNL A   1      34.132  32.390  29.419  1.00  0.00     0.014 A 
ATOM     32  C   UNL A   1      36.687  33.527  29.398  1.00  0.00     0.010 A 
ATOM     33  C   UNL A   1      35.199  31.703  29.983  1.00  0.00     0.010 A 
ATOM     34  C   UNL A   1      36.488  32.263  29.976  1.00  0.00    -0.014 A 
BRANCH  34  35
ATOM     35  C   UNL A   1      37.608  31.479  30.558  1.00  0.00     0.031 A 
ATOM     36  C   UNL A   1      38.011  31.727  31.986  1.00  0.00     0.074 A 
ATOM     37  C   UNL A   1      38.316  30.628  29.790  1.00  0.00     0.049 A 
ATOM     38  N   UNL A   1      39.045  31.273  32.646  1.00  0.00    -0.248 NA
ATOM     39  C   UNL A   1      37.158  32.640  32.765  1.00  0.00     0.031 C 
ATOM     40  C   UNL A   1      38.057  30.335  28.378  1.00  0.00     0.029 A 
ATOM     41  N   UNL A   1      39.417  29.862  30.088  1.00  0.00    -0.354 N 
ATOM     42  C   UNL A   1      38.988  31.875  33.896  1.00  0.00     0.074 A 
ATOM     43  C   UNL A   1      37.844  32.759  33.892  1.00  0.00     0.031 C 
ATOM     44  C   UNL A   1      38.962  29.444  27.939  1.00  0.00     0.029 A 
ATOM     45  C   UNL A   1      39.889  29.132  29.024  1.00  0.00     0.049 A 
ATOM     46  H   UNL A   1      39.831  29.840  30.982  1.00  0.00     0.167 HD
ATOM     47  C   UNL A   1      39.800  31.690  34.961  1.00  0.00     0.037 A 
ATOM     48  C   UNL A   1      40.956  28.315  28.932  1.00  0.00     0.037 A 
ATOM     49  C   UNL A   1      40.897  30.760  34.985  1.00  0.00     0.049 A 
ATOM     50  C   UNL A   1      41.825  28.105  30.143  1.00  0.00     0.074 A 
ATOM     51  C   UNL A   1      41.726  30.435  36.044  1.00  0.00     0.029 A 
ATOM     52  N   UNL A   1      41.306  29.998  33.903  1.00  0.00    -0.354 N 
ATOM     53  N   UNL A   1      41.716  28.627  31.340  1.00  0.00    -0.248 NA
ATOM     54  C   UNL A   1      42.965  27.187  29.992  1.00  0.00     0.031 C 
ATOM     55  C   UNL A   1      42.661  29.500  35.592  1.00  0.00     0.029 A 
ATOM     56  C   UNL A   1      42.386  29.213  34.264  1.00  0.00     0.049 A 
ATOM     57  H   UNL A   1      40.890  30.013  33.010  1.00  0.00     0.167 HD
ATOM     58  C   UNL A   1      42.744  28.073  32.092  1.00  0.00     0.074 A 
ATOM     59  C   UNL A   1      43.462  27.169  31.221  1.00  0.00     0.031 C 
ATOM     60  C   UNL A   1      43.064  28.292  33.390  1.00  0.00     0.037 A 
BRANCH  47  61
ATOM     61  C   UNL A   1      39.529  32.494  36.197  1.00  0.00     0.057 A 
ATOM     62  C   UNL A   1      38.577  32.097  37.144  1.00  0.00     0.134 A 
ATOM     63  C   UNL A   1      40.272  33.650  36.472  1.00  0.00     0.134 A 
ATOM     64  F   UNL A   1      37.824  31.006  36.933  1.00  0.00    -0.206 F 
ATOM     65  C   UNL A   1      38.359  32.829  38.311  1.00  0.00     0.040 A 
ATOM     66  C   UNL A   1      40.081  34.377  37.648  1.00  0.00     0.040 A 
ATOM     67  F   UNL A   1      41.202  34.083  35.608  1.00  0.00    -0.206 F 
ATOM     68  C   UNL A   1      39.119  33.968  38.570  1.00  0.00     0.006 A 
ENDBRANCH  47  61
BRANCH  48  69
ATOM     69  C   UNL A   1      41.266  27.614  27.658  1.00  0.00     0.057 A 
ATOM     70  C   UNL A   1      40.808  26.312  27.422  1.00  0.00     0.134 A 
ATOM     71  C   UNL A   1      42.063  28.204  26.671  1.00  0.00     0.134 A 
ATOM     72  F   UNL A   1      40.056  25.685  28.340  1.00  0.00    -0.206 F 
ATOM     73  C   UNL A   1      41.156  25.610  26.267  1.00  0.00     0.040 A 
ATOM     74  C   UNL A   1      42.399  27.523  25.498  1.00  0.00     0.040 A 
ATOM     75  F   UNL A   1      42.529  29.451  26.831  1.00  0.00    -0.206 F 
ATOM     76  C   UNL A   1      41.954  26.218  25.300  1.00  0.00     0.006 A 
ENDBRANCH  48  69
BRANCH  60  77
ATOM     77  C   UNL A   1      44.200  27.501  33.967  1.00  0.00     0.057 A 
ATOM     78  C   UNL A   1      44.010  26.233  34.528  1.00  0.00     0.134 A 
ATOM     79  C   UNL A   1      45.510  27.992  33.897  1.00  0.00     0.134 A 
ATOM     80  F   UNL A   1      42.777  25.714  34.632  1.00  0.00    -0.206 F 
ATOM     81  C   UNL A   1      45.083  25.486  35.015  1.00  0.00     0.040 A 
ATOM     82  C   UNL A   1      46.593  27.244  34.356  1.00  0.00     0.040 A 
ATOM     83  F   UNL A   1      45.759  29.196  33.361  1.00  0.00    -0.206 F 
ATOM     84  C   UNL A   1      46.381  25.988  34.922  1.00  0.00     0.006 A 
ENDBRANCH  60  77
ENDBRANCH  34  35
ENDBRANCH  26  29
ENDBRANCH  24  25
ENDBRANCH  23  24
ENDBRANCH  22  23
ENDBRANCH   1  22
TORSDOF 16
ENDMDL
