MODEL 1
REMARK VINA RESULT:     -11.4      0.000      0.000
REMARK SMILES CCC(CC)COc1cc2c(cc1Cl)C=C(C(=O)NCCCCCCNC(=O)c1ccc(-c3c4nc(c(-c5c(F)cccc5F)c5ccc([nH]5)c(-c5c(F)cccc5F)c5nc(c(-c6c(F)cccc6F)c6ccc3[nH]6)C=C5)C=C4)cc1)[C@@H](C(F)(F)F)O2
REMARK SMILES IDX 21 1 20 2 19 3 17 4 18 5 16 7 8 8 9 9 13 10 10 11 12 12
REMARK SMILES IDX 14 13 11 14 88 15 15 16 83 17 7 18 6 19 3 20 2 21 1 22 4 23
REMARK SMILES IDX 5 24 84 25 85 26 86 27 87 28 22 29 23 30 24 31 25 32 26 33
REMARK SMILES IDX 27 34 28 36 29 37 30 38 82 39 31 40 81 41 32 42 33 43 34 44
REMARK SMILES IDX 75 45 35 46 80 47 74 48 76 49 36 50 79 51 73 52 72 53 37 55
REMARK SMILES IDX 63 56 46 57 62 58 47 59 50 60 61 61 77 62 48 63 49 64 60 66
REMARK SMILES IDX 78 67 51 68 38 69 39 70 44 71 40 72 41 73 43 74 45 75 42 76
REMARK SMILES IDX 64 77 65 78 70 79 66 80 67 81 69 82 71 83 68 84 52 85 53 86
REMARK SMILES IDX 58 87 54 88 55 89 57 90 59 91 56 92
REMARK H PARENT 19 6 26 35 76 54 50 65
REMARK Flexibility Score: inf
ROOT
ATOM      1  C   UNL A   1      31.894  29.040  24.011  1.00  0.00     0.021 C 
ENDROOT
BRANCH   1   2
ATOM      2  C   UNL A   1      31.011  28.651  22.829  1.00  0.00     0.116 C 
BRANCH   2   3
ATOM      3  N   UNL A   1      29.771  28.047  23.276  1.00  0.00    -0.352 N 
ATOM      4  C   UNL A   1      29.374  26.842  23.742  1.00  0.00     0.251 C 
ATOM      5  O   UNL A   1      28.182  26.768  24.058  1.00  0.00    -0.270 OA
ATOM      6  H   UNL A   1      29.020  28.682  23.226  1.00  0.00     0.163 HD
BRANCH   4   7
ATOM      7  C   UNL A   1      30.248  25.647  23.887  1.00  0.00     0.067 C 
ATOM      8  C   UNL A   1      32.827  21.782  25.763  1.00  0.00     0.141 A 
ATOM      9  C   UNL A   1      32.109  21.962  24.581  1.00  0.00     0.095 A 
ATOM     10  C   UNL A   1      32.980  22.849  26.661  1.00  0.00     0.083 A 
ATOM     11  C   UNL A   1      31.468  23.176  24.362  1.00  0.00     0.131 A 
ATOM     12  C   UNL A   1      32.246  24.021  26.484  1.00  0.00     0.036 A 
ATOM     13  Cl  UNL A   1      34.037  22.751  28.022  1.00  0.00    -0.080 Cl
ATOM     14  C   UNL A   1      31.464  24.174  25.344  1.00  0.00     0.019 A 
ATOM     15  O   UNL A   1      30.840  23.360  23.158  1.00  0.00    -0.475 OA
ATOM     16  C   UNL A   1      30.625  25.349  25.145  1.00  0.00     0.025 C 
ATOM     17  C   UNL A   1      30.725  24.765  22.767  1.00  0.00     0.314 C 
BRANCH   8  18
ATOM     18  O   UNL A   1      33.398  20.565  26.024  1.00  0.00    -0.492 OA
BRANCH  18  19
ATOM     19  C   UNL A   1      34.314  20.148  24.984  1.00  0.00     0.233 C 
BRANCH  19  20
ATOM     20  C   UNL A   1      35.687  20.849  25.122  1.00  0.00     0.026 C 
BRANCH  20  21
ATOM     21  C   UNL A   1      36.852  19.835  25.039  1.00  0.00     0.003 C 
ATOM     22  C   UNL A   1      38.219  20.506  25.057  1.00  0.00     0.004 C 
ENDBRANCH  20  21
BRANCH  20  23
ATOM     23  C   UNL A   1      35.848  22.007  24.113  1.00  0.00     0.003 C 
ATOM     24  C   UNL A   1      35.940  23.399  24.718  1.00  0.00     0.004 C 
ENDBRANCH  20  23
ENDBRANCH  19  20
ENDBRANCH  18  19
ENDBRANCH   8  18
BRANCH  17  25
ATOM     25  C   UNL A   1      32.050  25.280  22.156  1.00  0.00     0.429 C 
ATOM     26  F   UNL A   1      32.768  25.965  23.078  1.00  0.00    -0.167 F 
ATOM     27  F   UNL A   1      32.841  24.264  21.730  1.00  0.00    -0.167 F 
ATOM     28  F   UNL A   1      31.867  26.097  21.095  1.00  0.00    -0.167 F 
ENDBRANCH  17  25
ENDBRANCH   4   7
ENDBRANCH   2   3
ENDBRANCH   1   2
BRANCH   1  29
ATOM     29  C   UNL A   1      31.167  29.822  25.109  1.00  0.00     0.002 C 
BRANCH  29  30
ATOM     30  C   UNL A   1      32.061  30.380  26.225  1.00  0.00     0.002 C 
BRANCH  30  31
ATOM     31  C   UNL A   1      31.659  31.752  26.771  1.00  0.00     0.021 C 
BRANCH  31  32
ATOM     32  C   UNL A   1      32.809  32.595  27.308  1.00  0.00     0.116 C 
BRANCH  32  33
ATOM     33  N   UNL A   1      32.411  33.956  27.630  1.00  0.00    -0.352 N 
ATOM     34  C   UNL A   1      32.975  34.832  28.527  1.00  0.00     0.251 C 
ATOM     35  H   UNL A   1      31.629  34.296  27.139  1.00  0.00     0.163 HD
ATOM     36  O   UNL A   1      32.430  35.903  28.778  1.00  0.00    -0.269 OA
BRANCH  34  37
ATOM     37  C   UNL A   1      34.227  34.458  29.220  1.00  0.00     0.039 A 
ATOM     38  C   UNL A   1      35.460  34.611  28.585  1.00  0.00     0.014 A 
ATOM     39  C   UNL A   1      34.159  33.908  30.502  1.00  0.00     0.014 A 
ATOM     40  C   UNL A   1      36.599  34.052  29.154  1.00  0.00     0.010 A 
ATOM     41  C   UNL A   1      35.320  33.422  31.111  1.00  0.00     0.010 A 
ATOM     42  C   UNL A   1      36.540  33.437  30.417  1.00  0.00    -0.014 A 
BRANCH  42  43
ATOM     43  C   UNL A   1      37.765  32.794  30.961  1.00  0.00     0.031 A 
ATOM     44  C   UNL A   1      38.346  33.233  32.280  1.00  0.00     0.074 A 
ATOM     45  C   UNL A   1      38.305  31.749  30.304  1.00  0.00     0.049 A 
ATOM     46  N   UNL A   1      39.350  32.722  32.951  1.00  0.00    -0.248 NA
ATOM     47  C   UNL A   1      37.726  34.397  32.930  1.00  0.00     0.031 C 
ATOM     48  C   UNL A   1      37.839  31.231  29.016  1.00  0.00     0.029 A 
ATOM     49  N   UNL A   1      39.338  30.914  30.646  1.00  0.00    -0.354 N 
ATOM     50  C   UNL A   1      39.489  33.508  34.088  1.00  0.00     0.074 A 
ATOM     51  C   UNL A   1      38.491  34.553  34.000  1.00  0.00     0.031 C 
ATOM     52  C   UNL A   1      38.539  30.129  28.708  1.00  0.00     0.029 A 
ATOM     53  C   UNL A   1      39.534  29.892  29.749  1.00  0.00     0.049 A 
ATOM     54  H   UNL A   1      39.885  31.035  31.455  1.00  0.00     0.167 HD
ATOM     55  C   UNL A   1      40.357  33.367  35.119  1.00  0.00     0.037 A 
ATOM     56  C   UNL A   1      40.414  28.874  29.766  1.00  0.00     0.037 A 
ATOM     57  C   UNL A   1      41.342  32.321  35.218  1.00  0.00     0.049 A 
ATOM     58  C   UNL A   1      41.372  28.751  30.914  1.00  0.00     0.074 A 
ATOM     59  C   UNL A   1      42.256  32.085  36.232  1.00  0.00     0.029 A 
ATOM     60  N   UNL A   1      41.539  31.331  34.268  1.00  0.00    -0.354 N 
ATOM     61  N   UNL A   1      41.475  29.491  31.990  1.00  0.00    -0.248 NA
ATOM     62  C   UNL A   1      42.338  27.647  30.845  1.00  0.00     0.031 C 
ATOM     63  C   UNL A   1      43.029  30.972  35.877  1.00  0.00     0.029 A 
ATOM     64  C   UNL A   1      42.568  30.491  34.662  1.00  0.00     0.049 A 
ATOM     65  H   UNL A   1      41.024  31.240  33.433  1.00  0.00     0.167 HD
ATOM     66  C   UNL A   1      42.509  28.937  32.733  1.00  0.00     0.074 A 
ATOM     67  C   UNL A   1      42.977  27.779  31.997  1.00  0.00     0.031 C 
ATOM     68  C   UNL A   1      43.029  29.350  33.914  1.00  0.00     0.037 A 
BRANCH  55  69
ATOM     69  C   UNL A   1      40.284  34.384  36.223  1.00  0.00     0.057 A 
ATOM     70  C   UNL A   1      41.046  35.557  36.167  1.00  0.00     0.134 A 
ATOM     71  C   UNL A   1      39.472  34.195  37.350  1.00  0.00     0.134 A 
ATOM     72  F   UNL A   1      41.849  35.798  35.120  1.00  0.00    -0.206 F 
ATOM     73  C   UNL A   1      41.001  36.507  37.189  1.00  0.00     0.040 A 
ATOM     74  C   UNL A   1      39.400  35.149  38.368  1.00  0.00     0.040 A 
ATOM     75  F   UNL A   1      38.705  33.100  37.458  1.00  0.00    -0.206 F 
ATOM     76  C   UNL A   1      40.171  36.308  38.290  1.00  0.00     0.006 A 
ENDBRANCH  55  69
BRANCH  56  77
ATOM     77  C   UNL A   1      40.424  27.883  28.663  1.00  0.00     0.057 A 
ATOM     78  C   UNL A   1      39.650  26.718  28.723  1.00  0.00     0.134 A 
ATOM     79  C   UNL A   1      41.193  28.089  27.513  1.00  0.00     0.134 A 
ATOM     80  F   UNL A   1      38.895  26.462  29.802  1.00  0.00    -0.206 F 
ATOM     81  C   UNL A   1      39.643  25.791  27.681  1.00  0.00     0.040 A 
ATOM     82  C   UNL A   1      41.177  27.183  26.451  1.00  0.00     0.040 A 
ATOM     83  F   UNL A   1      41.941  29.196  27.389  1.00  0.00    -0.206 F 
ATOM     84  C   UNL A   1      40.403  26.027  26.536  1.00  0.00     0.006 A 
ENDBRANCH  56  77
BRANCH  68  85
ATOM     85  C   UNL A   1      44.148  28.526  34.480  1.00  0.00     0.057 A 
ATOM     86  C   UNL A   1      43.881  27.430  35.309  1.00  0.00     0.134 A 
ATOM     87  C   UNL A   1      45.490  28.805  34.185  1.00  0.00     0.134 A 
ATOM     88  F   UNL A   1      42.619  27.113  35.635  1.00  0.00    -0.206 F 
ATOM     89  C   UNL A   1      44.908  26.633  35.815  1.00  0.00     0.040 A 
ATOM     90  C   UNL A   1      46.523  27.998  34.664  1.00  0.00     0.040 A 
ATOM     91  F   UNL A   1      45.810  29.831  33.381  1.00  0.00    -0.206 F 
ATOM     92  C   UNL A   1      46.233  26.909  35.483  1.00  0.00     0.006 A 
ENDBRANCH  68  85
ENDBRANCH  42  43
ENDBRANCH  34  37
ENDBRANCH  32  33
ENDBRANCH  31  32
ENDBRANCH  30  31
ENDBRANCH  29  30
ENDBRANCH   1  29
TORSDOF 19
ENDMDL
MODEL 2
REMARK VINA RESULT:     -11.4      1.692      2.583
REMARK SMILES CCC(CC)COc1cc2c(cc1Cl)C=C(C(=O)NCCCCCCNC(=O)c1ccc(-c3c4nc(c(-c5c(F)cccc5F)c5ccc([nH]5)c(-c5c(F)cccc5F)c5nc(c(-c6c(F)cccc6F)c6ccc3[nH]6)C=C5)C=C4)cc1)[C@@H](C(F)(F)F)O2
REMARK SMILES IDX 21 1 20 2 19 3 17 4 18 5 16 7 8 8 9 9 13 10 10 11 12 12
REMARK SMILES IDX 14 13 11 14 88 15 15 16 83 17 7 18 6 19 3 20 2 21 1 22 4 23
REMARK SMILES IDX 5 24 84 25 85 26 86 27 87 28 22 29 23 30 24 31 25 32 26 33
REMARK SMILES IDX 27 34 28 36 29 37 30 38 82 39 31 40 81 41 32 42 33 43 34 44
REMARK SMILES IDX 75 45 35 46 80 47 74 48 76 49 36 50 79 51 73 52 72 53 37 55
REMARK SMILES IDX 63 56 46 57 62 58 47 59 50 60 61 61 77 62 48 63 49 64 60 66
REMARK SMILES IDX 78 67 51 68 38 69 39 70 44 71 40 72 41 73 43 74 45 75 42 76
REMARK SMILES IDX 64 77 65 78 70 79 66 80 67 81 69 82 71 83 68 84 52 85 53 86
REMARK SMILES IDX 58 87 54 88 55 89 57 90 59 91 56 92
REMARK H PARENT 19 6 26 35 76 54 50 65
REMARK Flexibility Score: inf
ROOT
ATOM      1  C   UNL A   1      33.272  28.644  27.058  1.00  0.00     0.021 C 
ENDROOT
BRANCH   1   2
ATOM      2  C   UNL A   1      34.445  28.905  26.119  1.00  0.00     0.116 C 
BRANCH   2   3
ATOM      3  N   UNL A   1      34.020  28.896  24.732  1.00  0.00    -0.352 N 
ATOM      4  C   UNL A   1      33.519  27.993  23.861  1.00  0.00     0.251 C 
ATOM      5  O   UNL A   1      33.245  28.438  22.742  1.00  0.00    -0.270 OA
ATOM      6  H   UNL A   1      34.126  29.783  24.315  1.00  0.00     0.163 HD
BRANCH   4   7
ATOM      7  C   UNL A   1      33.291  26.552  24.155  1.00  0.00     0.067 C 
ATOM      8  C   UNL A   1      33.860  21.812  25.675  1.00  0.00     0.141 A 
ATOM      9  C   UNL A   1      32.776  22.689  25.682  1.00  0.00     0.095 A 
ATOM     10  C   UNL A   1      35.076  22.202  25.093  1.00  0.00     0.083 A 
ATOM     11  C   UNL A   1      32.954  23.981  25.200  1.00  0.00     0.131 A 
ATOM     12  C   UNL A   1      35.274  23.529  24.714  1.00  0.00     0.036 A 
ATOM     13  Cl  UNL A   1      36.373  21.089  24.857  1.00  0.00    -0.080 Cl
ATOM     14  C   UNL A   1      34.216  24.430  24.794  1.00  0.00     0.019 A 
ATOM     15  O   UNL A   1      31.854  24.797  25.139  1.00  0.00    -0.475 OA
ATOM     16  C   UNL A   1      34.388  25.841  24.475  1.00  0.00     0.025 C 
ATOM     17  C   UNL A   1      31.962  25.849  24.128  1.00  0.00     0.314 C 
BRANCH   8  18
ATOM     18  O   UNL A   1      33.718  20.562  26.216  1.00  0.00    -0.492 OA
BRANCH  18  19
ATOM     19  C   UNL A   1      32.749  19.756  25.505  1.00  0.00     0.233 C 
BRANCH  19  20
ATOM     20  C   UNL A   1      33.389  19.043  24.289  1.00  0.00     0.026 C 
BRANCH  20  21
ATOM     21  C   UNL A   1      33.730  17.569  24.612  1.00  0.00     0.003 C 
ATOM     22  C   UNL A   1      33.527  16.643  23.421  1.00  0.00     0.004 C 
ENDBRANCH  20  21
BRANCH  20  23
ATOM     23  C   UNL A   1      32.521  19.176  23.019  1.00  0.00     0.003 C 
ATOM     24  C   UNL A   1      32.081  20.589  22.667  1.00  0.00     0.004 C 
ENDBRANCH  20  23
ENDBRANCH  19  20
ENDBRANCH  18  19
ENDBRANCH   8  18
BRANCH  17  25
ATOM     25  C   UNL A   1      31.633  25.299  22.720  1.00  0.00     0.429 C 
ATOM     26  F   UNL A   1      30.776  24.253  22.802  1.00  0.00    -0.167 F 
ATOM     27  F   UNL A   1      31.030  26.229  21.939  1.00  0.00    -0.167 F 
ATOM     28  F   UNL A   1      32.725  24.878  22.043  1.00  0.00    -0.167 F 
ENDBRANCH  17  25
ENDBRANCH   4   7
ENDBRANCH   2   3
ENDBRANCH   1   2
BRANCH   1  29
ATOM     29  C   UNL A   1      32.512  29.903  27.482  1.00  0.00     0.002 C 
BRANCH  29  30
ATOM     30  C   UNL A   1      31.575  30.498  26.422  1.00  0.00     0.002 C 
BRANCH  30  31
ATOM     31  C   UNL A   1      31.284  31.994  26.561  1.00  0.00     0.021 C 
BRANCH  31  32
ATOM     32  C   UNL A   1      32.517  32.887  26.637  1.00  0.00     0.116 C 
BRANCH  32  33
ATOM     33  N   UNL A   1      32.336  34.027  27.521  1.00  0.00    -0.352 N 
ATOM     34  C   UNL A   1      33.082  34.402  28.613  1.00  0.00     0.251 C 
ATOM     35  H   UNL A   1      31.574  34.612  27.307  1.00  0.00     0.163 HD
ATOM     36  O   UNL A   1      32.712  35.322  29.335  1.00  0.00    -0.269 OA
BRANCH  34  37
ATOM     37  C   UNL A   1      34.319  33.659  28.938  1.00  0.00     0.039 A 
ATOM     38  C   UNL A   1      34.253  32.389  29.512  1.00  0.00     0.014 A 
ATOM     39  C   UNL A   1      35.558  34.261  28.703  1.00  0.00     0.014 A 
ATOM     40  C   UNL A   1      35.408  31.802  30.015  1.00  0.00     0.010 A 
ATOM     41  C   UNL A   1      36.729  33.630  29.134  1.00  0.00     0.010 A 
ATOM     42  C   UNL A   1      36.659  32.422  29.846  1.00  0.00    -0.014 A 
BRANCH  42  43
ATOM     43  C   UNL A   1      37.861  31.795  30.454  1.00  0.00     0.031 A 
ATOM     44  C   UNL A   1      38.238  32.077  31.886  1.00  0.00     0.074 A 
ATOM     45  C   UNL A   1      38.566  30.897  29.739  1.00  0.00     0.049 A 
ATOM     46  N   UNL A   1      39.196  31.547  32.607  1.00  0.00    -0.248 NA
ATOM     47  C   UNL A   1      37.445  33.088  32.599  1.00  0.00     0.031 C 
ATOM     48  C   UNL A   1      38.306  30.540  28.343  1.00  0.00     0.029 A 
ATOM     49  N   UNL A   1      39.620  30.095  30.097  1.00  0.00    -0.354 N 
ATOM     50  C   UNL A   1      39.128  32.168  33.848  1.00  0.00     0.074 A 
ATOM     51  C   UNL A   1      38.059  33.141  33.772  1.00  0.00     0.031 C 
ATOM     52  C   UNL A   1      39.132  29.546  27.983  1.00  0.00     0.029 A 
ATOM     53  C   UNL A   1      40.011  29.231  29.105  1.00  0.00     0.049 A 
ATOM     54  H   UNL A   1      40.053  30.136  30.981  1.00  0.00     0.167 HD
ATOM     55  C   UNL A   1      39.874  31.940  34.956  1.00  0.00     0.037 A 
ATOM     56  C   UNL A   1      40.969  28.287  29.099  1.00  0.00     0.037 A 
ATOM     57  C   UNL A   1      40.929  30.962  35.041  1.00  0.00     0.049 A 
ATOM     58  C   UNL A   1      41.790  28.066  30.336  1.00  0.00     0.074 A 
ATOM     59  C   UNL A   1      41.732  30.646  36.125  1.00  0.00     0.029 A 
ATOM     60  N   UNL A   1      41.325  30.137  34.000  1.00  0.00    -0.354 N 
ATOM     61  N   UNL A   1      41.697  28.647  31.506  1.00  0.00    -0.248 NA
ATOM     62  C   UNL A   1      42.851  27.054  30.246  1.00  0.00     0.031 C 
ATOM     63  C   UNL A   1      42.636  29.654  35.728  1.00  0.00     0.029 A 
ATOM     64  C   UNL A   1      42.370  29.323  34.409  1.00  0.00     0.049 A 
ATOM     65  H   UNL A   1      40.924  30.132  33.100  1.00  0.00     0.167 HD
ATOM     66  C   UNL A   1      42.680  28.065  32.297  1.00  0.00     0.074 A 
ATOM     67  C   UNL A   1      43.333  27.062  31.479  1.00  0.00     0.031 C 
ATOM     68  C   UNL A   1      43.015  28.338  33.581  1.00  0.00     0.037 A 
BRANCH  55  69
ATOM     69  C   UNL A   1      39.580  32.778  36.168  1.00  0.00     0.057 A 
ATOM     70  C   UNL A   1      38.642  32.357  37.119  1.00  0.00     0.134 A 
ATOM     71  C   UNL A   1      40.210  34.011  36.385  1.00  0.00     0.134 A 
ATOM     72  F   UNL A   1      37.998  31.190  36.969  1.00  0.00    -0.206 F 
ATOM     73  C   UNL A   1      38.345  33.128  38.243  1.00  0.00     0.040 A 
ATOM     74  C   UNL A   1      39.939  34.780  37.519  1.00  0.00     0.040 A 
ATOM     75  F   UNL A   1      41.130  34.465  35.521  1.00  0.00    -0.206 F 
ATOM     76  C   UNL A   1      39.000  34.340  38.450  1.00  0.00     0.006 A 
ENDBRANCH  55  69
BRANCH  56  77
ATOM     77  C   UNL A   1      41.199  27.468  27.883  1.00  0.00     0.057 A 
ATOM     78  C   UNL A   1      42.064  27.897  26.869  1.00  0.00     0.134 A 
ATOM     79  C   UNL A   1      40.575  26.227  27.719  1.00  0.00     0.134 A 
ATOM     80  F   UNL A   1      42.688  29.080  26.967  1.00  0.00    -0.206 F 
ATOM     81  C   UNL A   1      42.296  27.123  25.732  1.00  0.00     0.040 A 
ATOM     82  C   UNL A   1      40.817  25.431  26.599  1.00  0.00     0.040 A 
ATOM     83  F   UNL A   1      39.750  25.755  28.666  1.00  0.00    -0.206 F 
ATOM     84  C   UNL A   1      41.677  25.881  25.599  1.00  0.00     0.006 A 
ENDBRANCH  56  77
BRANCH  68  85
ATOM     85  C   UNL A   1      44.127  27.522  34.172  1.00  0.00     0.057 A 
ATOM     86  C   UNL A   1      43.864  26.285  34.774  1.00  0.00     0.134 A 
ATOM     87  C   UNL A   1      45.461  27.950  34.125  1.00  0.00     0.134 A 
ATOM     88  F   UNL A   1      42.609  25.821  34.857  1.00  0.00    -0.206 F 
ATOM     89  C   UNL A   1      44.889  25.497  35.297  1.00  0.00     0.040 A 
ATOM     90  C   UNL A   1      46.497  27.158  34.622  1.00  0.00     0.040 A 
ATOM     91  F   UNL A   1      45.780  29.117  33.546  1.00  0.00    -0.206 F 
ATOM     92  C   UNL A   1      46.213  25.929  35.212  1.00  0.00     0.006 A 
ENDBRANCH  68  85
ENDBRANCH  42  43
ENDBRANCH  34  37
ENDBRANCH  32  33
ENDBRANCH  31  32
ENDBRANCH  30  31
ENDBRANCH  29  30
ENDBRANCH   1  29
TORSDOF 19
ENDMDL
MODEL 3
REMARK VINA RESULT:     -11.4      1.282      2.189
REMARK SMILES CCC(CC)COc1cc2c(cc1Cl)C=C(C(=O)NCCCCCCNC(=O)c1ccc(-c3c4nc(c(-c5c(F)cccc5F)c5ccc([nH]5)c(-c5c(F)cccc5F)c5nc(c(-c6c(F)cccc6F)c6ccc3[nH]6)C=C5)C=C4)cc1)[C@@H](C(F)(F)F)O2
REMARK SMILES IDX 21 1 20 2 19 3 17 4 18 5 16 7 8 8 9 9 13 10 10 11 12 12
REMARK SMILES IDX 14 13 11 14 88 15 15 16 83 17 7 18 6 19 3 20 2 21 1 22 4 23
REMARK SMILES IDX 5 24 84 25 85 26 86 27 87 28 22 29 23 30 24 31 25 32 26 33
REMARK SMILES IDX 27 34 28 36 29 37 30 38 82 39 31 40 81 41 32 42 33 43 34 44
REMARK SMILES IDX 75 45 35 46 80 47 74 48 76 49 36 50 79 51 73 52 72 53 37 55
REMARK SMILES IDX 63 56 46 57 62 58 47 59 50 60 61 61 77 62 48 63 49 64 60 66
REMARK SMILES IDX 78 67 51 68 38 69 39 70 44 71 40 72 41 73 43 74 45 75 42 76
REMARK SMILES IDX 64 77 65 78 70 79 66 80 67 81 69 82 71 83 68 84 52 85 53 86
REMARK SMILES IDX 58 87 54 88 55 89 57 90 59 91 56 92
REMARK H PARENT 19 6 26 35 76 54 50 65
REMARK Flexibility Score: inf
ROOT
ATOM      1  C   UNL A   1      33.468  28.485  25.809  1.00  0.00     0.021 C 
ENDROOT
BRANCH   1   2
ATOM      2  C   UNL A   1      32.266  28.125  24.941  1.00  0.00     0.116 C 
BRANCH   2   3
ATOM      3  N   UNL A   1      31.252  27.430  25.710  1.00  0.00    -0.352 N 
ATOM      4  C   UNL A   1      30.927  26.147  25.978  1.00  0.00     0.251 C 
ATOM      5  O   UNL A   1      29.973  25.995  26.748  1.00  0.00    -0.270 OA
ATOM      6  H   UNL A   1      30.638  28.060  26.152  1.00  0.00     0.163 HD
BRANCH   4   7
ATOM      7  C   UNL A   1      31.618  24.951  25.423  1.00  0.00     0.067 C 
ATOM      8  C   UNL A   1      34.527  20.908  24.873  1.00  0.00     0.141 A 
ATOM      9  C   UNL A   1      33.247  21.228  24.420  1.00  0.00     0.095 A 
ATOM     10  C   UNL A   1      35.276  21.856  25.587  1.00  0.00     0.083 A 
ATOM     11  C   UNL A   1      32.695  22.453  24.776  1.00  0.00     0.131 A 
ATOM     12  C   UNL A   1      34.674  23.033  26.029  1.00  0.00     0.036 A 
ATOM     13  Cl  UNL A   1      36.937  21.599  25.977  1.00  0.00    -0.080 Cl
ATOM     14  C   UNL A   1      33.367  23.320  25.645  1.00  0.00     0.019 A 
ATOM     15  O   UNL A   1      31.472  22.780  24.250  1.00  0.00    -0.475 OA
ATOM     16  C   UNL A   1      32.669  24.502  26.134  1.00  0.00     0.025 C 
ATOM     17  C   UNL A   1      31.238  24.222  24.164  1.00  0.00     0.314 C 
BRANCH   8  18
ATOM     18  O   UNL A   1      35.051  19.675  24.593  1.00  0.00    -0.492 OA
BRANCH  18  19
ATOM     19  C   UNL A   1      34.102  18.605  24.814  1.00  0.00     0.233 C 
BRANCH  19  20
ATOM     20  C   UNL A   1      34.523  17.312  24.074  1.00  0.00     0.026 C 
BRANCH  20  21
ATOM     21  C   UNL A   1      34.371  16.067  24.978  1.00  0.00     0.003 C 
ATOM     22  C   UNL A   1      33.034  16.028  25.707  1.00  0.00     0.004 C 
ENDBRANCH  20  21
BRANCH  20  23
ATOM     23  C   UNL A   1      33.784  17.149  22.728  1.00  0.00     0.003 C 
ATOM     24  C   UNL A   1      32.542  18.010  22.551  1.00  0.00     0.004 C 
ENDBRANCH  20  23
ENDBRANCH  19  20
ENDBRANCH  18  19
ENDBRANCH   8  18
BRANCH  17  25
ATOM     25  C   UNL A   1      31.936  24.823  22.921  1.00  0.00     0.429 C 
ATOM     26  F   UNL A   1      31.109  25.682  22.277  1.00  0.00    -0.167 F 
ATOM     27  F   UNL A   1      33.043  25.532  23.253  1.00  0.00    -0.167 F 
ATOM     28  F   UNL A   1      32.330  23.890  22.026  1.00  0.00    -0.167 F 
ENDBRANCH  17  25
ENDBRANCH   4   7
ENDBRANCH   2   3
ENDBRANCH   1   2
BRANCH   1  29
ATOM     29  C   UNL A   1      33.273  29.739  26.665  1.00  0.00     0.002 C 
BRANCH  29  30
ATOM     30  C   UNL A   1      31.840  30.286  26.722  1.00  0.00     0.002 C 
BRANCH  30  31
ATOM     31  C   UNL A   1      31.707  31.807  26.620  1.00  0.00     0.021 C 
BRANCH  31  32
ATOM     32  C   UNL A   1      32.799  32.599  27.329  1.00  0.00     0.116 C 
BRANCH  32  33
ATOM     33  N   UNL A   1      32.397  33.962  27.639  1.00  0.00    -0.352 N 
ATOM     34  C   UNL A   1      32.960  34.847  28.528  1.00  0.00     0.251 C 
ATOM     35  H   UNL A   1      31.616  34.297  27.145  1.00  0.00     0.163 HD
ATOM     36  O   UNL A   1      32.414  35.919  28.770  1.00  0.00    -0.269 OA
BRANCH  34  37
ATOM     37  C   UNL A   1      34.213  34.482  29.224  1.00  0.00     0.039 A 
ATOM     38  C   UNL A   1      35.438  34.552  28.561  1.00  0.00     0.014 A 
ATOM     39  C   UNL A   1      34.151  34.022  30.542  1.00  0.00     0.014 A 
ATOM     40  C   UNL A   1      36.569  33.997  29.149  1.00  0.00     0.010 A 
ATOM     41  C   UNL A   1      35.308  33.542  31.164  1.00  0.00     0.010 A 
ATOM     42  C   UNL A   1      36.515  33.471  30.451  1.00  0.00    -0.014 A 
BRANCH  42  43
ATOM     43  C   UNL A   1      37.729  32.828  31.018  1.00  0.00     0.031 A 
ATOM     44  C   UNL A   1      38.276  33.255  32.356  1.00  0.00     0.074 A 
ATOM     45  C   UNL A   1      38.290  31.794  30.364  1.00  0.00     0.049 A 
ATOM     46  N   UNL A   1      39.266  32.742  33.045  1.00  0.00    -0.248 NA
ATOM     47  C   UNL A   1      37.634  34.409  33.003  1.00  0.00     0.031 C 
ATOM     48  C   UNL A   1      37.859  31.287  29.059  1.00  0.00     0.029 A 
ATOM     49  N   UNL A   1      39.319  30.959  30.721  1.00  0.00    -0.354 N 
ATOM     50  C   UNL A   1      39.373  33.517  34.194  1.00  0.00     0.074 A 
ATOM     51  C   UNL A   1      38.372  34.557  34.093  1.00  0.00     0.031 C 
ATOM     52  C   UNL A   1      38.572  30.192  28.756  1.00  0.00     0.029 A 
ATOM     53  C   UNL A   1      39.542  29.948  29.819  1.00  0.00     0.049 A 
ATOM     54  H   UNL A   1      39.845  31.074  31.545  1.00  0.00     0.167 HD
ATOM     55  C   UNL A   1      40.216  33.368  35.245  1.00  0.00     0.037 A 
ATOM     56  C   UNL A   1      40.426  28.935  29.846  1.00  0.00     0.037 A 
ATOM     57  C   UNL A   1      41.203  32.326  35.357  1.00  0.00     0.049 A 
ATOM     58  C   UNL A   1      41.357  28.804  31.016  1.00  0.00     0.074 A 
ATOM     59  C   UNL A   1      42.093  32.083  36.390  1.00  0.00     0.029 A 
ATOM     60  N   UNL A   1      41.429  31.348  34.400  1.00  0.00    -0.354 N 
ATOM     61  N   UNL A   1      41.430  29.533  32.102  1.00  0.00    -0.248 NA
ATOM     62  C   UNL A   1      42.330  27.705  30.958  1.00  0.00     0.031 C 
ATOM     63  C   UNL A   1      42.880  30.978  36.042  1.00  0.00     0.029 A 
ATOM     64  C   UNL A   1      42.452  30.508  34.811  1.00  0.00     0.049 A 
ATOM     65  H   UNL A   1      40.935  31.263  33.553  1.00  0.00     0.167 HD
ATOM     66  C   UNL A   1      42.448  28.975  32.864  1.00  0.00     0.074 A 
ATOM     67  C   UNL A   1      42.940  27.828  32.128  1.00  0.00     0.031 C 
ATOM     68  C   UNL A   1      42.937  29.378  34.062  1.00  0.00     0.037 A 
BRANCH  55  69
ATOM     69  C   UNL A   1      40.110  34.373  36.358  1.00  0.00     0.057 A 
ATOM     70  C   UNL A   1      40.836  35.569  36.312  1.00  0.00     0.134 A 
ATOM     71  C   UNL A   1      39.304  34.148  37.482  1.00  0.00     0.134 A 
ATOM     72  F   UNL A   1      41.631  35.845  35.268  1.00  0.00    -0.206 F 
ATOM     73  C   UNL A   1      40.761  36.508  37.343  1.00  0.00     0.040 A 
ATOM     74  C   UNL A   1      39.203  35.091  38.508  1.00  0.00     0.040 A 
ATOM     75  F   UNL A   1      38.572  33.029  37.580  1.00  0.00    -0.206 F 
ATOM     76  C   UNL A   1      39.937  36.274  38.441  1.00  0.00     0.006 A 
ENDBRANCH  55  69
BRANCH  56  77
ATOM     77  C   UNL A   1      40.469  27.956  28.733  1.00  0.00     0.057 A 
ATOM     78  C   UNL A   1      41.257  28.177  27.597  1.00  0.00     0.134 A 
ATOM     79  C   UNL A   1      39.737  26.765  28.791  1.00  0.00     0.134 A 
ATOM     80  F   UNL A   1      41.977  29.301  27.482  1.00  0.00    -0.206 F 
ATOM     81  C   UNL A   1      41.312  27.250  26.556  1.00  0.00     0.040 A 
ATOM     82  C   UNL A   1      39.803  25.817  27.768  1.00  0.00     0.040 A 
ATOM     83  F   UNL A   1      38.977  26.489  29.862  1.00  0.00    -0.206 F 
ATOM     84  C   UNL A   1      40.590  26.062  26.644  1.00  0.00     0.006 A 
ENDBRANCH  56  77
BRANCH  68  85
ATOM     85  C   UNL A   1      44.046  28.553  34.646  1.00  0.00     0.057 A 
ATOM     86  C   UNL A   1      45.384  28.857  34.372  1.00  0.00     0.134 A 
ATOM     87  C   UNL A   1      43.788  27.471  35.499  1.00  0.00     0.134 A 
ATOM     88  F   UNL A   1      45.699  29.876  33.558  1.00  0.00    -0.206 F 
ATOM     89  C   UNL A   1      46.429  28.122  34.934  1.00  0.00     0.040 A 
ATOM     90  C   UNL A   1      44.825  26.745  36.088  1.00  0.00     0.040 A 
ATOM     91  F   UNL A   1      42.527  27.140  35.815  1.00  0.00    -0.206 F 
ATOM     92  C   UNL A   1      46.150  27.069  35.804  1.00  0.00     0.006 A 
ENDBRANCH  68  85
ENDBRANCH  42  43
ENDBRANCH  34  37
ENDBRANCH  32  33
ENDBRANCH  31  32
ENDBRANCH  30  31
ENDBRANCH  29  30
ENDBRANCH   1  29
TORSDOF 19
ENDMDL
