MODEL 1
REMARK VINA RESULT:     -10.7      0.000      0.000
REMARK SMILES CC[C@H]1CCC[C@@H]([NH2+][C@@](C)(CC)C(=O)NCCCCCCNC(=O)c2ccc(-c3c4nc(c(-c5c(F)cccc5F)c5ccc([nH]5)c(-c5c(F)cccc5F)c5nc(c(-c6c(F)cccc6F)c6ccc3[nH]6)C=C5)C=C4)cc2)C1
REMARK SMILES IDX 18 1 17 2 16 3 15 4 13 5 14 6 9 8 10 9 8 10 7 13 3 14 4 15
REMARK SMILES IDX 79 16 5 17 6 18 2 19 1 20 11 21 12 22 19 23 20 24 21 25
REMARK SMILES IDX 22 26 23 27 24 29 25 30 26 31 78 32 27 33 77 34 28 35 29 36
REMARK SMILES IDX 30 37 71 38 31 39 76 40 70 41 72 42 32 43 75 44 69 45 68 46
REMARK SMILES IDX 33 48 59 49 42 50 58 51 43 52 46 53 57 54 73 55 44 56 45 57
REMARK SMILES IDX 56 59 74 60 47 61 34 62 35 63 40 64 36 65 37 66 39 67 41 68
REMARK SMILES IDX 38 69 60 70 61 71 66 72 62 73 63 74 65 75 67 76 64 77 48 78
REMARK SMILES IDX 49 79 54 80 50 81 51 82 53 83 55 84 52 85
REMARK H PARENT 15 7 8 11 8 12 22 28 72 47 46 58
REMARK Flexibility Score: inf
ROOT
ATOM      1  C   UNL A   1      32.333  29.974  26.963  1.00  0.00     0.002 C 
ENDROOT
BRANCH   1   2
ATOM      2  C   UNL A   1      31.742  28.656  27.463  1.00  0.00     0.021 C 
BRANCH   2   3
ATOM      3  C   UNL A   1      31.401  27.671  26.349  1.00  0.00     0.116 C 
BRANCH   3   4
ATOM      4  N   UNL A   1      31.324  26.319  26.860  1.00  0.00    -0.351 N 
ATOM      5  C   UNL A   1      31.859  25.135  26.445  1.00  0.00     0.281 C 
ATOM      6  O   UNL A   1      31.488  24.156  27.103  1.00  0.00    -0.268 OA
ATOM      7  H   UNL A   1      30.772  26.237  27.672  1.00  0.00     0.163 HD
BRANCH   5   8
ATOM      8  C   UNL A   1      32.921  25.040  25.288  1.00  0.00     0.172 C 
ATOM      9  C   UNL A   1      34.026  26.078  25.644  1.00  0.00     0.090 C 
BRANCH   8  10
ATOM     10  N   UNL A   1      33.691  23.773  25.340  1.00  0.00    -0.331 N 
ATOM     11  H   UNL A   1      34.638  24.049  25.594  1.00  0.00     0.347 HD
ATOM     12  H   UNL A   1      33.079  23.233  25.951  1.00  0.00     0.347 HD
BRANCH  10  13
ATOM     13  C   UNL A   1      33.857  22.811  24.261  1.00  0.00     0.183 C 
ATOM     14  C   UNL A   1      36.463  22.652  24.027  1.00  0.00    -0.006 C 
ATOM     15  C   UNL A   1      36.415  21.246  24.635  1.00  0.00     0.004 C 
ATOM     16  C   UNL A   1      35.098  22.934  23.358  1.00  0.00     0.068 C 
ATOM     17  C   UNL A   1      35.234  21.063  25.583  1.00  0.00     0.006 C 
ATOM     18  C   UNL A   1      33.898  21.399  24.905  1.00  0.00     0.065 C 
BRANCH  14  19
ATOM     19  C   UNL A   1      36.904  23.754  25.009  1.00  0.00     0.000 C 
ATOM     20  C   UNL A   1      37.940  23.354  26.045  1.00  0.00     0.004 C 
ENDBRANCH  14  19
ENDBRANCH  10  13
ENDBRANCH   8  10
BRANCH   8  21
ATOM     21  C   UNL A   1      32.404  25.404  23.869  1.00  0.00     0.075 C 
ATOM     22  C   UNL A   1      32.956  26.646  23.186  1.00  0.00     0.011 C 
ENDBRANCH   8  21
ENDBRANCH   5   8
ENDBRANCH   3   4
ENDBRANCH   2   3
ENDBRANCH   1   2
BRANCH   1  23
ATOM     23  C   UNL A   1      31.364  30.845  26.160  1.00  0.00     0.002 C 
BRANCH  23  24
ATOM     24  C   UNL A   1      31.310  32.314  26.591  1.00  0.00     0.021 C 
BRANCH  24  25
ATOM     25  C   UNL A   1      32.623  32.856  27.149  1.00  0.00     0.116 C 
BRANCH  25  26
ATOM     26  N   UNL A   1      32.466  34.206  27.663  1.00  0.00    -0.352 N 
ATOM     27  C   UNL A   1      33.081  34.794  28.732  1.00  0.00     0.251 C 
ATOM     28  H   UNL A   1      31.829  34.775  27.175  1.00  0.00     0.163 HD
ATOM     29  O   UNL A   1      32.658  35.865  29.178  1.00  0.00    -0.269 OA
BRANCH  27  30
ATOM     30  C   UNL A   1      34.255  34.154  29.356  1.00  0.00     0.039 A 
ATOM     31  C   UNL A   1      35.527  34.436  28.854  1.00  0.00     0.014 A 
ATOM     32  C   UNL A   1      34.094  33.238  30.402  1.00  0.00     0.014 A 
ATOM     33  C   UNL A   1      36.643  33.813  29.413  1.00  0.00     0.010 A 
ATOM     34  C   UNL A   1      35.212  32.668  31.001  1.00  0.00     0.010 A 
ATOM     35  C   UNL A   1      36.494  32.930  30.495  1.00  0.00    -0.014 A 
BRANCH  35  36
ATOM     36  C   UNL A   1      37.665  32.223  31.067  1.00  0.00     0.031 A 
ATOM     37  C   UNL A   1      38.190  32.622  32.418  1.00  0.00     0.074 A 
ATOM     38  C   UNL A   1      38.271  31.252  30.361  1.00  0.00     0.049 A 
ATOM     39  N   UNL A   1      39.226  32.162  33.073  1.00  0.00    -0.248 NA
ATOM     40  C   UNL A   1      37.469  33.699  33.117  1.00  0.00     0.031 C 
ATOM     41  C   UNL A   1      37.876  30.802  29.025  1.00  0.00     0.029 A 
ATOM     42  N   UNL A   1      39.354  30.469  30.670  1.00  0.00    -0.354 N 
ATOM     43  C   UNL A   1      39.288  32.902  34.247  1.00  0.00     0.074 A 
ATOM     44  C   UNL A   1      38.220  33.876  34.193  1.00  0.00     0.031 C 
ATOM     45  C   UNL A   1      38.691  29.805  28.639  1.00  0.00     0.029 A 
ATOM     46  C   UNL A   1      39.678  29.566  29.687  1.00  0.00     0.049 A 
ATOM     47  H   UNL A   1      39.852  30.547  31.515  1.00  0.00     0.167 HD
ATOM     48  C   UNL A   1      40.141  32.765  35.289  1.00  0.00     0.037 A 
ATOM     49  C   UNL A   1      40.661  28.647  29.643  1.00  0.00     0.037 A 
ATOM     50  C   UNL A   1      41.182  31.775  35.355  1.00  0.00     0.049 A 
ATOM     51  C   UNL A   1      41.586  28.506  30.819  1.00  0.00     0.074 A 
ATOM     52  C   UNL A   1      42.079  31.529  36.381  1.00  0.00     0.029 A 
ATOM     53  N   UNL A   1      41.459  30.858  34.353  1.00  0.00    -0.354 N 
ATOM     54  N   UNL A   1      41.606  29.181  31.942  1.00  0.00    -0.248 NA
ATOM     55  C   UNL A   1      42.619  27.465  30.725  1.00  0.00     0.031 C 
ATOM     56  C   UNL A   1      42.915  30.478  35.987  1.00  0.00     0.029 A 
ATOM     57  C   UNL A   1      42.514  30.047  34.733  1.00  0.00     0.049 A 
ATOM     58  H   UNL A   1      40.976  30.794  33.497  1.00  0.00     0.167 HD
ATOM     59  C   UNL A   1      42.625  28.625  32.703  1.00  0.00     0.074 A 
ATOM     60  C   UNL A   1      43.196  27.551  31.915  1.00  0.00     0.031 C 
ATOM     61  C   UNL A   1      43.052  28.970  33.942  1.00  0.00     0.037 A 
BRANCH  48  62
ATOM     62  C   UNL A   1      39.971  33.704  36.447  1.00  0.00     0.057 A 
ATOM     63  C   UNL A   1      40.666  34.919  36.519  1.00  0.00     0.134 A 
ATOM     64  C   UNL A   1      39.088  33.405  37.492  1.00  0.00     0.134 A 
ATOM     65  F   UNL A   1      41.539  35.260  35.558  1.00  0.00    -0.206 F 
ATOM     66  C   UNL A   1      40.509  35.789  37.598  1.00  0.00     0.040 A 
ATOM     67  C   UNL A   1      38.902  34.278  38.564  1.00  0.00     0.040 A 
ATOM     68  F   UNL A   1      38.388  32.259  37.485  1.00  0.00    -0.206 F 
ATOM     69  C   UNL A   1      39.619  35.472  38.622  1.00  0.00     0.006 A 
ENDBRANCH  48  62
BRANCH  49  70
ATOM     70  C   UNL A   1      40.796  27.759  28.462  1.00  0.00     0.057 A 
ATOM     71  C   UNL A   1      41.598  28.124  27.375  1.00  0.00     0.134 A 
ATOM     72  C   UNL A   1      40.120  26.536  28.384  1.00  0.00     0.134 A 
ATOM     73  F   UNL A   1      42.257  29.292  27.386  1.00  0.00    -0.206 F 
ATOM     74  C   UNL A   1      41.706  27.317  26.242  1.00  0.00     0.040 A 
ATOM     75  C   UNL A   1      40.237  25.707  27.266  1.00  0.00     0.040 A 
ATOM     76  F   UNL A   1      39.343  26.125  29.397  1.00  0.00    -0.206 F 
ATOM     77  C   UNL A   1      41.026  26.102  26.187  1.00  0.00     0.006 A 
ENDBRANCH  49  70
BRANCH  61  78
ATOM     78  C   UNL A   1      44.152  28.147  34.541  1.00  0.00     0.057 A 
ATOM     79  C   UNL A   1      45.500  28.495  34.399  1.00  0.00     0.134 A 
ATOM     80  C   UNL A   1      43.852  27.005  35.296  1.00  0.00     0.134 A 
ATOM     81  F   UNL A   1      45.852  29.570  33.677  1.00  0.00    -0.206 F 
ATOM     82  C   UNL A   1      46.515  27.725  34.969  1.00  0.00     0.040 A 
ATOM     83  C   UNL A   1      44.857  26.240  35.891  1.00  0.00     0.040 A 
ATOM     84  F   UNL A   1      42.579  26.622  35.475  1.00  0.00    -0.206 F 
ATOM     85  C   UNL A   1      46.193  26.597  35.721  1.00  0.00     0.006 A 
ENDBRANCH  61  78
ENDBRANCH  35  36
ENDBRANCH  27  30
ENDBRANCH  25  26
ENDBRANCH  24  25
ENDBRANCH  23  24
ENDBRANCH   1  23
TORSDOF 17
ENDMDL
MODEL 2
REMARK VINA RESULT:     -10.5      4.322      9.385
REMARK SMILES CC[C@H]1CCC[C@@H]([NH2+][C@@](C)(CC)C(=O)NCCCCCCNC(=O)c2ccc(-c3c4nc(c(-c5c(F)cccc5F)c5ccc([nH]5)c(-c5c(F)cccc5F)c5nc(c(-c6c(F)cccc6F)c6ccc3[nH]6)C=C5)C=C4)cc2)C1
REMARK SMILES IDX 18 1 17 2 16 3 15 4 13 5 14 6 9 8 10 9 8 10 7 13 3 14 4 15
REMARK SMILES IDX 79 16 5 17 6 18 2 19 1 20 11 21 12 22 19 23 20 24 21 25
REMARK SMILES IDX 22 26 23 27 24 29 25 30 26 31 78 32 27 33 77 34 28 35 29 36
REMARK SMILES IDX 30 37 71 38 31 39 76 40 70 41 72 42 32 43 75 44 69 45 68 46
REMARK SMILES IDX 33 48 59 49 42 50 58 51 43 52 46 53 57 54 73 55 44 56 45 57
REMARK SMILES IDX 56 59 74 60 47 61 34 62 35 63 40 64 36 65 37 66 39 67 41 68
REMARK SMILES IDX 38 69 60 70 61 71 66 72 62 73 63 74 65 75 67 76 64 77 48 78
REMARK SMILES IDX 49 79 54 80 50 81 51 82 53 83 55 84 52 85
REMARK H PARENT 15 7 8 11 8 12 22 28 72 47 46 58
REMARK Flexibility Score: inf
ROOT
ATOM      1  C   UNL A   1      37.982  22.564  25.669  1.00  0.00     0.002 C 
ENDROOT
BRANCH   1   2
ATOM      2  C   UNL A   1      36.928  23.590  26.088  1.00  0.00     0.021 C 
BRANCH   2   3
ATOM      3  C   UNL A   1      35.522  23.268  25.587  1.00  0.00     0.116 C 
BRANCH   3   4
ATOM      4  N   UNL A   1      34.641  22.951  26.690  1.00  0.00    -0.351 N 
ATOM      5  C   UNL A   1      33.289  22.800  26.787  1.00  0.00     0.281 C 
ATOM      6  O   UNL A   1      32.884  22.613  27.941  1.00  0.00    -0.268 OA
ATOM      7  H   UNL A   1      35.113  22.819  27.544  1.00  0.00     0.163 HD
BRANCH   5   8
ATOM      8  C   UNL A   1      32.342  22.778  25.530  1.00  0.00     0.172 C 
ATOM      9  C   UNL A   1      30.944  22.346  26.064  1.00  0.00     0.090 C 
BRANCH   8  10
ATOM     10  N   UNL A   1      32.049  24.143  25.029  1.00  0.00    -0.331 N 
ATOM     11  H   UNL A   1      32.712  24.749  25.509  1.00  0.00     0.347 HD
ATOM     12  H   UNL A   1      32.076  23.961  24.027  1.00  0.00     0.347 HD
BRANCH  10  13
ATOM     13  C   UNL A   1      30.775  24.843  25.108  1.00  0.00     0.183 C 
ATOM     14  C   UNL A   1      31.509  27.332  25.483  1.00  0.00    -0.006 C 
ATOM     15  C   UNL A   1      31.062  27.661  24.054  1.00  0.00     0.004 C 
ATOM     16  C   UNL A   1      30.694  26.114  25.973  1.00  0.00     0.068 C 
ATOM     17  C   UNL A   1      31.162  26.457  23.122  1.00  0.00     0.006 C 
ATOM     18  C   UNL A   1      30.384  25.249  23.661  1.00  0.00     0.065 C 
BRANCH  14  19
ATOM     19  C   UNL A   1      33.031  27.157  25.647  1.00  0.00     0.000 C 
ATOM     20  C   UNL A   1      33.760  28.273  26.374  1.00  0.00     0.004 C 
ENDBRANCH  14  19
ENDBRANCH  10  13
ENDBRANCH   8  10
BRANCH   8  21
ATOM     21  C   UNL A   1      32.728  21.768  24.414  1.00  0.00     0.075 C 
ATOM     22  C   UNL A   1      32.143  21.956  23.023  1.00  0.00     0.011 C 
ENDBRANCH   8  21
ENDBRANCH   5   8
ENDBRANCH   3   4
ENDBRANCH   2   3
ENDBRANCH   1   2
BRANCH   1  23
ATOM     23  C   UNL A   1      37.472  21.472  24.726  1.00  0.00     0.002 C 
BRANCH  23  24
ATOM     24  C   UNL A   1      38.190  20.125  24.851  1.00  0.00     0.021 C 
BRANCH  24  25
ATOM     25  C   UNL A   1      39.001  19.960  26.133  1.00  0.00     0.116 C 
BRANCH  25  26
ATOM     26  N   UNL A   1      40.214  19.194  25.902  1.00  0.00    -0.352 N 
ATOM     27  C   UNL A   1      41.512  19.618  25.914  1.00  0.00     0.251 C 
ATOM     28  H   UNL A   1      40.082  18.238  25.710  1.00  0.00     0.163 HD
ATOM     29  O   UNL A   1      42.404  18.895  25.462  1.00  0.00    -0.269 OA
BRANCH  27  30
ATOM     30  C   UNL A   1      41.855  20.941  26.470  1.00  0.00     0.039 A 
ATOM     31  C   UNL A   1      41.897  21.103  27.857  1.00  0.00     0.014 A 
ATOM     32  C   UNL A   1      42.084  22.031  25.624  1.00  0.00     0.014 A 
ATOM     33  C   UNL A   1      42.187  22.356  28.397  1.00  0.00     0.010 A 
ATOM     34  C   UNL A   1      42.437  23.264  26.162  1.00  0.00     0.010 A 
ATOM     35  C   UNL A   1      42.466  23.443  27.553  1.00  0.00    -0.014 A 
BRANCH  35  36
ATOM     36  C   UNL A   1      42.727  24.792  28.111  1.00  0.00     0.031 A 
ATOM     37  C   UNL A   1      44.124  25.174  28.516  1.00  0.00     0.074 A 
ATOM     38  C   UNL A   1      41.709  25.653  28.285  1.00  0.00     0.049 A 
ATOM     39  N   UNL A   1      44.554  26.282  29.064  1.00  0.00    -0.248 NA
ATOM     40  C   UNL A   1      45.175  24.166  28.297  1.00  0.00     0.031 C 
ATOM     41  C   UNL A   1      40.306  25.384  27.964  1.00  0.00     0.029 A 
ATOM     42  N   UNL A   1      41.698  26.934  28.778  1.00  0.00    -0.354 N 
ATOM     43  C   UNL A   1      45.915  26.098  29.268  1.00  0.00     0.074 A 
ATOM     44  C   UNL A   1      46.232  24.754  28.836  1.00  0.00     0.031 C 
ATOM     45  C   UNL A   1      39.575  26.475  28.246  1.00  0.00     0.029 A 
ATOM     46  C   UNL A   1      40.451  27.508  28.791  1.00  0.00     0.049 A 
ATOM     47  H   UNL A   1      42.508  27.397  29.092  1.00  0.00     0.167 HD
ATOM     48  C   UNL A   1      46.826  26.978  29.748  1.00  0.00     0.037 A 
ATOM     49  C   UNL A   1      40.063  28.732  29.194  1.00  0.00     0.037 A 
ATOM     50  C   UNL A   1      46.514  28.324  30.148  1.00  0.00     0.049 A 
ATOM     51  C   UNL A   1      41.096  29.695  29.710  1.00  0.00     0.074 A 
ATOM     52  C   UNL A   1      47.369  29.307  30.615  1.00  0.00     0.029 A 
ATOM     53  N   UNL A   1      45.244  28.878  30.117  1.00  0.00    -0.354 N 
ATOM     54  N   UNL A   1      42.387  29.524  29.856  1.00  0.00    -0.248 NA
ATOM     55  C   UNL A   1      40.618  31.027  30.107  1.00  0.00     0.031 C 
ATOM     56  C   UNL A   1      46.609  30.450  30.890  1.00  0.00     0.029 A 
ATOM     57  C   UNL A   1      45.290  30.189  30.559  1.00  0.00     0.049 A 
ATOM     58  H   UNL A   1      44.429  28.409  29.824  1.00  0.00     0.167 HD
ATOM     59  C   UNL A   1      42.881  30.734  30.325  1.00  0.00     0.074 A 
ATOM     60  C   UNL A   1      41.750  31.633  30.432  1.00  0.00     0.031 C 
ATOM     61  C   UNL A   1      44.155  31.073  30.638  1.00  0.00     0.037 A 
BRANCH  48  62
ATOM     62  C   UNL A   1      48.248  26.510  29.854  1.00  0.00     0.057 A 
ATOM     63  C   UNL A   1      48.715  25.822  30.982  1.00  0.00     0.134 A 
ATOM     64  C   UNL A   1      49.155  26.727  28.809  1.00  0.00     0.134 A 
ATOM     65  F   UNL A   1      47.901  25.595  32.024  1.00  0.00    -0.206 F 
ATOM     66  C   UNL A   1      50.039  25.391  31.078  1.00  0.00     0.040 A 
ATOM     67  C   UNL A   1      50.474  26.278  28.883  1.00  0.00     0.040 A 
ATOM     68  F   UNL A   1      48.772  27.376  27.698  1.00  0.00    -0.206 F 
ATOM     69  C   UNL A   1      50.921  25.613  30.023  1.00  0.00     0.006 A 
ENDBRANCH  48  62
BRANCH  49  70
ATOM     70  C   UNL A   1      38.640  29.134  29.088  1.00  0.00     0.057 A 
ATOM     71  C   UNL A   1      38.112  29.600  27.878  1.00  0.00     0.134 A 
ATOM     72  C   UNL A   1      37.777  29.079  30.189  1.00  0.00     0.134 A 
ATOM     73  F   UNL A   1      38.894  29.692  26.793  1.00  0.00    -0.206 F 
ATOM     74  C   UNL A   1      36.785  30.018  27.771  1.00  0.00     0.040 A 
ATOM     75  C   UNL A   1      36.441  29.471  30.091  1.00  0.00     0.040 A 
ATOM     76  F   UNL A   1      38.220  28.633  31.374  1.00  0.00    -0.206 F 
ATOM     77  C   UNL A   1      35.944  29.950  28.880  1.00  0.00     0.006 A 
ENDBRANCH  49  70
BRANCH  61  78
ATOM     78  C   UNL A   1      44.400  32.485  31.075  1.00  0.00     0.057 A 
ATOM     79  C   UNL A   1      44.365  32.861  32.422  1.00  0.00     0.134 A 
ATOM     80  C   UNL A   1      44.705  33.476  30.131  1.00  0.00     0.134 A 
ATOM     81  F   UNL A   1      44.066  31.961  33.371  1.00  0.00    -0.206 F 
ATOM     82  C   UNL A   1      44.603  34.178  32.817  1.00  0.00     0.040 A 
ATOM     83  C   UNL A   1      44.969  34.791  30.516  1.00  0.00     0.040 A 
ATOM     84  F   UNL A   1      44.762  33.178  28.825  1.00  0.00    -0.206 F 
ATOM     85  C   UNL A   1      44.911  35.146  31.862  1.00  0.00     0.006 A 
ENDBRANCH  61  78
ENDBRANCH  35  36
ENDBRANCH  27  30
ENDBRANCH  25  26
ENDBRANCH  24  25
ENDBRANCH  23  24
ENDBRANCH   1  23
TORSDOF 17
ENDMDL
MODEL 3
REMARK VINA RESULT:     -10.5      4.405      9.466
REMARK SMILES CC[C@H]1CCC[C@@H]([NH2+][C@@](C)(CC)C(=O)NCCCCCCNC(=O)c2ccc(-c3c4nc(c(-c5c(F)cccc5F)c5ccc([nH]5)c(-c5c(F)cccc5F)c5nc(c(-c6c(F)cccc6F)c6ccc3[nH]6)C=C5)C=C4)cc2)C1
REMARK SMILES IDX 18 1 17 2 16 3 15 4 13 5 14 6 9 8 10 9 8 10 7 13 3 14 4 15
REMARK SMILES IDX 79 16 5 17 6 18 2 19 1 20 11 21 12 22 19 23 20 24 21 25
REMARK SMILES IDX 22 26 23 27 24 29 25 30 26 31 78 32 27 33 77 34 28 35 29 36
REMARK SMILES IDX 30 37 71 38 31 39 76 40 70 41 72 42 32 43 75 44 69 45 68 46
REMARK SMILES IDX 33 48 59 49 42 50 58 51 43 52 46 53 57 54 73 55 44 56 45 57
REMARK SMILES IDX 56 59 74 60 47 61 34 62 35 63 40 64 36 65 37 66 39 67 41 68
REMARK SMILES IDX 38 69 60 70 61 71 66 72 62 73 63 74 65 75 67 76 64 77 48 78
REMARK SMILES IDX 49 79 54 80 50 81 51 82 53 83 55 84 52 85
REMARK H PARENT 15 7 8 11 8 12 22 28 72 47 46 58
REMARK Flexibility Score: inf
ROOT
ATOM      1  C   UNL A   1      36.809  21.803  25.337  1.00  0.00     0.002 C 
ENDROOT
BRANCH   1   2
ATOM      2  C   UNL A   1      36.445  22.908  24.344  1.00  0.00     0.021 C 
BRANCH   2   3
ATOM      3  C   UNL A   1      35.675  24.068  24.968  1.00  0.00     0.116 C 
BRANCH   3   4
ATOM      4  N   UNL A   1      34.757  23.594  25.982  1.00  0.00    -0.351 N 
ATOM      5  C   UNL A   1      33.400  23.458  26.017  1.00  0.00     0.281 C 
ATOM      6  O   UNL A   1      32.959  23.093  27.114  1.00  0.00    -0.268 OA
ATOM      7  H   UNL A   1      35.202  23.313  26.814  1.00  0.00     0.163 HD
BRANCH   5   8
ATOM      8  C   UNL A   1      32.490  23.663  24.750  1.00  0.00     0.172 C 
ATOM      9  C   UNL A   1      31.030  23.427  25.238  1.00  0.00     0.090 C 
BRANCH   8  10
ATOM     10  N   UNL A   1      32.427  25.085  24.334  1.00  0.00    -0.331 N 
ATOM     11  H   UNL A   1      31.476  25.382  24.550  1.00  0.00     0.347 HD
ATOM     12  H   UNL A   1      33.250  25.437  24.821  1.00  0.00     0.347 HD
BRANCH  10  13
ATOM     13  C   UNL A   1      32.692  25.615  23.005  1.00  0.00     0.183 C 
ATOM     14  C   UNL A   1      30.814  27.421  22.718  1.00  0.00    -0.006 C 
ATOM     15  C   UNL A   1      31.875  28.520  22.850  1.00  0.00     0.004 C 
ATOM     16  C   UNL A   1      31.506  26.148  22.180  1.00  0.00     0.068 C 
ATOM     17  C   UNL A   1      33.064  28.080  23.699  1.00  0.00     0.006 C 
ATOM     18  C   UNL A   1      33.698  26.786  23.169  1.00  0.00     0.065 C 
BRANCH  14  19
ATOM     19  C   UNL A   1      29.989  27.177  23.996  1.00  0.00     0.000 C 
ATOM     20  C   UNL A   1      28.599  26.600  23.797  1.00  0.00     0.004 C 
ENDBRANCH  14  19
ENDBRANCH  10  13
ENDBRANCH   8  10
BRANCH   8  21
ATOM     21  C   UNL A   1      32.737  22.674  23.577  1.00  0.00     0.075 C 
ATOM     22  C   UNL A   1      32.701  21.180  23.860  1.00  0.00     0.011 C 
ENDBRANCH   8  21
ENDBRANCH   5   8
ENDBRANCH   3   4
ENDBRANCH   2   3
ENDBRANCH   1   2
BRANCH   1  23
ATOM     23  C   UNL A   1      36.661  20.380  24.792  1.00  0.00     0.002 C 
BRANCH  23  24
ATOM     24  C   UNL A   1      37.929  19.526  24.869  1.00  0.00     0.021 C 
BRANCH  24  25
ATOM     25  C   UNL A   1      39.025  20.103  25.759  1.00  0.00     0.116 C 
BRANCH  25  26
ATOM     26  N   UNL A   1      40.185  19.229  25.811  1.00  0.00    -0.352 N 
ATOM     27  C   UNL A   1      41.492  19.550  26.049  1.00  0.00     0.251 C 
ATOM     28  H   UNL A   1      40.005  18.275  25.653  1.00  0.00     0.163 HD
ATOM     29  O   UNL A   1      42.383  18.727  25.820  1.00  0.00    -0.269 OA
BRANCH  27  30
ATOM     30  C   UNL A   1      41.843  20.879  26.582  1.00  0.00     0.039 A 
ATOM     31  C   UNL A   1      41.639  21.141  27.939  1.00  0.00     0.014 A 
ATOM     32  C   UNL A   1      42.325  21.882  25.734  1.00  0.00     0.014 A 
ATOM     33  C   UNL A   1      41.936  22.404  28.451  1.00  0.00     0.010 A 
ATOM     34  C   UNL A   1      42.682  23.120  26.257  1.00  0.00     0.010 A 
ATOM     35  C   UNL A   1      42.467  23.400  27.615  1.00  0.00    -0.014 A 
BRANCH  35  36
ATOM     36  C   UNL A   1      42.741  24.761  28.134  1.00  0.00     0.031 A 
ATOM     37  C   UNL A   1      44.142  25.145  28.519  1.00  0.00     0.074 A 
ATOM     38  C   UNL A   1      41.729  25.635  28.290  1.00  0.00     0.049 A 
ATOM     39  N   UNL A   1      44.584  26.265  29.033  1.00  0.00    -0.248 NA
ATOM     40  C   UNL A   1      45.185  24.124  28.322  1.00  0.00     0.031 C 
ATOM     41  C   UNL A   1      40.323  25.366  27.986  1.00  0.00     0.029 A 
ATOM     42  N   UNL A   1      41.730  26.928  28.747  1.00  0.00    -0.354 N 
ATOM     43  C   UNL A   1      45.945  26.077  29.233  1.00  0.00     0.074 A 
ATOM     44  C   UNL A   1      46.250  24.720  28.836  1.00  0.00     0.031 C 
ATOM     45  C   UNL A   1      39.600  26.470  28.242  1.00  0.00     0.029 A 
ATOM     46  C   UNL A   1      40.487  27.511  28.752  1.00  0.00     0.049 A 
ATOM     47  H   UNL A   1      42.545  27.394  29.043  1.00  0.00     0.167 HD
ATOM     48  C   UNL A   1      46.864  26.964  29.683  1.00  0.00     0.037 A 
ATOM     49  C   UNL A   1      40.110  28.749  29.124  1.00  0.00     0.037 A 
ATOM     50  C   UNL A   1      46.564  28.323  30.046  1.00  0.00     0.049 A 
ATOM     51  C   UNL A   1      41.153  29.719  29.605  1.00  0.00     0.074 A 
ATOM     52  C   UNL A   1      47.429  29.313  30.480  1.00  0.00     0.029 A 
ATOM     53  N   UNL A   1      45.298  28.885  30.008  1.00  0.00    -0.354 N 
ATOM     54  N   UNL A   1      42.444  29.543  29.748  1.00  0.00    -0.248 NA
ATOM     55  C   UNL A   1      40.686  31.064  29.968  1.00  0.00     0.031 C 
ATOM     56  C   UNL A   1      46.679  30.468  30.729  1.00  0.00     0.029 A 
ATOM     57  C   UNL A   1      45.356  30.207  30.414  1.00  0.00     0.049 A 
ATOM     58  H   UNL A   1      44.478  28.413  29.734  1.00  0.00     0.167 HD
ATOM     59  C   UNL A   1      42.949  30.762  30.179  1.00  0.00     0.074 A 
ATOM     60  C   UNL A   1      41.825  31.671  30.269  1.00  0.00     0.031 C 
ATOM     61  C   UNL A   1      44.228  31.101  30.475  1.00  0.00     0.037 A 
BRANCH  48  62
ATOM     62  C   UNL A   1      48.284  26.489  29.792  1.00  0.00     0.057 A 
ATOM     63  C   UNL A   1      49.203  26.669  28.750  1.00  0.00     0.134 A 
ATOM     64  C   UNL A   1      48.745  25.866  30.958  1.00  0.00     0.134 A 
ATOM     65  F   UNL A   1      48.821  27.246  27.600  1.00  0.00    -0.206 F 
ATOM     66  C   UNL A   1      50.522  26.224  28.853  1.00  0.00     0.040 A 
ATOM     67  C   UNL A   1      50.068  25.439  31.084  1.00  0.00     0.040 A 
ATOM     68  F   UNL A   1      47.918  25.665  31.996  1.00  0.00    -0.206 F 
ATOM     69  C   UNL A   1      50.959  25.613  30.026  1.00  0.00     0.006 A 
ENDBRANCH  48  62
BRANCH  49  70
ATOM     70  C   UNL A   1      38.689  29.158  29.015  1.00  0.00     0.057 A 
ATOM     71  C   UNL A   1      37.831  29.078  30.118  1.00  0.00     0.134 A 
ATOM     72  C   UNL A   1      38.149  29.622  27.810  1.00  0.00     0.134 A 
ATOM     73  F   UNL A   1      38.286  28.624  31.295  1.00  0.00    -0.206 F 
ATOM     74  C   UNL A   1      36.482  29.423  30.023  1.00  0.00     0.040 A 
ATOM     75  C   UNL A   1      36.808  29.994  27.706  1.00  0.00     0.040 A 
ATOM     76  F   UNL A   1      38.922  29.731  26.719  1.00  0.00    -0.206 F 
ATOM     77  C   UNL A   1      35.968  29.886  28.813  1.00  0.00     0.006 A 
ENDBRANCH  49  70
BRANCH  61  78
ATOM     78  C   UNL A   1      44.485  32.523  30.870  1.00  0.00     0.057 A 
ATOM     79  C   UNL A   1      44.759  33.517  29.924  1.00  0.00     0.134 A 
ATOM     80  C   UNL A   1      44.426  32.906  32.217  1.00  0.00     0.134 A 
ATOM     81  F   UNL A   1      44.842  33.211  28.621  1.00  0.00    -0.206 F 
ATOM     82  C   UNL A   1      44.988  34.840  30.305  1.00  0.00     0.040 A 
ATOM     83  C   UNL A   1      44.629  34.230  32.607  1.00  0.00     0.040 A 
ATOM     84  F   UNL A   1      44.160  32.001  33.171  1.00  0.00    -0.206 F 
ATOM     85  C   UNL A   1      44.918  35.200  31.650  1.00  0.00     0.006 A 
ENDBRANCH  61  78
ENDBRANCH  35  36
ENDBRANCH  27  30
ENDBRANCH  25  26
ENDBRANCH  24  25
ENDBRANCH  23  24
ENDBRANCH   1  23
TORSDOF 17
ENDMDL
