MODEL 1
REMARK VINA RESULT:     -11.9      0.000      0.000
REMARK SMILES COc1cc(-c2cc(C(=O)NCCCCCCNC(=O)c3ccc(-c4c5nc(c(-c6c(F)cccc6F)c6ccc([nH]6)c(-c6c(F)cccc6F)c6nc(c(-c7c(F)cccc7F)c7ccc4[nH]7)C=C6)C=C5)cc3)c3cc(C)ccc3n2)cc(OC)c1OC
REMARK SMILES IDX 14 1 13 2 12 3 11 4 9 5 10 6 8 8 6 9 7 10 82 11 81 12 75 13
REMARK SMILES IDX 80 14 76 15 79 16 77 17 78 18 5 19 3 20 4 21 87 22 84 23
REMARK SMILES IDX 83 24 2 25 1 26 88 27 89 28 85 29 86 30 15 31 16 32 17 33
REMARK SMILES IDX 18 34 19 35 20 37 21 38 22 39 74 40 23 41 73 42 24 43 25 44
REMARK SMILES IDX 26 45 67 46 27 47 72 48 66 49 68 50 28 51 71 52 65 53 64 54
REMARK SMILES IDX 29 56 55 57 38 58 54 59 39 60 42 61 53 62 69 63 40 64 41 65
REMARK SMILES IDX 52 67 70 68 43 69 30 70 31 71 36 72 32 73 33 74 35 75 37 76
REMARK SMILES IDX 34 77 56 78 57 79 62 80 58 81 59 82 61 83 63 84 60 85 44 86
REMARK SMILES IDX 45 87 50 88 46 89 47 90 49 91 51 92 48 93
REMARK H PARENT 11 7 18 36 68 55 42 66
REMARK Flexibility Score: inf
ROOT
ATOM      1  C   UNL A   1      34.546  32.658  29.052  1.00  0.00     0.002 C 
ENDROOT
BRANCH   1   2
ATOM      2  C   UNL A   1      35.480  31.971  28.042  1.00  0.00     0.021 C 
BRANCH   2   3
ATOM      3  C   UNL A   1      34.928  30.649  27.502  1.00  0.00     0.116 C 
BRANCH   3   4
ATOM      4  N   UNL A   1      33.513  30.577  27.791  1.00  0.00    -0.352 N 
ATOM      5  C   UNL A   1      32.533  30.215  26.898  1.00  0.00     0.252 C 
ATOM      6  O   UNL A   1      31.559  30.943  26.749  1.00  0.00    -0.269 OA
ATOM      7  H   UNL A   1      33.227  30.808  28.704  1.00  0.00     0.163 HD
BRANCH   5   8
ATOM      8  C   UNL A   1      32.558  28.816  26.414  1.00  0.00     0.051 A 
ATOM      9  C   UNL A   1      33.123  26.544  26.540  1.00  0.00     0.072 A 
ATOM     10  C   UNL A   1      33.483  27.851  26.803  1.00  0.00     0.043 A 
ATOM     11  N   UNL A   1      31.803  26.251  26.405  1.00  0.00    -0.248 NA
ATOM     12  C   UNL A   1      31.105  27.112  25.662  1.00  0.00     0.072 A 
ATOM     13  C   UNL A   1      31.542  28.425  25.529  1.00  0.00     0.013 A 
ATOM     14  C   UNL A   1      30.099  26.641  24.835  1.00  0.00     0.029 A 
ATOM     15  C   UNL A   1      31.136  29.174  24.405  1.00  0.00     0.014 A 
ATOM     16  C   UNL A   1      29.731  27.361  23.697  1.00  0.00     0.005 A 
ATOM     17  C   UNL A   1      30.347  28.581  23.419  1.00  0.00    -0.050 A 
ATOM     18  C   UNL A   1      30.292  29.196  22.051  1.00  0.00     0.044 C 
BRANCH   9  19
ATOM     19  C   UNL A   1      33.881  25.674  25.576  1.00  0.00     0.008 A 
ATOM     20  C   UNL A   1      33.569  23.465  24.669  1.00  0.00     0.165 A 
ATOM     21  C   UNL A   1      33.883  24.290  25.753  1.00  0.00     0.061 A 
ATOM     22  C   UNL A   1      33.133  24.022  23.453  1.00  0.00     0.203 A 
ATOM     23  C   UNL A   1      33.397  25.370  23.206  1.00  0.00     0.165 A 
ATOM     24  C   UNL A   1      33.925  26.153  24.241  1.00  0.00     0.061 A 
BRANCH  20  25
ATOM     25  O   UNL A   1      33.557  22.113  24.906  1.00  0.00    -0.493 OA
ATOM     26  C   UNL A   1      34.842  21.542  24.636  1.00  0.00     0.278 C 
ENDBRANCH  20  25
BRANCH  22  27
ATOM     27  O   UNL A   1      32.153  23.344  22.770  1.00  0.00    -0.490 OA
ATOM     28  C   UNL A   1      30.824  23.572  23.197  1.00  0.00     0.278 C 
ENDBRANCH  22  27
BRANCH  23  29
ATOM     29  O   UNL A   1      33.130  26.077  22.065  1.00  0.00    -0.493 OA
ATOM     30  C   UNL A   1      33.546  27.436  22.040  1.00  0.00     0.278 C 
ENDBRANCH  23  29
ENDBRANCH   9  19
ENDBRANCH   5   8
ENDBRANCH   3   4
ENDBRANCH   2   3
ENDBRANCH   1   2
BRANCH   1  31
ATOM     31  C   UNL A   1      34.720  34.177  29.156  1.00  0.00     0.002 C 
BRANCH  31  32
ATOM     32  C   UNL A   1      33.409  34.963  29.137  1.00  0.00     0.021 C 
BRANCH  32  33
ATOM     33  C   UNL A   1      33.482  36.299  29.864  1.00  0.00     0.116 C 
BRANCH  33  34
ATOM     34  N   UNL A   1      32.498  36.390  30.929  1.00  0.00    -0.352 N 
ATOM     35  C   UNL A   1      32.492  35.750  32.144  1.00  0.00     0.251 C 
ATOM     36  H   UNL A   1      31.736  36.988  30.757  1.00  0.00     0.163 HD
ATOM     37  O   UNL A   1      31.494  35.755  32.850  1.00  0.00    -0.269 OA
BRANCH  35  38
ATOM     38  C   UNL A   1      33.710  35.038  32.581  1.00  0.00     0.039 A 
ATOM     39  C   UNL A   1      33.610  33.701  32.971  1.00  0.00     0.014 A 
ATOM     40  C   UNL A   1      34.948  35.687  32.581  1.00  0.00     0.014 A 
ATOM     41  C   UNL A   1      34.766  33.000  33.316  1.00  0.00     0.010 A 
ATOM     42  C   UNL A   1      36.104  34.965  32.842  1.00  0.00     0.010 A 
ATOM     43  C   UNL A   1      36.024  33.617  33.224  1.00  0.00    -0.014 A 
BRANCH  43  44
ATOM     44  C   UNL A   1      37.270  32.876  33.541  1.00  0.00     0.031 A 
ATOM     45  C   UNL A   1      38.020  33.173  34.808  1.00  0.00     0.074 A 
ATOM     46  C   UNL A   1      37.754  31.981  32.659  1.00  0.00     0.049 A 
ATOM     47  N   UNL A   1      39.151  32.674  35.237  1.00  0.00    -0.248 NA
ATOM     48  C   UNL A   1      37.435  34.187  35.700  1.00  0.00     0.031 C 
ATOM     49  C   UNL A   1      37.140  31.638  31.376  1.00  0.00     0.029 A 
ATOM     50  N   UNL A   1      38.882  31.200  32.708  1.00  0.00    -0.354 N 
ATOM     51  C   UNL A   1      39.417  33.320  36.437  1.00  0.00     0.074 A 
ATOM     52  C   UNL A   1      38.366  34.294  36.634  1.00  0.00     0.031 C 
ATOM     53  C   UNL A   1      37.879  30.691  30.775  1.00  0.00     0.029 A 
ATOM     54  C   UNL A   1      39.040  30.394  31.608  1.00  0.00     0.049 A 
ATOM     55  H   UNL A   1      39.517  31.217  33.461  1.00  0.00     0.167 HD
ATOM     56  C   UNL A   1      40.430  33.104  37.309  1.00  0.00     0.037 A 
ATOM     57  C   UNL A   1      40.016  29.518  31.304  1.00  0.00     0.037 A 
ATOM     58  C   UNL A   1      41.468  32.127  37.111  1.00  0.00     0.049 A 
ATOM     59  C   UNL A   1      41.148  29.317  32.271  1.00  0.00     0.074 A 
ATOM     60  C   UNL A   1      42.511  31.793  37.955  1.00  0.00     0.029 A 
ATOM     61  N   UNL A   1      41.599  31.332  35.980  1.00  0.00    -0.354 N 
ATOM     62  N   UNL A   1      41.353  29.884  33.435  1.00  0.00    -0.248 NA
ATOM     63  C   UNL A   1      42.183  28.348  31.884  1.00  0.00     0.031 C 
ATOM     64  C   UNL A   1      43.305  30.838  37.311  1.00  0.00     0.029 A 
ATOM     65  C   UNL A   1      42.722  30.530  36.092  1.00  0.00     0.049 A 
ATOM     66  H   UNL A   1      40.982  31.338  35.212  1.00  0.00     0.167 HD
ATOM     67  C   UNL A   1      42.521  29.322  33.935  1.00  0.00     0.074 A 
ATOM     68  C   UNL A   1      42.972  28.359  32.949  1.00  0.00     0.031 C 
ATOM     69  C   UNL A   1      43.159  29.576  35.103  1.00  0.00     0.037 A 
BRANCH  56  70
ATOM     70  C   UNL A   1      40.462  33.954  38.549  1.00  0.00     0.057 A 
ATOM     71  C   UNL A   1      39.741  33.612  39.703  1.00  0.00     0.134 A 
ATOM     72  C   UNL A   1      41.222  35.130  38.592  1.00  0.00     0.134 A 
ATOM     73  F   UNL A   1      38.983  32.506  39.728  1.00  0.00    -0.206 F 
ATOM     74  C   UNL A   1      39.740  34.430  40.834  1.00  0.00     0.040 A 
ATOM     75  C   UNL A   1      41.256  35.938  39.730  1.00  0.00     0.040 A 
ATOM     76  F   UNL A   1      41.943  35.516  37.528  1.00  0.00    -0.206 F 
ATOM     77  C   UNL A   1      40.503  35.594  40.851  1.00  0.00     0.006 A 
ENDBRANCH  56  70
BRANCH  57  78
ATOM     78  C   UNL A   1      39.942  28.740  30.041  1.00  0.00     0.057 A 
ATOM     79  C   UNL A   1      39.221  27.542  29.976  1.00  0.00     0.134 A 
ATOM     80  C   UNL A   1      40.573  29.177  28.870  1.00  0.00     0.134 A 
ATOM     81  F   UNL A   1      38.609  27.062  31.069  1.00  0.00    -0.206 F 
ATOM     82  C   UNL A   1      39.143  26.798  28.798  1.00  0.00     0.040 A 
ATOM     83  C   UNL A   1      40.481  28.458  27.678  1.00  0.00     0.040 A 
ATOM     84  F   UNL A   1      41.271  30.323  28.864  1.00  0.00    -0.206 F 
ATOM     85  C   UNL A   1      39.769  27.260  27.642  1.00  0.00     0.006 A 
ENDBRANCH  57  78
BRANCH  69  86
ATOM     86  C   UNL A   1      44.394  28.773  35.402  1.00  0.00     0.057 A 
ATOM     87  C   UNL A   1      44.338  27.538  36.061  1.00  0.00     0.134 A 
ATOM     88  C   UNL A   1      45.653  29.226  34.984  1.00  0.00     0.134 A 
ATOM     89  F   UNL A   1      43.166  27.053  36.498  1.00  0.00    -0.206 F 
ATOM     90  C   UNL A   1      45.492  26.796  36.316  1.00  0.00     0.040 A 
ATOM     91  C   UNL A   1      46.809  28.478  35.205  1.00  0.00     0.040 A 
ATOM     92  F   UNL A   1      45.777  30.396  34.338  1.00  0.00    -0.206 F 
ATOM     93  C   UNL A   1      46.731  27.261  35.880  1.00  0.00     0.006 A 
ENDBRANCH  69  86
ENDBRANCH  43  44
ENDBRANCH  35  38
ENDBRANCH  33  34
ENDBRANCH  32  33
ENDBRANCH  31  32
ENDBRANCH   1  31
TORSDOF 17
ENDMDL
MODEL 2
REMARK VINA RESULT:     -11.6      0.826      1.577
REMARK SMILES COc1cc(-c2cc(C(=O)NCCCCCCNC(=O)c3ccc(-c4c5nc(c(-c6c(F)cccc6F)c6ccc([nH]6)c(-c6c(F)cccc6F)c6nc(c(-c7c(F)cccc7F)c7ccc4[nH]7)C=C6)C=C5)cc3)c3cc(C)ccc3n2)cc(OC)c1OC
REMARK SMILES IDX 14 1 13 2 12 3 11 4 9 5 10 6 8 8 6 9 7 10 82 11 81 12 75 13
REMARK SMILES IDX 80 14 76 15 79 16 77 17 78 18 5 19 3 20 4 21 87 22 84 23
REMARK SMILES IDX 83 24 2 25 1 26 88 27 89 28 85 29 86 30 15 31 16 32 17 33
REMARK SMILES IDX 18 34 19 35 20 37 21 38 22 39 74 40 23 41 73 42 24 43 25 44
REMARK SMILES IDX 26 45 67 46 27 47 72 48 66 49 68 50 28 51 71 52 65 53 64 54
REMARK SMILES IDX 29 56 55 57 38 58 54 59 39 60 42 61 53 62 69 63 40 64 41 65
REMARK SMILES IDX 52 67 70 68 43 69 30 70 31 71 36 72 32 73 33 74 35 75 37 76
REMARK SMILES IDX 34 77 56 78 57 79 62 80 58 81 59 82 61 83 63 84 60 85 44 86
REMARK SMILES IDX 45 87 50 88 46 89 47 90 49 91 51 92 48 93
REMARK H PARENT 11 7 18 36 68 55 42 66
REMARK Flexibility Score: inf
ROOT
ATOM      1  C   UNL A   1      34.511  32.064  28.830  1.00  0.00     0.002 C 
ENDROOT
BRANCH   1   2
ATOM      2  C   UNL A   1      35.460  31.319  27.877  1.00  0.00     0.021 C 
BRANCH   2   3
ATOM      3  C   UNL A   1      34.889  29.998  27.355  1.00  0.00     0.116 C 
BRANCH   3   4
ATOM      4  N   UNL A   1      33.512  29.880  27.783  1.00  0.00    -0.352 N 
ATOM      5  C   UNL A   1      32.432  29.694  26.953  1.00  0.00     0.252 C 
ATOM      6  O   UNL A   1      31.467  30.441  27.051  1.00  0.00    -0.269 OA
ATOM      7  H   UNL A   1      33.334  29.938  28.749  1.00  0.00     0.163 HD
BRANCH   5   8
ATOM      8  C   UNL A   1      32.370  28.409  26.221  1.00  0.00     0.051 A 
ATOM      9  C   UNL A   1      32.797  26.123  25.918  1.00  0.00     0.072 A 
ATOM     10  C   UNL A   1      33.236  27.336  26.410  1.00  0.00     0.043 A 
ATOM     11  N   UNL A   1      31.461  25.939  25.753  1.00  0.00    -0.248 NA
ATOM     12  C   UNL A   1      30.812  26.960  25.193  1.00  0.00     0.072 A 
ATOM     13  C   UNL A   1      31.327  28.248  25.296  1.00  0.00     0.013 A 
ATOM     14  C   UNL A   1      29.775  26.710  24.310  1.00  0.00     0.029 A 
ATOM     15  C   UNL A   1      30.961  29.214  24.336  1.00  0.00     0.014 A 
ATOM     16  C   UNL A   1      29.445  27.648  23.330  1.00  0.00     0.005 A 
ATOM     17  C   UNL A   1      30.132  28.860  23.270  1.00  0.00    -0.050 A 
ATOM     18  C   UNL A   1      30.106  29.718  22.040  1.00  0.00     0.044 C 
BRANCH   9  19
ATOM     19  C   UNL A   1      33.495  25.403  24.798  1.00  0.00     0.008 A 
ATOM     20  C   UNL A   1      35.307  23.823  24.658  1.00  0.00     0.165 A 
ATOM     21  C   UNL A   1      34.858  25.124  24.903  1.00  0.00     0.061 A 
ATOM     22  C   UNL A   1      34.387  22.783  24.434  1.00  0.00     0.203 A 
ATOM     23  C   UNL A   1      33.083  23.115  24.064  1.00  0.00     0.165 A 
ATOM     24  C   UNL A   1      32.696  24.462  24.098  1.00  0.00     0.061 A 
BRANCH  20  25
ATOM     25  O   UNL A   1      36.652  23.597  24.804  1.00  0.00    -0.493 OA
ATOM     26  C   UNL A   1      37.059  23.824  26.157  1.00  0.00     0.278 C 
ENDBRANCH  20  25
BRANCH  22  27
ATOM     27  O   UNL A   1      34.692  21.553  24.964  1.00  0.00    -0.490 OA
ATOM     28  C   UNL A   1      34.251  21.317  26.287  1.00  0.00     0.278 C 
ENDBRANCH  22  27
BRANCH  23  29
ATOM     29  O   UNL A   1      32.068  22.261  23.727  1.00  0.00    -0.493 OA
ATOM     30  C   UNL A   1      32.216  21.536  22.512  1.00  0.00     0.278 C 
ENDBRANCH  23  29
ENDBRANCH   9  19
ENDBRANCH   5   8
ENDBRANCH   3   4
ENDBRANCH   2   3
ENDBRANCH   1   2
BRANCH   1  31
ATOM     31  C   UNL A   1      34.682  33.587  28.846  1.00  0.00     0.002 C 
BRANCH  31  32
ATOM     32  C   UNL A   1      33.373  34.367  28.954  1.00  0.00     0.021 C 
BRANCH  32  33
ATOM     33  C   UNL A   1      33.550  35.808  29.412  1.00  0.00     0.116 C 
BRANCH  33  34
ATOM     34  N   UNL A   1      32.663  36.138  30.514  1.00  0.00    -0.352 N 
ATOM     35  C   UNL A   1      32.713  35.698  31.814  1.00  0.00     0.251 C 
ATOM     36  H   UNL A   1      31.930  36.760  30.302  1.00  0.00     0.163 HD
ATOM     37  O   UNL A   1      31.778  35.889  32.577  1.00  0.00    -0.269 OA
BRANCH  35  38
ATOM     38  C   UNL A   1      33.913  34.970  32.274  1.00  0.00     0.039 A 
ATOM     39  C   UNL A   1      33.795  33.627  32.635  1.00  0.00     0.014 A 
ATOM     40  C   UNL A   1      35.155  35.612  32.324  1.00  0.00     0.014 A 
ATOM     41  C   UNL A   1      34.935  32.913  33.002  1.00  0.00     0.010 A 
ATOM     42  C   UNL A   1      36.299  34.878  32.606  1.00  0.00     0.010 A 
ATOM     43  C   UNL A   1      36.200  33.524  32.960  1.00  0.00    -0.014 A 
BRANCH  43  44
ATOM     44  C   UNL A   1      37.430  32.769  33.300  1.00  0.00     0.031 A 
ATOM     45  C   UNL A   1      38.166  33.066  34.576  1.00  0.00     0.074 A 
ATOM     46  C   UNL A   1      37.916  31.861  32.433  1.00  0.00     0.049 A 
ATOM     47  N   UNL A   1      39.284  32.557  35.025  1.00  0.00    -0.248 NA
ATOM     48  C   UNL A   1      37.582  34.096  35.451  1.00  0.00     0.031 C 
ATOM     49  C   UNL A   1      37.316  31.516  31.144  1.00  0.00     0.029 A 
ATOM     50  N   UNL A   1      39.033  31.067  32.504  1.00  0.00    -0.354 N 
ATOM     51  C   UNL A   1      39.542  33.209  36.224  1.00  0.00     0.074 A 
ATOM     52  C   UNL A   1      38.501  34.198  36.398  1.00  0.00     0.031 C 
ATOM     53  C   UNL A   1      38.052  30.555  30.561  1.00  0.00     0.029 A 
ATOM     54  C   UNL A   1      39.197  30.250  31.413  1.00  0.00     0.049 A 
ATOM     55  H   UNL A   1      39.657  31.082  33.266  1.00  0.00     0.167 HD
ATOM     56  C   UNL A   1      40.540  32.988  37.112  1.00  0.00     0.037 A 
ATOM     57  C   UNL A   1      40.165  29.359  31.129  1.00  0.00     0.037 A 
ATOM     58  C   UNL A   1      41.567  31.996  36.936  1.00  0.00     0.049 A 
ATOM     59  C   UNL A   1      41.281  29.151  32.115  1.00  0.00     0.074 A 
ATOM     60  C   UNL A   1      42.594  31.655  37.798  1.00  0.00     0.029 A 
ATOM     61  N   UNL A   1      41.704  31.190  35.814  1.00  0.00    -0.354 N 
ATOM     62  N   UNL A   1      41.477  29.725  33.277  1.00  0.00    -0.248 NA
ATOM     63  C   UNL A   1      42.308  28.166  31.750  1.00  0.00     0.031 C 
ATOM     64  C   UNL A   1      43.385  30.685  37.173  1.00  0.00     0.029 A 
ATOM     65  C   UNL A   1      42.815  30.375  35.948  1.00  0.00     0.049 A 
ATOM     66  H   UNL A   1      41.099  31.198  35.037  1.00  0.00     0.167 HD
ATOM     67  C   UNL A   1      42.630  29.152  33.798  1.00  0.00     0.074 A 
ATOM     68  C   UNL A   1      43.082  28.176  32.826  1.00  0.00     0.031 C 
ATOM     69  C   UNL A   1      43.254  29.407  34.974  1.00  0.00     0.037 A 
BRANCH  56  70
ATOM     70  C   UNL A   1      40.565  33.847  38.346  1.00  0.00     0.057 A 
ATOM     71  C   UNL A   1      39.809  33.533  39.486  1.00  0.00     0.134 A 
ATOM     72  C   UNL A   1      41.352  35.004  38.397  1.00  0.00     0.134 A 
ATOM     73  F   UNL A   1      39.024  32.445  39.502  1.00  0.00    -0.206 F 
ATOM     74  C   UNL A   1      39.803  34.360  40.610  1.00  0.00     0.040 A 
ATOM     75  C   UNL A   1      41.381  35.820  39.529  1.00  0.00     0.040 A 
ATOM     76  F   UNL A   1      42.106  35.363  37.346  1.00  0.00    -0.206 F 
ATOM     77  C   UNL A   1      40.594  35.505  40.635  1.00  0.00     0.006 A 
ENDBRANCH  56  70
BRANCH  57  78
ATOM     78  C   UNL A   1      40.099  28.572  29.872  1.00  0.00     0.057 A 
ATOM     79  C   UNL A   1      40.785  28.991  28.726  1.00  0.00     0.134 A 
ATOM     80  C   UNL A   1      39.366  27.382  29.786  1.00  0.00     0.134 A 
ATOM     81  F   UNL A   1      41.491  30.131  28.740  1.00  0.00    -0.206 F 
ATOM     82  C   UNL A   1      40.732  28.264  27.535  1.00  0.00     0.040 A 
ATOM     83  C   UNL A   1      39.326  26.631  28.611  1.00  0.00     0.040 A 
ATOM     84  F   UNL A   1      38.695  26.922  30.853  1.00  0.00    -0.206 F 
ATOM     85  C   UNL A   1      40.006  27.076  27.479  1.00  0.00     0.006 A 
ENDBRANCH  57  78
BRANCH  69  86
ATOM     86  C   UNL A   1      44.474  28.591  35.296  1.00  0.00     0.057 A 
ATOM     87  C   UNL A   1      44.393  27.364  35.966  1.00  0.00     0.134 A 
ATOM     88  C   UNL A   1      45.744  29.023  34.890  1.00  0.00     0.134 A 
ATOM     89  F   UNL A   1      43.209  26.899  36.393  1.00  0.00    -0.206 F 
ATOM     90  C   UNL A   1      45.534  26.609  36.244  1.00  0.00     0.040 A 
ATOM     91  C   UNL A   1      46.887  28.262  35.134  1.00  0.00     0.040 A 
ATOM     92  F   UNL A   1      45.892  30.184  34.235  1.00  0.00    -0.206 F 
ATOM     93  C   UNL A   1      46.784  27.053  35.819  1.00  0.00     0.006 A 
ENDBRANCH  69  86
ENDBRANCH  43  44
ENDBRANCH  35  38
ENDBRANCH  33  34
ENDBRANCH  32  33
ENDBRANCH  31  32
ENDBRANCH   1  31
TORSDOF 17
ENDMDL
MODEL 3
REMARK VINA RESULT:     -11.5      6.459     11.836
REMARK SMILES COc1cc(-c2cc(C(=O)NCCCCCCNC(=O)c3ccc(-c4c5nc(c(-c6c(F)cccc6F)c6ccc([nH]6)c(-c6c(F)cccc6F)c6nc(c(-c7c(F)cccc7F)c7ccc4[nH]7)C=C6)C=C5)cc3)c3cc(C)ccc3n2)cc(OC)c1OC
REMARK SMILES IDX 14 1 13 2 12 3 11 4 9 5 10 6 8 8 6 9 7 10 82 11 81 12 75 13
REMARK SMILES IDX 80 14 76 15 79 16 77 17 78 18 5 19 3 20 4 21 87 22 84 23
REMARK SMILES IDX 83 24 2 25 1 26 88 27 89 28 85 29 86 30 15 31 16 32 17 33
REMARK SMILES IDX 18 34 19 35 20 37 21 38 22 39 74 40 23 41 73 42 24 43 25 44
REMARK SMILES IDX 26 45 67 46 27 47 72 48 66 49 68 50 28 51 71 52 65 53 64 54
REMARK SMILES IDX 29 56 55 57 38 58 54 59 39 60 42 61 53 62 69 63 40 64 41 65
REMARK SMILES IDX 52 67 70 68 43 69 30 70 31 71 36 72 32 73 33 74 35 75 37 76
REMARK SMILES IDX 34 77 56 78 57 79 62 80 58 81 59 82 61 83 63 84 60 85 44 86
REMARK SMILES IDX 45 87 50 88 46 89 47 90 49 91 51 92 48 93
REMARK H PARENT 11 7 18 36 68 55 42 66
REMARK Flexibility Score: inf
ROOT
ATOM      1  C   UNL A   1      40.446  21.390  27.002  1.00  0.00     0.002 C 
ENDROOT
BRANCH   1   2
ATOM      2  C   UNL A   1      40.153  22.892  27.150  1.00  0.00     0.021 C 
BRANCH   2   3
ATOM      3  C   UNL A   1      38.742  23.285  26.708  1.00  0.00     0.116 C 
BRANCH   3   4
ATOM      4  N   UNL A   1      38.466  22.681  25.423  1.00  0.00    -0.352 N 
ATOM      5  C   UNL A   1      37.306  22.030  25.079  1.00  0.00     0.252 C 
ATOM      6  O   UNL A   1      37.370  20.907  24.595  1.00  0.00    -0.269 OA
ATOM      7  H   UNL A   1      39.170  22.741  24.736  1.00  0.00     0.163 HD
BRANCH   5   8
ATOM      8  C   UNL A   1      36.076  22.852  25.014  1.00  0.00     0.051 A 
ATOM      9  C   UNL A   1      34.878  24.867  24.979  1.00  0.00     0.072 A 
ATOM     10  C   UNL A   1      35.968  24.167  25.457  1.00  0.00     0.043 A 
ATOM     11  N   UNL A   1      34.307  24.459  23.816  1.00  0.00    -0.248 NA
ATOM     12  C   UNL A   1      34.133  23.141  23.702  1.00  0.00     0.072 A 
ATOM     13  C   UNL A   1      34.947  22.270  24.419  1.00  0.00     0.013 A 
ATOM     14  C   UNL A   1      33.000  22.653  23.074  1.00  0.00     0.029 A 
ATOM     15  C   UNL A   1      34.481  20.970  24.701  1.00  0.00     0.014 A 
ATOM     16  C   UNL A   1      32.513  21.383  23.390  1.00  0.00     0.005 A 
ATOM     17  C   UNL A   1      33.198  20.586  24.307  1.00  0.00    -0.050 A 
ATOM     18  C   UNL A   1      32.542  19.414  24.974  1.00  0.00     0.044 C 
BRANCH   9  19
ATOM     19  C   UNL A   1      33.776  25.361  25.876  1.00  0.00     0.008 A 
ATOM     20  C   UNL A   1      32.160  27.143  25.764  1.00  0.00     0.165 A 
ATOM     21  C   UNL A   1      33.485  26.725  25.921  1.00  0.00     0.061 A 
ATOM     22  C   UNL A   1      31.155  26.215  25.438  1.00  0.00     0.203 A 
ATOM     23  C   UNL A   1      31.400  24.860  25.666  1.00  0.00     0.165 A 
ATOM     24  C   UNL A   1      32.690  24.464  26.043  1.00  0.00     0.061 A 
BRANCH  20  25
ATOM     25  O   UNL A   1      31.934  28.496  25.787  1.00  0.00    -0.493 OA
ATOM     26  C   UNL A   1      32.841  29.176  24.914  1.00  0.00     0.278 C 
ENDBRANCH  20  25
BRANCH  22  27
ATOM     27  O   UNL A   1      30.176  26.632  24.570  1.00  0.00    -0.490 OA
ATOM     28  C   UNL A   1      30.484  26.540  23.192  1.00  0.00     0.278 C 
ENDBRANCH  22  27
BRANCH  23  29
ATOM     29  O   UNL A   1      30.533  23.815  25.493  1.00  0.00    -0.493 OA
ATOM     30  C   UNL A   1      30.600  22.761  26.446  1.00  0.00     0.278 C 
ENDBRANCH  23  29
ENDBRANCH   9  19
ENDBRANCH   5   8
ENDBRANCH   3   4
ENDBRANCH   2   3
ENDBRANCH   1   2
BRANCH   1  31
ATOM     31  C   UNL A   1      41.673  21.056  26.145  1.00  0.00     0.002 C 
BRANCH  31  32
ATOM     32  C   UNL A   1      41.864  19.565  25.873  1.00  0.00     0.021 C 
BRANCH  32  33
ATOM     33  C   UNL A   1      43.252  19.048  26.223  1.00  0.00     0.116 C 
BRANCH  33  34
ATOM     34  N   UNL A   1      44.008  18.683  25.038  1.00  0.00    -0.352 N 
ATOM     35  C   UNL A   1      44.722  19.497  24.194  1.00  0.00     0.251 C 
ATOM     36  H   UNL A   1      44.008  17.725  24.809  1.00  0.00     0.163 HD
ATOM     37  O   UNL A   1      45.128  19.084  23.118  1.00  0.00    -0.269 OA
BRANCH  35  38
ATOM     38  C   UNL A   1      44.979  20.894  24.600  1.00  0.00     0.039 A 
ATOM     39  C   UNL A   1      44.542  21.931  23.775  1.00  0.00     0.014 A 
ATOM     40  C   UNL A   1      45.630  21.172  25.806  1.00  0.00     0.014 A 
ATOM     41  C   UNL A   1      44.716  23.253  24.186  1.00  0.00     0.010 A 
ATOM     42  C   UNL A   1      45.726  22.483  26.251  1.00  0.00     0.010 A 
ATOM     43  C   UNL A   1      45.281  23.538  25.440  1.00  0.00    -0.014 A 
BRANCH  43  44
ATOM     44  C   UNL A   1      45.432  24.935  25.916  1.00  0.00     0.031 A 
ATOM     45  C   UNL A   1      46.779  25.601  25.876  1.00  0.00     0.074 A 
ATOM     46  C   UNL A   1      44.371  25.579  26.438  1.00  0.00     0.049 A 
ATOM     47  N   UNL A   1      47.125  26.791  26.294  1.00  0.00    -0.248 NA
ATOM     48  C   UNL A   1      47.889  24.813  25.319  1.00  0.00     0.031 C 
ATOM     49  C   UNL A   1      43.024  25.024  26.570  1.00  0.00     0.029 A 
ATOM     50  N   UNL A   1      44.264  26.843  26.961  1.00  0.00    -0.354 N 
ATOM     51  C   UNL A   1      48.491  26.889  26.062  1.00  0.00     0.074 A 
ATOM     52  C   UNL A   1      48.921  25.614  25.530  1.00  0.00     0.031 C 
ATOM     53  C   UNL A   1      42.217  25.954  27.105  1.00  0.00     0.029 A 
ATOM     54  C   UNL A   1      42.998  27.152  27.395  1.00  0.00     0.049 A 
ATOM     55  H   UNL A   1      45.022  27.469  27.020  1.00  0.00     0.167 HD
ATOM     56  C   UNL A   1      49.309  27.952  26.249  1.00  0.00     0.037 A 
ATOM     57  C   UNL A   1      42.523  28.275  27.966  1.00  0.00     0.037 A 
ATOM     58  C   UNL A   1      48.873  29.220  26.771  1.00  0.00     0.049 A 
ATOM     59  C   UNL A   1      43.456  29.432  28.195  1.00  0.00     0.074 A 
ATOM     60  C   UNL A   1      49.608  30.378  26.953  1.00  0.00     0.029 A 
ATOM     61  N   UNL A   1      47.583  29.494  27.205  1.00  0.00    -0.354 N 
ATOM     62  N   UNL A   1      44.730  29.537  27.908  1.00  0.00    -0.248 NA
ATOM     63  C   UNL A   1      42.880  30.628  28.823  1.00  0.00     0.031 C 
ATOM     64  C   UNL A   1      48.779  31.332  27.550  1.00  0.00     0.029 A 
ATOM     65  C   UNL A   1      47.510  30.792  27.683  1.00  0.00     0.049 A 
ATOM     66  H   UNL A   1      46.832  28.858  27.177  1.00  0.00     0.167 HD
ATOM     67  C   UNL A   1      45.104  30.819  28.290  1.00  0.00     0.074 A 
ATOM     68  C   UNL A   1      43.915  31.456  28.820  1.00  0.00     0.031 C 
ATOM     69  C   UNL A   1      46.319  31.415  28.206  1.00  0.00     0.037 A 
BRANCH  56  70
ATOM     70  C   UNL A   1      50.760  27.774  25.895  1.00  0.00     0.057 A 
ATOM     71  C   UNL A   1      51.725  27.447  26.860  1.00  0.00     0.134 A 
ATOM     72  C   UNL A   1      51.200  27.932  24.576  1.00  0.00     0.134 A 
ATOM     73  F   UNL A   1      51.376  27.292  28.146  1.00  0.00    -0.206 F 
ATOM     74  C   UNL A   1      53.076  27.328  26.531  1.00  0.00     0.040 A 
ATOM     75  C   UNL A   1      52.544  27.780  24.229  1.00  0.00     0.040 A 
ATOM     76  F   UNL A   1      50.331  28.238  23.599  1.00  0.00    -0.206 F 
ATOM     77  C   UNL A   1      53.488  27.490  25.212  1.00  0.00     0.006 A 
ENDBRANCH  56  70
BRANCH  57  78
ATOM     78  C   UNL A   1      41.086  28.368  28.329  1.00  0.00     0.057 A 
ATOM     79  C   UNL A   1      40.639  27.983  29.598  1.00  0.00     0.134 A 
ATOM     80  C   UNL A   1      40.130  28.853  27.428  1.00  0.00     0.134 A 
ATOM     81  F   UNL A   1      41.504  27.494  30.500  1.00  0.00    -0.206 F 
ATOM     82  C   UNL A   1      39.292  28.062  29.954  1.00  0.00     0.040 A 
ATOM     83  C   UNL A   1      38.785  28.963  27.779  1.00  0.00     0.040 A 
ATOM     84  F   UNL A   1      40.497  29.247  26.199  1.00  0.00    -0.206 F 
ATOM     85  C   UNL A   1      38.361  28.561  29.044  1.00  0.00     0.006 A 
ENDBRANCH  57  78
BRANCH  69  86
ATOM     86  C   UNL A   1      46.418  32.843  28.662  1.00  0.00     0.057 A 
ATOM     87  C   UNL A   1      46.791  33.183  29.969  1.00  0.00     0.134 A 
ATOM     88  C   UNL A   1      46.176  33.893  27.765  1.00  0.00     0.134 A 
ATOM     89  F   UNL A   1      47.025  32.226  30.880  1.00  0.00    -0.206 F 
ATOM     90  C   UNL A   1      46.895  34.515  30.373  1.00  0.00     0.040 A 
ATOM     91  C   UNL A   1      46.308  35.227  28.150  1.00  0.00     0.040 A 
ATOM     92  F   UNL A   1      45.824  33.638  26.496  1.00  0.00    -0.206 F 
ATOM     93  C   UNL A   1      46.662  35.541  29.460  1.00  0.00     0.006 A 
ENDBRANCH  69  86
ENDBRANCH  43  44
ENDBRANCH  35  38
ENDBRANCH  33  34
ENDBRANCH  32  33
ENDBRANCH  31  32
ENDBRANCH   1  31
TORSDOF 17
ENDMDL
