MODEL 1
REMARK VINA RESULT:     -11.7      0.000      0.000
REMARK SMILES O=C(CC[NH+]1CCC(n2nccc2NC(=O)c2ccccc2Cl)CC1)NCCCCCCNC(=O)c1ccc(-c2c3nc(c(-c4c(F)cccc4F)c4ccc([nH]4)c(-c4c(F)cccc4F)c4nc(c(-c5c(F)cccc5F)c5ccc2[nH]5)C=C4)C=C3)cc1
REMARK SMILES IDX 28 1 27 2 26 3 1 4 2 5 3 7 4 8 5 9 6 10 25 11 7 13 24 14
REMARK SMILES IDX 8 15 9 16 10 17 13 18 11 19 12 20 14 21 15 22 16 24 17 25
REMARK SMILES IDX 18 26 22 27 19 28 21 29 23 30 20 31 29 32 30 33 31 34 32 35
REMARK SMILES IDX 33 36 34 37 35 39 36 40 37 41 89 42 38 43 88 44 39 45 40 46
REMARK SMILES IDX 41 47 82 48 42 49 87 50 81 51 83 52 43 53 86 54 80 55 79 56
REMARK SMILES IDX 44 58 70 59 53 60 69 61 54 62 57 63 68 64 84 65 55 66 56 67
REMARK SMILES IDX 67 69 85 70 58 71 45 72 46 73 51 74 47 75 48 76 50 77 52 78
REMARK SMILES IDX 49 79 71 80 72 81 77 82 73 83 74 84 76 85 78 86 75 87 59 88
REMARK SMILES IDX 60 89 65 90 61 91 62 92 64 93 66 94 63 95
REMARK H PARENT 26 6 5 12 14 23 33 38 83 57 57 68
REMARK Flexibility Score: inf
ROOT
ATOM      1  C   UNL A   1      38.687  23.012  26.460  1.00  0.00     0.021 C 
ENDROOT
BRANCH   1   2
ATOM      2  C   UNL A   1      37.574  22.328  25.654  1.00  0.00     0.116 C 
BRANCH   2   3
ATOM      3  N   UNL A   1      36.218  22.570  26.128  1.00  0.00    -0.356 N 
ATOM      4  O   UNL A   1      35.297  21.036  24.693  1.00  0.00    -0.275 OA
ATOM      5  C   UNL A   1      35.173  21.781  25.660  1.00  0.00     0.225 C 
ATOM      6  H   UNL A   1      36.043  23.289  26.777  1.00  0.00     0.163 HD
BRANCH   5   7
ATOM      7  C   UNL A   1      33.901  21.787  26.504  1.00  0.00     0.161 C 
BRANCH   7   8
ATOM      8  C   UNL A   1      32.664  21.421  25.634  1.00  0.00     0.272 C 
BRANCH   8   9
ATOM      9  N   UNL A   1      31.718  22.505  25.231  1.00  0.00    -0.334 N 
ATOM     10  C   UNL A   1      31.923  23.718  26.053  1.00  0.00     0.264 C 
ATOM     11  C   UNL A   1      31.833  22.822  23.824  1.00  0.00     0.264 C 
ATOM     12  H   UNL A   1      30.772  22.158  25.394  1.00  0.00     0.348 HD
ATOM     13  C   UNL A   1      31.049  24.914  25.619  1.00  0.00     0.089 C 
ATOM     14  C   UNL A   1      30.886  23.891  23.375  1.00  0.00     0.089 C 
ATOM     15  C   UNL A   1      31.156  25.189  24.108  1.00  0.00     0.121 C 
BRANCH  15  16
ATOM     16  N   UNL A   1      30.320  26.299  23.656  1.00  0.00    -0.246 N 
ATOM     17  N   UNL A   1      29.088  26.387  24.208  1.00  0.00    -0.179 NA
ATOM     18  C   UNL A   1      30.615  27.411  22.868  1.00  0.00     0.131 A 
ATOM     19  C   UNL A   1      28.520  27.408  23.573  1.00  0.00     0.137 A 
ATOM     20  C   UNL A   1      29.394  28.009  22.651  1.00  0.00     0.069 A 
BRANCH  18  21
ATOM     21  N   UNL A   1      31.860  27.832  22.420  1.00  0.00    -0.307 N 
ATOM     22  C   UNL A   1      33.034  28.229  23.119  1.00  0.00     0.258 C 
ATOM     23  H   UNL A   1      31.946  27.861  21.440  1.00  0.00     0.171 HD
ATOM     24  O   UNL A   1      33.995  28.437  22.385  1.00  0.00    -0.269 OA
BRANCH  22  25
ATOM     25  C   UNL A   1      33.135  28.472  24.550  1.00  0.00     0.058 A 
ATOM     26  C   UNL A   1      32.630  29.697  25.006  1.00  0.00     0.015 A 
ATOM     27  C   UNL A   1      33.752  27.592  25.436  1.00  0.00     0.053 A 
ATOM     28  C   UNL A   1      32.684  30.004  26.362  1.00  0.00     0.001 A 
ATOM     29  C   UNL A   1      33.817  27.910  26.792  1.00  0.00     0.021 A 
ATOM     30  Cl  UNL A   1      34.388  26.082  24.937  1.00  0.00    -0.083 Cl
ATOM     31  C   UNL A   1      33.269  29.108  27.255  1.00  0.00     0.002 A 
ENDBRANCH  22  25
ENDBRANCH  18  21
ENDBRANCH  15  16
ENDBRANCH   8   9
ENDBRANCH   7   8
ENDBRANCH   5   7
ENDBRANCH   2   3
ENDBRANCH   1   2
BRANCH   1  32
ATOM     32  C   UNL A   1      39.810  22.121  27.016  1.00  0.00     0.002 C 
BRANCH  32  33
ATOM     33  C   UNL A   1      40.780  21.482  26.006  1.00  0.00     0.002 C 
BRANCH  33  34
ATOM     34  C   UNL A   1      41.304  20.068  26.293  1.00  0.00     0.021 C 
BRANCH  34  35
ATOM     35  C   UNL A   1      42.738  19.980  26.808  1.00  0.00     0.116 C 
BRANCH  35  36
ATOM     36  N   UNL A   1      43.717  19.700  25.758  1.00  0.00    -0.352 N 
ATOM     37  C   UNL A   1      44.313  20.582  24.869  1.00  0.00     0.251 C 
ATOM     38  H   UNL A   1      43.988  18.757  25.668  1.00  0.00     0.163 HD
ATOM     39  O   UNL A   1      44.769  20.219  23.799  1.00  0.00    -0.269 OA
BRANCH  37  40
ATOM     40  C   UNL A   1      44.402  21.996  25.239  1.00  0.00     0.039 A 
ATOM     41  C   UNL A   1      43.544  22.925  24.648  1.00  0.00     0.014 A 
ATOM     42  C   UNL A   1      45.311  22.361  26.225  1.00  0.00     0.014 A 
ATOM     43  C   UNL A   1      43.508  24.210  25.162  1.00  0.00     0.010 A 
ATOM     44  C   UNL A   1      45.175  23.581  26.827  1.00  0.00     0.010 A 
ATOM     45  C   UNL A   1      44.291  24.512  26.285  1.00  0.00    -0.014 A 
BRANCH  45  46
ATOM     46  C   UNL A   1      44.047  25.737  27.026  1.00  0.00     0.031 A 
ATOM     47  C   UNL A   1      45.028  26.817  26.729  1.00  0.00     0.074 A 
ATOM     48  C   UNL A   1      42.903  25.952  27.706  1.00  0.00     0.049 A 
ATOM     49  N   UNL A   1      45.943  27.289  27.507  1.00  0.00    -0.248 NA
ATOM     50  C   UNL A   1      45.122  27.307  25.342  1.00  0.00     0.031 C 
ATOM     51  C   UNL A   1      41.718  25.087  27.771  1.00  0.00     0.029 A 
ATOM     52  N   UNL A   1      42.512  27.054  28.396  1.00  0.00    -0.354 N 
ATOM     53  C   UNL A   1      46.570  28.303  26.784  1.00  0.00     0.074 A 
ATOM     54  C   UNL A   1      46.186  28.111  25.413  1.00  0.00     0.031 C 
ATOM     55  C   UNL A   1      40.674  25.788  28.261  1.00  0.00     0.029 A 
ATOM     56  C   UNL A   1      41.159  27.078  28.710  1.00  0.00     0.049 A 
ATOM     57  H   UNL A   1      43.134  27.773  28.653  1.00  0.00     0.167 HD
ATOM     58  C   UNL A   1      47.100  29.385  27.422  1.00  0.00     0.037 A 
ATOM     59  C   UNL A   1      40.487  28.099  29.290  1.00  0.00     0.037 A 
ATOM     60  C   UNL A   1      47.203  29.126  28.838  1.00  0.00     0.049 A 
ATOM     61  C   UNL A   1      41.490  28.964  29.950  1.00  0.00     0.074 A 
ATOM     62  C   UNL A   1      47.929  28.275  29.644  1.00  0.00     0.029 A 
ATOM     63  N   UNL A   1      46.140  29.571  29.582  1.00  0.00    -0.354 N 
ATOM     64  N   UNL A   1      42.200  28.591  30.978  1.00  0.00    -0.248 NA
ATOM     65  C   UNL A   1      42.001  30.121  29.230  1.00  0.00     0.031 C 
ATOM     66  C   UNL A   1      47.076  27.978  30.749  1.00  0.00     0.029 A 
ATOM     67  C   UNL A   1      45.889  28.701  30.607  1.00  0.00     0.049 A 
ATOM     68  H   UNL A   1      45.632  30.396  29.404  1.00  0.00     0.167 HD
ATOM     69  C   UNL A   1      43.441  29.171  30.777  1.00  0.00     0.074 A 
ATOM     70  C   UNL A   1      43.208  30.222  29.793  1.00  0.00     0.031 C 
ATOM     71  C   UNL A   1      44.577  28.538  31.197  1.00  0.00     0.037 A 
BRANCH  58  72
ATOM     72  C   UNL A   1      47.069  30.811  26.895  1.00  0.00     0.057 A 
ATOM     73  C   UNL A   1      48.248  31.581  26.969  1.00  0.00     0.134 A 
ATOM     74  C   UNL A   1      45.901  31.551  26.618  1.00  0.00     0.134 A 
ATOM     75  F   UNL A   1      49.433  31.006  27.223  1.00  0.00    -0.206 F 
ATOM     76  C   UNL A   1      48.246  32.980  26.877  1.00  0.00     0.040 A 
ATOM     77  C   UNL A   1      45.897  32.942  26.477  1.00  0.00     0.040 A 
ATOM     78  F   UNL A   1      44.686  30.998  26.568  1.00  0.00    -0.206 F 
ATOM     79  C   UNL A   1      47.064  33.667  26.641  1.00  0.00     0.006 A 
ENDBRANCH  58  72
BRANCH  59  80
ATOM     80  C   UNL A   1      39.075  28.500  29.123  1.00  0.00     0.057 A 
ATOM     81  C   UNL A   1      38.196  28.526  30.213  1.00  0.00     0.134 A 
ATOM     82  C   UNL A   1      38.631  29.134  27.950  1.00  0.00     0.134 A 
ATOM     83  F   UNL A   1      38.547  27.973  31.382  1.00  0.00    -0.206 F 
ATOM     84  C   UNL A   1      36.958  29.178  30.153  1.00  0.00     0.040 A 
ATOM     85  C   UNL A   1      37.396  29.785  27.876  1.00  0.00     0.040 A 
ATOM     86  F   UNL A   1      39.420  29.218  26.867  1.00  0.00    -0.206 F 
ATOM     87  C   UNL A   1      36.562  29.824  28.986  1.00  0.00     0.006 A 
ENDBRANCH  59  80
BRANCH  71  88
ATOM     88  C   UNL A   1      44.419  27.450  32.221  1.00  0.00     0.057 A 
ATOM     89  C   UNL A   1      44.336  26.080  31.930  1.00  0.00     0.134 A 
ATOM     90  C   UNL A   1      44.460  27.805  33.574  1.00  0.00     0.134 A 
ATOM     91  F   UNL A   1      44.378  25.634  30.669  1.00  0.00    -0.206 F 
ATOM     92  C   UNL A   1      44.256  25.115  32.938  1.00  0.00     0.040 A 
ATOM     93  C   UNL A   1      44.417  26.850  34.590  1.00  0.00     0.040 A 
ATOM     94  F   UNL A   1      44.588  29.093  33.930  1.00  0.00    -0.206 F 
ATOM     95  C   UNL A   1      44.302  25.498  34.274  1.00  0.00     0.006 A 
ENDBRANCH  71  88
ENDBRANCH  45  46
ENDBRANCH  37  40
ENDBRANCH  35  36
ENDBRANCH  34  35
ENDBRANCH  33  34
ENDBRANCH  32  33
ENDBRANCH   1  32
TORSDOF 18
ENDMDL
MODEL 2
REMARK VINA RESULT:     -11.7      1.689      2.585
REMARK SMILES O=C(CC[NH+]1CCC(n2nccc2NC(=O)c2ccccc2Cl)CC1)NCCCCCCNC(=O)c1ccc(-c2c3nc(c(-c4c(F)cccc4F)c4ccc([nH]4)c(-c4c(F)cccc4F)c4nc(c(-c5c(F)cccc5F)c5ccc2[nH]5)C=C4)C=C3)cc1
REMARK SMILES IDX 28 1 27 2 26 3 1 4 2 5 3 7 4 8 5 9 6 10 25 11 7 13 24 14
REMARK SMILES IDX 8 15 9 16 10 17 13 18 11 19 12 20 14 21 15 22 16 24 17 25
REMARK SMILES IDX 18 26 22 27 19 28 21 29 23 30 20 31 29 32 30 33 31 34 32 35
REMARK SMILES IDX 33 36 34 37 35 39 36 40 37 41 89 42 38 43 88 44 39 45 40 46
REMARK SMILES IDX 41 47 82 48 42 49 87 50 81 51 83 52 43 53 86 54 80 55 79 56
REMARK SMILES IDX 44 58 70 59 53 60 69 61 54 62 57 63 68 64 84 65 55 66 56 67
REMARK SMILES IDX 67 69 85 70 58 71 45 72 46 73 51 74 47 75 48 76 50 77 52 78
REMARK SMILES IDX 49 79 71 80 72 81 77 82 73 83 74 84 76 85 78 86 75 87 59 88
REMARK SMILES IDX 60 89 65 90 61 91 62 92 64 93 66 94 63 95
REMARK H PARENT 26 6 5 12 14 23 33 38 83 57 57 68
REMARK Flexibility Score: inf
ROOT
ATOM      1  C   UNL A   1      39.106  22.331  26.374  1.00  0.00     0.021 C 
ENDROOT
BRANCH   1   2
ATOM      2  C   UNL A   1      38.251  21.543  25.370  1.00  0.00     0.116 C 
BRANCH   2   3
ATOM      3  N   UNL A   1      36.905  22.055  25.157  1.00  0.00    -0.356 N 
ATOM      4  O   UNL A   1      36.005  19.961  24.896  1.00  0.00    -0.275 OA
ATOM      5  C   UNL A   1      35.840  21.168  25.050  1.00  0.00     0.225 C 
ATOM      6  H   UNL A   1      36.749  23.024  25.091  1.00  0.00     0.163 HD
BRANCH   5   7
ATOM      7  C   UNL A   1      34.451  21.759  25.275  1.00  0.00     0.161 C 
BRANCH   7   8
ATOM      8  C   UNL A   1      34.170  22.902  24.257  1.00  0.00     0.272 C 
BRANCH   8   9
ATOM      9  N   UNL A   1      34.040  24.303  24.761  1.00  0.00    -0.334 N 
ATOM     10  C   UNL A   1      33.972  25.265  23.638  1.00  0.00     0.264 C 
ATOM     11  C   UNL A   1      32.893  24.457  25.629  1.00  0.00     0.264 C 
ATOM     12  H   UNL A   1      34.875  24.506  25.311  1.00  0.00     0.348 HD
ATOM     13  C   UNL A   1      33.731  26.722  24.086  1.00  0.00     0.089 C 
ATOM     14  C   UNL A   1      32.740  25.844  26.172  1.00  0.00     0.089 C 
ATOM     15  C   UNL A   1      32.536  26.840  25.049  1.00  0.00     0.121 C 
BRANCH  15  16
ATOM     16  N   UNL A   1      32.296  28.204  25.516  1.00  0.00    -0.246 N 
ATOM     17  N   UNL A   1      32.738  28.501  26.759  1.00  0.00    -0.179 NA
ATOM     18  C   UNL A   1      31.834  29.337  24.846  1.00  0.00     0.131 A 
ATOM     19  C   UNL A   1      32.323  29.748  26.962  1.00  0.00     0.137 A 
ATOM     20  C   UNL A   1      31.659  30.273  25.841  1.00  0.00     0.069 A 
BRANCH  18  21
ATOM     21  N   UNL A   1      31.617  29.493  23.484  1.00  0.00    -0.307 N 
ATOM     22  C   UNL A   1      30.470  29.265  22.675  1.00  0.00     0.258 C 
ATOM     23  H   UNL A   1      32.401  29.821  22.987  1.00  0.00     0.171 HD
ATOM     24  O   UNL A   1      30.612  29.618  21.509  1.00  0.00    -0.269 OA
BRANCH  22  25
ATOM     25  C   UNL A   1      29.245  28.601  23.098  1.00  0.00     0.058 A 
ATOM     26  C   UNL A   1      29.370  27.257  23.476  1.00  0.00     0.015 A 
ATOM     27  C   UNL A   1      27.993  29.212  23.075  1.00  0.00     0.053 A 
ATOM     28  C   UNL A   1      28.247  26.552  23.899  1.00  0.00     0.001 A 
ATOM     29  C   UNL A   1      26.868  28.497  23.484  1.00  0.00     0.021 A 
ATOM     30  Cl  UNL A   1      27.780  30.849  22.620  1.00  0.00    -0.083 Cl
ATOM     31  C   UNL A   1      26.999  27.174  23.910  1.00  0.00     0.002 A 
ENDBRANCH  22  25
ENDBRANCH  18  21
ENDBRANCH  15  16
ENDBRANCH   8   9
ENDBRANCH   7   8
ENDBRANCH   5   7
ENDBRANCH   2   3
ENDBRANCH   1   2
BRANCH   1  32
ATOM     32  C   UNL A   1      40.235  21.575  27.092  1.00  0.00     0.002 C 
BRANCH  32  33
ATOM     33  C   UNL A   1      41.498  21.239  26.278  1.00  0.00     0.002 C 
BRANCH  33  34
ATOM     34  C   UNL A   1      41.749  19.774  25.892  1.00  0.00     0.021 C 
BRANCH  34  35
ATOM     35  C   UNL A   1      43.166  19.258  26.123  1.00  0.00     0.116 C 
BRANCH  35  36
ATOM     36  N   UNL A   1      43.930  19.085  24.886  1.00  0.00    -0.352 N 
ATOM     37  C   UNL A   1      44.434  20.056  24.035  1.00  0.00     0.251 C 
ATOM     38  H   UNL A   1      44.109  18.153  24.623  1.00  0.00     0.163 HD
ATOM     39  O   UNL A   1      44.673  19.832  22.861  1.00  0.00    -0.269 OA
BRANCH  37  40
ATOM     40  C   UNL A   1      44.692  21.394  24.571  1.00  0.00     0.039 A 
ATOM     41  C   UNL A   1      44.121  22.512  23.960  1.00  0.00     0.014 A 
ATOM     42  C   UNL A   1      45.460  21.502  25.725  1.00  0.00     0.014 A 
ATOM     43  C   UNL A   1      44.211  23.734  24.604  1.00  0.00     0.010 A 
ATOM     44  C   UNL A   1      45.425  22.671  26.432  1.00  0.00     0.010 A 
ATOM     45  C   UNL A   1      44.821  23.791  25.865  1.00  0.00    -0.014 A 
BRANCH  45  46
ATOM     46  C   UNL A   1      44.659  24.975  26.691  1.00  0.00     0.031 A 
ATOM     47  C   UNL A   1      45.757  25.967  26.532  1.00  0.00     0.074 A 
ATOM     48  C   UNL A   1      43.505  25.255  27.330  1.00  0.00     0.049 A 
ATOM     49  N   UNL A   1      46.669  26.281  27.389  1.00  0.00    -0.248 NA
ATOM     50  C   UNL A   1      45.978  26.550  25.196  1.00  0.00     0.031 C 
ATOM     51  C   UNL A   1      42.238  24.514  27.267  1.00  0.00     0.029 A 
ATOM     52  N   UNL A   1      43.187  26.334  28.089  1.00  0.00    -0.354 N 
ATOM     53  C   UNL A   1      47.434  27.277  26.783  1.00  0.00     0.074 A 
ATOM     54  C   UNL A   1      47.111  27.231  25.384  1.00  0.00     0.031 C 
ATOM     55  C   UNL A   1      41.243  25.280  27.762  1.00  0.00     0.029 A 
ATOM     56  C   UNL A   1      41.828  26.474  28.338  1.00  0.00     0.049 A 
ATOM     57  H   UNL A   1      43.862  26.963  28.434  1.00  0.00     0.167 HD
ATOM     58  C   UNL A   1      48.032  28.245  27.533  1.00  0.00     0.037 A 
ATOM     59  C   UNL A   1      41.229  27.512  28.967  1.00  0.00     0.037 A 
ATOM     60  C   UNL A   1      48.029  27.869  28.926  1.00  0.00     0.049 A 
ATOM     61  C   UNL A   1      42.275  28.215  29.743  1.00  0.00     0.074 A 
ATOM     62  C   UNL A   1      48.620  26.889  29.693  1.00  0.00     0.029 A 
ATOM     63  N   UNL A   1      46.975  28.364  29.651  1.00  0.00    -0.354 N 
ATOM     64  N   UNL A   1      42.885  27.692  30.771  1.00  0.00    -0.248 NA
ATOM     65  C   UNL A   1      42.938  29.365  29.146  1.00  0.00     0.031 C 
ATOM     66  C   UNL A   1      47.681  26.597  30.728  1.00  0.00     0.029 A 
ATOM     67  C   UNL A   1      46.582  27.448  30.588  1.00  0.00     0.049 A 
ATOM     68  H   UNL A   1      46.562  29.248  29.518  1.00  0.00     0.167 HD
ATOM     69  C   UNL A   1      44.187  28.155  30.678  1.00  0.00     0.074 A 
ATOM     70  C   UNL A   1      44.116  29.297  29.773  1.00  0.00     0.031 C 
ATOM     71  C   UNL A   1      45.229  27.378  31.098  1.00  0.00     0.037 A 
BRANCH  58  72
ATOM     72  C   UNL A   1      48.173  29.703  27.123  1.00  0.00     0.057 A 
ATOM     73  C   UNL A   1      49.458  30.284  27.135  1.00  0.00     0.134 A 
ATOM     74  C   UNL A   1      47.113  30.627  27.027  1.00  0.00     0.134 A 
ATOM     75  F   UNL A   1      50.559  29.522  27.221  1.00  0.00    -0.206 F 
ATOM     76  C   UNL A   1      49.663  31.671  27.153  1.00  0.00     0.040 A 
ATOM     77  C   UNL A   1      47.309  32.011  26.995  1.00  0.00     0.040 A 
ATOM     78  F   UNL A   1      45.827  30.263  27.059  1.00  0.00    -0.206 F 
ATOM     79  C   UNL A   1      48.583  32.541  27.094  1.00  0.00     0.006 A 
ENDBRANCH  58  72
BRANCH  59  80
ATOM     80  C   UNL A   1      39.876  28.069  28.765  1.00  0.00     0.057 A 
ATOM     81  C   UNL A   1      38.934  28.074  29.801  1.00  0.00     0.134 A 
ATOM     82  C   UNL A   1      39.572  28.859  27.643  1.00  0.00     0.134 A 
ATOM     83  F   UNL A   1      39.152  27.373  30.922  1.00  0.00    -0.206 F 
ATOM     84  C   UNL A   1      37.770  28.850  29.742  1.00  0.00     0.040 A 
ATOM     85  C   UNL A   1      38.412  29.637  27.571  1.00  0.00     0.040 A 
ATOM     86  F   UNL A   1      40.435  28.972  26.622  1.00  0.00    -0.206 F 
ATOM     87  C   UNL A   1      37.514  29.648  28.631  1.00  0.00     0.006 A 
ENDBRANCH  59  80
BRANCH  71  88
ATOM     88  C   UNL A   1      44.905  26.236  32.021  1.00  0.00     0.057 A 
ATOM     89  C   UNL A   1      44.665  24.916  31.611  1.00  0.00     0.134 A 
ATOM     90  C   UNL A   1      44.946  26.469  33.401  1.00  0.00     0.134 A 
ATOM     91  F   UNL A   1      44.692  24.575  30.318  1.00  0.00    -0.206 F 
ATOM     92  C   UNL A   1      44.435  23.888  32.529  1.00  0.00     0.040 A 
ATOM     93  C   UNL A   1      44.753  25.446  34.329  1.00  0.00     0.040 A 
ATOM     94  F   UNL A   1      45.219  27.697  33.869  1.00  0.00    -0.206 F 
ATOM     95  C   UNL A   1      44.484  24.150  33.895  1.00  0.00     0.006 A 
ENDBRANCH  71  88
ENDBRANCH  45  46
ENDBRANCH  37  40
ENDBRANCH  35  36
ENDBRANCH  34  35
ENDBRANCH  33  34
ENDBRANCH  32  33
ENDBRANCH   1  32
TORSDOF 18
ENDMDL
MODEL 3
REMARK VINA RESULT:     -10.8      1.485      2.446
REMARK SMILES O=C(CC[NH+]1CCC(n2nccc2NC(=O)c2ccccc2Cl)CC1)NCCCCCCNC(=O)c1ccc(-c2c3nc(c(-c4c(F)cccc4F)c4ccc([nH]4)c(-c4c(F)cccc4F)c4nc(c(-c5c(F)cccc5F)c5ccc2[nH]5)C=C4)C=C3)cc1
REMARK SMILES IDX 28 1 27 2 26 3 1 4 2 5 3 7 4 8 5 9 6 10 25 11 7 13 24 14
REMARK SMILES IDX 8 15 9 16 10 17 13 18 11 19 12 20 14 21 15 22 16 24 17 25
REMARK SMILES IDX 18 26 22 27 19 28 21 29 23 30 20 31 29 32 30 33 31 34 32 35
REMARK SMILES IDX 33 36 34 37 35 39 36 40 37 41 89 42 38 43 88 44 39 45 40 46
REMARK SMILES IDX 41 47 82 48 42 49 87 50 81 51 83 52 43 53 86 54 80 55 79 56
REMARK SMILES IDX 44 58 70 59 53 60 69 61 54 62 57 63 68 64 84 65 55 66 56 67
REMARK SMILES IDX 67 69 85 70 58 71 45 72 46 73 51 74 47 75 48 76 50 77 52 78
REMARK SMILES IDX 49 79 71 80 72 81 77 82 73 83 74 84 76 85 78 86 75 87 59 88
REMARK SMILES IDX 60 89 65 90 61 91 62 92 64 93 66 94 63 95
REMARK H PARENT 26 6 5 12 14 23 33 38 83 57 57 68
REMARK Flexibility Score: inf
ROOT
ATOM      1  C   UNL A   1      41.459  21.917  26.302  1.00  0.00     0.021 C 
ENDROOT
BRANCH   1   2
ATOM      2  C   UNL A   1      40.137  22.404  26.912  1.00  0.00     0.116 C 
BRANCH   2   3
ATOM      3  N   UNL A   1      38.956  21.640  26.536  1.00  0.00    -0.356 N 
ATOM      4  O   UNL A   1      37.956  23.434  25.513  1.00  0.00    -0.275 OA
ATOM      5  C   UNL A   1      37.983  22.227  25.734  1.00  0.00     0.225 C 
ATOM      6  H   UNL A   1      38.847  20.713  26.846  1.00  0.00     0.163 HD
BRANCH   5   7
ATOM      7  C   UNL A   1      37.030  21.267  25.028  1.00  0.00     0.161 C 
BRANCH   7   8
ATOM      8  C   UNL A   1      35.585  21.418  25.585  1.00  0.00     0.272 C 
BRANCH   8   9
ATOM      9  N   UNL A   1      35.030  22.790  25.793  1.00  0.00    -0.334 N 
ATOM     10  C   UNL A   1      34.854  23.490  24.501  1.00  0.00     0.264 C 
ATOM     11  C   UNL A   1      33.783  22.759  26.525  1.00  0.00     0.264 C 
ATOM     12  H   UNL A   1      35.706  23.309  26.354  1.00  0.00     0.348 HD
ATOM     13  C   UNL A   1      34.185  24.874  24.634  1.00  0.00     0.089 C 
ATOM     14  C   UNL A   1      33.204  24.118  26.772  1.00  0.00     0.089 C 
ATOM     15  C   UNL A   1      32.890  24.812  25.463  1.00  0.00     0.121 C 
BRANCH  15  16
ATOM     16  N   UNL A   1      32.243  26.112  25.633  1.00  0.00    -0.246 N 
ATOM     17  N   UNL A   1      32.434  26.728  26.822  1.00  0.00    -0.179 NA
ATOM     18  C   UNL A   1      31.587  26.939  24.721  1.00  0.00     0.131 A 
ATOM     19  C   UNL A   1      31.683  27.823  26.745  1.00  0.00     0.137 A 
ATOM     20  C   UNL A   1      31.050  27.942  25.497  1.00  0.00     0.069 A 
BRANCH  18  21
ATOM     21  N   UNL A   1      31.508  26.794  23.343  1.00  0.00    -0.307 N 
ATOM     22  C   UNL A   1      30.749  27.487  22.360  1.00  0.00     0.258 C 
ATOM     23  H   UNL A   1      32.082  26.082  22.980  1.00  0.00     0.171 HD
ATOM     24  O   UNL A   1      31.017  27.156  21.209  1.00  0.00    -0.269 OA
BRANCH  22  25
ATOM     25  C   UNL A   1      29.682  28.441  22.620  1.00  0.00     0.058 A 
ATOM     26  C   UNL A   1      29.934  29.768  22.248  1.00  0.00     0.015 A 
ATOM     27  C   UNL A   1      28.492  28.105  23.263  1.00  0.00     0.053 A 
ATOM     28  C   UNL A   1      28.963  30.742  22.458  1.00  0.00     0.001 A 
ATOM     29  C   UNL A   1      27.527  29.087  23.486  1.00  0.00     0.021 A 
ATOM     30  Cl  UNL A   1      28.129  26.502  23.742  1.00  0.00    -0.083 Cl
ATOM     31  C   UNL A   1      27.757  30.399  23.069  1.00  0.00     0.002 A 
ENDBRANCH  22  25
ENDBRANCH  18  21
ENDBRANCH  15  16
ENDBRANCH   8   9
ENDBRANCH   7   8
ENDBRANCH   5   7
ENDBRANCH   2   3
ENDBRANCH   1   2
BRANCH   1  32
ATOM     32  C   UNL A   1      42.241  20.839  27.069  1.00  0.00     0.002 C 
BRANCH  32  33
ATOM     33  C   UNL A   1      42.308  19.431  26.452  1.00  0.00     0.002 C 
BRANCH  33  34
ATOM     34  C   UNL A   1      43.581  19.025  25.696  1.00  0.00     0.021 C 
BRANCH  34  35
ATOM     35  C   UNL A   1      43.940  19.884  24.486  1.00  0.00     0.116 C 
BRANCH  35  36
ATOM     36  N   UNL A   1      45.355  20.256  24.437  1.00  0.00    -0.352 N 
ATOM     37  C   UNL A   1      45.930  21.504  24.617  1.00  0.00     0.251 C 
ATOM     38  H   UNL A   1      45.982  19.521  24.248  1.00  0.00     0.163 HD
ATOM     39  O   UNL A   1      47.021  21.791  24.156  1.00  0.00    -0.269 OA
BRANCH  37  40
ATOM     40  C   UNL A   1      45.201  22.506  25.396  1.00  0.00     0.039 A 
ATOM     41  C   UNL A   1      45.363  22.565  26.782  1.00  0.00     0.014 A 
ATOM     42  C   UNL A   1      44.405  23.419  24.712  1.00  0.00     0.014 A 
ATOM     43  C   UNL A   1      44.828  23.645  27.464  1.00  0.00     0.010 A 
ATOM     44  C   UNL A   1      44.003  24.555  25.357  1.00  0.00     0.010 A 
ATOM     45  C   UNL A   1      44.194  24.660  26.733  1.00  0.00    -0.014 A 
BRANCH  45  46
ATOM     46  C   UNL A   1      43.902  25.932  27.371  1.00  0.00     0.031 A 
ATOM     47  C   UNL A   1      44.862  27.012  27.010  1.00  0.00     0.074 A 
ATOM     48  C   UNL A   1      42.738  26.169  28.009  1.00  0.00     0.049 A 
ATOM     49  N   UNL A   1      45.747  27.568  27.766  1.00  0.00    -0.248 NA
ATOM     50  C   UNL A   1      44.974  27.395  25.591  1.00  0.00     0.031 C 
ATOM     51  C   UNL A   1      41.575  25.280  28.118  1.00  0.00     0.029 A 
ATOM     52  N   UNL A   1      42.304  27.310  28.603  1.00  0.00    -0.354 N 
ATOM     53  C   UNL A   1      46.364  28.539  26.979  1.00  0.00     0.074 A 
ATOM     54  C   UNL A   1      46.016  28.230  25.620  1.00  0.00     0.031 C 
ATOM     55  C   UNL A   1      40.503  25.988  28.531  1.00  0.00     0.029 A 
ATOM     56  C   UNL A   1      40.945  27.322  28.887  1.00  0.00     0.049 A 
ATOM     57  H   UNL A   1      42.902  28.063  28.815  1.00  0.00     0.167 HD
ATOM     58  C   UNL A   1      46.852  29.681  27.540  1.00  0.00     0.037 A 
ATOM     59  C   UNL A   1      40.234  28.366  29.372  1.00  0.00     0.037 A 
ATOM     60  C   UNL A   1      46.931  29.536  28.974  1.00  0.00     0.049 A 
ATOM     61  C   UNL A   1      41.201  29.306  29.981  1.00  0.00     0.074 A 
ATOM     62  C   UNL A   1      47.661  28.770  29.858  1.00  0.00     0.029 A 
ATOM     63  N   UNL A   1      45.841  30.009  29.659  1.00  0.00    -0.354 N 
ATOM     64  N   UNL A   1      41.898  29.034  31.050  1.00  0.00    -0.248 NA
ATOM     65  C   UNL A   1      41.698  30.417  29.183  1.00  0.00     0.031 C 
ATOM     66  C   UNL A   1      46.792  28.537  30.966  1.00  0.00     0.029 A 
ATOM     67  C   UNL A   1      45.590  29.214  30.744  1.00  0.00     0.049 A 
ATOM     68  H   UNL A   1      45.316  30.803  29.407  1.00  0.00     0.167 HD
ATOM     69  C   UNL A   1      43.128  29.630  30.829  1.00  0.00     0.074 A 
ATOM     70  C   UNL A   1      42.890  30.595  29.760  1.00  0.00     0.031 C 
ATOM     71  C   UNL A   1      44.270  29.063  31.319  1.00  0.00     0.037 A 
BRANCH  58  72
ATOM     72  C   UNL A   1      46.797  31.060  26.902  1.00  0.00     0.057 A 
ATOM     73  C   UNL A   1      47.967  31.847  26.899  1.00  0.00     0.134 A 
ATOM     74  C   UNL A   1      45.617  31.762  26.584  1.00  0.00     0.134 A 
ATOM     75  F   UNL A   1      49.162  31.308  27.182  1.00  0.00    -0.206 F 
ATOM     76  C   UNL A   1      47.946  33.235  26.697  1.00  0.00     0.040 A 
ATOM     77  C   UNL A   1      45.593  33.138  26.333  1.00  0.00     0.040 A 
ATOM     78  F   UNL A   1      44.408  31.193  26.594  1.00  0.00    -0.206 F 
ATOM     79  C   UNL A   1      46.752  33.887  26.423  1.00  0.00     0.006 A 
ENDBRANCH  58  72
BRANCH  59  80
ATOM     80  C   UNL A   1      38.817  28.715  29.145  1.00  0.00     0.057 A 
ATOM     81  C   UNL A   1      37.898  28.730  30.203  1.00  0.00     0.134 A 
ATOM     82  C   UNL A   1      38.395  29.311  27.945  1.00  0.00     0.134 A 
ATOM     83  F   UNL A   1      38.224  28.211  31.394  1.00  0.00    -0.206 F 
ATOM     84  C   UNL A   1      36.642  29.337  30.085  1.00  0.00     0.040 A 
ATOM     85  C   UNL A   1      37.142  29.918  27.813  1.00  0.00     0.040 A 
ATOM     86  F   UNL A   1      39.220  29.403  26.891  1.00  0.00    -0.206 F 
ATOM     87  C   UNL A   1      36.267  29.948  28.892  1.00  0.00     0.006 A 
ENDBRANCH  59  80
BRANCH  71  88
ATOM     88  C   UNL A   1      44.117  28.054  32.422  1.00  0.00     0.057 A 
ATOM     89  C   UNL A   1      44.050  26.665  32.235  1.00  0.00     0.134 A 
ATOM     90  C   UNL A   1      44.146  28.511  33.745  1.00  0.00     0.134 A 
ATOM     91  F   UNL A   1      44.103  26.125  31.012  1.00  0.00    -0.206 F 
ATOM     92  C   UNL A   1      43.974  25.778  33.313  1.00  0.00     0.040 A 
ATOM     93  C   UNL A   1      44.107  27.635  34.830  1.00  0.00     0.040 A 
ATOM     94  F   UNL A   1      44.259  29.824  34.002  1.00  0.00    -0.206 F 
ATOM     95  C   UNL A   1      44.008  26.262  34.617  1.00  0.00     0.006 A 
ENDBRANCH  71  88
ENDBRANCH  45  46
ENDBRANCH  37  40
ENDBRANCH  35  36
ENDBRANCH  34  35
ENDBRANCH  33  34
ENDBRANCH  32  33
ENDBRANCH   1  32
TORSDOF 18
ENDMDL
