MODEL 1
REMARK VINA RESULT:     -11.0      0.000      0.000
REMARK SMILES CC[C@@](C)(C(=O)NCCCCCCNC(=O)c1ccc(-c2c3nc(c(-c4c(F)cccc4F)c4ccc([nH]4)c(-c4c(F)cccc4F)c4nc(c(-c5c(F)cccc5F)c5ccc2[nH]5)C=C4)C=C3)cc1)n1nnnc1Cc1cccs1
REMARK SMILES IDX 10 1 9 2 8 3 7 4 5 5 6 6 3 8 4 9 2 10 1 11 71 12 72 13 75 14
REMARK SMILES IDX 73 15 74 16 76 17 77 18 78 19 81 20 79 21 80 22 11 23 12 24
REMARK SMILES IDX 13 25 14 26 15 27 16 29 17 30 18 31 70 32 19 33 69 34 20 35
REMARK SMILES IDX 21 36 22 37 63 38 23 39 68 40 62 41 64 42 24 43 67 44 61 45
REMARK SMILES IDX 60 46 25 48 51 49 34 50 50 51 35 52 38 53 49 54 65 55 36 56
REMARK SMILES IDX 37 57 48 59 66 60 39 61 26 62 27 63 32 64 28 65 29 66 31 67
REMARK SMILES IDX 33 68 30 69 52 70 53 71 58 72 54 73 55 74 57 75 59 76 56 77
REMARK SMILES IDX 40 78 41 79 46 80 42 81 43 82 45 83 47 84 44 85
REMARK H PARENT 7 7 14 28 64 47 38 58
REMARK Flexibility Score: inf
ROOT
ATOM      1  C   UNL A   1      33.237  30.030  26.735  1.00  0.00     0.002 C 
ENDROOT
BRANCH   1   2
ATOM      2  C   UNL A   1      33.373  28.576  27.201  1.00  0.00     0.021 C 
BRANCH   2   3
ATOM      3  C   UNL A   1      32.221  27.664  26.782  1.00  0.00     0.116 C 
BRANCH   3   4
ATOM      4  N   UNL A   1      32.698  26.452  26.138  1.00  0.00    -0.354 N 
ATOM      5  C   UNL A   1      32.797  26.071  24.835  1.00  0.00     0.247 C 
ATOM      6  O   UNL A   1      33.454  25.040  24.647  1.00  0.00    -0.272 OA
ATOM      7  H   UNL A   1      33.013  25.768  26.773  1.00  0.00     0.163 HD
BRANCH   5   8
ATOM      8  C   UNL A   1      32.206  26.886  23.656  1.00  0.00     0.142 C 
ATOM      9  C   UNL A   1      32.590  26.060  22.397  1.00  0.00     0.048 C 
BRANCH   8  10
ATOM     10  C   UNL A   1      32.718  28.355  23.605  1.00  0.00     0.037 C 
ATOM     11  C   UNL A   1      34.143  28.538  23.094  1.00  0.00     0.007 C 
ENDBRANCH   8  10
BRANCH   8  12
ATOM     12  N   UNL A   1      30.728  26.949  23.781  1.00  0.00    -0.214 N 
ATOM     13  N   UNL A   1      30.093  26.051  24.568  1.00  0.00    -0.044 NA
ATOM     14  C   UNL A   1      29.773  27.666  23.081  1.00  0.00     0.157 A 
ATOM     15  N   UNL A   1      28.800  26.254  24.390  1.00  0.00    -0.024 NA
ATOM     16  N   UNL A   1      28.586  27.250  23.483  1.00  0.00    -0.113 NA
BRANCH  14  17
ATOM     17  C   UNL A   1      30.004  28.753  22.082  1.00  0.00     0.125 C 
BRANCH  17  18
ATOM     18  C   UNL A   1      29.330  30.047  22.450  1.00  0.00     0.012 A 
ATOM     19  C   UNL A   1      29.352  30.714  23.661  1.00  0.00     0.016 A 
ATOM     20  S   UNL A   1      28.430  30.917  21.276  1.00  0.00    -0.148 S 
ATOM     21  C   UNL A   1      28.613  31.931  23.625  1.00  0.00     0.012 A 
ATOM     22  C   UNL A   1      28.057  32.159  22.386  1.00  0.00     0.065 A 
ENDBRANCH  17  18
ENDBRANCH  14  17
ENDBRANCH   8  12
ENDBRANCH   5   8
ENDBRANCH   3   4
ENDBRANCH   2   3
ENDBRANCH   1   2
BRANCH   1  23
ATOM     23  C   UNL A   1      31.801  30.513  26.507  1.00  0.00     0.002 C 
BRANCH  23  24
ATOM     24  C   UNL A   1      31.574  32.011  26.727  1.00  0.00     0.021 C 
BRANCH  24  25
ATOM     25  C   UNL A   1      32.772  32.762  27.302  1.00  0.00     0.116 C 
BRANCH  25  26
ATOM     26  N   UNL A   1      32.453  34.146  27.612  1.00  0.00    -0.352 N 
ATOM     27  C   UNL A   1      32.984  34.970  28.572  1.00  0.00     0.251 C 
ATOM     28  H   UNL A   1      31.752  34.551  27.053  1.00  0.00     0.163 HD
ATOM     29  O   UNL A   1      32.451  36.050  28.820  1.00  0.00    -0.269 OA
BRANCH  27  30
ATOM     30  C   UNL A   1      34.183  34.550  29.329  1.00  0.00     0.039 A 
ATOM     31  C   UNL A   1      34.019  34.048  30.622  1.00  0.00     0.014 A 
ATOM     32  C   UNL A   1      35.460  34.645  28.768  1.00  0.00     0.014 A 
ATOM     33  C   UNL A   1      35.127  33.564  31.321  1.00  0.00     0.010 A 
ATOM     34  C   UNL A   1      36.552  34.100  29.438  1.00  0.00     0.010 A 
ATOM     35  C   UNL A   1      36.394  33.540  30.716  1.00  0.00    -0.014 A 
BRANCH  35  36
ATOM     36  C   UNL A   1      37.547  32.882  31.384  1.00  0.00     0.031 A 
ATOM     37  C   UNL A   1      38.199  31.672  30.778  1.00  0.00     0.074 A 
ATOM     38  C   UNL A   1      37.959  33.343  32.584  1.00  0.00     0.049 A 
ATOM     39  N   UNL A   1      39.171  30.935  31.255  1.00  0.00    -0.248 NA
ATOM     40  C   UNL A   1      37.683  31.215  29.478  1.00  0.00     0.031 C 
ATOM     41  C   UNL A   1      37.373  34.479  33.301  1.00  0.00     0.029 A 
ATOM     42  N   UNL A   1      38.957  32.905  33.419  1.00  0.00    -0.354 N 
ATOM     43  C   UNL A   1      39.375  29.926  30.322  1.00  0.00     0.074 A 
ATOM     44  C   UNL A   1      38.401  30.119  29.270  1.00  0.00     0.031 C 
ATOM     45  C   UNL A   1      38.031  34.657  34.457  1.00  0.00     0.029 A 
ATOM     46  C   UNL A   1      39.053  33.624  34.588  1.00  0.00     0.049 A 
ATOM     47  H   UNL A   1      39.548  32.148  33.203  1.00  0.00     0.167 HD
ATOM     48  C   UNL A   1      40.302  28.939  30.336  1.00  0.00     0.037 A 
ATOM     49  C   UNL A   1      39.860  33.459  35.654  1.00  0.00     0.037 A 
ATOM     50  C   UNL A   1      41.288  28.765  31.372  1.00  0.00     0.049 A 
ATOM     51  C   UNL A   1      40.865  32.340  35.646  1.00  0.00     0.074 A 
ATOM     52  C   UNL A   1      42.320  27.844  31.429  1.00  0.00     0.029 A 
ATOM     53  N   UNL A   1      41.360  29.518  32.533  1.00  0.00    -0.354 N 
ATOM     54  N   UNL A   1      41.107  31.452  34.712  1.00  0.00    -0.248 NA
ATOM     55  C   UNL A   1      41.711  32.200  36.839  1.00  0.00     0.031 C 
ATOM     56  C   UNL A   1      42.977  27.998  32.653  1.00  0.00     0.029 A 
ATOM     57  C   UNL A   1      42.392  29.054  33.332  1.00  0.00     0.049 A 
ATOM     58  H   UNL A   1      40.765  30.271  32.757  1.00  0.00     0.167 HD
ATOM     59  C   UNL A   1      42.145  30.668  35.194  1.00  0.00     0.074 A 
ATOM     60  C   UNL A   1      42.506  31.199  36.491  1.00  0.00     0.031 C 
ATOM     61  C   UNL A   1      42.744  29.596  34.619  1.00  0.00     0.037 A 
BRANCH  48  62
ATOM     62  C   UNL A   1      40.310  27.959  29.199  1.00  0.00     0.057 A 
ATOM     63  C   UNL A   1      39.519  26.804  29.213  1.00  0.00     0.134 A 
ATOM     64  C   UNL A   1      41.043  28.228  28.035  1.00  0.00     0.134 A 
ATOM     65  F   UNL A   1      38.799  26.486  30.299  1.00  0.00    -0.206 F 
ATOM     66  C   UNL A   1      39.462  25.946  28.112  1.00  0.00     0.040 A 
ATOM     67  C   UNL A   1      40.974  27.391  26.919  1.00  0.00     0.040 A 
ATOM     68  F   UNL A   1      41.816  29.322  27.954  1.00  0.00    -0.206 F 
ATOM     69  C   UNL A   1      40.182  26.247  26.956  1.00  0.00     0.006 A 
ENDBRANCH  48  62
BRANCH  49  70
ATOM     70  C   UNL A   1      39.745  34.358  36.833  1.00  0.00     0.057 A 
ATOM     71  C   UNL A   1      40.451  35.566  36.895  1.00  0.00     0.134 A 
ATOM     72  C   UNL A   1      38.970  34.008  37.946  1.00  0.00     0.134 A 
ATOM     73  F   UNL A   1      41.226  35.949  35.870  1.00  0.00    -0.206 F 
ATOM     74  C   UNL A   1      40.420  36.374  38.033  1.00  0.00     0.040 A 
ATOM     75  C   UNL A   1      38.905  34.821  39.078  1.00  0.00     0.040 A 
ATOM     76  F   UNL A   1      38.263  32.868  37.948  1.00  0.00    -0.206 F 
ATOM     77  C   UNL A   1      39.644  36.002  39.129  1.00  0.00     0.006 A 
ENDBRANCH  49  70
BRANCH  61  78
ATOM     78  C   UNL A   1      43.865  28.945  35.377  1.00  0.00     0.057 A 
ATOM     79  C   UNL A   1      45.200  29.320  35.187  1.00  0.00     0.134 A 
ATOM     80  C   UNL A   1      43.600  27.957  36.333  1.00  0.00     0.134 A 
ATOM     81  F   UNL A   1      45.523  30.251  34.276  1.00  0.00    -0.206 F 
ATOM     82  C   UNL A   1      46.236  28.716  35.901  1.00  0.00     0.040 A 
ATOM     83  C   UNL A   1      44.624  27.368  37.076  1.00  0.00     0.040 A 
ATOM     84  F   UNL A   1      42.341  27.557  36.572  1.00  0.00    -0.206 F 
ATOM     85  C   UNL A   1      45.948  27.741  36.856  1.00  0.00     0.006 A 
ENDBRANCH  61  78
ENDBRANCH  35  36
ENDBRANCH  27  30
ENDBRANCH  25  26
ENDBRANCH  24  25
ENDBRANCH  23  24
ENDBRANCH   1  23
TORSDOF 17
ENDMDL
MODEL 2
REMARK VINA RESULT:     -10.9      1.032      2.084
REMARK SMILES CC[C@@](C)(C(=O)NCCCCCCNC(=O)c1ccc(-c2c3nc(c(-c4c(F)cccc4F)c4ccc([nH]4)c(-c4c(F)cccc4F)c4nc(c(-c5c(F)cccc5F)c5ccc2[nH]5)C=C4)C=C3)cc1)n1nnnc1Cc1cccs1
REMARK SMILES IDX 10 1 9 2 8 3 7 4 5 5 6 6 3 8 4 9 2 10 1 11 71 12 72 13 75 14
REMARK SMILES IDX 73 15 74 16 76 17 77 18 78 19 81 20 79 21 80 22 11 23 12 24
REMARK SMILES IDX 13 25 14 26 15 27 16 29 17 30 18 31 70 32 19 33 69 34 20 35
REMARK SMILES IDX 21 36 22 37 63 38 23 39 68 40 62 41 64 42 24 43 67 44 61 45
REMARK SMILES IDX 60 46 25 48 51 49 34 50 50 51 35 52 38 53 49 54 65 55 36 56
REMARK SMILES IDX 37 57 48 59 66 60 39 61 26 62 27 63 32 64 28 65 29 66 31 67
REMARK SMILES IDX 33 68 30 69 52 70 53 71 58 72 54 73 55 74 57 75 59 76 56 77
REMARK SMILES IDX 40 78 41 79 46 80 42 81 43 82 45 83 47 84 44 85
REMARK H PARENT 7 7 14 28 64 47 38 58
REMARK Flexibility Score: inf
ROOT
ATOM      1  C   UNL A   1      32.654  29.789  27.041  1.00  0.00     0.002 C 
ENDROOT
BRANCH   1   2
ATOM      2  C   UNL A   1      33.697  28.980  26.260  1.00  0.00     0.021 C 
BRANCH   2   3
ATOM      3  C   UNL A   1      33.547  27.465  26.383  1.00  0.00     0.116 C 
BRANCH   3   4
ATOM      4  N   UNL A   1      32.158  27.071  26.544  1.00  0.00    -0.354 N 
ATOM      5  C   UNL A   1      31.285  26.399  25.743  1.00  0.00     0.247 C 
ATOM      6  O   UNL A   1      30.235  26.056  26.298  1.00  0.00    -0.272 OA
ATOM      7  H   UNL A   1      31.769  27.346  27.406  1.00  0.00     0.163 HD
BRANCH   5   8
ATOM      8  C   UNL A   1      31.591  26.018  24.272  1.00  0.00     0.142 C 
ATOM      9  C   UNL A   1      30.273  25.365  23.770  1.00  0.00     0.048 C 
BRANCH   8  10
ATOM     10  C   UNL A   1      32.832  25.090  24.121  1.00  0.00     0.037 C 
ATOM     11  C   UNL A   1      32.566  23.738  23.466  1.00  0.00     0.007 C 
ENDBRANCH   8  10
BRANCH   8  12
ATOM     12  N   UNL A   1      31.873  27.245  23.484  1.00  0.00    -0.214 N 
ATOM     13  N   UNL A   1      33.115  27.434  22.980  1.00  0.00    -0.044 NA
ATOM     14  C   UNL A   1      31.142  28.403  23.287  1.00  0.00     0.157 A 
ATOM     15  N   UNL A   1      33.117  28.643  22.450  1.00  0.00    -0.024 NA
ATOM     16  N   UNL A   1      31.908  29.250  22.623  1.00  0.00    -0.113 NA
BRANCH  14  17
ATOM     17  C   UNL A   1      29.728  28.665  23.691  1.00  0.00     0.125 C 
BRANCH  17  18
ATOM     18  C   UNL A   1      29.199  29.977  23.175  1.00  0.00     0.012 A 
ATOM     19  C   UNL A   1      29.173  31.203  23.811  1.00  0.00     0.016 A 
ATOM     20  S   UNL A   1      28.568  30.087  21.583  1.00  0.00    -0.148 S 
ATOM     21  C   UNL A   1      28.616  32.228  22.995  1.00  0.00     0.012 A 
ATOM     22  C   UNL A   1      28.242  31.754  21.757  1.00  0.00     0.065 A 
ENDBRANCH  17  18
ENDBRANCH  14  17
ENDBRANCH   8  12
ENDBRANCH   5   8
ENDBRANCH   3   4
ENDBRANCH   2   3
ENDBRANCH   1   2
BRANCH   1  23
ATOM     23  C   UNL A   1      31.708  30.637  26.186  1.00  0.00     0.002 C 
BRANCH  23  24
ATOM     24  C   UNL A   1      31.445  32.051  26.711  1.00  0.00     0.021 C 
BRANCH  24  25
ATOM     25  C   UNL A   1      32.671  32.761  27.277  1.00  0.00     0.116 C 
BRANCH  25  26
ATOM     26  N   UNL A   1      32.397  34.150  27.606  1.00  0.00    -0.352 N 
ATOM     27  C   UNL A   1      32.980  34.956  28.551  1.00  0.00     0.251 C 
ATOM     28  H   UNL A   1      31.688  34.576  27.073  1.00  0.00     0.163 HD
ATOM     29  O   UNL A   1      32.482  36.046  28.823  1.00  0.00    -0.269 OA
BRANCH  27  30
ATOM     30  C   UNL A   1      34.193  34.502  29.265  1.00  0.00     0.039 A 
ATOM     31  C   UNL A   1      34.053  33.926  30.529  1.00  0.00     0.014 A 
ATOM     32  C   UNL A   1      35.461  34.639  28.691  1.00  0.00     0.014 A 
ATOM     33  C   UNL A   1      35.175  33.412  31.183  1.00  0.00     0.010 A 
ATOM     34  C   UNL A   1      36.567  34.065  29.312  1.00  0.00     0.010 A 
ATOM     35  C   UNL A   1      36.433  33.432  30.558  1.00  0.00    -0.014 A 
BRANCH  35  36
ATOM     36  C   UNL A   1      37.601  32.746  31.170  1.00  0.00     0.031 A 
ATOM     37  C   UNL A   1      38.236  31.562  30.498  1.00  0.00     0.074 A 
ATOM     38  C   UNL A   1      38.042  33.156  32.378  1.00  0.00     0.049 A 
ATOM     39  N   UNL A   1      39.218  30.805  30.919  1.00  0.00    -0.248 NA
ATOM     40  C   UNL A   1      37.688  31.160  29.193  1.00  0.00     0.031 C 
ATOM     41  C   UNL A   1      37.476  34.261  33.155  1.00  0.00     0.029 A 
ATOM     42  N   UNL A   1      39.060  32.683  33.169  1.00  0.00    -0.354 N 
ATOM     43  C   UNL A   1      39.397  29.835  29.940  1.00  0.00     0.074 A 
ATOM     44  C   UNL A   1      38.398  30.074  28.922  1.00  0.00     0.031 C 
ATOM     45  C   UNL A   1      38.162  34.391  34.301  1.00  0.00     0.029 A 
ATOM     46  C   UNL A   1      39.186  33.353  34.364  1.00  0.00     0.049 A 
ATOM     47  H   UNL A   1      39.644  31.936  32.907  1.00  0.00     0.167 HD
ATOM     48  C   UNL A   1      40.323  28.849  29.891  1.00  0.00     0.037 A 
ATOM     49  C   UNL A   1      40.017  33.142  35.402  1.00  0.00     0.037 A 
ATOM     50  C   UNL A   1      41.334  28.631  30.894  1.00  0.00     0.049 A 
ATOM     51  C   UNL A   1      41.020  32.024  35.323  1.00  0.00     0.074 A 
ATOM     52  C   UNL A   1      42.365  27.707  30.888  1.00  0.00     0.029 A 
ATOM     53  N   UNL A   1      41.434  29.335  32.084  1.00  0.00    -0.354 N 
ATOM     54  N   UNL A   1      41.238  31.176  34.347  1.00  0.00    -0.248 NA
ATOM     55  C   UNL A   1      41.895  31.833  36.488  1.00  0.00     0.031 C 
ATOM     56  C   UNL A   1      43.052  27.810  32.100  1.00  0.00     0.029 A 
ATOM     57  C   UNL A   1      42.486  28.837  32.837  1.00  0.00     0.049 A 
ATOM     58  H   UNL A   1      40.847  30.077  32.353  1.00  0.00     0.167 HD
ATOM     59  C   UNL A   1      42.286  30.371  34.771  1.00  0.00     0.074 A 
ATOM     60  C   UNL A   1      42.679  30.847  36.079  1.00  0.00     0.031 C 
ATOM     61  C   UNL A   1      42.869  29.324  34.136  1.00  0.00     0.037 A 
BRANCH  48  62
ATOM     62  C   UNL A   1      40.302  27.917  28.714  1.00  0.00     0.057 A 
ATOM     63  C   UNL A   1      41.023  28.187  27.544  1.00  0.00     0.134 A 
ATOM     64  C   UNL A   1      39.632  26.689  28.791  1.00  0.00     0.134 A 
ATOM     65  F   UNL A   1      41.680  29.349  27.404  1.00  0.00    -0.206 F 
ATOM     66  C   UNL A   1      41.073  27.273  26.490  1.00  0.00     0.040 A 
ATOM     67  C   UNL A   1      39.695  25.756  27.754  1.00  0.00     0.040 A 
ATOM     68  F   UNL A   1      38.929  26.365  29.887  1.00  0.00    -0.206 F 
ATOM     69  C   UNL A   1      40.418  26.047  26.600  1.00  0.00     0.006 A 
ENDBRANCH  48  62
BRANCH  49  70
ATOM     70  C   UNL A   1      39.933  33.991  36.620  1.00  0.00     0.057 A 
ATOM     71  C   UNL A   1      39.082  33.655  37.681  1.00  0.00     0.134 A 
ATOM     72  C   UNL A   1      40.660  35.182  36.732  1.00  0.00     0.134 A 
ATOM     73  F   UNL A   1      38.344  32.537  37.626  1.00  0.00    -0.206 F 
ATOM     74  C   UNL A   1      38.929  34.491  38.789  1.00  0.00     0.040 A 
ATOM     75  C   UNL A   1      40.541  36.011  37.849  1.00  0.00     0.040 A 
ATOM     76  F   UNL A   1      41.500  35.558  35.755  1.00  0.00    -0.206 F 
ATOM     77  C   UNL A   1      39.662  35.673  38.875  1.00  0.00     0.006 A 
ENDBRANCH  49  70
BRANCH  61  78
ATOM     78  C   UNL A   1      44.007  28.642  34.839  1.00  0.00     0.057 A 
ATOM     79  C   UNL A   1      43.808  27.515  35.645  1.00  0.00     0.134 A 
ATOM     80  C   UNL A   1      45.322  29.097  34.677  1.00  0.00     0.134 A 
ATOM     81  F   UNL A   1      42.571  27.037  35.852  1.00  0.00    -0.206 F 
ATOM     82  C   UNL A   1      44.871  26.881  36.289  1.00  0.00     0.040 A 
ATOM     83  C   UNL A   1      46.397  28.452  35.290  1.00  0.00     0.040 A 
ATOM     84  F   UNL A   1      45.585  30.165  33.910  1.00  0.00    -0.206 F 
ATOM     85  C   UNL A   1      46.173  27.345  36.106  1.00  0.00     0.006 A 
ENDBRANCH  61  78
ENDBRANCH  35  36
ENDBRANCH  27  30
ENDBRANCH  25  26
ENDBRANCH  24  25
ENDBRANCH  23  24
ENDBRANCH   1  23
TORSDOF 17
ENDMDL
MODEL 3
REMARK VINA RESULT:     -10.8      2.257      7.209
REMARK SMILES CC[C@@](C)(C(=O)NCCCCCCNC(=O)c1ccc(-c2c3nc(c(-c4c(F)cccc4F)c4ccc([nH]4)c(-c4c(F)cccc4F)c4nc(c(-c5c(F)cccc5F)c5ccc2[nH]5)C=C4)C=C3)cc1)n1nnnc1Cc1cccs1
REMARK SMILES IDX 10 1 9 2 8 3 7 4 5 5 6 6 3 8 4 9 2 10 1 11 71 12 72 13 75 14
REMARK SMILES IDX 73 15 74 16 76 17 77 18 78 19 81 20 79 21 80 22 11 23 12 24
REMARK SMILES IDX 13 25 14 26 15 27 16 29 17 30 18 31 70 32 19 33 69 34 20 35
REMARK SMILES IDX 21 36 22 37 63 38 23 39 68 40 62 41 64 42 24 43 67 44 61 45
REMARK SMILES IDX 60 46 25 48 51 49 34 50 50 51 35 52 38 53 49 54 65 55 36 56
REMARK SMILES IDX 37 57 48 59 66 60 39 61 26 62 27 63 32 64 28 65 29 66 31 67
REMARK SMILES IDX 33 68 30 69 52 70 53 71 58 72 54 73 55 74 57 75 59 76 56 77
REMARK SMILES IDX 40 78 41 79 46 80 42 81 43 82 45 83 47 84 44 85
REMARK H PARENT 7 7 14 28 64 47 38 58
REMARK Flexibility Score: inf
ROOT
ATOM      1  C   UNL A   1      32.495  29.735  26.679  1.00  0.00     0.002 C 
ENDROOT
BRANCH   1   2
ATOM      2  C   UNL A   1      31.686  28.702  27.472  1.00  0.00     0.021 C 
BRANCH   2   3
ATOM      3  C   UNL A   1      31.797  27.270  26.948  1.00  0.00     0.116 C 
BRANCH   3   4
ATOM      4  N   UNL A   1      31.582  27.204  25.513  1.00  0.00    -0.354 N 
ATOM      5  C   UNL A   1      31.881  26.265  24.573  1.00  0.00     0.247 C 
ATOM      6  O   UNL A   1      31.355  26.453  23.470  1.00  0.00    -0.272 OA
ATOM      7  H   UNL A   1      31.130  27.997  25.146  1.00  0.00     0.163 HD
BRANCH   5   8
ATOM      8  C   UNL A   1      32.748  25.012  24.858  1.00  0.00     0.142 C 
ATOM      9  C   UNL A   1      34.075  25.591  25.422  1.00  0.00     0.048 C 
BRANCH   8  10
ATOM     10  C   UNL A   1      32.955  24.109  23.607  1.00  0.00     0.037 C 
ATOM     11  C   UNL A   1      34.405  23.773  23.271  1.00  0.00     0.007 C 
ENDBRANCH   8  10
BRANCH   8  12
ATOM     12  N   UNL A   1      32.090  24.170  25.890  1.00  0.00    -0.214 N 
ATOM     13  N   UNL A   1      30.753  24.271  26.070  1.00  0.00    -0.044 NA
ATOM     14  C   UNL A   1      32.607  23.379  26.901  1.00  0.00     0.157 A 
ATOM     15  N   UNL A   1      30.465  23.524  27.120  1.00  0.00    -0.024 NA
ATOM     16  N   UNL A   1      31.594  22.962  27.639  1.00  0.00    -0.113 NA
BRANCH  14  17
ATOM     17  C   UNL A   1      34.036  23.003  27.121  1.00  0.00     0.125 C 
BRANCH  17  18
ATOM     18  C   UNL A   1      34.496  21.881  26.228  1.00  0.00     0.012 A 
ATOM     19  C   UNL A   1      35.787  21.534  25.881  1.00  0.00     0.016 A 
ATOM     20  S   UNL A   1      33.353  20.803  25.538  1.00  0.00    -0.148 S 
ATOM     21  C   UNL A   1      35.834  20.392  25.032  1.00  0.00     0.012 A 
ATOM     22  C   UNL A   1      34.577  19.897  24.765  1.00  0.00     0.065 A 
ENDBRANCH  17  18
ENDBRANCH  14  17
ENDBRANCH   8  12
ENDBRANCH   5   8
ENDBRANCH   3   4
ENDBRANCH   2   3
ENDBRANCH   1   2
BRANCH   1  23
ATOM     23  C   UNL A   1      31.663  30.761  25.902  1.00  0.00     0.002 C 
BRANCH  23  24
ATOM     24  C   UNL A   1      31.376  32.066  26.649  1.00  0.00     0.021 C 
BRANCH  24  25
ATOM     25  C   UNL A   1      32.593  32.710  27.305  1.00  0.00     0.116 C 
BRANCH  25  26
ATOM     26  N   UNL A   1      32.368  34.111  27.623  1.00  0.00    -0.352 N 
ATOM     27  C   UNL A   1      32.983  34.904  28.558  1.00  0.00     0.251 C 
ATOM     28  H   UNL A   1      31.671  34.556  27.089  1.00  0.00     0.163 HD
ATOM     29  O   UNL A   1      32.523  36.013  28.823  1.00  0.00    -0.269 OA
BRANCH  27  30
ATOM     30  C   UNL A   1      34.182  34.415  29.271  1.00  0.00     0.039 A 
ATOM     31  C   UNL A   1      34.024  33.826  30.527  1.00  0.00     0.014 A 
ATOM     32  C   UNL A   1      35.455  34.533  28.705  1.00  0.00     0.014 A 
ATOM     33  C   UNL A   1      35.132  33.279  31.178  1.00  0.00     0.010 A 
ATOM     34  C   UNL A   1      36.546  33.927  29.322  1.00  0.00     0.010 A 
ATOM     35  C   UNL A   1      36.393  33.281  30.559  1.00  0.00    -0.014 A 
BRANCH  35  36
ATOM     36  C   UNL A   1      37.543  32.562  31.167  1.00  0.00     0.031 A 
ATOM     37  C   UNL A   1      38.183  33.065  32.431  1.00  0.00     0.074 A 
ATOM     38  C   UNL A   1      38.056  31.488  30.530  1.00  0.00     0.049 A 
ATOM     39  N   UNL A   1      39.232  32.601  33.063  1.00  0.00    -0.248 NA
ATOM     40  C   UNL A   1      37.583  34.253  33.057  1.00  0.00     0.031 C 
ATOM     41  C   UNL A   1      37.555  30.933  29.270  1.00  0.00     0.029 A 
ATOM     42  N   UNL A   1      39.118  30.678  30.848  1.00  0.00    -0.354 N 
ATOM     43  C   UNL A   1      39.422  33.443  34.151  1.00  0.00     0.074 A 
ATOM     44  C   UNL A   1      38.406  34.470  34.073  1.00  0.00     0.031 C 
ATOM     45  C   UNL A   1      38.298  29.868  28.931  1.00  0.00     0.029 A 
ATOM     46  C   UNL A   1      39.354  29.690  29.922  1.00  0.00     0.049 A 
ATOM     47  H   UNL A   1      39.659  30.794  31.661  1.00  0.00     0.167 HD
ATOM     48  C   UNL A   1      40.350  33.355  35.133  1.00  0.00     0.037 A 
ATOM     49  C   UNL A   1      40.324  28.757  29.864  1.00  0.00     0.037 A 
ATOM     50  C   UNL A   1      41.344  32.316  35.222  1.00  0.00     0.049 A 
ATOM     51  C   UNL A   1      41.352  28.701  30.962  1.00  0.00     0.074 A 
ATOM     52  C   UNL A   1      42.272  32.099  36.226  1.00  0.00     0.029 A 
ATOM     53  N   UNL A   1      41.545  31.328  34.270  1.00  0.00    -0.354 N 
ATOM     54  N   UNL A   1      41.460  29.448  32.033  1.00  0.00    -0.248 NA
ATOM     55  C   UNL A   1      42.393  27.670  30.842  1.00  0.00     0.031 C 
ATOM     56  C   UNL A   1      43.076  31.019  35.852  1.00  0.00     0.029 A 
ATOM     57  C   UNL A   1      42.611  30.526  34.645  1.00  0.00     0.049 A 
ATOM     58  H   UNL A   1      41.011  31.215  33.452  1.00  0.00     0.167 HD
ATOM     59  C   UNL A   1      42.561  28.962  32.725  1.00  0.00     0.074 A 
ATOM     60  C   UNL A   1      43.072  27.841  31.967  1.00  0.00     0.031 C 
ATOM     61  C   UNL A   1      43.107  29.409  33.883  1.00  0.00     0.037 A 
BRANCH  48  62
ATOM     62  C   UNL A   1      40.348  34.406  36.205  1.00  0.00     0.057 A 
ATOM     63  C   UNL A   1      41.117  35.571  36.100  1.00  0.00     0.134 A 
ATOM     64  C   UNL A   1      39.489  34.296  37.307  1.00  0.00     0.134 A 
ATOM     65  F   UNL A   1      41.965  35.737  35.073  1.00  0.00    -0.206 F 
ATOM     66  C   UNL A   1      41.039  36.586  37.056  1.00  0.00     0.040 A 
ATOM     67  C   UNL A   1      39.383  35.314  38.256  1.00  0.00     0.040 A 
ATOM     68  F   UNL A   1      38.719  33.208  37.464  1.00  0.00    -0.206 F 
ATOM     69  C   UNL A   1      40.159  36.464  38.131  1.00  0.00     0.006 A 
ENDBRANCH  48  62
BRANCH  49  70
ATOM     70  C   UNL A   1      40.392  27.808  28.722  1.00  0.00     0.057 A 
ATOM     71  C   UNL A   1      41.115  28.118  27.563  1.00  0.00     0.134 A 
ATOM     72  C   UNL A   1      39.695  26.593  28.739  1.00  0.00     0.134 A 
ATOM     73  F   UNL A   1      41.787  29.275  27.475  1.00  0.00    -0.206 F 
ATOM     74  C   UNL A   1      41.111  27.274  26.450  1.00  0.00     0.040 A 
ATOM     75  C   UNL A   1      39.710  25.725  27.646  1.00  0.00     0.040 A 
ATOM     76  F   UNL A   1      38.990  26.231  29.822  1.00  0.00    -0.206 F 
ATOM     77  C   UNL A   1      40.408  26.072  26.492  1.00  0.00     0.006 A 
ENDBRANCH  49  70
BRANCH  61  78
ATOM     78  C   UNL A   1      44.302  28.670  34.409  1.00  0.00     0.057 A 
ATOM     79  C   UNL A   1      44.172  27.548  35.236  1.00  0.00     0.134 A 
ATOM     80  C   UNL A   1      45.599  29.065  34.055  1.00  0.00     0.134 A 
ATOM     81  F   UNL A   1      42.958  27.126  35.624  1.00  0.00    -0.206 F 
ATOM     82  C   UNL A   1      45.288  26.861  35.716  1.00  0.00     0.040 A 
ATOM     83  C   UNL A   1      46.722  28.367  34.503  1.00  0.00     0.040 A 
ATOM     84  F   UNL A   1      45.796  30.126  33.258  1.00  0.00    -0.206 F 
ATOM     85  C   UNL A   1      46.568  27.266  35.342  1.00  0.00     0.006 A 
ENDBRANCH  61  78
ENDBRANCH  35  36
ENDBRANCH  27  30
ENDBRANCH  25  26
ENDBRANCH  24  25
ENDBRANCH  23  24
ENDBRANCH   1  23
TORSDOF 17
ENDMDL
