MODEL 1
REMARK VINA RESULT:      -9.8      0.000      0.000
REMARK SMILES C[C@H]([NH2+]C[C@]1(C)CCCO1)[C@H](C)C(=O)NCCCCCCNC(=O)c1ccc(-c2c3nc(c(-c4c(F)cccc4F)c4ccc([nH]4)c(-c4c(F)cccc4F)c4nc(c(-c5c(F)cccc5F)c5ccc2[nH]5)C=C4)C=C3)cc1
REMARK SMILES IDX 17 1 16 2 15 3 13 4 14 5 11 7 12 8 2 9 1 10 3 11 4 14 5 15
REMARK SMILES IDX 7 16 10 17 6 18 8 19 9 20 18 21 19 22 20 23 21 24 22 25
REMARK SMILES IDX 23 26 24 28 25 29 26 30 78 31 27 32 77 33 28 34 29 35 30 36
REMARK SMILES IDX 71 37 31 38 76 39 70 40 72 41 32 42 75 43 69 44 68 45 33 47
REMARK SMILES IDX 59 48 42 49 58 50 43 51 46 52 57 53 73 54 44 55 45 56 56 58
REMARK SMILES IDX 74 59 47 60 34 61 35 62 40 63 36 64 37 65 39 66 41 67 38 68
REMARK SMILES IDX 60 69 61 70 66 71 62 72 63 73 65 74 67 75 64 76 48 77 49 78
REMARK SMILES IDX 54 79 50 80 51 81 53 82 55 83 52 84
REMARK H PARENT 15 6 3 12 3 13 22 27 72 46 46 57
REMARK Flexibility Score: inf
ROOT
ATOM      1  C   UNL A   1      35.184  31.391  27.655  1.00  0.00     0.021 C 
ENDROOT
BRANCH   1   2
ATOM      2  C   UNL A   1      35.197  29.869  27.551  1.00  0.00     0.116 C 
BRANCH   2   3
ATOM      3  N   UNL A   1      33.933  29.287  27.962  1.00  0.00    -0.356 N 
ATOM      4  C   UNL A   1      32.890  28.822  27.221  1.00  0.00     0.228 C 
ATOM      5  O   UNL A   1      31.900  28.401  27.826  1.00  0.00    -0.275 OA
ATOM      6  H   UNL A   1      33.809  29.219  28.936  1.00  0.00     0.163 HD
BRANCH   4   7
ATOM      7  C   UNL A   1      32.924  28.823  25.695  1.00  0.00     0.133 C 
ATOM      8  C   UNL A   1      32.832  27.380  25.172  1.00  0.00     0.024 C 
BRANCH   7   9
ATOM      9  C   UNL A   1      31.918  29.839  25.077  1.00  0.00     0.191 C 
ATOM     10  C   UNL A   1      31.543  30.973  26.040  1.00  0.00     0.076 C 
BRANCH   9  11
ATOM     11  N   UNL A   1      30.702  29.232  24.509  1.00  0.00    -0.341 N 
ATOM     12  H   UNL A   1      29.907  29.561  25.056  1.00  0.00     0.346 HD
ATOM     13  H   UNL A   1      30.858  28.224  24.552  1.00  0.00     0.346 HD
BRANCH  11  14
ATOM     14  C   UNL A   1      30.424  29.524  23.095  1.00  0.00     0.296 C 
BRANCH  14  15
ATOM     15  C   UNL A   1      28.898  29.735  22.863  1.00  0.00     0.114 C 
ATOM     16  C   UNL A   1      28.615  30.309  21.473  1.00  0.00     0.043 C 
ATOM     17  O   UNL A   1      28.439  30.749  23.790  1.00  0.00    -0.369 OA
ATOM     18  C   UNL A   1      28.099  28.449  23.095  1.00  0.00     0.048 C 
ATOM     19  C   UNL A   1      28.807  31.791  21.681  1.00  0.00     0.032 C 
ATOM     20  C   UNL A   1      28.285  31.992  23.087  1.00  0.00     0.161 C 
ENDBRANCH  14  15
ENDBRANCH  11  14
ENDBRANCH   9  11
ENDBRANCH   7   9
ENDBRANCH   4   7
ENDBRANCH   2   3
ENDBRANCH   1   2
BRANCH   1  21
ATOM     21  C   UNL A   1      34.349  31.948  28.811  1.00  0.00     0.002 C 
BRANCH  21  22
ATOM     22  C   UNL A   1      34.544  33.439  29.103  1.00  0.00     0.002 C 
BRANCH  22  23
ATOM     23  C   UNL A   1      33.300  34.311  28.924  1.00  0.00     0.021 C 
BRANCH  23  24
ATOM     24  C   UNL A   1      33.449  35.752  29.402  1.00  0.00     0.116 C 
BRANCH  24  25
ATOM     25  N   UNL A   1      32.580  36.056  30.526  1.00  0.00    -0.352 N 
ATOM     26  C   UNL A   1      32.685  35.670  31.837  1.00  0.00     0.251 C 
ATOM     27  H   UNL A   1      31.801  36.620  30.315  1.00  0.00     0.163 HD
ATOM     28  O   UNL A   1      31.757  35.876  32.618  1.00  0.00    -0.269 OA
BRANCH  26  29
ATOM     29  C   UNL A   1      33.905  34.983  32.312  1.00  0.00     0.039 A 
ATOM     30  C   UNL A   1      33.790  33.690  32.830  1.00  0.00     0.014 A 
ATOM     31  C   UNL A   1      35.154  35.608  32.253  1.00  0.00     0.014 A 
ATOM     32  C   UNL A   1      34.936  33.002  33.232  1.00  0.00     0.010 A 
ATOM     33  C   UNL A   1      36.303  34.894  32.584  1.00  0.00     0.010 A 
ATOM     34  C   UNL A   1      36.206  33.584  33.077  1.00  0.00    -0.014 A 
BRANCH  34  35
ATOM     35  C   UNL A   1      37.439  32.826  33.413  1.00  0.00     0.031 A 
ATOM     36  C   UNL A   1      38.191  33.118  34.682  1.00  0.00     0.074 A 
ATOM     37  C   UNL A   1      37.909  31.909  32.545  1.00  0.00     0.049 A 
ATOM     38  N   UNL A   1      39.305  32.587  35.122  1.00  0.00    -0.248 NA
ATOM     39  C   UNL A   1      37.634  34.157  35.560  1.00  0.00     0.031 C 
ATOM     40  C   UNL A   1      37.298  31.570  31.258  1.00  0.00     0.029 A 
ATOM     41  N   UNL A   1      39.015  31.099  32.610  1.00  0.00    -0.354 N 
ATOM     42  C   UNL A   1      39.583  33.232  36.319  1.00  0.00     0.074 A 
ATOM     43  C   UNL A   1      38.555  34.232  36.510  1.00  0.00     0.031 C 
ATOM     44  C   UNL A   1      38.019  30.604  30.670  1.00  0.00     0.029 A 
ATOM     45  C   UNL A   1      39.164  30.283  31.515  1.00  0.00     0.049 A 
ATOM     46  H   UNL A   1      39.641  31.102  33.370  1.00  0.00     0.167 HD
ATOM     47  C   UNL A   1      40.591  32.997  37.194  1.00  0.00     0.037 A 
ATOM     48  C   UNL A   1      40.121  29.382  31.221  1.00  0.00     0.037 A 
ATOM     49  C   UNL A   1      41.606  31.991  37.009  1.00  0.00     0.049 A 
ATOM     50  C   UNL A   1      41.238  29.152  32.201  1.00  0.00     0.074 A 
ATOM     51  C   UNL A   1      42.635  31.638  37.863  1.00  0.00     0.029 A 
ATOM     52  N   UNL A   1      41.721  31.182  35.888  1.00  0.00    -0.354 N 
ATOM     53  N   UNL A   1      41.448  29.718  33.363  1.00  0.00    -0.248 NA
ATOM     54  C   UNL A   1      42.248  28.152  31.827  1.00  0.00     0.031 C 
ATOM     55  C   UNL A   1      43.405  30.652  37.239  1.00  0.00     0.029 A 
ATOM     56  C   UNL A   1      42.822  30.349  36.018  1.00  0.00     0.049 A 
ATOM     57  H   UNL A   1      41.111  31.196  35.115  1.00  0.00     0.167 HD
ATOM     58  C   UNL A   1      42.597  29.127  33.873  1.00  0.00     0.074 A 
ATOM     59  C   UNL A   1      43.027  28.144  32.901  1.00  0.00     0.031 C 
ATOM     60  C   UNL A   1      43.239  29.375  35.041  1.00  0.00     0.037 A 
BRANCH  47  61
ATOM     61  C   UNL A   1      40.646  33.843  38.433  1.00  0.00     0.057 A 
ATOM     62  C   UNL A   1      41.438  34.997  38.507  1.00  0.00     0.134 A 
ATOM     63  C   UNL A   1      39.871  33.523  39.556  1.00  0.00     0.134 A 
ATOM     64  F   UNL A   1      42.213  35.356  37.473  1.00  0.00    -0.206 F 
ATOM     65  C   UNL A   1      41.478  35.786  39.658  1.00  0.00     0.040 A 
ATOM     66  C   UNL A   1      39.880  34.319  40.702  1.00  0.00     0.040 A 
ATOM     67  F   UNL A   1      39.084  32.436  39.552  1.00  0.00    -0.206 F 
ATOM     68  C   UNL A   1      40.691  35.451  40.758  1.00  0.00     0.006 A 
ENDBRANCH  47  61
BRANCH  48  69
ATOM     69  C   UNL A   1      40.055  28.614  29.952  1.00  0.00     0.057 A 
ATOM     70  C   UNL A   1      39.321  27.425  29.863  1.00  0.00     0.134 A 
ATOM     71  C   UNL A   1      40.729  29.041  28.802  1.00  0.00     0.134 A 
ATOM     72  F   UNL A   1      38.669  26.953  30.937  1.00  0.00    -0.206 F 
ATOM     73  C   UNL A   1      39.278  26.677  28.686  1.00  0.00     0.040 A 
ATOM     74  C   UNL A   1      40.672  28.318  27.609  1.00  0.00     0.040 A 
ATOM     75  F   UNL A   1      41.443  30.177  28.817  1.00  0.00    -0.206 F 
ATOM     76  C   UNL A   1      39.952  27.126  27.552  1.00  0.00     0.006 A 
ENDBRANCH  48  69
BRANCH  60  77
ATOM     77  C   UNL A   1      44.455  28.548  35.344  1.00  0.00     0.057 A 
ATOM     78  C   UNL A   1      45.743  28.963  34.980  1.00  0.00     0.134 A 
ATOM     79  C   UNL A   1      44.338  27.335  36.035  1.00  0.00     0.134 A 
ATOM     80  F   UNL A   1      45.922  30.108  34.304  1.00  0.00    -0.206 F 
ATOM     81  C   UNL A   1      46.867  28.187  35.266  1.00  0.00     0.040 A 
ATOM     82  C   UNL A   1      45.458  26.566  36.355  1.00  0.00     0.040 A 
ATOM     83  F   UNL A   1      43.136  26.883  36.422  1.00  0.00    -0.206 F 
ATOM     84  C   UNL A   1      46.727  26.988  35.962  1.00  0.00     0.006 A 
ENDBRANCH  60  77
ENDBRANCH  34  35
ENDBRANCH  26  29
ENDBRANCH  24  25
ENDBRANCH  23  24
ENDBRANCH  22  23
ENDBRANCH  21  22
ENDBRANCH   1  21
TORSDOF 17
ENDMDL
MODEL 2
REMARK VINA RESULT:      -9.7      2.431      7.451
REMARK SMILES C[C@H]([NH2+]C[C@]1(C)CCCO1)[C@H](C)C(=O)NCCCCCCNC(=O)c1ccc(-c2c3nc(c(-c4c(F)cccc4F)c4ccc([nH]4)c(-c4c(F)cccc4F)c4nc(c(-c5c(F)cccc5F)c5ccc2[nH]5)C=C4)C=C3)cc1
REMARK SMILES IDX 17 1 16 2 15 3 13 4 14 5 11 7 12 8 2 9 1 10 3 11 4 14 5 15
REMARK SMILES IDX 7 16 10 17 6 18 8 19 9 20 18 21 19 22 20 23 21 24 22 25
REMARK SMILES IDX 23 26 24 28 25 29 26 30 78 31 27 32 77 33 28 34 29 35 30 36
REMARK SMILES IDX 71 37 31 38 76 39 70 40 72 41 32 42 75 43 69 44 68 45 33 47
REMARK SMILES IDX 59 48 42 49 58 50 43 51 46 52 57 53 73 54 44 55 45 56 56 58
REMARK SMILES IDX 74 59 47 60 34 61 35 62 40 63 36 64 37 65 39 66 41 67 38 68
REMARK SMILES IDX 60 69 61 70 66 71 62 72 63 73 65 74 67 75 64 76 48 77 49 78
REMARK SMILES IDX 54 79 50 80 51 81 53 82 55 83 52 84
REMARK H PARENT 15 6 3 12 3 13 22 27 72 46 46 57
REMARK Flexibility Score: inf
ROOT
ATOM      1  C   UNL A   1      33.578  29.122  25.944  1.00  0.00     0.021 C 
ENDROOT
BRANCH   1   2
ATOM      2  C   UNL A   1      33.050  28.982  24.518  1.00  0.00     0.116 C 
BRANCH   2   3
ATOM      3  N   UNL A   1      33.713  27.911  23.798  1.00  0.00    -0.356 N 
ATOM      4  C   UNL A   1      33.301  26.644  23.519  1.00  0.00     0.228 C 
ATOM      5  O   UNL A   1      34.082  25.908  22.909  1.00  0.00    -0.275 OA
ATOM      6  H   UNL A   1      34.608  28.138  23.456  1.00  0.00     0.163 HD
BRANCH   4   7
ATOM      7  C   UNL A   1      31.927  26.133  23.946  1.00  0.00     0.133 C 
ATOM      8  C   UNL A   1      31.304  25.304  22.811  1.00  0.00     0.024 C 
BRANCH   7   9
ATOM      9  C   UNL A   1      31.953  25.459  25.350  1.00  0.00     0.191 C 
ATOM     10  C   UNL A   1      31.165  26.244  26.407  1.00  0.00     0.076 C 
BRANCH   9  11
ATOM     11  N   UNL A   1      33.299  25.140  25.853  1.00  0.00    -0.341 N 
ATOM     12  H   UNL A   1      33.492  25.761  26.638  1.00  0.00     0.346 HD
ATOM     13  H   UNL A   1      33.923  25.261  25.055  1.00  0.00     0.346 HD
BRANCH  11  14
ATOM     14  C   UNL A   1      33.517  23.760  26.312  1.00  0.00     0.296 C 
BRANCH  14  15
ATOM     15  C   UNL A   1      34.676  23.087  25.517  1.00  0.00     0.114 C 
ATOM     16  C   UNL A   1      34.252  22.741  24.090  1.00  0.00     0.043 C 
ATOM     17  O   UNL A   1      34.970  21.814  26.143  1.00  0.00    -0.369 OA
ATOM     18  C   UNL A   1      35.945  23.946  25.517  1.00  0.00     0.048 C 
ATOM     19  C   UNL A   1      33.570  21.406  24.261  1.00  0.00     0.032 C 
ATOM     20  C   UNL A   1      34.390  20.761  25.357  1.00  0.00     0.161 C 
ENDBRANCH  14  15
ENDBRANCH  11  14
ENDBRANCH   9  11
ENDBRANCH   7   9
ENDBRANCH   4   7
ENDBRANCH   2   3
ENDBRANCH   1   2
BRANCH   1  21
ATOM     21  C   UNL A   1      32.705  29.974  26.870  1.00  0.00     0.002 C 
BRANCH  21  22
ATOM     22  C   UNL A   1      31.531  30.687  26.192  1.00  0.00     0.002 C 
BRANCH  22  23
ATOM     23  C   UNL A   1      31.362  32.164  26.557  1.00  0.00     0.021 C 
BRANCH  23  24
ATOM     24  C   UNL A   1      32.557  32.791  27.269  1.00  0.00     0.116 C 
BRANCH  24  25
ATOM     25  N   UNL A   1      32.328  34.184  27.613  1.00  0.00    -0.352 N 
ATOM     26  C   UNL A   1      32.956  34.965  28.549  1.00  0.00     0.251 C 
ATOM     27  H   UNL A   1      31.617  34.633  27.100  1.00  0.00     0.163 HD
ATOM     28  O   UNL A   1      32.508  36.077  28.827  1.00  0.00    -0.269 OA
BRANCH  26  29
ATOM     29  C   UNL A   1      34.157  34.462  29.246  1.00  0.00     0.039 A 
ATOM     30  C   UNL A   1      34.011  33.892  30.514  1.00  0.00     0.014 A 
ATOM     31  C   UNL A   1      35.424  34.555  28.661  1.00  0.00     0.014 A 
ATOM     32  C   UNL A   1      35.124  33.360  31.166  1.00  0.00     0.010 A 
ATOM     33  C   UNL A   1      36.519  33.959  29.280  1.00  0.00     0.010 A 
ATOM     34  C   UNL A   1      36.382  33.355  30.538  1.00  0.00    -0.014 A 
BRANCH  34  35
ATOM     35  C   UNL A   1      37.554  32.709  31.183  1.00  0.00     0.031 A 
ATOM     36  C   UNL A   1      38.195  31.499  30.561  1.00  0.00     0.074 A 
ATOM     37  C   UNL A   1      38.006  33.183  32.360  1.00  0.00     0.049 A 
ATOM     38  N   UNL A   1      39.199  30.780  30.999  1.00  0.00    -0.248 NA
ATOM     39  C   UNL A   1      37.621  31.020  29.295  1.00  0.00     0.031 C 
ATOM     40  C   UNL A   1      37.439  34.318  33.089  1.00  0.00     0.029 A 
ATOM     41  N   UNL A   1      39.044  32.764  33.154  1.00  0.00    -0.354 N 
ATOM     42  C   UNL A   1      39.369  29.764  30.068  1.00  0.00     0.074 A 
ATOM     43  C   UNL A   1      38.331  29.924  29.073  1.00  0.00     0.031 C 
ATOM     44  C   UNL A   1      38.152  34.523  34.207  1.00  0.00     0.029 A 
ATOM     45  C   UNL A   1      39.200  33.512  34.296  1.00  0.00     0.049 A 
ATOM     46  H   UNL A   1      39.623  32.001  32.927  1.00  0.00     0.167 HD
ATOM     47  C   UNL A   1      40.318  28.798  30.033  1.00  0.00     0.037 A 
ATOM     48  C   UNL A   1      40.083  33.392  35.305  1.00  0.00     0.037 A 
ATOM     49  C   UNL A   1      41.359  28.649  31.018  1.00  0.00     0.049 A 
ATOM     50  C   UNL A   1      41.116  32.301  35.251  1.00  0.00     0.074 A 
ATOM     51  C   UNL A   1      42.400  27.738  31.041  1.00  0.00     0.029 A 
ATOM     52  N   UNL A   1      41.485  29.428  32.158  1.00  0.00    -0.354 N 
ATOM     53  N   UNL A   1      41.310  31.391  34.328  1.00  0.00    -0.248 NA
ATOM     54  C   UNL A   1      42.057  32.224  36.377  1.00  0.00     0.031 C 
ATOM     55  C   UNL A   1      43.126  27.931  32.219  1.00  0.00     0.029 A 
ATOM     56  C   UNL A   1      42.572  29.000  32.904  1.00  0.00     0.049 A 
ATOM     57  H   UNL A   1      40.891  30.175  32.401  1.00  0.00     0.167 HD
ATOM     58  C   UNL A   1      42.408  30.651  34.747  1.00  0.00     0.074 A 
ATOM     59  C   UNL A   1      42.849  31.232  35.998  1.00  0.00     0.031 C 
ATOM     60  C   UNL A   1      43.000  29.588  34.150  1.00  0.00     0.037 A 
BRANCH  47  61
ATOM     61  C   UNL A   1      40.276  27.825  28.889  1.00  0.00     0.057 A 
ATOM     62  C   UNL A   1      40.985  28.048  27.701  1.00  0.00     0.134 A 
ATOM     63  C   UNL A   1      39.547  26.632  28.989  1.00  0.00     0.134 A 
ATOM     64  F   UNL A   1      41.695  29.174  27.535  1.00  0.00    -0.206 F 
ATOM     65  C   UNL A   1      40.950  27.135  26.645  1.00  0.00     0.040 A 
ATOM     66  C   UNL A   1      39.527  25.698  27.952  1.00  0.00     0.040 A 
ATOM     67  F   UNL A   1      38.850  26.351  30.101  1.00  0.00    -0.206 F 
ATOM     68  C   UNL A   1      40.225  25.952  26.772  1.00  0.00     0.006 A 
ENDBRANCH  47  61
BRANCH  48  69
ATOM     69  C   UNL A   1      40.044  34.343  36.446  1.00  0.00     0.057 A 
ATOM     70  C   UNL A   1      40.707  35.574  36.383  1.00  0.00     0.134 A 
ATOM     71  C   UNL A   1      39.354  34.042  37.626  1.00  0.00     0.134 A 
ATOM     72  F   UNL A   1      41.402  35.912  35.286  1.00  0.00    -0.206 F 
ATOM     73  C   UNL A   1      40.706  36.462  37.460  1.00  0.00     0.040 A 
ATOM     74  C   UNL A   1      39.320  34.932  38.701  1.00  0.00     0.040 A 
ATOM     75  F   UNL A   1      38.691  32.883  37.747  1.00  0.00    -0.206 F 
ATOM     76  C   UNL A   1      40.005  36.143  38.623  1.00  0.00     0.006 A 
ENDBRANCH  48  69
BRANCH  60  77
ATOM     77  C   UNL A   1      44.205  29.003  34.828  1.00  0.00     0.057 A 
ATOM     78  C   UNL A   1      44.098  27.968  35.767  1.00  0.00     0.134 A 
ATOM     79  C   UNL A   1      45.491  29.462  34.515  1.00  0.00     0.134 A 
ATOM     80  F   UNL A   1      42.895  27.493  36.120  1.00  0.00    -0.206 F 
ATOM     81  C   UNL A   1      45.226  27.432  36.392  1.00  0.00     0.040 A 
ATOM     82  C   UNL A   1      46.628  28.912  35.110  1.00  0.00     0.040 A 
ATOM     83  F   UNL A   1      45.666  30.444  33.618  1.00  0.00    -0.206 F 
ATOM     84  C   UNL A   1      46.496  27.899  36.058  1.00  0.00     0.006 A 
ENDBRANCH  60  77
ENDBRANCH  34  35
ENDBRANCH  26  29
ENDBRANCH  24  25
ENDBRANCH  23  24
ENDBRANCH  22  23
ENDBRANCH  21  22
ENDBRANCH   1  21
TORSDOF 17
ENDMDL
MODEL 3
REMARK VINA RESULT:      -9.7      4.669      7.217
REMARK SMILES C[C@H]([NH2+]C[C@]1(C)CCCO1)[C@H](C)C(=O)NCCCCCCNC(=O)c1ccc(-c2c3nc(c(-c4c(F)cccc4F)c4ccc([nH]4)c(-c4c(F)cccc4F)c4nc(c(-c5c(F)cccc5F)c5ccc2[nH]5)C=C4)C=C3)cc1
REMARK SMILES IDX 17 1 16 2 15 3 13 4 14 5 11 7 12 8 2 9 1 10 3 11 4 14 5 15
REMARK SMILES IDX 7 16 10 17 6 18 8 19 9 20 18 21 19 22 20 23 21 24 22 25
REMARK SMILES IDX 23 26 24 28 25 29 26 30 78 31 27 32 77 33 28 34 29 35 30 36
REMARK SMILES IDX 71 37 31 38 76 39 70 40 72 41 32 42 75 43 69 44 68 45 33 47
REMARK SMILES IDX 59 48 42 49 58 50 43 51 46 52 57 53 73 54 44 55 45 56 56 58
REMARK SMILES IDX 74 59 47 60 34 61 35 62 40 63 36 64 37 65 39 66 41 67 38 68
REMARK SMILES IDX 60 69 61 70 66 71 62 72 63 73 65 74 67 75 64 76 48 77 49 78
REMARK SMILES IDX 54 79 50 80 51 81 53 82 55 83 52 84
REMARK H PARENT 15 6 3 12 3 13 22 27 72 46 46 57
REMARK Flexibility Score: inf
ROOT
ATOM      1  C   UNL A   1      30.277  28.164  24.055  1.00  0.00     0.021 C 
ENDROOT
BRANCH   1   2
ATOM      2  C   UNL A   1      30.564  27.881  22.583  1.00  0.00     0.116 C 
BRANCH   2   3
ATOM      3  N   UNL A   1      31.980  27.979  22.279  1.00  0.00    -0.356 N 
ATOM      4  C   UNL A   1      32.852  27.045  21.810  1.00  0.00     0.228 C 
ATOM      5  O   UNL A   1      34.031  27.382  21.667  1.00  0.00    -0.275 OA
ATOM      6  H   UNL A   1      32.374  28.867  22.440  1.00  0.00     0.163 HD
BRANCH   4   7
ATOM      7  C   UNL A   1      32.406  25.623  21.477  1.00  0.00     0.133 C 
ATOM      8  C   UNL A   1      32.565  25.368  19.970  1.00  0.00     0.024 C 
BRANCH   7   9
ATOM      9  C   UNL A   1      33.045  24.563  22.422  1.00  0.00     0.191 C 
ATOM     10  C   UNL A   1      33.189  23.184  21.765  1.00  0.00     0.076 C 
BRANCH   9  11
ATOM     11  N   UNL A   1      32.389  24.435  23.734  1.00  0.00    -0.341 N 
ATOM     12  H   UNL A   1      31.382  24.494  23.584  1.00  0.00     0.346 HD
ATOM     13  H   UNL A   1      32.776  25.186  24.305  1.00  0.00     0.346 HD
BRANCH  11  14
ATOM     14  C   UNL A   1      32.657  23.198  24.483  1.00  0.00     0.296 C 
BRANCH  14  15
ATOM     15  C   UNL A   1      33.149  23.519  25.926  1.00  0.00     0.114 C 
ATOM     16  C   UNL A   1      34.109  24.710  25.941  1.00  0.00     0.043 C 
ATOM     17  O   UNL A   1      33.936  22.396  26.393  1.00  0.00    -0.369 OA
ATOM     18  C   UNL A   1      31.982  23.746  26.893  1.00  0.00     0.048 C 
ATOM     19  C   UNL A   1      35.435  24.072  25.610  1.00  0.00     0.032 C 
ATOM     20  C   UNL A   1      35.329  22.730  26.301  1.00  0.00     0.161 C 
ENDBRANCH  14  15
ENDBRANCH  11  14
ENDBRANCH   9  11
ENDBRANCH   7   9
ENDBRANCH   4   7
ENDBRANCH   2   3
ENDBRANCH   1   2
BRANCH   1  21
ATOM     21  C   UNL A   1      30.778  27.090  25.025  1.00  0.00     0.002 C 
BRANCH  21  22
ATOM     22  C   UNL A   1      31.547  27.612  26.242  1.00  0.00     0.002 C 
BRANCH  22  23
ATOM     23  C   UNL A   1      32.881  28.294  25.931  1.00  0.00     0.021 C 
BRANCH  23  24
ATOM     24  C   UNL A   1      33.777  28.538  27.142  1.00  0.00     0.116 C 
BRANCH  24  25
ATOM     25  N   UNL A   1      33.719  29.913  27.606  1.00  0.00    -0.352 N 
ATOM     26  C   UNL A   1      34.664  30.646  28.277  1.00  0.00     0.251 C 
ATOM     27  H   UNL A   1      32.879  30.388  27.410  1.00  0.00     0.163 HD
ATOM     28  O   UNL A   1      34.373  31.745  28.748  1.00  0.00    -0.269 OA
BRANCH  26  29
ATOM     29  C   UNL A   1      36.027  30.107  28.460  1.00  0.00     0.039 A 
ATOM     30  C   UNL A   1      36.933  30.194  27.398  1.00  0.00     0.014 A 
ATOM     31  C   UNL A   1      36.414  29.514  29.665  1.00  0.00     0.014 A 
ATOM     32  C   UNL A   1      38.242  29.742  27.568  1.00  0.00     0.010 A 
ATOM     33  C   UNL A   1      37.739  29.131  29.857  1.00  0.00     0.010 A 
ATOM     34  C   UNL A   1      38.667  29.241  28.811  1.00  0.00    -0.014 A 
BRANCH  34  35
ATOM     35  C   UNL A   1      40.082  28.845  29.031  1.00  0.00     0.031 A 
ATOM     36  C   UNL A   1      41.055  29.805  29.657  1.00  0.00     0.074 A 
ATOM     37  C   UNL A   1      40.501  27.634  28.616  1.00  0.00     0.049 A 
ATOM     38  N   UNL A   1      42.334  29.650  29.890  1.00  0.00    -0.248 NA
ATOM     39  C   UNL A   1      40.529  31.121  30.050  1.00  0.00     0.031 C 
ATOM     40  C   UNL A   1      39.667  26.631  27.950  1.00  0.00     0.029 A 
ATOM     41  N   UNL A   1      41.738  27.042  28.685  1.00  0.00    -0.354 N 
ATOM     42  C   UNL A   1      42.764  30.846  30.448  1.00  0.00     0.074 A 
ATOM     43  C   UNL A   1      41.625  31.738  30.466  1.00  0.00     0.031 C 
ATOM     44  C   UNL A   1      40.406  25.540  27.699  1.00  0.00     0.029 A 
ATOM     45  C   UNL A   1      41.774  25.779  28.148  1.00  0.00     0.049 A 
ATOM     46  H   UNL A   1      42.523  27.482  29.084  1.00  0.00     0.167 HD
ATOM     47  C   UNL A   1      43.991  31.166  30.925  1.00  0.00     0.037 A 
ATOM     48  C   UNL A   1      42.797  24.912  28.022  1.00  0.00     0.037 A 
ATOM     49  C   UNL A   1      45.121  30.271  30.919  1.00  0.00     0.049 A 
ATOM     50  C   UNL A   1      44.154  25.297  28.544  1.00  0.00     0.074 A 
ATOM     51  C   UNL A   1      46.389  30.481  31.429  1.00  0.00     0.029 A 
ATOM     52  N   UNL A   1      45.117  28.998  30.368  1.00  0.00    -0.354 N 
ATOM     53  N   UNL A   1      44.528  26.405  29.135  1.00  0.00    -0.248 NA
ATOM     54  C   UNL A   1      45.228  24.307  28.385  1.00  0.00     0.031 C 
ATOM     55  C   UNL A   1      47.169  29.356  31.143  1.00  0.00     0.029 A 
ATOM     56  C   UNL A   1      46.370  28.422  30.503  1.00  0.00     0.049 A 
ATOM     57  H   UNL A   1      44.339  28.567  29.946  1.00  0.00     0.167 HD
ATOM     58  C   UNL A   1      45.872  26.237  29.443  1.00  0.00     0.074 A 
ATOM     59  C   UNL A   1      46.241  24.912  28.990  1.00  0.00     0.031 C 
ATOM     60  C   UNL A   1      46.725  27.101  30.047  1.00  0.00     0.037 A 
BRANCH  47  61
ATOM     61  C   UNL A   1      44.178  32.543  31.495  1.00  0.00     0.057 A 
ATOM     62  C   UNL A   1      43.963  32.816  32.853  1.00  0.00     0.134 A 
ATOM     63  C   UNL A   1      44.612  33.601  30.687  1.00  0.00     0.134 A 
ATOM     64  F   UNL A   1      43.535  31.852  33.681  1.00  0.00    -0.206 F 
ATOM     65  C   UNL A   1      44.147  34.096  33.380  1.00  0.00     0.040 A 
ATOM     66  C   UNL A   1      44.828  34.878  31.207  1.00  0.00     0.040 A 
ATOM     67  F   UNL A   1      44.844  33.409  29.379  1.00  0.00    -0.206 F 
ATOM     68  C   UNL A   1      44.588  35.130  32.557  1.00  0.00     0.006 A 
ENDBRANCH  47  61
BRANCH  48  69
ATOM     69  C   UNL A   1      42.575  23.584  27.394  1.00  0.00     0.057 A 
ATOM     70  C   UNL A   1      42.235  22.467  28.166  1.00  0.00     0.134 A 
ATOM     71  C   UNL A   1      42.706  23.397  26.013  1.00  0.00     0.134 A 
ATOM     72  F   UNL A   1      42.114  22.578  29.497  1.00  0.00    -0.206 F 
ATOM     73  C   UNL A   1      42.057  21.208  27.591  1.00  0.00     0.040 A 
ATOM     74  C   UNL A   1      42.503  22.150  25.421  1.00  0.00     0.040 A 
ATOM     75  F   UNL A   1      43.021  24.429  25.216  1.00  0.00    -0.206 F 
ATOM     76  C   UNL A   1      42.186  21.048  26.213  1.00  0.00     0.006 A 
ENDBRANCH  48  69
BRANCH  60  77
ATOM     77  C   UNL A   1      48.131  26.628  30.278  1.00  0.00     0.057 A 
ATOM     78  C   UNL A   1      48.495  25.922  31.432  1.00  0.00     0.134 A 
ATOM     79  C   UNL A   1      49.126  26.857  29.319  1.00  0.00     0.134 A 
ATOM     80  F   UNL A   1      47.593  25.682  32.395  1.00  0.00    -0.206 F 
ATOM     81  C   UNL A   1      49.806  25.487  31.638  1.00  0.00     0.040 A 
ATOM     82  C   UNL A   1      50.433  26.400  29.499  1.00  0.00     0.040 A 
ATOM     83  F   UNL A   1      48.843  27.518  28.187  1.00  0.00    -0.206 F 
ATOM     84  C   UNL A   1      50.777  25.720  30.666  1.00  0.00     0.006 A 
ENDBRANCH  60  77
ENDBRANCH  34  35
ENDBRANCH  26  29
ENDBRANCH  24  25
ENDBRANCH  23  24
ENDBRANCH  22  23
ENDBRANCH  21  22
ENDBRANCH   1  21
TORSDOF 17
ENDMDL
