MODEL 1
REMARK VINA RESULT:     -11.9      0.000      0.000
REMARK SMILES CS(=O)(=O)c1ccc(C2=NN(c3ccc(C(=O)NCCCCCCNC(=O)c4ccc(-c5c6nc(c(-c7c(F)cccc7F)c7ccc([nH]7)c(-c7c(F)cccc7F)c7nc(c(-c8c(F)cccc8F)c8ccc5[nH]8)C=C7)C=C6)cc4)cc3)[C@H](c3ccccc3)C2)cc1
REMARK SMILES IDX 21 1 20 2 19 3 18 4 16 5 17 6 15 8 12 9 13 10 83 11 14 12
REMARK SMILES IDX 82 13 11 14 9 15 10 16 91 17 84 18 8 19 5 20 6 21 93 22 7 23
REMARK SMILES IDX 92 24 2 25 1 26 3 27 4 28 85 29 86 30 90 31 87 32 89 33
REMARK SMILES IDX 88 34 22 35 23 36 24 37 25 38 26 39 27 41 28 42 29 43 81 44
REMARK SMILES IDX 30 45 80 46 31 47 32 48 33 49 74 50 34 51 79 52 73 53 75 54
REMARK SMILES IDX 35 55 78 56 72 57 71 58 36 60 62 61 45 62 61 63 46 64 49 65
REMARK SMILES IDX 60 66 76 67 47 68 48 69 59 71 77 72 50 73 37 74 38 75 43 76
REMARK SMILES IDX 39 77 40 78 42 79 44 80 41 81 63 82 64 83 69 84 65 85 66 86
REMARK SMILES IDX 68 87 70 88 67 89 51 90 52 91 57 92 53 93 54 94 56 95 58 96
REMARK SMILES IDX 55 97
REMARK H PARENT 18 7 25 40 75 59 49 70
REMARK Flexibility Score: inf
ROOT
ATOM      1  C   UNL A   1      37.072  30.552  30.481  1.00  0.00     0.002 C 
ENDROOT
BRANCH   1   2
ATOM      2  C   UNL A   1      36.621  29.333  29.667  1.00  0.00     0.021 C 
BRANCH   2   3
ATOM      3  C   UNL A   1      36.333  29.654  28.200  1.00  0.00     0.116 C 
BRANCH   3   4
ATOM      4  N   UNL A   1      35.255  30.621  28.099  1.00  0.00    -0.352 N 
ATOM      5  C   UNL A   1      34.035  30.551  27.476  1.00  0.00     0.251 C 
ATOM      6  O   UNL A   1      33.262  31.502  27.581  1.00  0.00    -0.269 OA
ATOM      7  H   UNL A   1      35.430  31.474  28.558  1.00  0.00     0.163 HD
BRANCH   5   8
ATOM      8  C   UNL A   1      33.597  29.332  26.753  1.00  0.00     0.039 A 
ATOM      9  C   UNL A   1      32.700  27.164  25.204  1.00  0.00     0.060 A 
ATOM     10  C   UNL A   1      33.642  28.060  24.689  1.00  0.00     0.029 A 
ATOM     11  C   UNL A   1      32.282  27.317  26.529  1.00  0.00     0.029 A 
ATOM     12  C   UNL A   1      34.093  29.135  25.459  1.00  0.00     0.016 A 
ATOM     13  C   UNL A   1      32.737  28.383  27.307  1.00  0.00     0.016 A 
BRANCH   9  14
ATOM     14  N   UNL A   1      32.166  26.149  24.432  1.00  0.00    -0.257 N 
ATOM     15  C   UNL A   1      32.096  24.141  23.767  1.00  0.00     0.071 C 
ATOM     16  N   UNL A   1      32.333  24.866  24.814  1.00  0.00    -0.176 NA
ATOM     17  C   UNL A   1      31.784  24.902  22.504  1.00  0.00     0.091 C 
ATOM     18  C   UNL A   1      31.660  26.328  23.072  1.00  0.00     0.144 C 
BRANCH  15  19
ATOM     19  C   UNL A   1      32.170  22.672  23.814  1.00  0.00    -0.002 A 
ATOM     20  C   UNL A   1      32.523  19.918  23.971  1.00  0.00     0.067 A 
ATOM     21  C   UNL A   1      32.655  20.694  25.124  1.00  0.00     0.021 A 
ATOM     22  C   UNL A   1      32.213  20.508  22.740  1.00  0.00     0.021 A 
ATOM     23  C   UNL A   1      32.490  22.075  25.040  1.00  0.00     0.011 A 
ATOM     24  C   UNL A   1      32.021  21.893  22.663  1.00  0.00     0.011 A 
BRANCH  20  25
ATOM     25  S   UNL A   1      32.797  18.164  24.075  1.00  0.00     0.175 S 
ATOM     26  C   UNL A   1      34.537  17.990  24.364  1.00  0.00     0.163 C 
ATOM     27  O   UNL A   1      32.528  17.604  22.762  1.00  0.00    -0.224 OA
ATOM     28  O   UNL A   1      32.089  17.700  25.250  1.00  0.00    -0.224 OA
ENDBRANCH  20  25
ENDBRANCH  15  19
BRANCH  18  29
ATOM     29  C   UNL A   1      30.274  26.966  23.120  1.00  0.00    -0.023 A 
ATOM     30  C   UNL A   1      29.158  26.375  23.730  1.00  0.00     0.006 A 
ATOM     31  C   UNL A   1      30.116  28.262  22.584  1.00  0.00     0.006 A 
ATOM     32  C   UNL A   1      27.930  27.046  23.786  1.00  0.00     0.000 A 
ATOM     33  C   UNL A   1      28.898  28.941  22.663  1.00  0.00     0.000 A 
ATOM     34  C   UNL A   1      27.802  28.329  23.259  1.00  0.00     0.000 A 
ENDBRANCH  18  29
ENDBRANCH   9  14
ENDBRANCH   5   8
ENDBRANCH   3   4
ENDBRANCH   2   3
ENDBRANCH   1   2
BRANCH   1  35
ATOM     35  C   UNL A   1      36.188  30.883  31.689  1.00  0.00     0.002 C 
BRANCH  35  36
ATOM     36  C   UNL A   1      35.175  32.008  31.461  1.00  0.00     0.021 C 
BRANCH  36  37
ATOM     37  C   UNL A   1      35.781  33.305  30.933  1.00  0.00     0.116 C 
BRANCH  37  38
ATOM     38  N   UNL A   1      36.214  34.179  32.013  1.00  0.00    -0.352 N 
ATOM     39  C   UNL A   1      37.449  34.291  32.599  1.00  0.00     0.251 C 
ATOM     40  H   UNL A   1      35.519  34.776  32.377  1.00  0.00     0.163 HD
ATOM     41  O   UNL A   1      37.585  34.922  33.642  1.00  0.00    -0.269 OA
BRANCH  39  42
ATOM     42  C   UNL A   1      38.620  33.638  31.976  1.00  0.00     0.039 A 
ATOM     43  C   UNL A   1      39.338  32.693  32.714  1.00  0.00     0.014 A 
ATOM     44  C   UNL A   1      39.021  33.971  30.679  1.00  0.00     0.014 A 
ATOM     45  C   UNL A   1      40.428  32.043  32.130  1.00  0.00     0.010 A 
ATOM     46  C   UNL A   1      40.063  33.274  30.076  1.00  0.00     0.010 A 
ATOM     47  C   UNL A   1      40.780  32.308  30.797  1.00  0.00    -0.014 A 
BRANCH  47  48
ATOM     48  C   UNL A   1      41.898  31.585  30.140  1.00  0.00     0.031 A 
ATOM     49  C   UNL A   1      43.233  32.256  29.966  1.00  0.00     0.074 A 
ATOM     50  C   UNL A   1      41.693  30.350  29.645  1.00  0.00     0.049 A 
ATOM     51  N   UNL A   1      44.307  31.816  29.361  1.00  0.00    -0.248 NA
ATOM     52  C   UNL A   1      43.370  33.610  30.526  1.00  0.00     0.031 C 
ATOM     53  C   UNL A   1      40.432  29.610  29.711  1.00  0.00     0.029 A 
ATOM     54  N   UNL A   1      42.541  29.502  28.978  1.00  0.00    -0.354 N 
ATOM     55  C   UNL A   1      45.239  32.841  29.452  1.00  0.00     0.074 A 
ATOM     56  C   UNL A   1      44.589  33.944  30.127  1.00  0.00     0.031 C 
ATOM     57  C   UNL A   1      40.594  28.412  29.128  1.00  0.00     0.029 A 
ATOM     58  C   UNL A   1      41.957  28.312  28.616  1.00  0.00     0.049 A 
ATOM     59  H   UNL A   1      43.478  29.725  28.778  1.00  0.00     0.167 HD
ATOM     60  C   UNL A   1      46.527  32.855  29.033  1.00  0.00     0.037 A 
ATOM     61  C   UNL A   1      42.461  27.262  27.942  1.00  0.00     0.037 A 
ATOM     62  C   UNL A   1      47.178  31.747  28.385  1.00  0.00     0.049 A 
ATOM     63  C   UNL A   1      43.893  27.303  27.483  1.00  0.00     0.074 A 
ATOM     64  C   UNL A   1      48.495  31.642  27.973  1.00  0.00     0.029 A 
ATOM     65  N   UNL A   1      46.557  30.553  28.051  1.00  0.00    -0.354 N 
ATOM     66  N   UNL A   1      44.782  28.255  27.633  1.00  0.00    -0.248 NA
ATOM     67  C   UNL A   1      44.393  26.121  26.767  1.00  0.00     0.031 C 
ATOM     68  C   UNL A   1      48.662  30.398  27.354  1.00  0.00     0.029 A 
ATOM     69  C   UNL A   1      47.460  29.711  27.420  1.00  0.00     0.049 A 
ATOM     70  H   UNL A   1      45.615  30.335  28.234  1.00  0.00     0.167 HD
ATOM     71  C   UNL A   1      45.951  27.777  27.056  1.00  0.00     0.074 A 
ATOM     72  C   UNL A   1      45.662  26.445  26.566  1.00  0.00     0.031 C 
ATOM     73  C   UNL A   1      47.157  28.386  26.945  1.00  0.00     0.037 A 
BRANCH  60  74
ATOM     74  C   UNL A   1      47.318  34.108  29.269  1.00  0.00     0.057 A 
ATOM     75  C   UNL A   1      48.064  34.302  30.440  1.00  0.00     0.134 A 
ATOM     76  C   UNL A   1      47.364  35.119  28.301  1.00  0.00     0.134 A 
ATOM     77  F   UNL A   1      48.055  33.377  31.412  1.00  0.00    -0.206 F 
ATOM     78  C   UNL A   1      48.805  35.466  30.650  1.00  0.00     0.040 A 
ATOM     79  C   UNL A   1      48.123  36.276  28.488  1.00  0.00     0.040 A 
ATOM     80  F   UNL A   1      46.679  34.996  27.154  1.00  0.00    -0.206 F 
ATOM     81  C   UNL A   1      48.842  36.454  29.668  1.00  0.00     0.006 A 
ENDBRANCH  60  74
BRANCH  61  82
ATOM     82  C   UNL A   1      41.615  26.071  27.679  1.00  0.00     0.057 A 
ATOM     83  C   UNL A   1      40.666  26.075  26.650  1.00  0.00     0.134 A 
ATOM     84  C   UNL A   1      41.727  24.908  28.450  1.00  0.00     0.134 A 
ATOM     85  F   UNL A   1      40.500  27.167  25.889  1.00  0.00    -0.206 F 
ATOM     86  C   UNL A   1      39.847  24.971  26.407  1.00  0.00     0.040 A 
ATOM     87  C   UNL A   1      40.932  23.789  28.202  1.00  0.00     0.040 A 
ATOM     88  F   UNL A   1      42.623  24.839  29.446  1.00  0.00    -0.206 F 
ATOM     89  C   UNL A   1      39.982  23.822  27.183  1.00  0.00     0.006 A 
ENDBRANCH  61  82
BRANCH  73  90
ATOM     90  C   UNL A   1      48.262  27.605  26.296  1.00  0.00     0.057 A 
ATOM     91  C   UNL A   1      48.393  27.523  24.905  1.00  0.00     0.134 A 
ATOM     92  C   UNL A   1      49.229  26.958  27.077  1.00  0.00     0.134 A 
ATOM     93  F   UNL A   1      47.492  28.109  24.101  1.00  0.00    -0.206 F 
ATOM     94  C   UNL A   1      49.435  26.807  24.312  1.00  0.00     0.040 A 
ATOM     95  C   UNL A   1      50.289  26.262  26.495  1.00  0.00     0.040 A 
ATOM     96  F   UNL A   1      49.167  27.005  28.416  1.00  0.00    -0.206 F 
ATOM     97  C   UNL A   1      50.390  26.180  25.108  1.00  0.00     0.006 A 
ENDBRANCH  73  90
ENDBRANCH  47  48
ENDBRANCH  39  42
ENDBRANCH  37  38
ENDBRANCH  36  37
ENDBRANCH  35  36
ENDBRANCH   1  35
TORSDOF 17
ENDMDL
MODEL 2
REMARK VINA RESULT:     -11.8      4.884      9.665
REMARK SMILES CS(=O)(=O)c1ccc(C2=NN(c3ccc(C(=O)NCCCCCCNC(=O)c4ccc(-c5c6nc(c(-c7c(F)cccc7F)c7ccc([nH]7)c(-c7c(F)cccc7F)c7nc(c(-c8c(F)cccc8F)c8ccc5[nH]8)C=C7)C=C6)cc4)cc3)[C@H](c3ccccc3)C2)cc1
REMARK SMILES IDX 21 1 20 2 19 3 18 4 16 5 17 6 15 8 12 9 13 10 83 11 14 12
REMARK SMILES IDX 82 13 11 14 9 15 10 16 91 17 84 18 8 19 5 20 6 21 93 22 7 23
REMARK SMILES IDX 92 24 2 25 1 26 3 27 4 28 85 29 86 30 90 31 87 32 89 33
REMARK SMILES IDX 88 34 22 35 23 36 24 37 25 38 26 39 27 41 28 42 29 43 81 44
REMARK SMILES IDX 30 45 80 46 31 47 32 48 33 49 74 50 34 51 79 52 73 53 75 54
REMARK SMILES IDX 35 55 78 56 72 57 71 58 36 60 62 61 45 62 61 63 46 64 49 65
REMARK SMILES IDX 60 66 76 67 47 68 48 69 59 71 77 72 50 73 37 74 38 75 43 76
REMARK SMILES IDX 39 77 40 78 42 79 44 80 41 81 63 82 64 83 69 84 65 85 66 86
REMARK SMILES IDX 68 87 70 88 67 89 51 90 52 91 57 92 53 93 54 94 56 95 58 96
REMARK SMILES IDX 55 97
REMARK H PARENT 18 7 25 40 75 59 49 70
REMARK Flexibility Score: inf
ROOT
ATOM      1  C   UNL A   1      41.610  25.482  26.770  1.00  0.00     0.002 C 
ENDROOT
BRANCH   1   2
ATOM      2  C   UNL A   1      40.135  25.733  26.434  1.00  0.00     0.021 C 
BRANCH   2   3
ATOM      3  C   UNL A   1      39.184  24.732  27.091  1.00  0.00     0.116 C 
BRANCH   3   4
ATOM      4  N   UNL A   1      39.413  23.399  26.562  1.00  0.00    -0.352 N 
ATOM      5  C   UNL A   1      38.592  22.552  25.863  1.00  0.00     0.251 C 
ATOM      6  O   UNL A   1      39.045  21.477  25.474  1.00  0.00    -0.269 OA
ATOM      7  H   UNL A   1      40.314  23.043  26.735  1.00  0.00     0.163 HD
BRANCH   5   8
ATOM      8  C   UNL A   1      37.206  22.934  25.497  1.00  0.00     0.039 A 
ATOM      9  C   UNL A   1      34.505  23.462  24.919  1.00  0.00     0.060 A 
ATOM     10  C   UNL A   1      34.924  23.280  26.241  1.00  0.00     0.029 A 
ATOM     11  C   UNL A   1      35.467  23.464  23.905  1.00  0.00     0.029 A 
ATOM     12  C   UNL A   1      36.266  23.022  26.531  1.00  0.00     0.016 A 
ATOM     13  C   UNL A   1      36.811  23.218  24.189  1.00  0.00     0.016 A 
BRANCH   9  14
ATOM     14  N   UNL A   1      33.171  23.623  24.595  1.00  0.00    -0.257 N 
ATOM     15  C   UNL A   1      31.465  24.820  24.226  1.00  0.00     0.071 C 
ATOM     16  N   UNL A   1      32.751  24.794  24.073  1.00  0.00    -0.176 NA
ATOM     17  C   UNL A   1      30.871  23.638  24.949  1.00  0.00     0.091 C 
ATOM     18  C   UNL A   1      32.105  22.721  25.027  1.00  0.00     0.144 C 
BRANCH  15  19
ATOM     19  C   UNL A   1      30.655  25.955  23.756  1.00  0.00    -0.002 A 
ATOM     20  C   UNL A   1      29.260  28.235  22.987  1.00  0.00     0.067 A 
ATOM     21  C   UNL A   1      30.610  28.110  22.653  1.00  0.00     0.021 A 
ATOM     22  C   UNL A   1      28.601  27.226  23.701  1.00  0.00     0.021 A 
ATOM     23  C   UNL A   1      31.310  26.973  23.050  1.00  0.00     0.011 A 
ATOM     24  C   UNL A   1      29.300  26.072  24.076  1.00  0.00     0.011 A 
BRANCH  20  25
ATOM     25  S   UNL A   1      28.390  29.717  22.531  1.00  0.00     0.175 S 
ATOM     26  C   UNL A   1      29.089  30.988  23.551  1.00  0.00     0.163 C 
ATOM     27  O   UNL A   1      27.008  29.554  22.946  1.00  0.00    -0.224 OA
ATOM     28  O   UNL A   1      28.734  29.995  21.153  1.00  0.00    -0.224 OA
ENDBRANCH  20  25
ENDBRANCH  15  19
BRANCH  18  29
ATOM     29  C   UNL A   1      32.120  21.460  24.165  1.00  0.00    -0.023 A 
ATOM     30  C   UNL A   1      31.966  21.460  22.771  1.00  0.00     0.006 A 
ATOM     31  C   UNL A   1      32.377  20.224  24.794  1.00  0.00     0.006 A 
ATOM     32  C   UNL A   1      32.049  20.269  22.039  1.00  0.00     0.000 A 
ATOM     33  C   UNL A   1      32.486  19.041  24.061  1.00  0.00     0.000 A 
ATOM     34  C   UNL A   1      32.315  19.062  22.682  1.00  0.00     0.000 A 
ENDBRANCH  18  29
ENDBRANCH   9  14
ENDBRANCH   5   8
ENDBRANCH   3   4
ENDBRANCH   2   3
ENDBRANCH   1   2
BRANCH   1  35
ATOM     35  C   UNL A   1      42.569  25.581  25.577  1.00  0.00     0.002 C 
BRANCH  35  36
ATOM     36  C   UNL A   1      43.089  24.241  25.051  1.00  0.00     0.021 C 
BRANCH  36  37
ATOM     37  C   UNL A   1      43.427  23.224  26.138  1.00  0.00     0.116 C 
BRANCH  37  38
ATOM     38  N   UNL A   1      44.864  23.088  26.322  1.00  0.00    -0.352 N 
ATOM     39  C   UNL A   1      45.714  23.821  27.111  1.00  0.00     0.251 C 
ATOM     40  H   UNL A   1      45.288  22.364  25.805  1.00  0.00     0.163 HD
ATOM     41  O   UNL A   1      46.928  23.711  26.981  1.00  0.00    -0.269 OA
BRANCH  39  42
ATOM     42  C   UNL A   1      45.162  24.756  28.114  1.00  0.00     0.039 A 
ATOM     43  C   UNL A   1      45.446  26.119  27.995  1.00  0.00     0.014 A 
ATOM     44  C   UNL A   1      44.385  24.289  29.178  1.00  0.00     0.014 A 
ATOM     45  C   UNL A   1      44.908  27.021  28.915  1.00  0.00     0.010 A 
ATOM     46  C   UNL A   1      43.794  25.195  30.053  1.00  0.00     0.010 A 
ATOM     47  C   UNL A   1      44.053  26.569  29.934  1.00  0.00    -0.014 A 
BRANCH  47  48
ATOM     48  C   UNL A   1      43.424  27.518  30.886  1.00  0.00     0.031 A 
ATOM     49  C   UNL A   1      44.040  27.752  32.237  1.00  0.00     0.074 A 
ATOM     50  C   UNL A   1      42.265  28.121  30.558  1.00  0.00     0.049 A 
ATOM     51  N   UNL A   1      43.604  28.488  33.229  1.00  0.00    -0.248 NA
ATOM     52  C   UNL A   1      45.300  27.046  32.522  1.00  0.00     0.031 C 
ATOM     53  C   UNL A   1      41.546  27.942  29.295  1.00  0.00     0.029 A 
ATOM     54  N   UNL A   1      41.483  28.999  31.264  1.00  0.00    -0.354 N 
ATOM     55  C   UNL A   1      44.524  28.322  34.255  1.00  0.00     0.074 A 
ATOM     56  C   UNL A   1      45.515  27.378  33.787  1.00  0.00     0.031 C 
ATOM     57  C   UNL A   1      40.440  28.701  29.308  1.00  0.00     0.029 A 
ATOM     58  C   UNL A   1      40.352  29.393  30.591  1.00  0.00     0.049 A 
ATOM     59  H   UNL A   1      41.710  29.316  32.168  1.00  0.00     0.167 HD
ATOM     60  C   UNL A   1      44.555  28.921  35.470  1.00  0.00     0.037 A 
ATOM     61  C   UNL A   1      39.354  30.213  30.967  1.00  0.00     0.037 A 
ATOM     62  C   UNL A   1      43.581  29.879  35.924  1.00  0.00     0.049 A 
ATOM     63  C   UNL A   1      39.408  30.862  32.324  1.00  0.00     0.074 A 
ATOM     64  C   UNL A   1      43.555  30.583  37.115  1.00  0.00     0.029 A 
ATOM     65  N   UNL A   1      42.459  30.264  35.206  1.00  0.00    -0.354 N 
ATOM     66  N   UNL A   1      40.318  30.745  33.260  1.00  0.00    -0.248 NA
ATOM     67  C   UNL A   1      38.299  31.761  32.672  1.00  0.00     0.031 C 
ATOM     68  C   UNL A   1      42.395  31.365  37.136  1.00  0.00     0.029 A 
ATOM     69  C   UNL A   1      41.723  31.183  35.937  1.00  0.00     0.049 A 
ATOM     70  H   UNL A   1      42.221  29.935  34.310  1.00  0.00     0.167 HD
ATOM     71  C   UNL A   1      39.907  31.575  34.294  1.00  0.00     0.074 A 
ATOM     72  C   UNL A   1      38.673  32.199  33.865  1.00  0.00     0.031 C 
ATOM     73  C   UNL A   1      40.500  31.800  35.492  1.00  0.00     0.037 A 
BRANCH  60  74
ATOM     74  C   UNL A   1      45.681  28.557  36.393  1.00  0.00     0.057 A 
ATOM     75  C   UNL A   1      46.896  29.256  36.386  1.00  0.00     0.134 A 
ATOM     76  C   UNL A   1      45.540  27.519  37.323  1.00  0.00     0.134 A 
ATOM     77  F   UNL A   1      47.101  30.253  35.513  1.00  0.00    -0.206 F 
ATOM     78  C   UNL A   1      47.938  28.919  37.252  1.00  0.00     0.040 A 
ATOM     79  C   UNL A   1      46.564  27.191  38.213  1.00  0.00     0.040 A 
ATOM     80  F   UNL A   1      44.401  26.814  37.388  1.00  0.00    -0.206 F 
ATOM     81  C   UNL A   1      47.770  27.888  38.174  1.00  0.00     0.006 A 
ENDBRANCH  60  74
BRANCH  61  82
ATOM     82  C   UNL A   1      38.228  30.490  30.040  1.00  0.00     0.057 A 
ATOM     83  C   UNL A   1      38.161  31.693  29.327  1.00  0.00     0.134 A 
ATOM     84  C   UNL A   1      37.193  29.568  29.848  1.00  0.00     0.134 A 
ATOM     85  F   UNL A   1      39.115  32.623  29.483  1.00  0.00    -0.206 F 
ATOM     86  C   UNL A   1      37.097  31.977  28.470  1.00  0.00     0.040 A 
ATOM     87  C   UNL A   1      36.135  29.828  28.977  1.00  0.00     0.040 A 
ATOM     88  F   UNL A   1      37.203  28.393  30.496  1.00  0.00    -0.206 F 
ATOM     89  C   UNL A   1      36.081  31.039  28.291  1.00  0.00     0.006 A 
ENDBRANCH  61  82
BRANCH  73  90
ATOM     90  C   UNL A   1      39.840  32.787  36.409  1.00  0.00     0.057 A 
ATOM     91  C   UNL A   1      38.741  32.439  37.204  1.00  0.00     0.134 A 
ATOM     92  C   UNL A   1      40.334  34.093  36.524  1.00  0.00     0.134 A 
ATOM     93  F   UNL A   1      38.212  31.208  37.131  1.00  0.00    -0.206 F 
ATOM     94  C   UNL A   1      38.145  33.361  38.066  1.00  0.00     0.040 A 
ATOM     95  C   UNL A   1      39.762  35.015  37.402  1.00  0.00     0.040 A 
ATOM     96  F   UNL A   1      41.390  34.489  35.796  1.00  0.00    -0.206 F 
ATOM     97  C   UNL A   1      38.660  34.651  38.172  1.00  0.00     0.006 A 
ENDBRANCH  73  90
ENDBRANCH  47  48
ENDBRANCH  39  42
ENDBRANCH  37  38
ENDBRANCH  36  37
ENDBRANCH  35  36
ENDBRANCH   1  35
TORSDOF 17
ENDMDL
MODEL 3
REMARK VINA RESULT:     -11.7      3.843      8.374
REMARK SMILES CS(=O)(=O)c1ccc(C2=NN(c3ccc(C(=O)NCCCCCCNC(=O)c4ccc(-c5c6nc(c(-c7c(F)cccc7F)c7ccc([nH]7)c(-c7c(F)cccc7F)c7nc(c(-c8c(F)cccc8F)c8ccc5[nH]8)C=C7)C=C6)cc4)cc3)[C@H](c3ccccc3)C2)cc1
REMARK SMILES IDX 21 1 20 2 19 3 18 4 16 5 17 6 15 8 12 9 13 10 83 11 14 12
REMARK SMILES IDX 82 13 11 14 9 15 10 16 91 17 84 18 8 19 5 20 6 21 93 22 7 23
REMARK SMILES IDX 92 24 2 25 1 26 3 27 4 28 85 29 86 30 90 31 87 32 89 33
REMARK SMILES IDX 88 34 22 35 23 36 24 37 25 38 26 39 27 41 28 42 29 43 81 44
REMARK SMILES IDX 30 45 80 46 31 47 32 48 33 49 74 50 34 51 79 52 73 53 75 54
REMARK SMILES IDX 35 55 78 56 72 57 71 58 36 60 62 61 45 62 61 63 46 64 49 65
REMARK SMILES IDX 60 66 76 67 47 68 48 69 59 71 77 72 50 73 37 74 38 75 43 76
REMARK SMILES IDX 39 77 40 78 42 79 44 80 41 81 63 82 64 83 69 84 65 85 66 86
REMARK SMILES IDX 68 87 70 88 67 89 51 90 52 91 57 92 53 93 54 94 56 95 58 96
REMARK SMILES IDX 55 97
REMARK H PARENT 18 7 25 40 75 59 49 70
REMARK Flexibility Score: inf
ROOT
ATOM      1  C   UNL A   1      43.245  34.783  31.608  1.00  0.00     0.002 C 
ENDROOT
BRANCH   1   2
ATOM      2  C   UNL A   1      42.571  33.425  31.834  1.00  0.00     0.021 C 
BRANCH   2   3
ATOM      3  C   UNL A   1      41.338  33.501  32.737  1.00  0.00     0.116 C 
BRANCH   3   4
ATOM      4  N   UNL A   1      40.991  32.179  33.227  1.00  0.00    -0.352 N 
ATOM      5  C   UNL A   1      39.866  31.416  33.047  1.00  0.00     0.251 C 
ATOM      6  O   UNL A   1      39.834  30.286  33.532  1.00  0.00    -0.269 OA
ATOM      7  H   UNL A   1      41.685  31.757  33.784  1.00  0.00     0.163 HD
BRANCH   5   8
ATOM      8  C   UNL A   1      38.729  31.887  32.219  1.00  0.00     0.039 A 
ATOM      9  C   UNL A   1      36.471  32.566  30.687  1.00  0.00     0.060 A 
ATOM     10  C   UNL A   1      36.325  32.129  32.007  1.00  0.00     0.029 A 
ATOM     11  C   UNL A   1      37.760  32.741  30.177  1.00  0.00     0.029 A 
ATOM     12  C   UNL A   1      37.445  31.795  32.772  1.00  0.00     0.016 A 
ATOM     13  C   UNL A   1      38.884  32.420  30.939  1.00  0.00     0.016 A 
BRANCH   9  14
ATOM     14  N   UNL A   1      35.377  32.810  29.878  1.00  0.00    -0.257 N 
ATOM     15  C   UNL A   1      34.072  32.304  28.290  1.00  0.00     0.071 C 
ATOM     16  N   UNL A   1      34.778  31.782  29.243  1.00  0.00    -0.176 NA
ATOM     17  C   UNL A   1      34.175  33.801  28.148  1.00  0.00     0.091 C 
ATOM     18  C   UNL A   1      34.971  34.139  29.422  1.00  0.00     0.144 C 
BRANCH  15  19
ATOM     19  C   UNL A   1      33.260  31.472  27.387  1.00  0.00    -0.002 A 
ATOM     20  C   UNL A   1      31.895  29.910  25.534  1.00  0.00     0.067 A 
ATOM     21  C   UNL A   1      33.111  29.457  26.052  1.00  0.00     0.021 A 
ATOM     22  C   UNL A   1      31.356  31.138  25.939  1.00  0.00     0.021 A 
ATOM     23  C   UNL A   1      33.799  30.248  26.970  1.00  0.00     0.011 A 
ATOM     24  C   UNL A   1      32.036  31.918  26.882  1.00  0.00     0.011 A 
BRANCH  20  25
ATOM     25  S   UNL A   1      31.055  28.926  24.316  1.00  0.00     0.175 S 
ATOM     26  C   UNL A   1      32.179  28.834  22.949  1.00  0.00     0.163 C 
ATOM     27  O   UNL A   1      29.902  29.684  23.865  1.00  0.00    -0.224 OA
ATOM     28  O   UNL A   1      30.910  27.600  24.879  1.00  0.00    -0.224 OA
ENDBRANCH  20  25
ENDBRANCH  15  19
BRANCH  18  29
ATOM     29  C   UNL A   1      34.247  34.868  30.551  1.00  0.00    -0.023 A 
ATOM     30  C   UNL A   1      34.727  34.953  31.866  1.00  0.00     0.006 A 
ATOM     31  C   UNL A   1      33.058  35.562  30.242  1.00  0.00     0.006 A 
ATOM     32  C   UNL A   1      34.035  35.689  32.837  1.00  0.00     0.000 A 
ATOM     33  C   UNL A   1      32.383  36.317  31.205  1.00  0.00     0.000 A 
ATOM     34  C   UNL A   1      32.869  36.375  32.505  1.00  0.00     0.000 A 
ENDBRANCH  18  29
ENDBRANCH   9  14
ENDBRANCH   5   8
ENDBRANCH   3   4
ENDBRANCH   2   3
ENDBRANCH   1   2
BRANCH   1  35
ATOM     35  C   UNL A   1      42.999  35.402  30.227  1.00  0.00     0.002 C 
BRANCH  35  36
ATOM     36  C   UNL A   1      43.851  36.633  29.908  1.00  0.00     0.021 C 
BRANCH  36  37
ATOM     37  C   UNL A   1      45.094  36.784  30.779  1.00  0.00     0.116 C 
BRANCH  37  38
ATOM     38  N   UNL A   1      46.296  36.968  29.980  1.00  0.00    -0.352 N 
ATOM     39  C   UNL A   1      47.040  36.036  29.301  1.00  0.00     0.251 C 
ATOM     40  H   UNL A   1      46.624  37.895  29.918  1.00  0.00     0.163 HD
ATOM     41  O   UNL A   1      48.145  36.330  28.858  1.00  0.00    -0.269 OA
BRANCH  39  42
ATOM     42  C   UNL A   1      46.511  34.669  29.113  1.00  0.00     0.039 A 
ATOM     43  C   UNL A   1      45.904  34.340  27.898  1.00  0.00     0.014 A 
ATOM     44  C   UNL A   1      46.594  33.722  30.137  1.00  0.00     0.014 A 
ATOM     45  C   UNL A   1      45.427  33.044  27.691  1.00  0.00     0.010 A 
ATOM     46  C   UNL A   1      46.181  32.413  29.906  1.00  0.00     0.010 A 
ATOM     47  C   UNL A   1      45.589  32.062  28.683  1.00  0.00    -0.014 A 
BRANCH  47  48
ATOM     48  C   UNL A   1      45.142  30.664  28.460  1.00  0.00     0.031 A 
ATOM     49  C   UNL A   1      46.105  29.639  27.929  1.00  0.00     0.074 A 
ATOM     50  C   UNL A   1      43.854  30.335  28.676  1.00  0.00     0.049 A 
ATOM     51  N   UNL A   1      45.887  28.389  27.606  1.00  0.00    -0.248 NA
ATOM     52  C   UNL A   1      47.491  30.084  27.709  1.00  0.00     0.031 C 
ATOM     53  C   UNL A   1      42.814  31.250  29.149  1.00  0.00     0.029 A 
ATOM     54  N   UNL A   1      43.199  29.141  28.517  1.00  0.00    -0.354 N 
ATOM     55  C   UNL A   1      47.099  27.905  27.132  1.00  0.00     0.074 A 
ATOM     56  C   UNL A   1      48.036  29.007  27.162  1.00  0.00     0.031 C 
ATOM     57  C   UNL A   1      41.657  30.579  29.260  1.00  0.00     0.029 A 
ATOM     58  C   UNL A   1      41.863  29.199  28.834  1.00  0.00     0.049 A 
ATOM     59  H   UNL A   1      43.643  28.319  28.204  1.00  0.00     0.167 HD
ATOM     60  C   UNL A   1      47.410  26.649  26.730  1.00  0.00     0.037 A 
ATOM     61  C   UNL A   1      40.912  28.249  28.781  1.00  0.00     0.037 A 
ATOM     62  C   UNL A   1      46.482  25.549  26.725  1.00  0.00     0.049 A 
ATOM     63  C   UNL A   1      41.281  26.863  28.326  1.00  0.00     0.074 A 
ATOM     64  C   UNL A   1      46.715  24.227  26.389  1.00  0.00     0.029 A 
ATOM     65  N   UNL A   1      45.143  25.644  27.069  1.00  0.00    -0.354 N 
ATOM     66  N   UNL A   1      42.447  26.403  27.941  1.00  0.00    -0.248 NA
ATOM     67  C   UNL A   1      40.204  25.864  28.306  1.00  0.00     0.031 C 
ATOM     68  C   UNL A   1      45.507  23.529  26.492  1.00  0.00     0.029 A 
ATOM     69  C   UNL A   1      44.531  24.408  26.936  1.00  0.00     0.049 A 
ATOM     70  H   UNL A   1      44.693  26.468  27.365  1.00  0.00     0.167 HD
ATOM     71  C   UNL A   1      42.250  25.058  27.660  1.00  0.00     0.074 A 
ATOM     72  C   UNL A   1      40.856  24.773  27.931  1.00  0.00     0.031 C 
ATOM     73  C   UNL A   1      43.144  24.140  27.217  1.00  0.00     0.037 A 
BRANCH  60  74
ATOM     74  C   UNL A   1      48.815  26.400  26.266  1.00  0.00     0.057 A 
ATOM     75  C   UNL A   1      49.237  26.738  24.972  1.00  0.00     0.134 A 
ATOM     76  C   UNL A   1      49.768  25.847  27.131  1.00  0.00     0.134 A 
ATOM     77  F   UNL A   1      48.372  27.260  24.091  1.00  0.00    -0.206 F 
ATOM     78  C   UNL A   1      50.548  26.511  24.548  1.00  0.00     0.040 A 
ATOM     79  C   UNL A   1      51.089  25.641  26.727  1.00  0.00     0.040 A 
ATOM     80  F   UNL A   1      49.435  25.507  28.385  1.00  0.00    -0.206 F 
ATOM     81  C   UNL A   1      51.480  25.968  25.430  1.00  0.00     0.006 A 
ENDBRANCH  60  74
BRANCH  61  82
ATOM     82  C   UNL A   1      39.521  28.566  29.191  1.00  0.00     0.057 A 
ATOM     83  C   UNL A   1      39.090  28.346  30.505  1.00  0.00     0.134 A 
ATOM     84  C   UNL A   1      38.590  29.086  28.285  1.00  0.00     0.134 A 
ATOM     85  F   UNL A   1      39.931  27.831  31.414  1.00  0.00    -0.206 F 
ATOM     86  C   UNL A   1      37.778  28.615  30.899  1.00  0.00     0.040 A 
ATOM     87  C   UNL A   1      37.282  29.383  28.671  1.00  0.00     0.040 A 
ATOM     88  F   UNL A   1      38.943  29.327  27.013  1.00  0.00    -0.206 F 
ATOM     89  C   UNL A   1      36.871  29.140  29.980  1.00  0.00     0.006 A 
ENDBRANCH  61  82
BRANCH  73  90
ATOM     90  C   UNL A   1      42.650  22.735  27.032  1.00  0.00     0.057 A 
ATOM     91  C   UNL A   1      42.451  22.183  25.761  1.00  0.00     0.134 A 
ATOM     92  C   UNL A   1      42.408  21.915  28.141  1.00  0.00     0.134 A 
ATOM     93  F   UNL A   1      42.653  22.921  24.659  1.00  0.00    -0.206 F 
ATOM     94  C   UNL A   1      42.007  20.869  25.600  1.00  0.00     0.040 A 
ATOM     95  C   UNL A   1      41.989  20.592  27.991  1.00  0.00     0.040 A 
ATOM     96  F   UNL A   1      42.588  22.380  29.387  1.00  0.00    -0.206 F 
ATOM     97  C   UNL A   1      41.781  20.068  26.717  1.00  0.00     0.006 A 
ENDBRANCH  73  90
ENDBRANCH  47  48
ENDBRANCH  39  42
ENDBRANCH  37  38
ENDBRANCH  36  37
ENDBRANCH  35  36
ENDBRANCH   1  35
TORSDOF 17
ENDMDL
