MODEL 1
REMARK VINA RESULT:     -11.7      0.000      0.000
REMARK SMILES O=C(NCCCCCCNC(=O)c1cc(-c2ccn(C(F)F)c(=O)c2)ccc1O)c1ccc(-c2c3nc(c(-c4c(F)cccc4F)c4ccc([nH]4)c(-c4c(F)cccc4F)c4nc(c(-c5c(F)cccc5F)c5ccc2[nH]5)C=C4)C=C3)cc1
REMARK SMILES IDX 6 1 5 2 4 3 3 4 1 5 2 6 30 8 31 9 83 10 32 11 82 12 33 13
REMARK SMILES IDX 34 14 35 15 76 16 36 17 81 18 75 19 77 20 37 21 80 22 74 23
REMARK SMILES IDX 73 24 38 26 64 27 47 28 63 29 48 30 51 31 62 32 78 33 49 34
REMARK SMILES IDX 50 35 61 37 79 38 52 39 39 40 40 41 45 42 41 43 42 44 44 45
REMARK SMILES IDX 46 46 43 47 65 48 66 49 71 50 67 51 68 52 70 53 72 54 69 55
REMARK SMILES IDX 53 56 54 57 59 58 55 59 56 60 58 61 60 62 57 63 7 64 8 65
REMARK SMILES IDX 9 66 10 67 11 68 12 70 13 71 14 72 28 73 15 74 27 75 26 76
REMARK SMILES IDX 29 77 16 79 17 80 25 81 18 82 23 83 19 84 24 85 20 86 21 87
REMARK SMILES IDX 22 88
REMARK H PARENT 3 7 77 25 51 36 10 69 29 78
REMARK Flexibility Score: inf
ROOT
ATOM      1  C   UNL A   1      36.262  20.427  24.975  1.00  0.00     0.002 C 
ENDROOT
BRANCH   1   2
ATOM      2  C   UNL A   1      37.530  19.572  24.944  1.00  0.00     0.021 C 
BRANCH   2   3
ATOM      3  C   UNL A   1      38.772  20.228  25.536  1.00  0.00     0.116 C 
BRANCH   3   4
ATOM      4  N   UNL A   1      39.883  19.303  25.667  1.00  0.00    -0.352 N 
ATOM      5  O   UNL A   1      42.017  18.649  25.961  1.00  0.00    -0.269 OA
ATOM      6  C   UNL A   1      41.174  19.542  26.058  1.00  0.00     0.251 C 
ATOM      7  H   UNL A   1      39.679  18.368  25.442  1.00  0.00     0.163 HD
BRANCH   6   8
ATOM      8  C   UNL A   1      41.573  20.867  26.583  1.00  0.00     0.039 A 
ATOM      9  C   UNL A   1      41.462  21.105  27.956  1.00  0.00     0.014 A 
ATOM     10  C   UNL A   1      42.001  21.890  25.732  1.00  0.00     0.014 A 
ATOM     11  C   UNL A   1      41.799  22.357  28.477  1.00  0.00     0.010 A 
ATOM     12  C   UNL A   1      42.416  23.110  26.260  1.00  0.00     0.010 A 
ATOM     13  C   UNL A   1      42.287  23.367  27.633  1.00  0.00    -0.014 A 
BRANCH  13  14
ATOM     14  C   UNL A   1      42.577  24.727  28.156  1.00  0.00     0.031 A 
ATOM     15  C   UNL A   1      43.994  25.105  28.498  1.00  0.00     0.074 A 
ATOM     16  C   UNL A   1      41.579  25.611  28.346  1.00  0.00     0.049 A 
ATOM     17  N   UNL A   1      44.458  26.218  29.008  1.00  0.00    -0.248 NA
ATOM     18  C   UNL A   1      45.026  24.083  28.257  1.00  0.00     0.031 C 
ATOM     19  C   UNL A   1      40.162  25.363  28.075  1.00  0.00     0.029 A 
ATOM     20  N   UNL A   1      41.609  26.901  28.811  1.00  0.00    -0.354 N 
ATOM     21  C   UNL A   1      45.824  26.019  29.167  1.00  0.00     0.074 A 
ATOM     22  C   UNL A   1      46.104  24.661  28.758  1.00  0.00     0.031 C 
ATOM     23  C   UNL A   1      39.464  26.480  28.344  1.00  0.00     0.029 A 
ATOM     24  C   UNL A   1      40.376  27.506  28.839  1.00  0.00     0.049 A 
ATOM     25  H   UNL A   1      42.437  27.351  29.098  1.00  0.00     0.167 HD
ATOM     26  C   UNL A   1      46.769  26.896  29.586  1.00  0.00     0.037 A 
ATOM     27  C   UNL A   1      40.027  28.749  29.220  1.00  0.00     0.037 A 
ATOM     28  C   UNL A   1      46.497  28.258  29.961  1.00  0.00     0.049 A 
ATOM     29  C   UNL A   1      41.090  29.695  29.709  1.00  0.00     0.074 A 
ATOM     30  C   UNL A   1      47.387  29.243  30.348  1.00  0.00     0.029 A 
ATOM     31  N   UNL A   1      45.232  28.826  29.991  1.00  0.00    -0.354 N 
ATOM     32  N   UNL A   1      42.385  29.511  29.805  1.00  0.00    -0.248 NA
ATOM     33  C   UNL A   1      40.638  31.024  30.143  1.00  0.00     0.031 C 
ATOM     34  C   UNL A   1      46.657  30.398  30.653  1.00  0.00     0.029 A 
ATOM     35  C   UNL A   1      45.316  30.143  30.413  1.00  0.00     0.049 A 
ATOM     36  H   UNL A   1      44.398  28.363  29.750  1.00  0.00     0.167 HD
ATOM     37  C   UNL A   1      42.905  30.710  30.278  1.00  0.00     0.074 A 
ATOM     38  C   UNL A   1      41.786  31.616  30.435  1.00  0.00     0.031 C 
ATOM     39  C   UNL A   1      44.191  31.032  30.559  1.00  0.00     0.037 A 
BRANCH  26  40
ATOM     40  C   UNL A   1      48.183  26.394  29.657  1.00  0.00     0.057 A 
ATOM     41  C   UNL A   1      49.033  26.493  28.548  1.00  0.00     0.134 A 
ATOM     42  C   UNL A   1      48.708  25.821  30.823  1.00  0.00     0.134 A 
ATOM     43  F   UNL A   1      48.594  27.025  27.397  1.00  0.00    -0.206 F 
ATOM     44  C   UNL A   1      50.356  26.051  28.602  1.00  0.00     0.040 A 
ATOM     45  C   UNL A   1      50.037  25.403  30.898  1.00  0.00     0.040 A 
ATOM     46  F   UNL A   1      47.951  25.710  31.926  1.00  0.00    -0.206 F 
ATOM     47  C   UNL A   1      50.865  25.515  29.784  1.00  0.00     0.006 A 
ENDBRANCH  26  40
BRANCH  27  48
ATOM     48  C   UNL A   1      38.613  29.193  29.130  1.00  0.00     0.057 A 
ATOM     49  C   UNL A   1      37.760  29.164  30.238  1.00  0.00     0.134 A 
ATOM     50  C   UNL A   1      38.097  29.698  27.930  1.00  0.00     0.134 A 
ATOM     51  F   UNL A   1      38.192  28.689  31.416  1.00  0.00    -0.206 F 
ATOM     52  C   UNL A   1      36.443  29.621  30.158  1.00  0.00     0.040 A 
ATOM     53  C   UNL A   1      36.790  30.181  27.842  1.00  0.00     0.040 A 
ATOM     54  F   UNL A   1      38.875  29.772  26.840  1.00  0.00    -0.206 F 
ATOM     55  C   UNL A   1      35.959  30.141  28.958  1.00  0.00     0.006 A 
ENDBRANCH  27  48
BRANCH  39  56
ATOM     56  C   UNL A   1      44.453  32.433  31.028  1.00  0.00     0.057 A 
ATOM     57  C   UNL A   1      44.449  32.740  32.394  1.00  0.00     0.134 A 
ATOM     58  C   UNL A   1      44.700  33.479  30.129  1.00  0.00     0.134 A 
ATOM     59  F   UNL A   1      44.211  31.787  33.307  1.00  0.00    -0.206 F 
ATOM     60  C   UNL A   1      44.686  34.038  32.851  1.00  0.00     0.040 A 
ATOM     61  C   UNL A   1      44.967  34.775  30.575  1.00  0.00     0.040 A 
ATOM     62  F   UNL A   1      44.734  33.248  28.808  1.00  0.00    -0.206 F 
ATOM     63  C   UNL A   1      44.955  35.057  31.940  1.00  0.00     0.006 A 
ENDBRANCH  39  56
ENDBRANCH  13  14
ENDBRANCH   6   8
ENDBRANCH   3   4
ENDBRANCH   2   3
ENDBRANCH   1   2
BRANCH   1  64
ATOM     64  C   UNL A   1      36.454  21.912  24.650  1.00  0.00     0.002 C 
BRANCH  64  65
ATOM     65  C   UNL A   1      36.091  22.890  25.770  1.00  0.00     0.021 C 
BRANCH  65  66
ATOM     66  C   UNL A   1      35.384  24.164  25.317  1.00  0.00     0.116 C 
BRANCH  66  67
ATOM     67  N   UNL A   1      34.193  24.441  26.096  1.00  0.00    -0.352 N 
ATOM     68  C   UNL A   1      32.926  23.952  25.914  1.00  0.00     0.255 C 
ATOM     69  H   UNL A   1      34.310  25.060  26.854  1.00  0.00     0.163 HD
ATOM     70  O   UNL A   1      32.000  24.340  26.628  1.00  0.00    -0.269 OA
BRANCH  68  71
ATOM     71  C   UNL A   1      32.644  23.015  24.809  1.00  0.00     0.082 A 
ATOM     72  C   UNL A   1      32.825  21.648  25.064  1.00  0.00     0.026 A 
ATOM     73  C   UNL A   1      32.242  23.447  23.540  1.00  0.00     0.128 A 
ATOM     74  C   UNL A   1      32.556  20.709  24.064  1.00  0.00    -0.017 A 
ATOM     75  C   UNL A   1      31.960  22.515  22.544  1.00  0.00     0.047 A 
ATOM     76  C   UNL A   1      32.110  21.153  22.810  1.00  0.00     0.012 A 
BRANCH  73  77
ATOM     77  O   UNL A   1      32.119  24.779  23.264  1.00  0.00    -0.507 OA
ATOM     78  H   UNL A   1      32.830  25.243  22.866  1.00  0.00     0.293 HD
ENDBRANCH  73  77
BRANCH  74  79
ATOM     79  C   UNL A   1      32.750  19.264  24.284  1.00  0.00    -0.011 A 
ATOM     80  C   UNL A   1      32.473  18.640  25.564  1.00  0.00     0.027 A 
ATOM     81  C   UNL A   1      33.254  18.515  23.288  1.00  0.00     0.080 A 
ATOM     82  C   UNL A   1      32.765  17.351  25.771  1.00  0.00     0.095 A 
ATOM     83  C   UNL A   1      33.570  17.073  23.500  1.00  0.00     0.255 A 
ATOM     84  N   UNL A   1      33.318  16.578  24.770  1.00  0.00    -0.258 N 
ATOM     85  O   UNL A   1      34.043  16.435  22.565  1.00  0.00    -0.269 OA
BRANCH  84  86
ATOM     86  C   UNL A   1      33.682  15.207  25.023  1.00  0.00     0.451 C 
ATOM     87  F   UNL A   1      34.971  15.104  25.424  1.00  0.00    -0.185 F 
ATOM     88  F   UNL A   1      32.895  14.672  25.990  1.00  0.00    -0.185 F 
ENDBRANCH  84  86
ENDBRANCH  74  79
ENDBRANCH  68  71
ENDBRANCH  66  67
ENDBRANCH  65  66
ENDBRANCH  64  65
ENDBRANCH   1  64
TORSDOF 16
ENDMDL
MODEL 2
REMARK VINA RESULT:     -11.6      0.983      6.282
REMARK SMILES O=C(NCCCCCCNC(=O)c1cc(-c2ccn(C(F)F)c(=O)c2)ccc1O)c1ccc(-c2c3nc(c(-c4c(F)cccc4F)c4ccc([nH]4)c(-c4c(F)cccc4F)c4nc(c(-c5c(F)cccc5F)c5ccc2[nH]5)C=C4)C=C3)cc1
REMARK SMILES IDX 6 1 5 2 4 3 3 4 1 5 2 6 30 8 31 9 83 10 32 11 82 12 33 13
REMARK SMILES IDX 34 14 35 15 76 16 36 17 81 18 75 19 77 20 37 21 80 22 74 23
REMARK SMILES IDX 73 24 38 26 64 27 47 28 63 29 48 30 51 31 62 32 78 33 49 34
REMARK SMILES IDX 50 35 61 37 79 38 52 39 39 40 40 41 45 42 41 43 42 44 44 45
REMARK SMILES IDX 46 46 43 47 65 48 66 49 71 50 67 51 68 52 70 53 72 54 69 55
REMARK SMILES IDX 53 56 54 57 59 58 55 59 56 60 58 61 60 62 57 63 7 64 8 65
REMARK SMILES IDX 9 66 10 67 11 68 12 70 13 71 14 72 28 73 15 74 27 75 26 76
REMARK SMILES IDX 29 77 16 79 17 80 25 81 18 82 23 83 19 84 24 85 20 86 21 87
REMARK SMILES IDX 22 88
REMARK H PARENT 3 7 77 25 51 36 10 69 29 78
REMARK Flexibility Score: inf
ROOT
ATOM      1  C   UNL A   1      36.546  20.460  25.012  1.00  0.00     0.002 C 
ENDROOT
BRANCH   1   2
ATOM      2  C   UNL A   1      37.917  19.829  24.760  1.00  0.00     0.021 C 
BRANCH   2   3
ATOM      3  C   UNL A   1      39.007  20.224  25.748  1.00  0.00     0.116 C 
BRANCH   3   4
ATOM      4  N   UNL A   1      40.052  19.222  25.858  1.00  0.00    -0.352 N 
ATOM      5  O   UNL A   1      42.147  18.416  26.024  1.00  0.00    -0.269 OA
ATOM      6  C   UNL A   1      41.387  19.380  26.121  1.00  0.00     0.251 C 
ATOM      7  H   UNL A   1      39.758  18.293  25.723  1.00  0.00     0.163 HD
BRANCH   6   8
ATOM      8  C   UNL A   1      41.931  20.701  26.509  1.00  0.00     0.039 A 
ATOM      9  C   UNL A   1      41.949  21.047  27.864  1.00  0.00     0.014 A 
ATOM     10  C   UNL A   1      42.369  21.618  25.550  1.00  0.00     0.014 A 
ATOM     11  C   UNL A   1      42.426  22.300  28.256  1.00  0.00     0.010 A 
ATOM     12  C   UNL A   1      42.920  22.834  25.948  1.00  0.00     0.010 A 
ATOM     13  C   UNL A   1      42.923  23.201  27.302  1.00  0.00    -0.014 A 
BRANCH  13  14
ATOM     14  C   UNL A   1      43.361  24.566  27.692  1.00  0.00     0.031 A 
ATOM     15  C   UNL A   1      42.327  25.608  28.031  1.00  0.00     0.074 A 
ATOM     16  C   UNL A   1      44.670  24.880  27.719  1.00  0.00     0.049 A 
ATOM     17  N   UNL A   1      42.490  26.868  28.349  1.00  0.00    -0.248 NA
ATOM     18  C   UNL A   1      40.919  25.182  27.980  1.00  0.00     0.031 C 
ATOM     19  C   UNL A   1      45.768  23.970  27.393  1.00  0.00     0.029 A 
ATOM     20  N   UNL A   1      45.296  26.057  28.043  1.00  0.00    -0.354 N 
ATOM     21  C   UNL A   1      41.211  27.384  28.514  1.00  0.00     0.074 A 
ATOM     22  C   UNL A   1      40.283  26.321  28.200  1.00  0.00     0.031 C 
ATOM     23  C   UNL A   1      46.936  24.612  27.569  1.00  0.00     0.029 A 
ATOM     24  C   UNL A   1      46.667  25.986  27.983  1.00  0.00     0.049 A 
ATOM     25  H   UNL A   1      44.809  26.875  28.293  1.00  0.00     0.167 HD
ATOM     26  C   UNL A   1      40.838  28.622  28.920  1.00  0.00     0.037 A 
ATOM     27  C   UNL A   1      47.596  26.926  28.238  1.00  0.00     0.037 A 
ATOM     28  C   UNL A   1      41.760  29.670  29.265  1.00  0.00     0.049 A 
ATOM     29  C   UNL A   1      47.156  28.302  28.659  1.00  0.00     0.074 A 
ATOM     30  C   UNL A   1      41.488  30.941  29.737  1.00  0.00     0.029 A 
ATOM     31  N   UNL A   1      43.140  29.563  29.175  1.00  0.00    -0.354 N 
ATOM     32  N   UNL A   1      45.945  28.761  28.861  1.00  0.00    -0.248 NA
ATOM     33  C   UNL A   1      48.220  29.290  28.888  1.00  0.00     0.031 C 
ATOM     34  C   UNL A   1      42.703  31.619  29.895  1.00  0.00     0.029 A 
ATOM     35  C   UNL A   1      43.733  30.754  29.562  1.00  0.00     0.049 A 
ATOM     36  H   UNL A   1      43.627  28.760  28.879  1.00  0.00     0.167 HD
ATOM     37  C   UNL A   1      46.102  30.079  29.271  1.00  0.00     0.074 A 
ATOM     38  C   UNL A   1      47.526  30.339  29.302  1.00  0.00     0.031 C 
ATOM     39  C   UNL A   1      45.154  30.994  29.591  1.00  0.00     0.037 A 
BRANCH  26  40
ATOM     40  C   UNL A   1      39.364  28.897  29.007  1.00  0.00     0.057 A 
ATOM     41  C   UNL A   1      38.669  28.695  30.206  1.00  0.00     0.134 A 
ATOM     42  C   UNL A   1      38.632  29.369  27.909  1.00  0.00     0.134 A 
ATOM     43  F   UNL A   1      39.306  28.238  31.295  1.00  0.00    -0.206 F 
ATOM     44  C   UNL A   1      37.303  28.965  30.312  1.00  0.00     0.040 A 
ATOM     45  C   UNL A   1      37.273  29.671  28.011  1.00  0.00     0.040 A 
ATOM     46  F   UNL A   1      39.240  29.599  26.735  1.00  0.00    -0.206 F 
ATOM     47  C   UNL A   1      36.604  29.466  29.215  1.00  0.00     0.006 A 
ENDBRANCH  26  40
BRANCH  27  48
ATOM     48  C   UNL A   1      49.042  26.600  28.135  1.00  0.00     0.057 A 
ATOM     49  C   UNL A   1      49.751  26.769  26.942  1.00  0.00     0.134 A 
ATOM     50  C   UNL A   1      49.753  26.146  29.253  1.00  0.00     0.134 A 
ATOM     51  F   UNL A   1      49.127  27.197  25.835  1.00  0.00    -0.206 F 
ATOM     52  C   UNL A   1      51.120  26.499  26.862  1.00  0.00     0.040 A 
ATOM     53  C   UNL A   1      51.126  25.897  29.193  1.00  0.00     0.040 A 
ATOM     54  F   UNL A   1      49.131  25.987  30.430  1.00  0.00    -0.206 F 
ATOM     55  C   UNL A   1      51.811  26.071  27.993  1.00  0.00     0.006 A 
ENDBRANCH  27  48
BRANCH  39  56
ATOM     56  C   UNL A   1      45.634  32.343  30.037  1.00  0.00     0.057 A 
ATOM     57  C   UNL A   1      45.837  33.370  29.107  1.00  0.00     0.134 A 
ATOM     58  C   UNL A   1      45.906  32.623  31.382  1.00  0.00     0.134 A 
ATOM     59  F   UNL A   1      45.604  33.166  27.803  1.00  0.00    -0.206 F 
ATOM     60  C   UNL A   1      46.288  34.631  29.501  1.00  0.00     0.040 A 
ATOM     61  C   UNL A   1      46.330  33.889  31.792  1.00  0.00     0.040 A 
ATOM     62  F   UNL A   1      45.717  31.687  32.325  1.00  0.00    -0.206 F 
ATOM     63  C   UNL A   1      46.528  34.895  30.848  1.00  0.00     0.006 A 
ENDBRANCH  39  56
ENDBRANCH  13  14
ENDBRANCH   6   8
ENDBRANCH   3   4
ENDBRANCH   2   3
ENDBRANCH   1   2
BRANCH   1  64
ATOM     64  C   UNL A   1      36.367  21.889  24.490  1.00  0.00     0.002 C 
BRANCH  64  65
ATOM     65  C   UNL A   1      36.271  22.980  25.559  1.00  0.00     0.021 C 
BRANCH  65  66
ATOM     66  C   UNL A   1      35.451  24.206  25.166  1.00  0.00     0.116 C 
BRANCH  66  67
ATOM     67  N   UNL A   1      34.306  24.404  26.032  1.00  0.00    -0.352 N 
ATOM     68  C   UNL A   1      33.057  23.847  25.930  1.00  0.00     0.255 C 
ATOM     69  H   UNL A   1      34.441  25.017  26.791  1.00  0.00     0.163 HD
ATOM     70  O   UNL A   1      32.165  24.172  26.715  1.00  0.00    -0.269 OA
BRANCH  68  71
ATOM     71  C   UNL A   1      32.749  22.912  24.830  1.00  0.00     0.082 A 
ATOM     72  C   UNL A   1      32.902  21.543  25.090  1.00  0.00     0.026 A 
ATOM     73  C   UNL A   1      32.349  23.348  23.562  1.00  0.00     0.128 A 
ATOM     74  C   UNL A   1      32.607  20.606  24.094  1.00  0.00    -0.017 A 
ATOM     75  C   UNL A   1      32.042  22.419  22.570  1.00  0.00     0.047 A 
ATOM     76  C   UNL A   1      32.163  21.055  22.841  1.00  0.00     0.012 A 
BRANCH  73  77
ATOM     77  O   UNL A   1      32.253  24.682  23.281  1.00  0.00    -0.507 OA
ATOM     78  H   UNL A   1      32.490  25.000  22.432  1.00  0.00     0.293 HD
ENDBRANCH  73  77
BRANCH  74  79
ATOM     79  C   UNL A   1      32.772  19.158  24.319  1.00  0.00    -0.011 A 
ATOM     80  C   UNL A   1      32.421  18.534  25.581  1.00  0.00     0.027 A 
ATOM     81  C   UNL A   1      33.316  18.406  23.347  1.00  0.00     0.080 A 
ATOM     82  C   UNL A   1      32.686  17.241  25.798  1.00  0.00     0.095 A 
ATOM     83  C   UNL A   1      33.602  16.959  23.569  1.00  0.00     0.255 A 
ATOM     84  N   UNL A   1      33.280  16.464  24.823  1.00  0.00    -0.258 N 
ATOM     85  O   UNL A   1      34.114  16.318  22.658  1.00  0.00    -0.269 OA
BRANCH  84  86
ATOM     86  C   UNL A   1      33.612  15.087  25.090  1.00  0.00     0.451 C 
ATOM     87  F   UNL A   1      34.930  14.942  25.366  1.00  0.00    -0.185 F 
ATOM     88  F   UNL A   1      32.905  14.618  26.147  1.00  0.00    -0.185 F 
ENDBRANCH  84  86
ENDBRANCH  74  79
ENDBRANCH  68  71
ENDBRANCH  66  67
ENDBRANCH  65  66
ENDBRANCH  64  65
ENDBRANCH   1  64
TORSDOF 16
ENDMDL
MODEL 3
REMARK VINA RESULT:     -11.4      3.884      6.108
REMARK SMILES O=C(NCCCCCCNC(=O)c1cc(-c2ccn(C(F)F)c(=O)c2)ccc1O)c1ccc(-c2c3nc(c(-c4c(F)cccc4F)c4ccc([nH]4)c(-c4c(F)cccc4F)c4nc(c(-c5c(F)cccc5F)c5ccc2[nH]5)C=C4)C=C3)cc1
REMARK SMILES IDX 6 1 5 2 4 3 3 4 1 5 2 6 30 8 31 9 83 10 32 11 82 12 33 13
REMARK SMILES IDX 34 14 35 15 76 16 36 17 81 18 75 19 77 20 37 21 80 22 74 23
REMARK SMILES IDX 73 24 38 26 64 27 47 28 63 29 48 30 51 31 62 32 78 33 49 34
REMARK SMILES IDX 50 35 61 37 79 38 52 39 39 40 40 41 45 42 41 43 42 44 44 45
REMARK SMILES IDX 46 46 43 47 65 48 66 49 71 50 67 51 68 52 70 53 72 54 69 55
REMARK SMILES IDX 53 56 54 57 59 58 55 59 56 60 58 61 60 62 57 63 7 64 8 65
REMARK SMILES IDX 9 66 10 67 11 68 12 70 13 71 14 72 28 73 15 74 27 75 26 76
REMARK SMILES IDX 29 77 16 79 17 80 25 81 18 82 23 83 19 84 24 85 20 86 21 87
REMARK SMILES IDX 22 88
REMARK H PARENT 3 7 77 25 51 36 10 69 29 78
REMARK Flexibility Score: inf
ROOT
ATOM      1  C   UNL A   1      34.635  23.626  24.282  1.00  0.00     0.002 C 
ENDROOT
BRANCH   1   2
ATOM      2  C   UNL A   1      36.147  23.412  24.370  1.00  0.00     0.021 C 
BRANCH   2   3
ATOM      3  C   UNL A   1      36.750  23.595  25.758  1.00  0.00     0.116 C 
BRANCH   3   4
ATOM      4  N   UNL A   1      37.838  22.670  26.020  1.00  0.00    -0.352 N 
ATOM      5  O   UNL A   1      39.934  22.016  26.518  1.00  0.00    -0.269 OA
ATOM      6  C   UNL A   1      39.094  22.917  26.507  1.00  0.00     0.251 C 
ATOM      7  H   UNL A   1      37.644  21.726  25.819  1.00  0.00     0.163 HD
BRANCH   6   8
ATOM      8  C   UNL A   1      39.461  24.261  27.007  1.00  0.00     0.039 A 
ATOM      9  C   UNL A   1      40.041  25.172  26.119  1.00  0.00     0.014 A 
ATOM     10  C   UNL A   1      39.290  24.610  28.349  1.00  0.00     0.014 A 
ATOM     11  C   UNL A   1      40.428  26.436  26.571  1.00  0.00     0.010 A 
ATOM     12  C   UNL A   1      39.600  25.897  28.781  1.00  0.00     0.010 A 
ATOM     13  C   UNL A   1      40.203  26.811  27.904  1.00  0.00    -0.014 A 
BRANCH  13  14
ATOM     14  C   UNL A   1      40.679  28.121  28.422  1.00  0.00     0.031 A 
ATOM     15  C   UNL A   1      42.150  28.441  28.391  1.00  0.00     0.074 A 
ATOM     16  C   UNL A   1      39.807  29.007  28.938  1.00  0.00     0.049 A 
ATOM     17  N   UNL A   1      42.780  29.500  28.832  1.00  0.00    -0.248 NA
ATOM     18  C   UNL A   1      43.036  27.420  27.807  1.00  0.00     0.031 C 
ATOM     19  C   UNL A   1      38.361  28.810  29.046  1.00  0.00     0.029 A 
ATOM     20  N   UNL A   1      40.014  30.256  29.466  1.00  0.00    -0.354 N 
ATOM     21  C   UNL A   1      44.129  29.262  28.599  1.00  0.00     0.074 A 
ATOM     22  C   UNL A   1      44.233  27.934  28.036  1.00  0.00     0.031 C 
ATOM     23  C   UNL A   1      37.807  29.916  29.572  1.00  0.00     0.029 A 
ATOM     24  C   UNL A   1      38.860  30.881  29.871  1.00  0.00     0.049 A 
ATOM     25  H   UNL A   1      40.906  30.665  29.548  1.00  0.00     0.167 HD
ATOM     26  C   UNL A   1      45.187  30.083  28.805  1.00  0.00     0.037 A 
ATOM     27  C   UNL A   1      38.679  32.098  30.419  1.00  0.00     0.037 A 
ATOM     28  C   UNL A   1      45.083  31.417  29.334  1.00  0.00     0.049 A 
ATOM     29  C   UNL A   1      39.872  32.980  30.665  1.00  0.00     0.074 A 
ATOM     30  C   UNL A   1      46.084  32.350  29.532  1.00  0.00     0.029 A 
ATOM     31  N   UNL A   1      43.897  32.007  29.748  1.00  0.00    -0.354 N 
ATOM     32  N   UNL A   1      41.136  32.763  30.392  1.00  0.00    -0.248 NA
ATOM     33  C   UNL A   1      39.609  34.280  31.297  1.00  0.00     0.031 C 
ATOM     34  C   UNL A   1      45.511  33.492  30.105  1.00  0.00     0.029 A 
ATOM     35  C   UNL A   1      44.146  33.285  30.222  1.00  0.00     0.049 A 
ATOM     36  H   UNL A   1      43.010  31.581  29.710  1.00  0.00     0.167 HD
ATOM     37  C   UNL A   1      41.813  33.910  30.788  1.00  0.00     0.074 A 
ATOM     38  C   UNL A   1      40.817  34.824  31.307  1.00  0.00     0.031 C 
ATOM     39  C   UNL A   1      43.140  34.183  30.731  1.00  0.00     0.037 A 
BRANCH  26  40
ATOM     40  C   UNL A   1      46.545  29.548  28.454  1.00  0.00     0.057 A 
ATOM     41  C   UNL A   1      47.314  28.867  29.406  1.00  0.00     0.134 A 
ATOM     42  C   UNL A   1      47.091  29.698  27.171  1.00  0.00     0.134 A 
ATOM     43  F   UNL A   1      46.856  28.694  30.655  1.00  0.00    -0.206 F 
ATOM     44  C   UNL A   1      48.570  28.345  29.091  1.00  0.00     0.040 A 
ATOM     45  C   UNL A   1      48.332  29.153  26.836  1.00  0.00     0.040 A 
ATOM     46  F   UNL A   1      46.401  30.326  26.207  1.00  0.00    -0.206 F 
ATOM     47  C   UNL A   1      49.077  28.476  27.799  1.00  0.00     0.006 A 
ENDBRANCH  26  40
BRANCH  27  48
ATOM     48  C   UNL A   1      37.312  32.577  30.749  1.00  0.00     0.057 A 
ATOM     49  C   UNL A   1      36.637  32.144  31.894  1.00  0.00     0.134 A 
ATOM     50  C   UNL A   1      36.669  33.517  29.934  1.00  0.00     0.134 A 
ATOM     51  F   UNL A   1      37.198  31.242  32.714  1.00  0.00    -0.206 F 
ATOM     52  C   UNL A   1      35.368  32.629  32.220  1.00  0.00     0.040 A 
ATOM     53  C   UNL A   1      35.411  34.028  30.262  1.00  0.00     0.040 A 
ATOM     54  F   UNL A   1      37.276  33.986  28.835  1.00  0.00    -0.206 F 
ATOM     55  C   UNL A   1      34.757  33.581  31.407  1.00  0.00     0.006 A 
ENDBRANCH  27  48
BRANCH  39  56
ATOM     56  C   UNL A   1      43.576  35.536  31.207  1.00  0.00     0.057 A 
ATOM     57  C   UNL A   1      43.675  36.609  30.312  1.00  0.00     0.134 A 
ATOM     58  C   UNL A   1      43.907  35.778  32.546  1.00  0.00     0.134 A 
ATOM     59  F   UNL A   1      43.382  36.444  29.014  1.00  0.00    -0.206 F 
ATOM     60  C   UNL A   1      44.083  37.876  30.734  1.00  0.00     0.040 A 
ATOM     61  C   UNL A   1      44.289  37.047  32.986  1.00  0.00     0.040 A 
ATOM     62  F   UNL A   1      43.817  34.797  33.458  1.00  0.00    -0.206 F 
ATOM     63  C   UNL A   1      44.383  38.099  32.076  1.00  0.00     0.006 A 
ENDBRANCH  39  56
ENDBRANCH  13  14
ENDBRANCH   6   8
ENDBRANCH   3   4
ENDBRANCH   2   3
ENDBRANCH   1   2
BRANCH   1  64
ATOM     64  C   UNL A   1      33.799  22.365  24.042  1.00  0.00     0.002 C 
BRANCH  64  65
ATOM     65  C   UNL A   1      33.390  21.589  25.296  1.00  0.00     0.021 C 
BRANCH  65  66
ATOM     66  C   UNL A   1      33.265  22.425  26.567  1.00  0.00     0.116 C 
BRANCH  66  67
ATOM     67  N   UNL A   1      31.899  22.501  27.045  1.00  0.00    -0.352 N 
ATOM     68  C   UNL A   1      30.942  23.434  26.739  1.00  0.00     0.255 C 
ATOM     69  H   UNL A   1      31.622  21.792  27.669  1.00  0.00     0.163 HD
ATOM     70  O   UNL A   1      29.839  23.397  27.286  1.00  0.00    -0.269 OA
BRANCH  68  71
ATOM     71  C   UNL A   1      31.253  24.539  25.811  1.00  0.00     0.082 A 
ATOM     72  C   UNL A   1      31.817  25.700  26.360  1.00  0.00     0.026 A 
ATOM     73  C   UNL A   1      30.978  24.470  24.440  1.00  0.00     0.128 A 
ATOM     74  C   UNL A   1      32.151  26.774  25.530  1.00  0.00    -0.017 A 
ATOM     75  C   UNL A   1      31.322  25.532  23.607  1.00  0.00     0.047 A 
ATOM     76  C   UNL A   1      31.913  26.674  24.151  1.00  0.00     0.012 A 
BRANCH  73  77
ATOM     77  O   UNL A   1      30.376  23.367  23.904  1.00  0.00    -0.507 OA
ATOM     78  H   UNL A   1      29.879  23.442  23.113  1.00  0.00     0.293 HD
ENDBRANCH  73  77
BRANCH  74  79
ATOM     79  C   UNL A   1      32.728  28.020  26.068  1.00  0.00    -0.011 A 
ATOM     80  C   UNL A   1      34.079  28.073  26.593  1.00  0.00     0.027 A 
ATOM     81  C   UNL A   1      31.960  29.121  26.127  1.00  0.00     0.080 A 
ATOM     82  C   UNL A   1      34.539  29.184  27.179  1.00  0.00     0.095 A 
ATOM     83  C   UNL A   1      32.465  30.372  26.763  1.00  0.00     0.255 A 
ATOM     84  N   UNL A   1      33.749  30.312  27.281  1.00  0.00    -0.258 N 
ATOM     85  O   UNL A   1      31.721  31.347  26.807  1.00  0.00    -0.269 OA
BRANCH  84  86
ATOM     86  C   UNL A   1      34.235  31.484  27.966  1.00  0.00     0.451 C 
ATOM     87  F   UNL A   1      34.649  31.186  29.220  1.00  0.00    -0.185 F 
ATOM     88  F   UNL A   1      35.277  32.034  27.296  1.00  0.00    -0.185 F 
ENDBRANCH  84  86
ENDBRANCH  74  79
ENDBRANCH  68  71
ENDBRANCH  66  67
ENDBRANCH  65  66
ENDBRANCH  64  65
ENDBRANCH   1  64
TORSDOF 16
ENDMDL
