MODEL 1
REMARK VINA RESULT:     -11.1      0.000      0.000
REMARK SMILES O=C(C[C@@H](Br)C(=O)c1ccc2c(c1)CCC2)NCCCCCCNC(=O)c1ccc(-c2c3nc(c(-c4c(F)cccc4F)c4ccc([nH]4)c(-c4c(F)cccc4F)c4nc(c(-c5c(F)cccc5F)c5ccc2[nH]5)C=C4)C=C3)cc1
REMARK SMILES IDX 20 1 19 2 18 3 17 4 1 5 2 6 3 8 4 9 5 10 6 11 7 12 8 13 9 14
REMARK SMILES IDX 13 15 10 16 12 17 11 18 14 19 16 20 15 21 21 22 22 23 23 24
REMARK SMILES IDX 24 25 25 26 26 28 27 29 28 30 80 31 29 32 79 33 30 34 31 35
REMARK SMILES IDX 32 36 73 37 33 38 78 39 72 40 74 41 34 42 77 43 71 44 70 45
REMARK SMILES IDX 35 47 61 48 44 49 60 50 45 51 48 52 59 53 75 54 46 55 47 56
REMARK SMILES IDX 58 58 76 59 49 60 36 61 37 62 42 63 38 64 39 65 41 66 43 67
REMARK SMILES IDX 40 68 62 69 63 70 68 71 64 72 65 73 67 74 69 75 66 76 50 77
REMARK SMILES IDX 51 78 56 79 52 80 53 81 55 82 57 83 54 84
REMARK H PARENT 17 7 24 27 74 46 48 57
REMARK Flexibility Score: inf
ROOT
ATOM      1  C   UNL A   1      32.143  28.846  23.782  1.00  0.00     0.002 C 
ENDROOT
BRANCH   1   2
ATOM      2  C   UNL A   1      30.613  28.723  23.882  1.00  0.00     0.021 C 
BRANCH   2   3
ATOM      3  C   UNL A   1      30.091  27.288  24.003  1.00  0.00     0.116 C 
BRANCH   3   4
ATOM      4  N   UNL A   1      31.125  26.422  24.526  1.00  0.00    -0.356 N 
ATOM      5  O   UNL A   1      29.996  25.625  26.361  1.00  0.00    -0.275 OA
ATOM      6  C   UNL A   1      31.027  25.739  25.710  1.00  0.00     0.221 C 
ATOM      7  H   UNL A   1      31.950  26.318  23.999  1.00  0.00     0.163 HD
BRANCH   6   8
ATOM      8  C   UNL A   1      32.364  25.253  26.222  1.00  0.00     0.123 C 
BRANCH   8   9
ATOM      9  C   UNL A   1      32.969  24.111  25.432  1.00  0.00     0.138 C 
ATOM     10  Br  UNL A   1      34.927  24.055  25.607  1.00  0.00    -0.080 Br
BRANCH   9  11
ATOM     11  C   UNL A   1      32.453  22.731  25.825  1.00  0.00     0.176 C 
ATOM     12  O   UNL A   1      31.983  22.520  26.943  1.00  0.00    -0.293 OA
BRANCH  11  13
ATOM     13  C   UNL A   1      32.438  21.610  24.839  1.00  0.00     0.019 A 
ATOM     14  C   UNL A   1      32.204  21.822  23.467  1.00  0.00     0.012 A 
ATOM     15  C   UNL A   1      32.678  20.316  25.322  1.00  0.00     0.015 A 
ATOM     16  C   UNL A   1      32.136  20.747  22.578  1.00  0.00     0.005 A 
ATOM     17  C   UNL A   1      32.644  19.262  24.422  1.00  0.00    -0.044 A 
ATOM     18  C   UNL A   1      32.360  19.475  23.069  1.00  0.00    -0.045 A 
ATOM     19  C   UNL A   1      32.852  17.804  24.694  1.00  0.00     0.036 C 
ATOM     20  C   UNL A   1      32.330  18.181  22.319  1.00  0.00     0.036 C 
ATOM     21  C   UNL A   1      33.116  17.274  23.276  1.00  0.00     0.010 C 
ENDBRANCH  11  13
ENDBRANCH   9  11
ENDBRANCH   8   9
ENDBRANCH   6   8
ENDBRANCH   3   4
ENDBRANCH   2   3
ENDBRANCH   1   2
BRANCH   1  22
ATOM     22  C   UNL A   1      32.829  29.500  24.985  1.00  0.00     0.002 C 
BRANCH  22  23
ATOM     23  C   UNL A   1      33.823  28.605  25.723  1.00  0.00     0.021 C 
BRANCH  23  24
ATOM     24  C   UNL A   1      33.768  28.709  27.243  1.00  0.00     0.116 C 
BRANCH  24  25
ATOM     25  N   UNL A   1      33.742  30.088  27.708  1.00  0.00    -0.352 N 
ATOM     26  C   UNL A   1      34.718  30.793  28.370  1.00  0.00     0.251 C 
ATOM     27  H   UNL A   1      32.911  30.582  27.524  1.00  0.00     0.163 HD
ATOM     28  O   UNL A   1      34.481  31.905  28.832  1.00  0.00    -0.269 OA
BRANCH  26  29
ATOM     29  C   UNL A   1      36.056  30.189  28.549  1.00  0.00     0.039 A 
ATOM     30  C   UNL A   1      36.954  30.196  27.477  1.00  0.00     0.014 A 
ATOM     31  C   UNL A   1      36.430  29.639  29.777  1.00  0.00     0.014 A 
ATOM     32  C   UNL A   1      38.252  29.712  27.660  1.00  0.00     0.010 A 
ATOM     33  C   UNL A   1      37.744  29.225  29.977  1.00  0.00     0.010 A 
ATOM     34  C   UNL A   1      38.669  29.258  28.921  1.00  0.00    -0.014 A 
BRANCH  34  35
ATOM     35  C   UNL A   1      40.063  28.804  29.167  1.00  0.00     0.031 A 
ATOM     36  C   UNL A   1      41.062  29.752  29.776  1.00  0.00     0.074 A 
ATOM     37  C   UNL A   1      40.453  27.578  28.765  1.00  0.00     0.049 A 
ATOM     38  N   UNL A   1      42.349  29.598  29.949  1.00  0.00    -0.248 NA
ATOM     39  C   UNL A   1      40.549  31.057  30.224  1.00  0.00     0.031 C 
ATOM     40  C   UNL A   1      39.593  26.578  28.130  1.00  0.00     0.029 A 
ATOM     41  N   UNL A   1      41.684  26.971  28.813  1.00  0.00    -0.354 N 
ATOM     42  C   UNL A   1      42.802  30.790  30.497  1.00  0.00     0.074 A 
ATOM     43  C   UNL A   1      41.661  31.674  30.594  1.00  0.00     0.031 C 
ATOM     44  C   UNL A   1      40.319  25.481  27.857  1.00  0.00     0.029 A 
ATOM     45  C   UNL A   1      41.704  25.714  28.255  1.00  0.00     0.049 A 
ATOM     46  H   UNL A   1      42.479  27.396  29.210  1.00  0.00     0.167 HD
ATOM     47  C   UNL A   1      44.054  31.114  30.900  1.00  0.00     0.037 A 
ATOM     48  C   UNL A   1      42.726  24.857  28.067  1.00  0.00     0.037 A 
ATOM     49  C   UNL A   1      45.178  30.219  30.843  1.00  0.00     0.049 A 
ATOM     50  C   UNL A   1      44.108  25.250  28.518  1.00  0.00     0.074 A 
ATOM     51  C   UNL A   1      46.468  30.431  31.298  1.00  0.00     0.029 A 
ATOM     52  N   UNL A   1      45.148  28.943  30.302  1.00  0.00    -0.354 N 
ATOM     53  N   UNL A   1      44.506  26.354  29.102  1.00  0.00    -0.248 NA
ATOM     54  C   UNL A   1      45.185  24.274  28.287  1.00  0.00     0.031 C 
ATOM     55  C   UNL A   1      47.232  29.302  30.988  1.00  0.00     0.029 A 
ATOM     56  C   UNL A   1      46.403  28.367  30.390  1.00  0.00     0.049 A 
ATOM     57  H   UNL A   1      44.353  28.513  29.913  1.00  0.00     0.167 HD
ATOM     58  C   UNL A   1      45.863  26.187  29.346  1.00  0.00     0.074 A 
ATOM     59  C   UNL A   1      46.221  24.875  28.854  1.00  0.00     0.031 C 
ATOM     60  C   UNL A   1      46.736  27.046  29.926  1.00  0.00     0.037 A 
BRANCH  47  61
ATOM     61  C   UNL A   1      44.285  32.493  31.443  1.00  0.00     0.057 A 
ATOM     62  C   UNL A   1      44.166  32.779  32.809  1.00  0.00     0.134 A 
ATOM     63  C   UNL A   1      44.707  33.529  30.599  1.00  0.00     0.134 A 
ATOM     64  F   UNL A   1      43.756  31.834  33.668  1.00  0.00    -0.206 F 
ATOM     65  C   UNL A   1      44.450  34.048  33.315  1.00  0.00     0.040 A 
ATOM     66  C   UNL A   1      45.020  34.795  31.098  1.00  0.00     0.040 A 
ATOM     67  F   UNL A   1      44.848  33.320  29.282  1.00  0.00    -0.206 F 
ATOM     68  C   UNL A   1      44.889  35.057  32.460  1.00  0.00     0.006 A 
ENDBRANCH  47  61
BRANCH  48  69
ATOM     69  C   UNL A   1      42.498  23.537  27.421  1.00  0.00     0.057 A 
ATOM     70  C   UNL A   1      42.230  22.396  28.187  1.00  0.00     0.134 A 
ATOM     71  C   UNL A   1      42.596  23.373  26.034  1.00  0.00     0.134 A 
ATOM     72  F   UNL A   1      42.144  22.484  29.523  1.00  0.00    -0.206 F 
ATOM     73  C   UNL A   1      42.106  21.134  27.602  1.00  0.00     0.040 A 
ATOM     74  C   UNL A   1      42.444  22.123  25.433  1.00  0.00     0.040 A 
ATOM     75  F   UNL A   1      42.844  24.427  25.242  1.00  0.00    -0.206 F 
ATOM     76  C   UNL A   1      42.211  20.995  26.220  1.00  0.00     0.006 A 
ENDBRANCH  48  69
BRANCH  60  77
ATOM     77  C   UNL A   1      48.146  26.573  30.125  1.00  0.00     0.057 A 
ATOM     78  C   UNL A   1      48.544  25.879  31.274  1.00  0.00     0.134 A 
ATOM     79  C   UNL A   1      49.104  26.765  29.119  1.00  0.00     0.134 A 
ATOM     80  F   UNL A   1      47.678  25.674  32.277  1.00  0.00    -0.206 F 
ATOM     81  C   UNL A   1      49.849  25.408  31.424  1.00  0.00     0.040 A 
ATOM     82  C   UNL A   1      50.403  26.274  29.246  1.00  0.00     0.040 A 
ATOM     83  F   UNL A   1      48.785  27.413  27.989  1.00  0.00    -0.206 F 
ATOM     84  C   UNL A   1      50.780  25.597  30.404  1.00  0.00     0.006 A 
ENDBRANCH  60  77
ENDBRANCH  34  35
ENDBRANCH  26  29
ENDBRANCH  24  25
ENDBRANCH  23  24
ENDBRANCH  22  23
ENDBRANCH   1  22
TORSDOF 16
ENDMDL
MODEL 2
REMARK VINA RESULT:     -11.0      3.579      7.472
REMARK SMILES O=C(C[C@@H](Br)C(=O)c1ccc2c(c1)CCC2)NCCCCCCNC(=O)c1ccc(-c2c3nc(c(-c4c(F)cccc4F)c4ccc([nH]4)c(-c4c(F)cccc4F)c4nc(c(-c5c(F)cccc5F)c5ccc2[nH]5)C=C4)C=C3)cc1
REMARK SMILES IDX 20 1 19 2 18 3 17 4 1 5 2 6 3 8 4 9 5 10 6 11 7 12 8 13 9 14
REMARK SMILES IDX 13 15 10 16 12 17 11 18 14 19 16 20 15 21 21 22 22 23 23 24
REMARK SMILES IDX 24 25 25 26 26 28 27 29 28 30 80 31 29 32 79 33 30 34 31 35
REMARK SMILES IDX 32 36 73 37 33 38 78 39 72 40 74 41 34 42 77 43 71 44 70 45
REMARK SMILES IDX 35 47 61 48 44 49 60 50 45 51 48 52 59 53 75 54 46 55 47 56
REMARK SMILES IDX 58 58 76 59 49 60 36 61 37 62 42 63 38 64 39 65 41 66 43 67
REMARK SMILES IDX 40 68 62 69 63 70 68 71 64 72 65 73 67 74 69 75 66 76 50 77
REMARK SMILES IDX 51 78 56 79 52 80 53 81 55 82 57 83 54 84
REMARK H PARENT 17 7 24 27 74 46 48 57
REMARK Flexibility Score: inf
ROOT
ATOM      1  C   UNL A   1      32.134  29.307  27.266  1.00  0.00     0.002 C 
ENDROOT
BRANCH   1   2
ATOM      2  C   UNL A   1      33.459  28.534  27.154  1.00  0.00     0.021 C 
BRANCH   2   3
ATOM      3  C   UNL A   1      33.685  27.839  25.808  1.00  0.00     0.116 C 
BRANCH   3   4
ATOM      4  N   UNL A   1      33.595  26.404  25.965  1.00  0.00    -0.356 N 
ATOM      5  O   UNL A   1      31.808  26.028  24.572  1.00  0.00    -0.275 OA
ATOM      6  C   UNL A   1      32.606  25.632  25.412  1.00  0.00     0.221 C 
ATOM      7  H   UNL A   1      34.286  25.954  26.503  1.00  0.00     0.163 HD
BRANCH   6   8
ATOM      8  C   UNL A   1      32.499  24.266  26.049  1.00  0.00     0.123 C 
BRANCH   8   9
ATOM      9  C   UNL A   1      33.826  23.610  26.370  1.00  0.00     0.138 C 
ATOM     10  Br  UNL A   1      33.650  22.252  27.782  1.00  0.00    -0.080 Br
BRANCH   9  11
ATOM     11  C   UNL A   1      34.492  22.924  25.182  1.00  0.00     0.176 C 
ATOM     12  O   UNL A   1      35.506  23.389  24.662  1.00  0.00    -0.293 OA
BRANCH  11  13
ATOM     13  C   UNL A   1      33.972  21.625  24.659  1.00  0.00     0.019 A 
ATOM     14  C   UNL A   1      32.769  21.536  23.935  1.00  0.00     0.012 A 
ATOM     15  C   UNL A   1      34.735  20.474  24.904  1.00  0.00     0.015 A 
ATOM     16  C   UNL A   1      32.278  20.299  23.510  1.00  0.00     0.005 A 
ATOM     17  C   UNL A   1      34.254  19.258  24.446  1.00  0.00    -0.044 A 
ATOM     18  C   UNL A   1      33.032  19.171  23.771  1.00  0.00    -0.045 A 
ATOM     19  C   UNL A   1      34.871  17.901  24.594  1.00  0.00     0.036 C 
ATOM     20  C   UNL A   1      32.710  17.751  23.427  1.00  0.00     0.036 C 
ATOM     21  C   UNL A   1      34.100  17.108  23.528  1.00  0.00     0.010 C 
ENDBRANCH  11  13
ENDBRANCH   9  11
ENDBRANCH   8   9
ENDBRANCH   6   8
ENDBRANCH   3   4
ENDBRANCH   2   3
ENDBRANCH   1   2
BRANCH   1  22
ATOM     22  C   UNL A   1      31.835  30.267  26.112  1.00  0.00     0.002 C 
BRANCH  22  23
ATOM     23  C   UNL A   1      31.604  31.720  26.527  1.00  0.00     0.021 C 
BRANCH  23  24
ATOM     24  C   UNL A   1      32.772  32.366  27.263  1.00  0.00     0.116 C 
BRANCH  24  25
ATOM     25  N   UNL A   1      32.513  33.755  27.612  1.00  0.00    -0.352 N 
ATOM     26  C   UNL A   1      33.140  34.539  28.550  1.00  0.00     0.251 C 
ATOM     27  H   UNL A   1      31.790  34.193  27.106  1.00  0.00     0.163 HD
ATOM     28  O   UNL A   1      32.699  35.649  28.832  1.00  0.00    -0.269 OA
BRANCH  26  29
ATOM     29  C   UNL A   1      34.340  34.023  29.244  1.00  0.00     0.039 A 
ATOM     30  C   UNL A   1      34.180  33.122  30.300  1.00  0.00     0.014 A 
ATOM     31  C   UNL A   1      35.618  34.412  28.836  1.00  0.00     0.014 A 
ATOM     32  C   UNL A   1      35.307  32.557  30.903  1.00  0.00     0.010 A 
ATOM     33  C   UNL A   1      36.736  33.795  29.390  1.00  0.00     0.010 A 
ATOM     34  C   UNL A   1      36.593  32.861  30.428  1.00  0.00    -0.014 A 
BRANCH  34  35
ATOM     35  C   UNL A   1      37.808  32.223  30.999  1.00  0.00     0.031 A 
ATOM     36  C   UNL A   1      38.492  31.110  30.250  1.00  0.00     0.074 A 
ATOM     37  C   UNL A   1      38.244  32.580  32.224  1.00  0.00     0.049 A 
ATOM     38  N   UNL A   1      39.477  30.339  30.632  1.00  0.00    -0.248 NA
ATOM     39  C   UNL A   1      37.981  30.806  28.904  1.00  0.00     0.031 C 
ATOM     40  C   UNL A   1      37.649  33.618  33.068  1.00  0.00     0.029 A 
ATOM     41  N   UNL A   1      39.279  32.092  32.982  1.00  0.00    -0.354 N 
ATOM     42  C   UNL A   1      39.684  29.446  29.590  1.00  0.00     0.074 A 
ATOM     43  C   UNL A   1      38.699  29.743  28.574  1.00  0.00     0.031 C 
ATOM     44  C   UNL A   1      38.335  33.695  34.221  1.00  0.00     0.029 A 
ATOM     45  C   UNL A   1      39.387  32.684  34.219  1.00  0.00     0.049 A 
ATOM     46  H   UNL A   1      39.888  31.383  32.670  1.00  0.00     0.167 HD
ATOM     47  C   UNL A   1      40.622  28.475  29.482  1.00  0.00     0.037 A 
ATOM     48  C   UNL A   1      40.226  32.427  35.241  1.00  0.00     0.037 A 
ATOM     49  C   UNL A   1      41.629  28.210  30.474  1.00  0.00     0.049 A 
ATOM     50  C   UNL A   1      41.253  31.335  35.093  1.00  0.00     0.074 A 
ATOM     51  C   UNL A   1      42.669  27.298  30.420  1.00  0.00     0.029 A 
ATOM     52  N   UNL A   1      41.724  28.855  31.697  1.00  0.00    -0.354 N 
ATOM     53  N   UNL A   1      41.483  30.547  34.071  1.00  0.00    -0.248 NA
ATOM     54  C   UNL A   1      42.142  31.099  36.242  1.00  0.00     0.031 C 
ATOM     55  C   UNL A   1      43.365  27.356  31.631  1.00  0.00     0.029 A 
ATOM     56  C   UNL A   1      42.791  28.343  32.415  1.00  0.00     0.049 A 
ATOM     57  H   UNL A   1      41.122  29.569  32.008  1.00  0.00     0.167 HD
ATOM     58  C   UNL A   1      42.566  29.757  34.436  1.00  0.00     0.074 A 
ATOM     59  C   UNL A   1      42.952  30.162  35.770  1.00  0.00     0.031 C 
ATOM     60  C   UNL A   1      43.184  28.781  33.729  1.00  0.00     0.037 A 
BRANCH  47  61
ATOM     61  C   UNL A   1      40.615  27.623  28.247  1.00  0.00     0.057 A 
ATOM     62  C   UNL A   1      41.341  27.975  27.102  1.00  0.00     0.134 A 
ATOM     63  C   UNL A   1      39.938  26.396  28.234  1.00  0.00     0.134 A 
ATOM     64  F   UNL A   1      42.002  29.140  27.048  1.00  0.00    -0.206 F 
ATOM     65  C   UNL A   1      41.385  27.142  25.983  1.00  0.00     0.040 A 
ATOM     66  C   UNL A   1      39.997  25.543  27.130  1.00  0.00     0.040 A 
ATOM     67  F   UNL A   1      39.230  25.996  29.300  1.00  0.00    -0.206 F 
ATOM     68  C   UNL A   1      40.720  25.917  26.000  1.00  0.00     0.006 A 
ENDBRANCH  47  61
BRANCH  48  69
ATOM     69  C   UNL A   1      40.143  33.207  36.504  1.00  0.00     0.057 A 
ATOM     70  C   UNL A   1      40.961  34.324  36.717  1.00  0.00     0.134 A 
ATOM     71  C   UNL A   1      39.288  32.828  37.546  1.00  0.00     0.134 A 
ATOM     72  F   UNL A   1      41.816  34.726  35.765  1.00  0.00    -0.206 F 
ATOM     73  C   UNL A   1      40.960  35.011  37.933  1.00  0.00     0.040 A 
ATOM     74  C   UNL A   1      39.255  33.524  38.755  1.00  0.00     0.040 A 
ATOM     75  F   UNL A   1      38.474  31.771  37.404  1.00  0.00    -0.206 F 
ATOM     76  C   UNL A   1      40.103  34.612  38.955  1.00  0.00     0.006 A 
ENDBRANCH  48  69
BRANCH  60  77
ATOM     77  C   UNL A   1      44.385  28.128  34.349  1.00  0.00     0.057 A 
ATOM     78  C   UNL A   1      44.287  26.948  35.096  1.00  0.00     0.134 A 
ATOM     79  C   UNL A   1      45.665  28.660  34.140  1.00  0.00     0.134 A 
ATOM     80  F   UNL A   1      43.090  26.396  35.342  1.00  0.00    -0.206 F 
ATOM     81  C   UNL A   1      45.419  26.331  35.631  1.00  0.00     0.040 A 
ATOM     82  C   UNL A   1      46.805  28.035  34.645  1.00  0.00     0.040 A 
ATOM     83  F   UNL A   1      45.829  29.782  33.424  1.00  0.00    -0.206 F 
ATOM     84  C   UNL A   1      46.683  26.869  35.397  1.00  0.00     0.006 A 
ENDBRANCH  60  77
ENDBRANCH  34  35
ENDBRANCH  26  29
ENDBRANCH  24  25
ENDBRANCH  23  24
ENDBRANCH  22  23
ENDBRANCH   1  22
TORSDOF 16
ENDMDL
MODEL 3
REMARK VINA RESULT:     -10.9      3.929      8.016
REMARK SMILES O=C(C[C@@H](Br)C(=O)c1ccc2c(c1)CCC2)NCCCCCCNC(=O)c1ccc(-c2c3nc(c(-c4c(F)cccc4F)c4ccc([nH]4)c(-c4c(F)cccc4F)c4nc(c(-c5c(F)cccc5F)c5ccc2[nH]5)C=C4)C=C3)cc1
REMARK SMILES IDX 20 1 19 2 18 3 17 4 1 5 2 6 3 8 4 9 5 10 6 11 7 12 8 13 9 14
REMARK SMILES IDX 13 15 10 16 12 17 11 18 14 19 16 20 15 21 21 22 22 23 23 24
REMARK SMILES IDX 24 25 25 26 26 28 27 29 28 30 80 31 29 32 79 33 30 34 31 35
REMARK SMILES IDX 32 36 73 37 33 38 78 39 72 40 74 41 34 42 77 43 71 44 70 45
REMARK SMILES IDX 35 47 61 48 44 49 60 50 45 51 48 52 59 53 75 54 46 55 47 56
REMARK SMILES IDX 58 58 76 59 49 60 36 61 37 62 42 63 38 64 39 65 41 66 43 67
REMARK SMILES IDX 40 68 62 69 63 70 68 71 64 72 65 73 67 74 69 75 66 76 50 77
REMARK SMILES IDX 51 78 56 79 52 80 53 81 55 82 57 83 54 84
REMARK H PARENT 17 7 24 27 74 46 48 57
REMARK Flexibility Score: inf
ROOT
ATOM      1  C   UNL A   1      32.768  29.927  27.120  1.00  0.00     0.002 C 
ENDROOT
BRANCH   1   2
ATOM      2  C   UNL A   1      32.671  28.396  27.233  1.00  0.00     0.021 C 
BRANCH   2   3
ATOM      3  C   UNL A   1      31.391  27.788  26.651  1.00  0.00     0.116 C 
BRANCH   3   4
ATOM      4  N   UNL A   1      31.699  27.007  25.474  1.00  0.00    -0.356 N 
ATOM      5  O   UNL A   1      30.069  27.838  24.086  1.00  0.00    -0.275 OA
ATOM      6  C   UNL A   1      30.955  27.027  24.323  1.00  0.00     0.221 C 
ATOM      7  H   UNL A   1      32.493  26.425  25.501  1.00  0.00     0.163 HD
BRANCH   6   8
ATOM      8  C   UNL A   1      31.234  25.847  23.421  1.00  0.00     0.123 C 
BRANCH   8   9
ATOM      9  C   UNL A   1      32.064  26.167  22.195  1.00  0.00     0.138 C 
ATOM     10  Br  UNL A   1      33.329  27.636  22.530  1.00  0.00    -0.080 Br
BRANCH   9  11
ATOM     11  C   UNL A   1      32.884  24.994  21.667  1.00  0.00     0.176 C 
ATOM     12  O   UNL A   1      33.238  24.943  20.489  1.00  0.00    -0.293 OA
BRANCH  11  13
ATOM     13  C   UNL A   1      33.343  23.908  22.582  1.00  0.00     0.019 A 
ATOM     14  C   UNL A   1      34.497  24.034  23.377  1.00  0.00     0.012 A 
ATOM     15  C   UNL A   1      32.572  22.737  22.638  1.00  0.00     0.015 A 
ATOM     16  C   UNL A   1      34.934  22.977  24.179  1.00  0.00     0.005 A 
ATOM     17  C   UNL A   1      32.997  21.710  23.465  1.00  0.00    -0.044 A 
ATOM     18  C   UNL A   1      34.173  21.824  24.214  1.00  0.00    -0.045 A 
ATOM     19  C   UNL A   1      32.362  20.371  23.684  1.00  0.00     0.036 C 
ATOM     20  C   UNL A   1      34.443  20.568  24.982  1.00  0.00     0.036 C 
ATOM     21  C   UNL A   1      33.049  19.927  24.985  1.00  0.00     0.010 C 
ENDBRANCH  11  13
ENDBRANCH   9  11
ENDBRANCH   8   9
ENDBRANCH   6   8
ENDBRANCH   3   4
ENDBRANCH   2   3
ENDBRANCH   1   2
BRANCH   1  22
ATOM     22  C   UNL A   1      31.685  30.591  26.266  1.00  0.00     0.002 C 
BRANCH  22  23
ATOM     23  C   UNL A   1      31.476  32.081  26.536  1.00  0.00     0.021 C 
BRANCH  23  24
ATOM     24  C   UNL A   1      32.609  32.756  27.300  1.00  0.00     0.116 C 
BRANCH  24  25
ATOM     25  N   UNL A   1      32.325  34.149  27.607  1.00  0.00    -0.352 N 
ATOM     26  C   UNL A   1      32.933  34.971  28.525  1.00  0.00     0.251 C 
ATOM     27  H   UNL A   1      31.598  34.560  27.084  1.00  0.00     0.163 HD
ATOM     28  O   UNL A   1      32.472  36.081  28.771  1.00  0.00    -0.269 OA
BRANCH  26  29
ATOM     29  C   UNL A   1      34.137  34.496  29.240  1.00  0.00     0.039 A 
ATOM     30  C   UNL A   1      33.988  33.861  30.476  1.00  0.00     0.014 A 
ATOM     31  C   UNL A   1      35.407  34.659  28.680  1.00  0.00     0.014 A 
ATOM     32  C   UNL A   1      35.108  33.327  31.118  1.00  0.00     0.010 A 
ATOM     33  C   UNL A   1      36.509  34.064  29.286  1.00  0.00     0.010 A 
ATOM     34  C   UNL A   1      36.372  33.391  30.510  1.00  0.00    -0.014 A 
BRANCH  34  35
ATOM     35  C   UNL A   1      37.571  32.770  31.133  1.00  0.00     0.031 A 
ATOM     36  C   UNL A   1      38.238  31.596  30.466  1.00  0.00     0.074 A 
ATOM     37  C   UNL A   1      38.007  33.201  32.333  1.00  0.00     0.049 A 
ATOM     38  N   UNL A   1      39.205  30.834  30.906  1.00  0.00    -0.248 NA
ATOM     39  C   UNL A   1      37.729  31.212  29.139  1.00  0.00     0.031 C 
ATOM     40  C   UNL A   1      37.428  34.305  33.101  1.00  0.00     0.029 A 
ATOM     41  N   UNL A   1      39.028  32.746  33.130  1.00  0.00    -0.354 N 
ATOM     42  C   UNL A   1      39.400  29.868  29.928  1.00  0.00     0.074 A 
ATOM     43  C   UNL A   1      38.427  30.115  28.887  1.00  0.00     0.031 C 
ATOM     44  C   UNL A   1      38.107  34.447  34.251  1.00  0.00     0.029 A 
ATOM     45  C   UNL A   1      39.140  33.418  34.325  1.00  0.00     0.049 A 
ATOM     46  H   UNL A   1      39.625  32.006  32.871  1.00  0.00     0.167 HD
ATOM     47  C   UNL A   1      40.320  28.875  29.893  1.00  0.00     0.037 A 
ATOM     48  C   UNL A   1      39.968  33.215  35.368  1.00  0.00     0.037 A 
ATOM     49  C   UNL A   1      41.315  28.658  30.908  1.00  0.00     0.049 A 
ATOM     50  C   UNL A   1      40.974  32.097  35.302  1.00  0.00     0.074 A 
ATOM     51  C   UNL A   1      42.337  27.725  30.923  1.00  0.00     0.029 A 
ATOM     52  N   UNL A   1      41.416  29.383  32.085  1.00  0.00    -0.354 N 
ATOM     53  N   UNL A   1      41.194  31.237  34.337  1.00  0.00    -0.248 NA
ATOM     54  C   UNL A   1      41.851  31.922  36.470  1.00  0.00     0.031 C 
ATOM     55  C   UNL A   1      43.027  27.852  32.132  1.00  0.00     0.029 A 
ATOM     56  C   UNL A   1      42.468  28.900  32.844  1.00  0.00     0.049 A 
ATOM     57  H   UNL A   1      40.827  30.128  32.342  1.00  0.00     0.167 HD
ATOM     58  C   UNL A   1      42.259  30.452  34.763  1.00  0.00     0.074 A 
ATOM     59  C   UNL A   1      42.645  30.940  36.069  1.00  0.00     0.031 C 
ATOM     60  C   UNL A   1      42.862  29.418  34.128  1.00  0.00     0.037 A 
BRANCH  47  61
ATOM     61  C   UNL A   1      40.304  27.941  28.719  1.00  0.00     0.057 A 
ATOM     62  C   UNL A   1      41.013  28.219  27.543  1.00  0.00     0.134 A 
ATOM     63  C   UNL A   1      39.635  26.712  28.797  1.00  0.00     0.134 A 
ATOM     64  F   UNL A   1      41.665  29.382  27.402  1.00  0.00    -0.206 F 
ATOM     65  C   UNL A   1      41.048  27.313  26.482  1.00  0.00     0.040 A 
ATOM     66  C   UNL A   1      39.686  25.787  27.752  1.00  0.00     0.040 A 
ATOM     67  F   UNL A   1      38.943  26.381  29.897  1.00  0.00    -0.206 F 
ATOM     68  C   UNL A   1      40.393  26.088  26.590  1.00  0.00     0.006 A 
ENDBRANCH  47  61
BRANCH  48  69
ATOM     69  C   UNL A   1      39.892  34.081  36.575  1.00  0.00     0.057 A 
ATOM     70  C   UNL A   1      40.655  35.252  36.671  1.00  0.00     0.134 A 
ATOM     71  C   UNL A   1      39.103  33.735  37.678  1.00  0.00     0.134 A 
ATOM     72  F   UNL A   1      41.447  35.627  35.656  1.00  0.00    -0.206 F 
ATOM     73  C   UNL A   1      40.665  36.026  37.834  1.00  0.00     0.040 A 
ATOM     74  C   UNL A   1      39.080  34.515  38.834  1.00  0.00     0.040 A 
ATOM     75  F   UNL A   1      38.343  32.629  37.647  1.00  0.00    -0.206 F 
ATOM     76  C   UNL A   1      39.873  35.658  38.919  1.00  0.00     0.006 A 
ENDBRANCH  48  69
BRANCH  60  77
ATOM     77  C   UNL A   1      44.046  28.787  34.800  1.00  0.00     0.057 A 
ATOM     78  C   UNL A   1      45.347  29.272  34.626  1.00  0.00     0.134 A 
ATOM     79  C   UNL A   1      43.867  27.713  35.684  1.00  0.00     0.134 A 
ATOM     80  F   UNL A   1      45.587  30.289  33.785  1.00  0.00    -0.206 F 
ATOM     81  C   UNL A   1      46.432  28.700  35.292  1.00  0.00     0.040 A 
ATOM     82  C   UNL A   1      44.940  27.153  36.376  1.00  0.00     0.040 A 
ATOM     83  F   UNL A   1      42.644  27.208  35.903  1.00  0.00    -0.206 F 
ATOM     84  C   UNL A   1      46.228  27.643  36.178  1.00  0.00     0.006 A 
ENDBRANCH  60  77
ENDBRANCH  34  35
ENDBRANCH  26  29
ENDBRANCH  24  25
ENDBRANCH  23  24
ENDBRANCH  22  23
ENDBRANCH   1  22
TORSDOF 16
ENDMDL
