MODEL 1
REMARK VINA RESULT:     -11.5      0.000      0.000
REMARK SMILES Cc1cc(C[NH+]2C[C@@H](C)[C@H](C)C2)oc1C(=O)NCCCCCCNC(=O)c1ccc(-c2c3nc(c(-c4c(F)cccc4F)c4ccc([nH]4)c(-c4c(F)cccc4F)c4nc(c(-c5c(F)cccc5F)c5ccc2[nH]5)C=C4)C=C3)cc1
REMARK SMILES IDX 20 1 19 2 18 3 17 4 15 5 16 6 14 8 1 9 2 10 3 11 4 12 13 13
REMARK SMILES IDX 5 14 6 15 7 16 12 17 8 19 10 20 9 21 11 22 21 23 22 24 23 25
REMARK SMILES IDX 24 26 25 27 26 29 27 30 28 31 80 32 29 33 79 34 30 35 31 36
REMARK SMILES IDX 32 37 73 38 33 39 78 40 72 41 74 42 34 43 77 44 71 45 70 46
REMARK SMILES IDX 35 48 61 49 44 50 60 51 45 52 48 53 59 54 75 55 46 56 47 57
REMARK SMILES IDX 58 59 76 60 49 61 36 62 37 63 42 64 38 65 39 66 41 67 43 68
REMARK SMILES IDX 40 69 62 70 63 71 68 72 64 73 65 74 67 75 69 76 66 77 50 78
REMARK SMILES IDX 51 79 56 80 52 81 53 82 55 83 57 84 54 85
REMARK H PARENT 17 7 6 18 24 28 74 47 48 58
REMARK Flexibility Score: inf
ROOT
ATOM      1  C   UNL A   1      36.383  21.823  25.750  1.00  0.00     0.002 C 
ENDROOT
BRANCH   1   2
ATOM      2  C   UNL A   1      36.729  23.279  25.426  1.00  0.00     0.021 C 
BRANCH   2   3
ATOM      3  C   UNL A   1      35.574  24.273  25.444  1.00  0.00     0.116 C 
BRANCH   3   4
ATOM      4  N   UNL A   1      35.017  24.557  24.148  1.00  0.00    -0.349 N 
ATOM      5  C   UNL A   1      33.978  23.938  23.488  1.00  0.00     0.287 C 
ATOM      6  O   UNL A   1      33.782  24.328  22.334  1.00  0.00    -0.266 OA
ATOM      7  H   UNL A   1      35.441  25.300  23.661  1.00  0.00     0.163 HD
BRANCH   5   8
ATOM      8  C   UNL A   1      33.189  22.875  24.100  1.00  0.00     0.194 A 
ATOM      9  C   UNL A   1      31.716  23.763  26.081  1.00  0.00     0.049 C 
ATOM     10  C   UNL A   1      32.256  22.759  25.133  1.00  0.00     0.001 A 
ATOM     11  C   UNL A   1      31.820  21.402  25.127  1.00  0.00     0.056 A 
ATOM     12  C   UNL A   1      32.532  20.749  24.152  1.00  0.00     0.159 A 
ATOM     13  O   UNL A   1      33.333  21.637  23.508  1.00  0.00    -0.450 OA
BRANCH  12  14
ATOM     14  C   UNL A   1      32.589  19.326  23.703  1.00  0.00     0.338 C 
BRANCH  14  15
ATOM     15  N   UNL A   1      33.124  18.390  24.697  1.00  0.00    -0.328 N 
ATOM     16  C   UNL A   1      32.232  17.274  25.016  1.00  0.00     0.266 C 
ATOM     17  C   UNL A   1      34.469  17.873  24.438  1.00  0.00     0.266 C 
ATOM     18  H   UNL A   1      33.193  19.001  25.511  1.00  0.00     0.348 HD
ATOM     19  C   UNL A   1      33.176  16.243  25.628  1.00  0.00     0.049 C 
ATOM     20  C   UNL A   1      34.399  16.369  24.721  1.00  0.00     0.049 C 
ATOM     21  C   UNL A   1      32.569  14.847  25.655  1.00  0.00     0.014 C 
ATOM     22  C   UNL A   1      35.686  15.822  25.318  1.00  0.00     0.014 C 
ENDBRANCH  14  15
ENDBRANCH  12  14
ENDBRANCH   5   8
ENDBRANCH   3   4
ENDBRANCH   2   3
ENDBRANCH   1   2
BRANCH   1  23
ATOM     23  C   UNL A   1      36.671  20.775  24.670  1.00  0.00     0.002 C 
BRANCH  23  24
ATOM     24  C   UNL A   1      37.713  19.704  24.998  1.00  0.00     0.021 C 
BRANCH  24  25
ATOM     25  C   UNL A   1      38.981  20.180  25.700  1.00  0.00     0.116 C 
BRANCH  25  26
ATOM     26  N   UNL A   1      40.012  19.163  25.777  1.00  0.00    -0.352 N 
ATOM     27  C   UNL A   1      41.345  19.282  26.084  1.00  0.00     0.251 C 
ATOM     28  H   UNL A   1      39.709  18.247  25.578  1.00  0.00     0.163 HD
ATOM     29  O   UNL A   1      42.082  18.304  25.992  1.00  0.00    -0.269 OA
BRANCH  27  30
ATOM     30  C   UNL A   1      41.912  20.587  26.496  1.00  0.00     0.039 A 
ATOM     31  C   UNL A   1      42.321  21.478  25.499  1.00  0.00     0.014 A 
ATOM     32  C   UNL A   1      42.065  20.929  27.842  1.00  0.00     0.014 A 
ATOM     33  C   UNL A   1      42.823  22.735  25.850  1.00  0.00     0.010 A 
ATOM     34  C   UNL A   1      42.502  22.208  28.190  1.00  0.00     0.010 A 
ATOM     35  C   UNL A   1      42.886  23.123  27.198  1.00  0.00    -0.014 A 
BRANCH  35  36
ATOM     36  C   UNL A   1      43.345  24.482  27.585  1.00  0.00     0.031 A 
ATOM     37  C   UNL A   1      42.351  25.531  28.002  1.00  0.00     0.074 A 
ATOM     38  C   UNL A   1      44.654  24.793  27.504  1.00  0.00     0.049 A 
ATOM     39  N   UNL A   1      42.553  26.789  28.304  1.00  0.00    -0.248 NA
ATOM     40  C   UNL A   1      40.940  25.118  28.064  1.00  0.00     0.031 C 
ATOM     41  C   UNL A   1      45.715  23.879  27.074  1.00  0.00     0.029 A 
ATOM     42  N   UNL A   1      45.315  25.967  27.767  1.00  0.00    -0.354 N 
ATOM     43  C   UNL A   1      41.298  27.319  28.577  1.00  0.00     0.074 A 
ATOM     44  C   UNL A   1      40.336  26.259  28.359  1.00  0.00     0.031 C 
ATOM     45  C   UNL A   1      46.893  24.521  27.121  1.00  0.00     0.029 A 
ATOM     46  C   UNL A   1      46.669  25.899  27.547  1.00  0.00     0.049 A 
ATOM     47  H   UNL A   1      44.861  26.780  28.084  1.00  0.00     0.167 HD
ATOM     48  C   UNL A   1      40.977  28.568  28.993  1.00  0.00     0.037 A 
ATOM     49  C   UNL A   1      47.623  26.842  27.667  1.00  0.00     0.037 A 
ATOM     50  C   UNL A   1      41.937  29.613  29.235  1.00  0.00     0.049 A 
ATOM     51  C   UNL A   1      47.239  28.222  28.125  1.00  0.00     0.074 A 
ATOM     52  C   UNL A   1      41.714  30.893  29.712  1.00  0.00     0.029 A 
ATOM     53  N   UNL A   1      43.302  29.498  29.019  1.00  0.00    -0.354 N 
ATOM     54  N   UNL A   1      46.056  28.690  28.438  1.00  0.00    -0.248 NA
ATOM     55  C   UNL A   1      48.327  29.204  28.252  1.00  0.00     0.031 C 
ATOM     56  C   UNL A   1      42.940  31.567  29.746  1.00  0.00     0.029 A 
ATOM     57  C   UNL A   1      43.932  30.691  29.336  1.00  0.00     0.049 A 
ATOM     58  H   UNL A   1      43.756  28.689  28.691  1.00  0.00     0.167 HD
ATOM     59  C   UNL A   1      46.260  30.008  28.827  1.00  0.00     0.074 A 
ATOM     60  C   UNL A   1      47.681  30.262  28.722  1.00  0.00     0.031 C 
ATOM     61  C   UNL A   1      45.349  30.926  29.236  1.00  0.00     0.037 A 
BRANCH  48  62
ATOM     62  C   UNL A   1      39.525  28.873  29.216  1.00  0.00     0.057 A 
ATOM     63  C   UNL A   1      38.697  29.323  28.179  1.00  0.00     0.134 A 
ATOM     64  C   UNL A   1      38.936  28.675  30.471  1.00  0.00     0.134 A 
ATOM     65  F   UNL A   1      39.200  29.544  26.954  1.00  0.00    -0.206 F 
ATOM     66  C   UNL A   1      37.343  29.588  28.388  1.00  0.00     0.040 A 
ATOM     67  C   UNL A   1      37.577  28.911  30.685  1.00  0.00     0.040 A 
ATOM     68  F   UNL A   1      39.669  28.238  31.506  1.00  0.00    -0.206 F 
ATOM     69  C   UNL A   1      36.777  29.374  29.643  1.00  0.00     0.006 A 
ENDBRANCH  48  62
BRANCH  49  70
ATOM     70  C   UNL A   1      49.038  26.512  27.367  1.00  0.00     0.057 A 
ATOM     71  C   UNL A   1      49.906  26.073  28.375  1.00  0.00     0.134 A 
ATOM     72  C   UNL A   1      49.562  26.638  26.076  1.00  0.00     0.134 A 
ATOM     73  F   UNL A   1      49.467  25.951  29.637  1.00  0.00    -0.206 F 
ATOM     74  C   UNL A   1      51.247  25.791  28.114  1.00  0.00     0.040 A 
ATOM     75  C   UNL A   1      50.895  26.336  25.794  1.00  0.00     0.040 A 
ATOM     76  F   UNL A   1      48.781  27.046  25.064  1.00  0.00    -0.206 F 
ATOM     77  C   UNL A   1      51.745  25.918  26.818  1.00  0.00     0.006 A 
ENDBRANCH  49  70
BRANCH  61  78
ATOM     78  C   UNL A   1      45.867  32.276  29.637  1.00  0.00     0.057 A 
ATOM     79  C   UNL A   1      46.294  32.547  30.943  1.00  0.00     0.134 A 
ATOM     80  C   UNL A   1      45.976  33.304  28.693  1.00  0.00     0.134 A 
ATOM     81  F   UNL A   1      46.202  31.607  31.897  1.00  0.00    -0.206 F 
ATOM     82  C   UNL A   1      46.791  33.801  31.302  1.00  0.00     0.040 A 
ATOM     83  C   UNL A   1      46.496  34.554  29.033  1.00  0.00     0.040 A 
ATOM     84  F   UNL A   1      45.592  33.108  27.423  1.00  0.00    -0.206 F 
ATOM     85  C   UNL A   1      46.900  34.807  30.343  1.00  0.00     0.006 A 
ENDBRANCH  61  78
ENDBRANCH  35  36
ENDBRANCH  27  30
ENDBRANCH  25  26
ENDBRANCH  24  25
ENDBRANCH  23  24
ENDBRANCH   1  23
TORSDOF 15
ENDMDL
MODEL 2
REMARK VINA RESULT:     -11.4      1.191      6.390
REMARK SMILES Cc1cc(C[NH+]2C[C@@H](C)[C@H](C)C2)oc1C(=O)NCCCCCCNC(=O)c1ccc(-c2c3nc(c(-c4c(F)cccc4F)c4ccc([nH]4)c(-c4c(F)cccc4F)c4nc(c(-c5c(F)cccc5F)c5ccc2[nH]5)C=C4)C=C3)cc1
REMARK SMILES IDX 20 1 19 2 18 3 17 4 15 5 16 6 14 8 1 9 2 10 3 11 4 12 13 13
REMARK SMILES IDX 5 14 6 15 7 16 12 17 8 19 10 20 9 21 11 22 21 23 22 24 23 25
REMARK SMILES IDX 24 26 25 27 26 29 27 30 28 31 80 32 29 33 79 34 30 35 31 36
REMARK SMILES IDX 32 37 73 38 33 39 78 40 72 41 74 42 34 43 77 44 71 45 70 46
REMARK SMILES IDX 35 48 61 49 44 50 60 51 45 52 48 53 59 54 75 55 46 56 47 57
REMARK SMILES IDX 58 59 76 60 49 61 36 62 37 63 42 64 38 65 39 66 41 67 43 68
REMARK SMILES IDX 40 69 62 70 63 71 68 72 64 73 65 74 67 75 69 76 66 77 50 78
REMARK SMILES IDX 51 79 56 80 52 81 53 82 55 83 57 84 54 85
REMARK H PARENT 17 7 6 18 24 28 74 47 48 58
REMARK Flexibility Score: inf
ROOT
ATOM      1  C   UNL A   1      36.360  21.630  25.722  1.00  0.00     0.002 C 
ENDROOT
BRANCH   1   2
ATOM      2  C   UNL A   1      36.788  23.075  25.447  1.00  0.00     0.021 C 
BRANCH   2   3
ATOM      3  C   UNL A   1      35.690  24.130  25.494  1.00  0.00     0.116 C 
BRANCH   3   4
ATOM      4  N   UNL A   1      35.124  24.452  24.210  1.00  0.00    -0.349 N 
ATOM      5  C   UNL A   1      34.056  23.878  23.556  1.00  0.00     0.287 C 
ATOM      6  O   UNL A   1      33.857  24.293  22.412  1.00  0.00    -0.266 OA
ATOM      7  H   UNL A   1      35.564  25.190  23.730  1.00  0.00     0.163 HD
BRANCH   5   8
ATOM      8  C   UNL A   1      33.243  22.829  24.162  1.00  0.00     0.194 A 
ATOM      9  C   UNL A   1      31.787  23.741  26.145  1.00  0.00     0.049 C 
ATOM     10  C   UNL A   1      32.306  22.730  25.193  1.00  0.00     0.001 A 
ATOM     11  C   UNL A   1      31.841  21.382  25.180  1.00  0.00     0.056 A 
ATOM     12  C   UNL A   1      32.539  20.718  24.204  1.00  0.00     0.159 A 
ATOM     13  O   UNL A   1      33.361  21.591  23.565  1.00  0.00    -0.450 OA
BRANCH  12  14
ATOM     14  C   UNL A   1      32.566  19.297  23.748  1.00  0.00     0.338 C 
BRANCH  14  15
ATOM     15  N   UNL A   1      33.105  18.348  24.729  1.00  0.00    -0.328 N 
ATOM     16  C   UNL A   1      32.232  17.208  25.009  1.00  0.00     0.266 C 
ATOM     17  C   UNL A   1      34.464  17.864  24.479  1.00  0.00     0.266 C 
ATOM     18  H   UNL A   1      33.151  18.942  25.558  1.00  0.00     0.348 HD
ATOM     19  C   UNL A   1      33.187  16.182  25.612  1.00  0.00     0.049 C 
ATOM     20  C   UNL A   1      34.420  16.353  24.726  1.00  0.00     0.049 C 
ATOM     21  C   UNL A   1      32.608  14.774  25.599  1.00  0.00     0.014 C 
ATOM     22  C   UNL A   1      35.709  15.818  25.329  1.00  0.00     0.014 C 
ENDBRANCH  14  15
ENDBRANCH  12  14
ENDBRANCH   5   8
ENDBRANCH   3   4
ENDBRANCH   2   3
ENDBRANCH   1   2
BRANCH   1  23
ATOM     23  C   UNL A   1      36.666  20.588  24.641  1.00  0.00     0.002 C 
BRANCH  23  24
ATOM     24  C   UNL A   1      37.798  19.600  24.926  1.00  0.00     0.021 C 
BRANCH  24  25
ATOM     25  C   UNL A   1      38.954  20.116  25.777  1.00  0.00     0.116 C 
BRANCH  25  26
ATOM     26  N   UNL A   1      40.101  19.227  25.788  1.00  0.00    -0.352 N 
ATOM     27  C   UNL A   1      41.409  19.483  26.119  1.00  0.00     0.251 C 
ATOM     28  H   UNL A   1      39.912  18.300  25.516  1.00  0.00     0.163 HD
ATOM     29  O   UNL A   1      42.259  18.611  25.961  1.00  0.00    -0.269 OA
BRANCH  27  30
ATOM     30  C   UNL A   1      41.813  20.810  26.636  1.00  0.00     0.039 A 
ATOM     31  C   UNL A   1      42.267  21.769  25.725  1.00  0.00     0.014 A 
ATOM     32  C   UNL A   1      41.770  21.111  28.000  1.00  0.00     0.014 A 
ATOM     33  C   UNL A   1      42.618  23.046  26.172  1.00  0.00     0.010 A 
ATOM     34  C   UNL A   1      42.056  22.405  28.437  1.00  0.00     0.010 A 
ATOM     35  C   UNL A   1      42.482  23.385  27.528  1.00  0.00    -0.014 A 
BRANCH  35  36
ATOM     36  C   UNL A   1      42.778  24.760  28.009  1.00  0.00     0.031 A 
ATOM     37  C   UNL A   1      44.184  25.155  28.366  1.00  0.00     0.074 A 
ATOM     38  C   UNL A   1      41.769  25.637  28.181  1.00  0.00     0.049 A 
ATOM     39  N   UNL A   1      44.625  26.281  28.869  1.00  0.00    -0.248 NA
ATOM     40  C   UNL A   1      45.230  24.143  28.152  1.00  0.00     0.031 C 
ATOM     41  C   UNL A   1      40.355  25.365  27.911  1.00  0.00     0.029 A 
ATOM     42  N   UNL A   1      41.775  26.932  28.638  1.00  0.00    -0.354 N 
ATOM     43  C   UNL A   1      45.992  26.107  29.045  1.00  0.00     0.074 A 
ATOM     44  C   UNL A   1      46.301  24.752  28.640  1.00  0.00     0.031 C 
ATOM     45  C   UNL A   1      39.636  26.464  28.189  1.00  0.00     0.029 A 
ATOM     46  C   UNL A   1      40.528  27.504  28.691  1.00  0.00     0.049 A 
ATOM     47  H   UNL A   1      42.597  27.405  28.901  1.00  0.00     0.167 HD
ATOM     48  C   UNL A   1      46.910  27.001  29.484  1.00  0.00     0.037 A 
ATOM     49  C   UNL A   1      40.144  28.727  29.105  1.00  0.00     0.037 A 
ATOM     50  C   UNL A   1      46.606  28.357  29.862  1.00  0.00     0.049 A 
ATOM     51  C   UNL A   1      41.183  29.699  29.593  1.00  0.00     0.074 A 
ATOM     52  C   UNL A   1      47.477  29.355  30.264  1.00  0.00     0.029 A 
ATOM     53  N   UNL A   1      45.333  28.905  29.883  1.00  0.00    -0.354 N 
ATOM     54  N   UNL A   1      42.480  29.541  29.695  1.00  0.00    -0.248 NA
ATOM     55  C   UNL A   1      40.704  31.023  30.017  1.00  0.00     0.031 C 
ATOM     56  C   UNL A   1      46.725  30.495  30.569  1.00  0.00     0.029 A 
ATOM     57  C   UNL A   1      45.392  30.222  30.310  1.00  0.00     0.049 A 
ATOM     58  H   UNL A   1      44.508  28.429  29.631  1.00  0.00     0.167 HD
ATOM     59  C   UNL A   1      42.975  30.750  30.165  1.00  0.00     0.074 A 
ATOM     60  C   UNL A   1      41.840  31.637  30.317  1.00  0.00     0.031 C 
ATOM     61  C   UNL A   1      44.255  31.096  30.446  1.00  0.00     0.037 A 
BRANCH  48  62
ATOM     62  C   UNL A   1      48.336  26.542  29.577  1.00  0.00     0.057 A 
ATOM     63  C   UNL A   1      48.837  25.916  30.725  1.00  0.00     0.134 A 
ATOM     64  C   UNL A   1      49.207  26.689  28.490  1.00  0.00     0.134 A 
ATOM     65  F   UNL A   1      48.057  25.754  31.806  1.00  0.00    -0.206 F 
ATOM     66  C   UNL A   1      50.159  25.475  30.799  1.00  0.00     0.040 A 
ATOM     67  C   UNL A   1      50.524  26.228  28.543  1.00  0.00     0.040 A 
ATOM     68  F   UNL A   1      48.791  27.273  27.356  1.00  0.00    -0.206 F 
ATOM     69  C   UNL A   1      51.005  25.623  29.702  1.00  0.00     0.006 A 
ENDBRANCH  48  62
BRANCH  49  70
ATOM     70  C   UNL A   1      38.711  29.112  29.061  1.00  0.00     0.057 A 
ATOM     71  C   UNL A   1      38.132  29.603  27.885  1.00  0.00     0.134 A 
ATOM     72  C   UNL A   1      37.891  29.012  30.190  1.00  0.00     0.134 A 
ATOM     73  F   UNL A   1      38.873  29.740  26.774  1.00  0.00    -0.206 F 
ATOM     74  C   UNL A   1      36.795  30.000  27.837  1.00  0.00     0.040 A 
ATOM     75  C   UNL A   1      36.546  29.382  30.152  1.00  0.00     0.040 A 
ATOM     76  F   UNL A   1      38.383  28.542  31.346  1.00  0.00    -0.206 F 
ATOM     77  C   UNL A   1      35.996  29.885  28.973  1.00  0.00     0.006 A 
ENDBRANCH  49  70
BRANCH  61  78
ATOM     78  C   UNL A   1      44.503  32.502  30.906  1.00  0.00     0.057 A 
ATOM     79  C   UNL A   1      44.729  33.548  30.003  1.00  0.00     0.134 A 
ATOM     80  C   UNL A   1      44.474  32.819  32.270  1.00  0.00     0.134 A 
ATOM     81  F   UNL A   1      44.782  33.307  28.683  1.00  0.00    -0.206 F 
ATOM     82  C   UNL A   1      44.940  34.856  30.441  1.00  0.00     0.040 A 
ATOM     83  C   UNL A   1      44.657  34.127  32.719  1.00  0.00     0.040 A 
ATOM     84  F   UNL A   1      44.254  31.864  33.187  1.00  0.00    -0.206 F 
ATOM     85  C   UNL A   1      44.897  35.150  31.803  1.00  0.00     0.006 A 
ENDBRANCH  61  78
ENDBRANCH  35  36
ENDBRANCH  27  30
ENDBRANCH  25  26
ENDBRANCH  24  25
ENDBRANCH  23  24
ENDBRANCH   1  23
TORSDOF 15
ENDMDL
MODEL 3
REMARK VINA RESULT:     -11.2      2.449      6.824
REMARK SMILES Cc1cc(C[NH+]2C[C@@H](C)[C@H](C)C2)oc1C(=O)NCCCCCCNC(=O)c1ccc(-c2c3nc(c(-c4c(F)cccc4F)c4ccc([nH]4)c(-c4c(F)cccc4F)c4nc(c(-c5c(F)cccc5F)c5ccc2[nH]5)C=C4)C=C3)cc1
REMARK SMILES IDX 20 1 19 2 18 3 17 4 15 5 16 6 14 8 1 9 2 10 3 11 4 12 13 13
REMARK SMILES IDX 5 14 6 15 7 16 12 17 8 19 10 20 9 21 11 22 21 23 22 24 23 25
REMARK SMILES IDX 24 26 25 27 26 29 27 30 28 31 80 32 29 33 79 34 30 35 31 36
REMARK SMILES IDX 32 37 73 38 33 39 78 40 72 41 74 42 34 43 77 44 71 45 70 46
REMARK SMILES IDX 35 48 61 49 44 50 60 51 45 52 48 53 59 54 75 55 46 56 47 57
REMARK SMILES IDX 58 59 76 60 49 61 36 62 37 63 42 64 38 65 39 66 41 67 43 68
REMARK SMILES IDX 40 69 62 70 63 71 68 72 64 73 65 74 67 75 69 76 66 77 50 78
REMARK SMILES IDX 51 79 56 80 52 81 53 82 55 83 57 84 54 85
REMARK H PARENT 17 7 6 18 24 28 74 47 48 58
REMARK Flexibility Score: inf
ROOT
ATOM      1  C   UNL A   1      33.630  25.877  25.666  1.00  0.00     0.002 C 
ENDROOT
BRANCH   1   2
ATOM      2  C   UNL A   1      34.781  24.896  25.425  1.00  0.00     0.021 C 
BRANCH   2   3
ATOM      3  C   UNL A   1      34.702  23.561  26.156  1.00  0.00     0.116 C 
BRANCH   3   4
ATOM      4  N   UNL A   1      33.467  23.345  26.862  1.00  0.00    -0.349 N 
ATOM      5  C   UNL A   1      32.284  22.803  26.409  1.00  0.00     0.287 C 
ATOM      6  O   UNL A   1      31.349  22.836  27.214  1.00  0.00    -0.266 OA
ATOM      7  H   UNL A   1      33.467  23.626  27.806  1.00  0.00     0.163 HD
BRANCH   5   8
ATOM      8  C   UNL A   1      32.139  22.261  25.063  1.00  0.00     0.194 A 
ATOM      9  C   UNL A   1      31.396  24.097  23.342  1.00  0.00     0.049 C 
ATOM     10  C   UNL A   1      31.800  22.745  23.798  1.00  0.00     0.001 A 
ATOM     11  C   UNL A   1      31.944  21.647  22.899  1.00  0.00     0.056 A 
ATOM     12  C   UNL A   1      32.300  20.552  23.646  1.00  0.00     0.159 A 
ATOM     13  O   UNL A   1      32.451  20.923  24.944  1.00  0.00    -0.450 OA
BRANCH  12  14
ATOM     14  C   UNL A   1      32.530  19.115  23.314  1.00  0.00     0.338 C 
BRANCH  14  15
ATOM     15  N   UNL A   1      33.052  18.306  24.420  1.00  0.00    -0.328 N 
ATOM     16  C   UNL A   1      32.153  17.239  24.865  1.00  0.00     0.266 C 
ATOM     17  C   UNL A   1      34.398  17.759  24.241  1.00  0.00     0.266 C 
ATOM     18  H   UNL A   1      33.116  19.012  25.155  1.00  0.00     0.348 HD
ATOM     19  C   UNL A   1      33.088  16.289  25.608  1.00  0.00     0.049 C 
ATOM     20  C   UNL A   1      34.320  16.301  24.704  1.00  0.00     0.049 C 
ATOM     21  C   UNL A   1      32.477  14.908  25.799  1.00  0.00     0.014 C 
ATOM     22  C   UNL A   1      35.600  15.828  25.376  1.00  0.00     0.014 C 
ENDBRANCH  14  15
ENDBRANCH  12  14
ENDBRANCH   5   8
ENDBRANCH   3   4
ENDBRANCH   2   3
ENDBRANCH   1   2
BRANCH   1  23
ATOM     23  C   UNL A   1      33.663  27.203  24.900  1.00  0.00     0.002 C 
BRANCH  23  24
ATOM     24  C   UNL A   1      33.271  28.464  25.671  1.00  0.00     0.021 C 
BRANCH  24  25
ATOM     25  C   UNL A   1      33.793  28.580  27.099  1.00  0.00     0.116 C 
BRANCH  25  26
ATOM     26  N   UNL A   1      33.730  29.929  27.627  1.00  0.00    -0.352 N 
ATOM     27  C   UNL A   1      34.688  30.663  28.283  1.00  0.00     0.251 C 
ATOM     28  H   UNL A   1      32.870  30.388  27.495  1.00  0.00     0.163 HD
ATOM     29  O   UNL A   1      34.401  31.763  28.748  1.00  0.00    -0.269 OA
BRANCH  27  30
ATOM     30  C   UNL A   1      36.058  30.130  28.464  1.00  0.00     0.039 A 
ATOM     31  C   UNL A   1      36.932  30.158  27.373  1.00  0.00     0.014 A 
ATOM     32  C   UNL A   1      36.479  29.586  29.680  1.00  0.00     0.014 A 
ATOM     33  C   UNL A   1      38.245  29.701  27.519  1.00  0.00     0.010 A 
ATOM     34  C   UNL A   1      37.808  29.193  29.844  1.00  0.00     0.010 A 
ATOM     35  C   UNL A   1      38.703  29.246  28.765  1.00  0.00    -0.014 A 
BRANCH  35  36
ATOM     36  C   UNL A   1      40.116  28.828  28.958  1.00  0.00     0.031 A 
ATOM     37  C   UNL A   1      41.124  29.790  29.524  1.00  0.00     0.074 A 
ATOM     38  C   UNL A   1      40.507  27.598  28.567  1.00  0.00     0.049 A 
ATOM     39  N   UNL A   1      42.413  29.632  29.697  1.00  0.00    -0.248 NA
ATOM     40  C   UNL A   1      40.623  31.113  29.925  1.00  0.00     0.031 C 
ATOM     41  C   UNL A   1      39.637  26.585  27.967  1.00  0.00     0.029 A 
ATOM     42  N   UNL A   1      41.740  26.995  28.605  1.00  0.00    -0.354 N 
ATOM     43  C   UNL A   1      42.876  30.836  30.212  1.00  0.00     0.074 A 
ATOM     44  C   UNL A   1      41.740  31.731  30.279  1.00  0.00     0.031 C 
ATOM     45  C   UNL A   1      40.359  25.482  27.710  1.00  0.00     0.029 A 
ATOM     46  C   UNL A   1      41.747  25.722  28.092  1.00  0.00     0.049 A 
ATOM     47  H   UNL A   1      42.543  27.435  28.967  1.00  0.00     0.167 HD
ATOM     48  C   UNL A   1      44.128  31.161  30.613  1.00  0.00     0.037 A 
ATOM     49  C   UNL A   1      42.759  24.846  27.939  1.00  0.00     0.037 A 
ATOM     50  C   UNL A   1      45.252  30.261  30.571  1.00  0.00     0.049 A 
ATOM     51  C   UNL A   1      44.142  25.233  28.387  1.00  0.00     0.074 A 
ATOM     52  C   UNL A   1      46.547  30.479  31.008  1.00  0.00     0.029 A 
ATOM     53  N   UNL A   1      45.213  28.972  30.063  1.00  0.00    -0.354 N 
ATOM     54  N   UNL A   1      44.551  26.354  28.929  1.00  0.00    -0.248 NA
ATOM     55  C   UNL A   1      45.201  24.230  28.208  1.00  0.00     0.031 C 
ATOM     56  C   UNL A   1      47.302  29.337  30.726  1.00  0.00     0.029 A 
ATOM     57  C   UNL A   1      46.467  28.389  30.158  1.00  0.00     0.049 A 
ATOM     58  H   UNL A   1      44.413  28.535  29.690  1.00  0.00     0.167 HD
ATOM     59  C   UNL A   1      45.906  26.181  29.183  1.00  0.00     0.074 A 
ATOM     60  C   UNL A   1      46.246  24.843  28.747  1.00  0.00     0.031 C 
ATOM     61  C   UNL A   1      46.789  27.052  29.729  1.00  0.00     0.037 A 
BRANCH  48  62
ATOM     62  C   UNL A   1      44.351  32.549  31.137  1.00  0.00     0.057 A 
ATOM     63  C   UNL A   1      44.213  32.856  32.497  1.00  0.00     0.134 A 
ATOM     64  C   UNL A   1      44.751  33.582  30.280  1.00  0.00     0.134 A 
ATOM     65  F   UNL A   1      43.822  31.915  33.370  1.00  0.00    -0.206 F 
ATOM     66  C   UNL A   1      44.439  34.145  32.981  1.00  0.00     0.040 A 
ATOM     67  C   UNL A   1      45.006  34.870  30.757  1.00  0.00     0.040 A 
ATOM     68  F   UNL A   1      44.910  33.356  28.967  1.00  0.00    -0.206 F 
ATOM     69  C   UNL A   1      44.845  35.155  32.111  1.00  0.00     0.006 A 
ENDBRANCH  48  62
BRANCH  49  70
ATOM     70  C   UNL A   1      42.504  23.508  27.349  1.00  0.00     0.057 A 
ATOM     71  C   UNL A   1      42.222  22.404  28.163  1.00  0.00     0.134 A 
ATOM     72  C   UNL A   1      42.546  23.296  25.967  1.00  0.00     0.134 A 
ATOM     73  F   UNL A   1      42.186  22.541  29.497  1.00  0.00    -0.206 F 
ATOM     74  C   UNL A   1      42.012  21.133  27.625  1.00  0.00     0.040 A 
ATOM     75  C   UNL A   1      42.314  22.036  25.413  1.00  0.00     0.040 A 
ATOM     76  F   UNL A   1      42.803  24.315  25.133  1.00  0.00    -0.206 F 
ATOM     77  C   UNL A   1      42.054  20.948  26.245  1.00  0.00     0.006 A 
ENDBRANCH  49  70
BRANCH  61  78
ATOM     78  C   UNL A   1      48.197  26.573  29.923  1.00  0.00     0.057 A 
ATOM     79  C   UNL A   1      48.599  25.907  31.087  1.00  0.00     0.134 A 
ATOM     80  C   UNL A   1      49.152  26.746  28.913  1.00  0.00     0.134 A 
ATOM     81  F   UNL A   1      47.735  25.722  32.097  1.00  0.00    -0.206 F 
ATOM     82  C   UNL A   1      49.908  25.449  31.250  1.00  0.00     0.040 A 
ATOM     83  C   UNL A   1      50.456  26.270  29.053  1.00  0.00     0.040 A 
ATOM     84  F   UNL A   1      48.829  27.369  27.769  1.00  0.00    -0.206 F 
ATOM     85  C   UNL A   1      50.839  25.624  30.227  1.00  0.00     0.006 A 
ENDBRANCH  61  78
ENDBRANCH  35  36
ENDBRANCH  27  30
ENDBRANCH  25  26
ENDBRANCH  24  25
ENDBRANCH  23  24
ENDBRANCH   1  23
TORSDOF 15
ENDMDL
