MODEL 1
REMARK VINA RESULT:     -11.5      0.000      0.000
REMARK SMILES Cc1ccc(NC(=O)CN2C(=O)S/C(=C\c3cc(Cl)c(OCC(=O)NCCCCCCNC(=O)c4ccc(-c5c6nc(c(-c7c(F)cccc7F)c7ccc([nH]7)c(-c7c(F)cccc7F)c7nc(c(-c8c(F)cccc8F)c8ccc5[nH]8)C=C7)C=C6)cc4)c(Cl)c3)C2=O)cc1
REMARK SMILES IDX 26 1 25 2 23 3 24 4 22 6 21 7 20 8 16 9 17 10 91 11 18 12
REMARK SMILES IDX 89 13 19 14 90 15 15 16 10 17 11 18 92 19 12 20 13 21 14 22
REMARK SMILES IDX 93 23 9 24 7 25 6 26 8 28 5 29 1 30 2 31 3 32 95 33 4 34
REMARK SMILES IDX 94 35 27 36 28 37 29 38 30 39 31 40 32 41 33 42 34 44 35 45
REMARK SMILES IDX 36 46 88 47 37 48 87 49 38 50 39 51 40 52 81 53 41 54 86 55
REMARK SMILES IDX 80 56 82 57 42 58 85 59 79 60 78 61 43 63 69 64 52 65 68 66
REMARK SMILES IDX 53 67 56 68 67 69 83 70 54 71 55 72 66 74 84 75 57 76 44 77
REMARK SMILES IDX 45 78 50 79 46 80 47 81 49 82 51 83 48 84 70 85 71 86 76 87
REMARK SMILES IDX 72 88 73 89 75 90 77 91 74 92 58 93 59 94 64 95 60 96 61 97
REMARK SMILES IDX 63 98 65 99 62 100
REMARK H PARENT 25 5 6 27 32 43 82 62 56 73
REMARK Flexibility Score: inf
ROOT
ATOM      1  C   UNL A   1      36.306  30.591  30.916  1.00  0.00     0.116 C 
ENDROOT
BRANCH   1   2
ATOM      2  N   UNL A   1      35.386  31.669  31.195  1.00  0.00    -0.353 N 
ATOM      3  C   UNL A   1      35.000  32.690  30.379  1.00  0.00     0.257 C 
ATOM      4  O   UNL A   1      34.025  33.357  30.727  1.00  0.00    -0.271 OA
ATOM      5  H   UNL A   1      34.985  31.665  32.094  1.00  0.00     0.163 HD
BRANCH   3   6
ATOM      6  C   UNL A   1      35.732  32.926  29.048  1.00  0.00     0.329 C 
BRANCH   6   7
ATOM      7  O   UNL A   1      35.062  32.587  27.848  1.00  0.00    -0.481 OA
BRANCH   7   8
ATOM      8  C   UNL A   1      34.647  31.319  27.547  1.00  0.00     0.157 A 
ATOM      9  C   UNL A   1      33.406  28.820  26.891  1.00  0.00    -0.021 A 
ATOM     10  C   UNL A   1      32.650  29.985  26.919  1.00  0.00     0.032 A 
ATOM     11  C   UNL A   1      34.760  28.917  27.235  1.00  0.00     0.032 A 
ATOM     12  C   UNL A   1      33.263  31.209  27.254  1.00  0.00     0.085 A 
ATOM     13  C   UNL A   1      35.394  30.142  27.486  1.00  0.00     0.085 A 
ATOM     14  Cl  UNL A   1      32.236  32.612  27.289  1.00  0.00    -0.080 Cl
ATOM     15  Cl  UNL A   1      37.110  30.001  27.594  1.00  0.00    -0.080 Cl
BRANCH   9  16
ATOM     16  C   UNL A   1      32.836  27.489  26.597  1.00  0.00     0.029 C 
ATOM     17  N   UNL A   1      31.333  26.102  23.687  1.00  0.00    -0.259 N 
ATOM     18  C   UNL A   1      31.147  27.401  23.305  1.00  0.00     0.294 C 
ATOM     19  C   UNL A   1      31.773  25.917  24.987  1.00  0.00     0.268 C 
ATOM     20  O   UNL A   1      31.128  27.856  22.167  1.00  0.00    -0.261 OA
ATOM     21  S   UNL A   1      31.047  28.422  24.715  1.00  0.00    -0.022 SA
ATOM     22  C   UNL A   1      31.914  27.255  25.644  1.00  0.00     0.083 C 
ATOM     23  O   UNL A   1      32.149  24.869  25.481  1.00  0.00    -0.268 OA
BRANCH  17  24
ATOM     24  C   UNL A   1      31.529  25.073  22.677  1.00  0.00     0.230 C 
BRANCH  24  25
ATOM     25  C   UNL A   1      32.992  24.903  22.260  1.00  0.00     0.244 C 
ATOM     26  N   UNL A   1      33.602  23.682  22.299  1.00  0.00    -0.325 N 
ATOM     27  H   UNL A   1      34.308  23.558  21.623  1.00  0.00     0.169 HD
ATOM     28  O   UNL A   1      33.641  25.874  21.856  1.00  0.00    -0.273 OA
BRANCH  26  29
ATOM     29  C   UNL A   1      33.397  22.576  23.133  1.00  0.00     0.041 A 
ATOM     30  C   UNL A   1      32.874  18.914  25.356  1.00  0.00     0.044 C 
ATOM     31  C   UNL A   1      33.037  20.187  24.581  1.00  0.00    -0.051 A 
ATOM     32  C   UNL A   1      34.029  21.103  24.948  1.00  0.00     0.005 A 
ATOM     33  C   UNL A   1      32.225  20.476  23.480  1.00  0.00     0.005 A 
ATOM     34  C   UNL A   1      34.208  22.288  24.229  1.00  0.00     0.026 A 
ATOM     35  C   UNL A   1      32.415  21.655  22.754  1.00  0.00     0.026 A 
ENDBRANCH  26  29
ENDBRANCH  24  25
ENDBRANCH  17  24
ENDBRANCH   9  16
ENDBRANCH   7   8
ENDBRANCH   6   7
ENDBRANCH   3   6
ENDBRANCH   1   2
BRANCH   1  36
ATOM     36  C   UNL A   1      37.026  30.086  32.164  1.00  0.00     0.021 C 
BRANCH  36  37
ATOM     37  C   UNL A   1      37.893  28.829  31.995  1.00  0.00     0.002 C 
BRANCH  37  38
ATOM     38  C   UNL A   1      37.891  28.141  30.622  1.00  0.00     0.002 C 
BRANCH  38  39
ATOM     39  C   UNL A   1      39.141  27.346  30.255  1.00  0.00     0.021 C 
BRANCH  39  40
ATOM     40  C   UNL A   1      39.532  27.403  28.785  1.00  0.00     0.116 C 
BRANCH  40  41
ATOM     41  N   UNL A   1      40.010  26.131  28.244  1.00  0.00    -0.352 N 
ATOM     42  C   UNL A   1      41.284  25.774  27.831  1.00  0.00     0.251 C 
ATOM     43  H   UNL A   1      39.328  25.428  28.160  1.00  0.00     0.163 HD
ATOM     44  O   UNL A   1      41.505  24.640  27.415  1.00  0.00    -0.269 OA
BRANCH  42  45
ATOM     45  C   UNL A   1      42.411  26.709  28.062  1.00  0.00     0.039 A 
ATOM     46  C   UNL A   1      42.991  26.685  29.335  1.00  0.00     0.014 A 
ATOM     47  C   UNL A   1      42.614  27.790  27.213  1.00  0.00     0.014 A 
ATOM     48  C   UNL A   1      43.455  27.873  29.881  1.00  0.00     0.010 A 
ATOM     49  C   UNL A   1      42.961  28.992  27.783  1.00  0.00     0.010 A 
ATOM     50  C   UNL A   1      43.282  29.039  29.143  1.00  0.00    -0.014 A 
BRANCH  50  51
ATOM     51  C   UNL A   1      43.300  30.363  29.736  1.00  0.00     0.031 A 
ATOM     52  C   UNL A   1      42.026  31.041  30.010  1.00  0.00     0.074 A 
ATOM     53  C   UNL A   1      44.486  30.895  30.110  1.00  0.00     0.049 A 
ATOM     54  N   UNL A   1      41.920  32.301  30.243  1.00  0.00    -0.248 NA
ATOM     55  C   UNL A   1      40.737  30.355  29.958  1.00  0.00     0.031 C 
ATOM     56  C   UNL A   1      44.721  32.048  30.975  1.00  0.00     0.029 A 
ATOM     57  N   UNL A   1      45.751  30.595  29.585  1.00  0.00    -0.354 N 
ATOM     58  C   UNL A   1      40.632  32.536  30.660  1.00  0.00     0.074 A 
ATOM     59  C   UNL A   1      39.909  31.338  30.323  1.00  0.00     0.031 C 
ATOM     60  C   UNL A   1      45.947  32.537  30.725  1.00  0.00     0.029 A 
ATOM     61  C   UNL A   1      46.471  31.811  29.580  1.00  0.00     0.049 A 
ATOM     62  H   UNL A   1      46.073  29.715  29.281  1.00  0.00     0.167 HD
ATOM     63  C   UNL A   1      40.388  33.669  31.374  1.00  0.00     0.037 A 
ATOM     64  C   UNL A   1      46.860  32.391  28.407  1.00  0.00     0.037 A 
ATOM     65  C   UNL A   1      41.526  34.585  31.265  1.00  0.00     0.049 A 
ATOM     66  C   UNL A   1      46.247  33.756  28.182  1.00  0.00     0.074 A 
ATOM     67  C   UNL A   1      42.564  34.913  32.120  1.00  0.00     0.029 A 
ATOM     68  N   UNL A   1      41.878  35.073  30.009  1.00  0.00    -0.354 N 
ATOM     69  N   UNL A   1      45.171  34.179  28.787  1.00  0.00    -0.248 NA
ATOM     70  C   UNL A   1      46.797  34.750  27.265  1.00  0.00     0.031 C 
ATOM     71  C   UNL A   1      43.596  35.502  31.338  1.00  0.00     0.029 A 
ATOM     72  C   UNL A   1      43.162  35.581  30.024  1.00  0.00     0.049 A 
ATOM     73  H   UNL A   1      41.293  35.058  29.218  1.00  0.00     0.167 HD
ATOM     74  C   UNL A   1      44.868  35.447  28.359  1.00  0.00     0.074 A 
ATOM     75  C   UNL A   1      45.929  35.766  27.421  1.00  0.00     0.031 C 
ATOM     76  C   UNL A   1      43.765  36.119  28.809  1.00  0.00     0.037 A 
BRANCH  63  77
ATOM     77  C   UNL A   1      39.241  33.872  32.347  1.00  0.00     0.057 A 
ATOM     78  C   UNL A   1      38.005  34.364  31.880  1.00  0.00     0.134 A 
ATOM     79  C   UNL A   1      39.308  33.744  33.751  1.00  0.00     0.134 A 
ATOM     80  F   UNL A   1      37.772  34.543  30.572  1.00  0.00    -0.206 F 
ATOM     81  C   UNL A   1      36.949  34.725  32.734  1.00  0.00     0.040 A 
ATOM     82  C   UNL A   1      38.246  34.063  34.610  1.00  0.00     0.040 A 
ATOM     83  F   UNL A   1      40.412  33.355  34.393  1.00  0.00    -0.206 F 
ATOM     84  C   UNL A   1      37.065  34.573  34.105  1.00  0.00     0.006 A 
ENDBRANCH  63  77
BRANCH  64  85
ATOM     85  C   UNL A   1      47.173  31.391  27.350  1.00  0.00     0.057 A 
ATOM     86  C   UNL A   1      48.413  30.726  27.415  1.00  0.00     0.134 A 
ATOM     87  C   UNL A   1      46.172  30.791  26.583  1.00  0.00     0.134 A 
ATOM     88  F   UNL A   1      49.423  31.255  28.125  1.00  0.00    -0.206 F 
ATOM     89  C   UNL A   1      48.600  29.452  26.872  1.00  0.00     0.040 A 
ATOM     90  C   UNL A   1      46.357  29.522  26.015  1.00  0.00     0.040 A 
ATOM     91  F   UNL A   1      44.960  31.354  26.478  1.00  0.00    -0.206 F 
ATOM     92  C   UNL A   1      47.553  28.829  26.203  1.00  0.00     0.006 A 
ENDBRANCH  64  85
BRANCH  76  93
ATOM     93  C   UNL A   1      43.187  37.383  28.206  1.00  0.00     0.057 A 
ATOM     94  C   UNL A   1      42.492  37.440  26.988  1.00  0.00     0.134 A 
ATOM     95  C   UNL A   1      43.189  38.592  28.941  1.00  0.00     0.134 A 
ATOM     96  F   UNL A   1      42.295  36.349  26.237  1.00  0.00    -0.206 F 
ATOM     97  C   UNL A   1      41.905  38.620  26.507  1.00  0.00     0.040 A 
ATOM     98  C   UNL A   1      42.553  39.757  28.501  1.00  0.00     0.040 A 
ATOM     99  F   UNL A   1      43.786  38.693  30.138  1.00  0.00    -0.206 F 
ATOM    100  C   UNL A   1      41.922  39.780  27.268  1.00  0.00     0.006 A 
ENDBRANCH  76  93
ENDBRANCH  50  51
ENDBRANCH  42  45
ENDBRANCH  40  41
ENDBRANCH  39  40
ENDBRANCH  38  39
ENDBRANCH  37  38
ENDBRANCH  36  37
ENDBRANCH   1  36
TORSDOF 19
ENDMDL
MODEL 2
REMARK VINA RESULT:     -10.5      7.120     14.936
REMARK SMILES Cc1ccc(NC(=O)CN2C(=O)S/C(=C\c3cc(Cl)c(OCC(=O)NCCCCCCNC(=O)c4ccc(-c5c6nc(c(-c7c(F)cccc7F)c7ccc([nH]7)c(-c7c(F)cccc7F)c7nc(c(-c8c(F)cccc8F)c8ccc5[nH]8)C=C7)C=C6)cc4)c(Cl)c3)C2=O)cc1
REMARK SMILES IDX 26 1 25 2 23 3 24 4 22 6 21 7 20 8 16 9 17 10 91 11 18 12
REMARK SMILES IDX 89 13 19 14 90 15 15 16 10 17 11 18 92 19 12 20 13 21 14 22
REMARK SMILES IDX 93 23 9 24 7 25 6 26 8 28 5 29 1 30 2 31 3 32 95 33 4 34
REMARK SMILES IDX 94 35 27 36 28 37 29 38 30 39 31 40 32 41 33 42 34 44 35 45
REMARK SMILES IDX 36 46 88 47 37 48 87 49 38 50 39 51 40 52 81 53 41 54 86 55
REMARK SMILES IDX 80 56 82 57 42 58 85 59 79 60 78 61 43 63 69 64 52 65 68 66
REMARK SMILES IDX 53 67 56 68 67 69 83 70 54 71 55 72 66 74 84 75 57 76 44 77
REMARK SMILES IDX 45 78 50 79 46 80 47 81 49 82 51 83 48 84 70 85 71 86 76 87
REMARK SMILES IDX 72 88 73 89 75 90 77 91 74 92 58 93 59 94 64 95 60 96 61 97
REMARK SMILES IDX 63 98 65 99 62 100
REMARK H PARENT 25 5 6 27 32 43 82 62 56 73
REMARK Flexibility Score: inf
ROOT
ATOM      1  C   UNL A   1      43.126  35.660  28.955  1.00  0.00     0.116 C 
ENDROOT
BRANCH   1   2
ATOM      2  N   UNL A   1      43.164  36.808  29.831  1.00  0.00    -0.353 N 
ATOM      3  C   UNL A   1      43.782  38.007  29.635  1.00  0.00     0.257 C 
ATOM      4  O   UNL A   1      43.485  38.929  30.396  1.00  0.00    -0.271 OA
ATOM      5  H   UNL A   1      42.678  36.711  30.682  1.00  0.00     0.163 HD
BRANCH   3   6
ATOM      6  C   UNL A   1      44.753  38.185  28.458  1.00  0.00     0.329 C 
BRANCH   6   7
ATOM      7  O   UNL A   1      44.209  38.362  27.163  1.00  0.00    -0.481 OA
BRANCH   7   8
ATOM      8  C   UNL A   1      44.266  39.542  26.474  1.00  0.00     0.157 A 
ATOM      9  C   UNL A   1      44.786  41.950  25.010  1.00  0.00    -0.021 A 
ATOM     10  C   UNL A   1      45.821  41.064  25.279  1.00  0.00     0.032 A 
ATOM     11  C   UNL A   1      43.517  41.639  25.516  1.00  0.00     0.032 A 
ATOM     12  C   UNL A   1      45.562  39.888  26.010  1.00  0.00     0.085 A 
ATOM     13  C   UNL A   1      43.235  40.432  26.169  1.00  0.00     0.085 A 
ATOM     14  Cl  UNL A   1      46.921  38.848  26.323  1.00  0.00    -0.080 Cl
ATOM     15  Cl  UNL A   1      41.547  40.182  26.424  1.00  0.00    -0.080 Cl
BRANCH   9  16
ATOM     16  C   UNL A   1      44.976  43.228  24.292  1.00  0.00     0.029 C 
ATOM     17  N   UNL A   1      46.113  44.003  21.012  1.00  0.00    -0.259 N 
ATOM     18  C   UNL A   1      46.658  42.749  21.031  1.00  0.00     0.294 C 
ATOM     19  C   UNL A   1      45.607  44.454  22.220  1.00  0.00     0.268 C 
ATOM     20  O   UNL A   1      46.829  41.989  20.085  1.00  0.00    -0.261 OA
ATOM     21  S   UNL A   1      46.999  42.278  22.675  1.00  0.00    -0.022 SA
ATOM     22  C   UNL A   1      45.822  43.395  23.259  1.00  0.00     0.083 C 
ATOM     23  O   UNL A   1      44.946  45.461  22.396  1.00  0.00    -0.268 OA
BRANCH  17  24
ATOM     24  C   UNL A   1      45.668  44.578  19.753  1.00  0.00     0.230 C 
BRANCH  24  25
ATOM     25  C   UNL A   1      46.556  45.724  19.262  1.00  0.00     0.244 C 
ATOM     26  N   UNL A   1      46.018  46.897  18.816  1.00  0.00    -0.325 N 
ATOM     27  H   UNL A   1      46.583  47.689  18.968  1.00  0.00     0.169 HD
ATOM     28  O   UNL A   1      47.786  45.612  19.285  1.00  0.00    -0.273 OA
BRANCH  26  29
ATOM     29  C   UNL A   1      44.800  47.168  18.180  1.00  0.00     0.041 A 
ATOM     30  C   UNL A   1      41.250  48.346  16.027  1.00  0.00     0.044 C 
ATOM     31  C   UNL A   1      42.477  47.946  16.790  1.00  0.00    -0.051 A 
ATOM     32  C   UNL A   1      43.080  46.709  16.539  1.00  0.00     0.005 A 
ATOM     33  C   UNL A   1      43.046  48.793  17.745  1.00  0.00     0.005 A 
ATOM     34  C   UNL A   1      44.233  46.323  17.227  1.00  0.00     0.026 A 
ATOM     35  C   UNL A   1      44.207  48.412  18.423  1.00  0.00     0.026 A 
ENDBRANCH  26  29
ENDBRANCH  24  25
ENDBRANCH  17  24
ENDBRANCH   9  16
ENDBRANCH   7   8
ENDBRANCH   6   7
ENDBRANCH   3   6
ENDBRANCH   1   2
BRANCH   1  36
ATOM     36  C   UNL A   1      42.101  34.616  29.389  1.00  0.00     0.021 C 
BRANCH  36  37
ATOM     37  C   UNL A   1      40.624  34.958  29.140  1.00  0.00     0.002 C 
BRANCH  37  38
ATOM     38  C   UNL A   1      39.577  34.307  30.055  1.00  0.00     0.002 C 
BRANCH  38  39
ATOM     39  C   UNL A   1      38.295  33.815  29.386  1.00  0.00     0.021 C 
BRANCH  39  40
ATOM     40  C   UNL A   1      37.451  32.870  30.228  1.00  0.00     0.116 C 
BRANCH  40  41
ATOM     41  N   UNL A   1      36.049  32.797  29.820  1.00  0.00    -0.352 N 
ATOM     42  C   UNL A   1      35.381  31.788  29.145  1.00  0.00     0.251 C 
ATOM     43  H   UNL A   1      35.501  33.578  30.059  1.00  0.00     0.163 HD
ATOM     44  O   UNL A   1      34.183  31.894  28.901  1.00  0.00    -0.269 OA
BRANCH  42  45
ATOM     45  C   UNL A   1      36.077  30.506  28.880  1.00  0.00     0.039 A 
ATOM     46  C   UNL A   1      36.354  29.703  29.992  1.00  0.00     0.014 A 
ATOM     47  C   UNL A   1      36.748  30.305  27.679  1.00  0.00     0.014 A 
ATOM     48  C   UNL A   1      37.528  28.965  30.010  1.00  0.00     0.010 A 
ATOM     49  C   UNL A   1      37.968  29.673  27.728  1.00  0.00     0.010 A 
ATOM     50  C   UNL A   1      38.392  29.095  28.928  1.00  0.00    -0.014 A 
BRANCH  50  51
ATOM     51  C   UNL A   1      39.803  28.758  28.996  1.00  0.00     0.031 A 
ATOM     52  C   UNL A   1      40.232  27.400  28.635  1.00  0.00     0.074 A 
ATOM     53  C   UNL A   1      40.693  29.732  29.296  1.00  0.00     0.049 A 
ATOM     54  N   UNL A   1      41.379  26.906  28.939  1.00  0.00    -0.248 NA
ATOM     55  C   UNL A   1      39.353  26.445  27.964  1.00  0.00     0.031 C 
ATOM     56  C   UNL A   1      42.144  29.703  29.133  1.00  0.00     0.029 A 
ATOM     57  N   UNL A   1      40.451  30.904  30.026  1.00  0.00    -0.354 N 
ATOM     58  C   UNL A   1      41.507  25.716  28.265  1.00  0.00     0.074 A 
ATOM     59  C   UNL A   1      40.179  25.407  27.803  1.00  0.00     0.031 C 
ATOM     60  C   UNL A   1      42.692  30.615  29.954  1.00  0.00     0.029 A 
ATOM     61  C   UNL A   1      41.620  31.141  30.783  1.00  0.00     0.049 A 
ATOM     62  H   UNL A   1      39.633  31.451  30.014  1.00  0.00     0.167 HD
ATOM     63  C   UNL A   1      42.761  25.226  28.063  1.00  0.00     0.037 A 
ATOM     64  C   UNL A   1      41.597  31.083  32.147  1.00  0.00     0.037 A 
ATOM     65  C   UNL A   1      43.718  25.934  28.918  1.00  0.00     0.049 A 
ATOM     66  C   UNL A   1      42.491  30.003  32.716  1.00  0.00     0.074 A 
ATOM     67  C   UNL A   1      44.648  26.930  28.677  1.00  0.00     0.029 A 
ATOM     68  N   UNL A   1      43.568  25.859  30.300  1.00  0.00    -0.354 N 
ATOM     69  N   UNL A   1      42.918  28.976  32.032  1.00  0.00    -0.248 NA
ATOM     70  C   UNL A   1      42.977  29.996  34.092  1.00  0.00     0.031 C 
ATOM     71  C   UNL A   1      44.969  27.532  29.925  1.00  0.00     0.029 A 
ATOM     72  C   UNL A   1      44.278  26.866  30.925  1.00  0.00     0.049 A 
ATOM     73  H   UNL A   1      43.029  25.183  30.769  1.00  0.00     0.167 HD
ATOM     74  C   UNL A   1      43.695  28.178  32.832  1.00  0.00     0.074 A 
ATOM     75  C   UNL A   1      43.717  28.872  34.108  1.00  0.00     0.031 C 
ATOM     76  C   UNL A   1      44.245  27.012  32.377  1.00  0.00     0.037 A 
BRANCH  63  77
ATOM     77  C   UNL A   1      43.174  24.279  26.953  1.00  0.00     0.057 A 
ATOM     78  C   UNL A   1      43.386  22.915  27.239  1.00  0.00     0.134 A 
ATOM     79  C   UNL A   1      43.513  24.642  25.631  1.00  0.00     0.134 A 
ATOM     80  F   UNL A   1      43.112  22.402  28.447  1.00  0.00    -0.206 F 
ATOM     81  C   UNL A   1      43.915  22.007  26.307  1.00  0.00     0.040 A 
ATOM     82  C   UNL A   1      44.005  23.736  24.681  1.00  0.00     0.040 A 
ATOM     83  F   UNL A   1      43.444  25.897  25.183  1.00  0.00    -0.206 F 
ATOM     84  C   UNL A   1      44.225  22.415  25.020  1.00  0.00     0.006 A 
ENDBRANCH  63  77
BRANCH  64  85
ATOM     85  C   UNL A   1      40.295  31.527  32.717  1.00  0.00     0.057 A 
ATOM     86  C   UNL A   1      39.368  30.538  33.099  1.00  0.00     0.134 A 
ATOM     87  C   UNL A   1      40.128  32.799  33.269  1.00  0.00     0.134 A 
ATOM     88  F   UNL A   1      39.464  29.297  32.594  1.00  0.00    -0.206 F 
ATOM     89  C   UNL A   1      38.416  30.761  34.096  1.00  0.00     0.040 A 
ATOM     90  C   UNL A   1      39.162  33.039  34.255  1.00  0.00     0.040 A 
ATOM     91  F   UNL A   1      40.974  33.793  32.966  1.00  0.00    -0.206 F 
ATOM     92  C   UNL A   1      38.339  32.007  34.708  1.00  0.00     0.006 A 
ENDBRANCH  64  85
BRANCH  76  93
ATOM     93  C   UNL A   1      44.870  25.930  33.233  1.00  0.00     0.057 A 
ATOM     94  C   UNL A   1      44.160  25.093  34.107  1.00  0.00     0.134 A 
ATOM     95  C   UNL A   1      46.237  25.595  33.077  1.00  0.00     0.134 A 
ATOM     96  F   UNL A   1      42.835  25.202  34.266  1.00  0.00    -0.206 F 
ATOM     97  C   UNL A   1      44.771  24.052  34.821  1.00  0.00     0.040 A 
ATOM     98  C   UNL A   1      46.842  24.520  33.735  1.00  0.00     0.040 A 
ATOM     99  F   UNL A   1      47.045  26.281  32.254  1.00  0.00    -0.206 F 
ATOM    100  C   UNL A   1      46.112  23.753  34.627  1.00  0.00     0.006 A 
ENDBRANCH  76  93
ENDBRANCH  50  51
ENDBRANCH  42  45
ENDBRANCH  40  41
ENDBRANCH  39  40
ENDBRANCH  38  39
ENDBRANCH  37  38
ENDBRANCH  36  37
ENDBRANCH   1  36
TORSDOF 19
ENDMDL
MODEL 3
REMARK VINA RESULT:     -10.2      2.854      6.706
REMARK SMILES Cc1ccc(NC(=O)CN2C(=O)S/C(=C\c3cc(Cl)c(OCC(=O)NCCCCCCNC(=O)c4ccc(-c5c6nc(c(-c7c(F)cccc7F)c7ccc([nH]7)c(-c7c(F)cccc7F)c7nc(c(-c8c(F)cccc8F)c8ccc5[nH]8)C=C7)C=C6)cc4)c(Cl)c3)C2=O)cc1
REMARK SMILES IDX 26 1 25 2 23 3 24 4 22 6 21 7 20 8 16 9 17 10 91 11 18 12
REMARK SMILES IDX 89 13 19 14 90 15 15 16 10 17 11 18 92 19 12 20 13 21 14 22
REMARK SMILES IDX 93 23 9 24 7 25 6 26 8 28 5 29 1 30 2 31 3 32 95 33 4 34
REMARK SMILES IDX 94 35 27 36 28 37 29 38 30 39 31 40 32 41 33 42 34 44 35 45
REMARK SMILES IDX 36 46 88 47 37 48 87 49 38 50 39 51 40 52 81 53 41 54 86 55
REMARK SMILES IDX 80 56 82 57 42 58 85 59 79 60 78 61 43 63 69 64 52 65 68 66
REMARK SMILES IDX 53 67 56 68 67 69 83 70 54 71 55 72 66 74 84 75 57 76 44 77
REMARK SMILES IDX 45 78 50 79 46 80 47 81 49 82 51 83 48 84 70 85 71 86 76 87
REMARK SMILES IDX 72 88 73 89 75 90 77 91 74 92 58 93 59 94 64 95 60 96 61 97
REMARK SMILES IDX 63 98 65 99 62 100
REMARK H PARENT 25 5 6 27 32 43 82 62 56 73
REMARK Flexibility Score: inf
ROOT
ATOM      1  C   UNL A   1      35.019  34.545  31.509  1.00  0.00     0.116 C 
ENDROOT
BRANCH   1   2
ATOM      2  N   UNL A   1      35.531  33.197  31.447  1.00  0.00    -0.353 N 
ATOM      3  C   UNL A   1      36.301  32.623  30.480  1.00  0.00     0.257 C 
ATOM      4  O   UNL A   1      36.828  31.541  30.741  1.00  0.00    -0.271 OA
ATOM      5  H   UNL A   1      35.292  32.615  32.204  1.00  0.00     0.163 HD
BRANCH   3   6
ATOM      6  C   UNL A   1      36.537  33.359  29.152  1.00  0.00     0.329 C 
BRANCH   6   7
ATOM      7  O   UNL A   1      36.279  32.663  27.946  1.00  0.00    -0.481 OA
BRANCH   7   8
ATOM      8  C   UNL A   1      35.207  31.832  27.768  1.00  0.00     0.157 A 
ATOM      9  C   UNL A   1      33.232  29.794  27.368  1.00  0.00    -0.021 A 
ATOM     10  C   UNL A   1      34.573  29.450  27.476  1.00  0.00     0.032 A 
ATOM     11  C   UNL A   1      32.906  31.155  27.417  1.00  0.00     0.032 A 
ATOM     12  C   UNL A   1      35.542  30.458  27.660  1.00  0.00     0.085 A 
ATOM     13  C   UNL A   1      33.852  32.154  27.685  1.00  0.00     0.085 A 
ATOM     14  Cl  UNL A   1      37.198  29.939  27.760  1.00  0.00    -0.080 Cl
ATOM     15  Cl  UNL A   1      33.138  33.697  27.978  1.00  0.00    -0.080 Cl
BRANCH   9  16
ATOM     16  C   UNL A   1      32.158  28.809  27.127  1.00  0.00     0.029 C 
ATOM     17  N   UNL A   1      31.961  25.914  25.070  1.00  0.00    -0.259 N 
ATOM     18  C   UNL A   1      33.013  26.465  24.394  1.00  0.00     0.294 C 
ATOM     19  C   UNL A   1      31.360  26.732  26.011  1.00  0.00     0.268 C 
ATOM     20  O   UNL A   1      33.920  25.883  23.809  1.00  0.00    -0.261 OA
ATOM     21  S   UNL A   1      32.982  28.200  24.566  1.00  0.00    -0.022 SA
ATOM     22  C   UNL A   1      32.056  28.058  26.014  1.00  0.00     0.083 C 
ATOM     23  O   UNL A   1      30.519  26.399  26.828  1.00  0.00    -0.268 OA
BRANCH  17  24
ATOM     24  C   UNL A   1      31.826  24.467  25.140  1.00  0.00     0.230 C 
BRANCH  24  25
ATOM     25  C   UNL A   1      31.592  23.813  23.776  1.00  0.00     0.244 C 
ATOM     26  N   UNL A   1      32.296  22.709  23.390  1.00  0.00    -0.325 N 
ATOM     27  H   UNL A   1      31.807  22.105  22.784  1.00  0.00     0.169 HD
ATOM     28  O   UNL A   1      30.738  24.266  23.006  1.00  0.00    -0.273 OA
BRANCH  26  29
ATOM     29  C   UNL A   1      33.592  22.285  23.708  1.00  0.00     0.041 A 
ATOM     30  C   UNL A   1      37.653  21.383  24.859  1.00  0.00     0.044 C 
ATOM     31  C   UNL A   1      36.248  21.700  24.442  1.00  0.00    -0.051 A 
ATOM     32  C   UNL A   1      35.178  21.005  25.015  1.00  0.00     0.005 A 
ATOM     33  C   UNL A   1      35.978  22.693  23.495  1.00  0.00     0.005 A 
ATOM     34  C   UNL A   1      33.861  21.296  24.652  1.00  0.00     0.026 A 
ATOM     35  C   UNL A   1      34.659  22.992  23.143  1.00  0.00     0.026 A 
ENDBRANCH  26  29
ENDBRANCH  24  25
ENDBRANCH  17  24
ENDBRANCH   9  16
ENDBRANCH   7   8
ENDBRANCH   6   7
ENDBRANCH   3   6
ENDBRANCH   1   2
BRANCH   1  36
ATOM     36  C   UNL A   1      34.790  35.029  32.938  1.00  0.00     0.021 C 
BRANCH  36  37
ATOM     37  C   UNL A   1      34.828  33.958  34.039  1.00  0.00     0.002 C 
BRANCH  37  38
ATOM     38  C   UNL A   1      35.960  34.039  35.074  1.00  0.00     0.002 C 
BRANCH  38  39
ATOM     39  C   UNL A   1      37.378  34.175  34.527  1.00  0.00     0.021 C 
BRANCH  39  40
ATOM     40  C   UNL A   1      38.476  33.662  35.448  1.00  0.00     0.116 C 
BRANCH  40  41
ATOM     41  N   UNL A   1      38.006  32.742  36.483  1.00  0.00    -0.352 N 
ATOM     42  C   UNL A   1      38.058  31.357  36.519  1.00  0.00     0.251 C 
ATOM     43  H   UNL A   1      37.592  33.168  37.267  1.00  0.00     0.163 HD
ATOM     44  O   UNL A   1      37.624  30.747  37.491  1.00  0.00    -0.269 OA
BRANCH  42  45
ATOM     45  C   UNL A   1      38.801  30.631  35.462  1.00  0.00     0.039 A 
ATOM     46  C   UNL A   1      40.177  30.473  35.661  1.00  0.00     0.014 A 
ATOM     47  C   UNL A   1      38.247  30.468  34.198  1.00  0.00     0.014 A 
ATOM     48  C   UNL A   1      41.022  30.516  34.562  1.00  0.00     0.010 A 
ATOM     49  C   UNL A   1      39.076  30.628  33.112  1.00  0.00     0.010 A 
ATOM     50  C   UNL A   1      40.453  30.753  33.315  1.00  0.00    -0.014 A 
BRANCH  50  51
ATOM     51  C   UNL A   1      41.209  31.254  32.181  1.00  0.00     0.031 A 
ATOM     52  C   UNL A   1      41.876  30.298  31.288  1.00  0.00     0.074 A 
ATOM     53  C   UNL A   1      41.198  32.583  31.924  1.00  0.00     0.049 A 
ATOM     54  N   UNL A   1      42.800  30.620  30.453  1.00  0.00    -0.248 NA
ATOM     55  C   UNL A   1      41.609  28.862  31.325  1.00  0.00     0.031 C 
ATOM     56  C   UNL A   1      41.623  33.265  30.705  1.00  0.00     0.029 A 
ATOM     57  N   UNL A   1      40.976  33.620  32.841  1.00  0.00    -0.354 N 
ATOM     58  C   UNL A   1      43.031  29.528  29.653  1.00  0.00     0.074 A 
ATOM     59  C   UNL A   1      42.384  28.432  30.325  1.00  0.00     0.031 C 
ATOM     60  C   UNL A   1      41.905  34.545  30.999  1.00  0.00     0.029 A 
ATOM     61  C   UNL A   1      41.823  34.679  32.444  1.00  0.00     0.049 A 
ATOM     62  H   UNL A   1      40.357  33.613  33.606  1.00  0.00     0.167 HD
ATOM     63  C   UNL A   1      43.620  29.735  28.443  1.00  0.00     0.037 A 
ATOM     64  C   UNL A   1      42.851  35.092  33.242  1.00  0.00     0.037 A 
ATOM     65  C   UNL A   1      44.191  31.083  28.389  1.00  0.00     0.049 A 
ATOM     66  C   UNL A   1      44.212  34.917  32.605  1.00  0.00     0.074 A 
ATOM     67  C   UNL A   1      43.784  32.262  27.791  1.00  0.00     0.029 A 
ATOM     68  N   UNL A   1      45.196  31.423  29.291  1.00  0.00    -0.354 N 
ATOM     69  N   UNL A   1      44.451  34.105  31.611  1.00  0.00    -0.248 NA
ATOM     70  C   UNL A   1      45.405  35.642  33.032  1.00  0.00     0.031 C 
ATOM     71  C   UNL A   1      44.475  33.330  28.428  1.00  0.00     0.029 A 
ATOM     72  C   UNL A   1      45.339  32.794  29.370  1.00  0.00     0.049 A 
ATOM     73  H   UNL A   1      45.732  30.775  29.803  1.00  0.00     0.167 HD
ATOM     74  C   UNL A   1      45.779  34.169  31.273  1.00  0.00     0.074 A 
ATOM     75  C   UNL A   1      46.328  35.160  32.180  1.00  0.00     0.031 C 
ATOM     76  C   UNL A   1      46.311  33.392  30.281  1.00  0.00     0.037 A 
BRANCH  63  77
ATOM     77  C   UNL A   1      43.495  28.830  27.231  1.00  0.00     0.057 A 
ATOM     78  C   UNL A   1      42.258  28.723  26.562  1.00  0.00     0.134 A 
ATOM     79  C   UNL A   1      44.480  27.942  26.750  1.00  0.00     0.134 A 
ATOM     80  F   UNL A   1      41.214  29.496  26.892  1.00  0.00    -0.206 F 
ATOM     81  C   UNL A   1      42.019  27.796  25.534  1.00  0.00     0.040 A 
ATOM     82  C   UNL A   1      44.264  27.040  25.699  1.00  0.00     0.040 A 
ATOM     83  F   UNL A   1      45.697  27.845  27.292  1.00  0.00    -0.206 F 
ATOM     84  C   UNL A   1      43.024  26.951  25.095  1.00  0.00     0.006 A 
ENDBRANCH  63  77
BRANCH  64  85
ATOM     85  C   UNL A   1      42.542  34.952  34.692  1.00  0.00     0.057 A 
ATOM     86  C   UNL A   1      43.081  33.847  35.380  1.00  0.00     0.134 A 
ATOM     87  C   UNL A   1      42.126  36.038  35.465  1.00  0.00     0.134 A 
ATOM     88  F   UNL A   1      43.488  32.764  34.697  1.00  0.00    -0.206 F 
ATOM     89  C   UNL A   1      43.336  33.882  36.753  1.00  0.00     0.040 A 
ATOM     90  C   UNL A   1      42.357  36.074  36.847  1.00  0.00     0.040 A 
ATOM     91  F   UNL A   1      41.613  37.133  34.887  1.00  0.00    -0.206 F 
ATOM     92  C   UNL A   1      43.010  35.018  37.485  1.00  0.00     0.006 A 
ENDBRANCH  64  85
BRANCH  76  93
ATOM     93  C   UNL A   1      47.787  33.174  30.017  1.00  0.00     0.057 A 
ATOM     94  C   UNL A   1      48.588  34.011  29.227  1.00  0.00     0.134 A 
ATOM     95  C   UNL A   1      48.494  32.158  30.705  1.00  0.00     0.134 A 
ATOM     96  F   UNL A   1      48.089  35.092  28.613  1.00  0.00    -0.206 F 
ATOM     97  C   UNL A   1      49.969  33.814  29.075  1.00  0.00     0.040 A 
ATOM     98  C   UNL A   1      49.879  31.992  30.611  1.00  0.00     0.040 A 
ATOM     99  F   UNL A   1      47.875  31.294  31.523  1.00  0.00    -0.206 F 
ATOM    100  C   UNL A   1      50.622  32.811  29.778  1.00  0.00     0.006 A 
ENDBRANCH  76  93
ENDBRANCH  50  51
ENDBRANCH  42  45
ENDBRANCH  40  41
ENDBRANCH  39  40
ENDBRANCH  38  39
ENDBRANCH  37  38
ENDBRANCH  36  37
ENDBRANCH   1  36
TORSDOF 19
ENDMDL
