MODEL 1
REMARK VINA RESULT:      -9.0      0.000      0.000
REMARK SMILES CC(C)(CNC(=O)NCc1cccs1)C(=O)NCCCCCCNC(=O)c1ccc(-c2c3nc(c(-c4c(F)cccc4F)c4ccc([nH]4)c(-c4c(F)cccc4F)c4nc(c(-c5c(F)cccc5F)c5ccc2[nH]5)C=C4)C=C3)cc1
REMARK SMILES IDX 19 1 18 2 17 3 15 4 16 5 2 7 1 8 3 9 4 10 5 11 6 12 7 14
REMARK SMILES IDX 8 15 9 17 10 18 11 19 14 20 12 21 13 22 20 23 21 24 22 25
REMARK SMILES IDX 23 26 24 27 25 28 26 30 27 31 28 32 80 33 29 34 79 35 30 36
REMARK SMILES IDX 31 37 32 38 73 39 33 40 78 41 72 42 74 43 34 44 77 45 71 46
REMARK SMILES IDX 70 47 35 49 61 50 44 51 60 52 45 53 48 54 59 55 75 56 46 57
REMARK SMILES IDX 47 58 58 60 76 61 49 62 36 63 37 64 42 65 38 66 39 67 41 68
REMARK SMILES IDX 43 69 40 70 62 71 63 72 68 73 64 74 65 75 67 76 69 77 66 78
REMARK SMILES IDX 50 79 51 80 56 81 52 82 53 83 55 84 57 85 54 86
REMARK H PARENT 17 6 5 13 8 16 24 29 74 48 48 59
REMARK Flexibility Score: inf
ROOT
ATOM      1  C   UNL A   1      35.336  33.865  34.337  1.00  0.00     0.021 C 
ENDROOT
BRANCH   1   2
ATOM      2  C   UNL A   1      36.677  33.426  34.925  1.00  0.00     0.116 C 
BRANCH   2   3
ATOM      3  N   UNL A   1      37.695  34.444  34.760  1.00  0.00    -0.356 N 
ATOM      4  C   UNL A   1      38.759  34.822  35.517  1.00  0.00     0.227 C 
ATOM      5  O   UNL A   1      39.420  35.767  35.072  1.00  0.00    -0.274 OA
ATOM      6  H   UNL A   1      37.597  34.967  33.932  1.00  0.00     0.163 HD
BRANCH   4   7
ATOM      7  C   UNL A   1      39.164  34.130  36.836  1.00  0.00     0.061 C 
ATOM      8  C   UNL A   1      37.925  34.068  37.761  1.00  0.00     0.023 C 
ATOM      9  C   UNL A   1      40.219  34.979  37.575  1.00  0.00     0.023 C 
BRANCH   7  10
ATOM     10  C   UNL A   1      39.685  32.691  36.640  1.00  0.00     0.134 C 
BRANCH  10  11
ATOM     11  N   UNL A   1      38.826  31.642  37.172  1.00  0.00    -0.337 N 
ATOM     12  C   UNL A   1      38.184  30.587  36.641  1.00  0.00     0.315 C 
ATOM     13  H   UNL A   1      38.683  31.725  38.143  1.00  0.00     0.165 HD
ATOM     14  O   UNL A   1      37.484  29.897  37.384  1.00  0.00    -0.249 OA
ATOM     15  N   UNL A   1      38.261  30.250  35.342  1.00  0.00    -0.333 N 
ATOM     16  H   UNL A   1      37.666  29.516  35.065  1.00  0.00     0.165 HD
BRANCH  15  17
ATOM     17  C   UNL A   1      39.078  30.798  34.297  1.00  0.00     0.164 C 
BRANCH  17  18
ATOM     18  C   UNL A   1      40.342  30.041  34.074  1.00  0.00     0.024 A 
ATOM     19  C   UNL A   1      41.564  30.195  34.705  1.00  0.00     0.017 A 
ATOM     20  S   UNL A   1      40.332  28.667  33.052  1.00  0.00    -0.147 S 
ATOM     21  C   UNL A   1      42.447  29.110  34.433  1.00  0.00     0.012 A 
ATOM     22  C   UNL A   1      41.893  28.200  33.561  1.00  0.00     0.065 A 
ENDBRANCH  17  18
ENDBRANCH  15  17
ENDBRANCH  10  11
ENDBRANCH   7  10
ENDBRANCH   4   7
ENDBRANCH   2   3
ENDBRANCH   1   2
BRANCH   1  23
ATOM     23  C   UNL A   1      35.390  35.125  33.469  1.00  0.00     0.002 C 
BRANCH  23  24
ATOM     24  C   UNL A   1      34.183  36.061  33.591  1.00  0.00     0.002 C 
BRANCH  24  25
ATOM     25  C   UNL A   1      33.132  35.945  32.482  1.00  0.00     0.021 C 
BRANCH  25  26
ATOM     26  C   UNL A   1      33.616  36.305  31.080  1.00  0.00     0.116 C 
BRANCH  26  27
ATOM     27  N   UNL A   1      32.877  35.610  30.040  1.00  0.00    -0.352 N 
ATOM     28  C   UNL A   1      33.265  34.587  29.214  1.00  0.00     0.251 C 
ATOM     29  H   UNL A   1      31.952  35.922  29.907  1.00  0.00     0.163 HD
ATOM     30  O   UNL A   1      32.544  34.256  28.270  1.00  0.00    -0.269 OA
BRANCH  28  31
ATOM     31  C   UNL A   1      34.547  33.886  29.430  1.00  0.00     0.039 A 
ATOM     32  C   UNL A   1      35.553  34.017  28.467  1.00  0.00     0.014 A 
ATOM     33  C   UNL A   1      34.755  33.077  30.550  1.00  0.00     0.014 A 
ATOM     34  C   UNL A   1      36.785  33.387  28.658  1.00  0.00     0.010 A 
ATOM     35  C   UNL A   1      36.006  32.505  30.773  1.00  0.00     0.010 A 
ATOM     36  C   UNL A   1      37.034  32.653  29.829  1.00  0.00    -0.014 A 
BRANCH  36  37
ATOM     37  C   UNL A   1      38.365  32.039  30.078  1.00  0.00     0.031 A 
ATOM     38  C   UNL A   1      39.407  32.775  30.876  1.00  0.00     0.074 A 
ATOM     39  C   UNL A   1      38.655  30.838  29.540  1.00  0.00     0.049 A 
ATOM     40  N   UNL A   1      40.638  32.425  31.149  1.00  0.00    -0.248 NA
ATOM     41  C   UNL A   1      39.021  34.088  31.417  1.00  0.00     0.031 C 
ATOM     42  C   UNL A   1      37.748  30.041  28.713  1.00  0.00     0.029 A 
ATOM     43  N   UNL A   1      39.799  30.081  29.602  1.00  0.00    -0.354 N 
ATOM     44  C   UNL A   1      41.177  33.474  31.883  1.00  0.00     0.074 A 
ATOM     45  C   UNL A   1      40.156  34.496  31.968  1.00  0.00     0.031 C 
ATOM     46  C   UNL A   1      38.362  28.898  28.363  1.00  0.00     0.029 A 
ATOM     47  C   UNL A   1      39.716  28.899  28.907  1.00  0.00     0.049 A 
ATOM     48  H   UNL A   1      40.603  30.360  30.097  1.00  0.00     0.167 HD
ATOM     49  C   UNL A   1      42.401  33.569  32.454  1.00  0.00     0.037 A 
ATOM     50  C   UNL A   1      40.630  27.927  28.720  1.00  0.00     0.037 A 
ATOM     51  C   UNL A   1      43.409  32.541  32.389  1.00  0.00     0.049 A 
ATOM     52  C   UNL A   1      41.987  28.063  29.354  1.00  0.00     0.074 A 
ATOM     53  C   UNL A   1      44.658  32.521  32.983  1.00  0.00     0.029 A 
ATOM     54  N   UNL A   1      43.282  31.354  31.684  1.00  0.00    -0.354 N 
ATOM     55  N   UNL A   1      42.458  29.032  30.100  1.00  0.00    -0.248 NA
ATOM     56  C   UNL A   1      42.938  26.967  29.124  1.00  0.00     0.031 C 
ATOM     57  C   UNL A   1      45.307  31.343  32.598  1.00  0.00     0.029 A 
ATOM     58  C   UNL A   1      44.442  30.605  31.808  1.00  0.00     0.049 A 
ATOM     59  H   UNL A   1      42.486  31.083  31.172  1.00  0.00     0.167 HD
ATOM     60  C   UNL A   1      43.746  28.649  30.453  1.00  0.00     0.074 A 
ATOM     61  C   UNL A   1      43.977  27.353  29.851  1.00  0.00     0.031 C 
ATOM     62  C   UNL A   1      44.655  29.312  31.209  1.00  0.00     0.037 A 
BRANCH  49  63
ATOM     63  C   UNL A   1      42.723  34.829  33.205  1.00  0.00     0.057 A 
ATOM     64  C   UNL A   1      42.678  34.889  34.605  1.00  0.00     0.134 A 
ATOM     65  C   UNL A   1      43.122  35.986  32.523  1.00  0.00     0.134 A 
ATOM     66  F   UNL A   1      42.294  33.819  35.319  1.00  0.00    -0.206 F 
ATOM     67  C   UNL A   1      42.994  36.059  35.297  1.00  0.00     0.040 A 
ATOM     68  C   UNL A   1      43.468  37.154  33.206  1.00  0.00     0.040 A 
ATOM     69  F   UNL A   1      43.194  35.998  31.184  1.00  0.00    -0.206 F 
ATOM     70  C   UNL A   1      43.398  37.194  34.597  1.00  0.00     0.006 A 
ENDBRANCH  49  63
BRANCH  50  71
ATOM     71  C   UNL A   1      40.289  26.730  27.910  1.00  0.00     0.057 A 
ATOM     72  C   UNL A   1      39.476  25.715  28.429  1.00  0.00     0.134 A 
ATOM     73  C   UNL A   1      40.777  26.564  26.609  1.00  0.00     0.134 A 
ATOM     74  F   UNL A   1      38.994  25.807  29.677  1.00  0.00    -0.206 F 
ATOM     75  C   UNL A   1      39.179  24.568  27.691  1.00  0.00     0.040 A 
ATOM     76  C   UNL A   1      40.466  25.435  25.849  1.00  0.00     0.040 A 
ATOM     77  F   UNL A   1      41.555  27.504  26.051  1.00  0.00    -0.206 F 
ATOM     78  C   UNL A   1      39.671  24.428  26.395  1.00  0.00     0.006 A 
ENDBRANCH  50  71
BRANCH  62  79
ATOM     79  C   UNL A   1      45.970  28.631  31.459  1.00  0.00     0.057 A 
ATOM     80  C   UNL A   1      46.158  27.755  32.535  1.00  0.00     0.134 A 
ATOM     81  C   UNL A   1      47.050  28.827  30.588  1.00  0.00     0.134 A 
ATOM     82  F   UNL A   1      45.168  27.534  33.413  1.00  0.00    -0.206 F 
ATOM     83  C   UNL A   1      47.380  27.117  32.752  1.00  0.00     0.040 A 
ATOM     84  C   UNL A   1      48.268  28.173  30.778  1.00  0.00     0.040 A 
ATOM     85  F   UNL A   1      46.934  29.646  29.533  1.00  0.00    -0.206 F 
ATOM     86  C   UNL A   1      48.437  27.320  31.866  1.00  0.00     0.006 A 
ENDBRANCH  62  79
ENDBRANCH  36  37
ENDBRANCH  28  31
ENDBRANCH  26  27
ENDBRANCH  25  26
ENDBRANCH  24  25
ENDBRANCH  23  24
ENDBRANCH   1  23
TORSDOF 17
ENDMDL
MODEL 2
REMARK VINA RESULT:      -8.7      4.530      7.965
REMARK SMILES CC(C)(CNC(=O)NCc1cccs1)C(=O)NCCCCCCNC(=O)c1ccc(-c2c3nc(c(-c4c(F)cccc4F)c4ccc([nH]4)c(-c4c(F)cccc4F)c4nc(c(-c5c(F)cccc5F)c5ccc2[nH]5)C=C4)C=C3)cc1
REMARK SMILES IDX 19 1 18 2 17 3 15 4 16 5 2 7 1 8 3 9 4 10 5 11 6 12 7 14
REMARK SMILES IDX 8 15 9 17 10 18 11 19 14 20 12 21 13 22 20 23 21 24 22 25
REMARK SMILES IDX 23 26 24 27 25 28 26 30 27 31 28 32 80 33 29 34 79 35 30 36
REMARK SMILES IDX 31 37 32 38 73 39 33 40 78 41 72 42 74 43 34 44 77 45 71 46
REMARK SMILES IDX 70 47 35 49 61 50 44 51 60 52 45 53 48 54 59 55 75 56 46 57
REMARK SMILES IDX 47 58 58 60 76 61 49 62 36 63 37 64 42 65 38 66 39 67 41 68
REMARK SMILES IDX 43 69 40 70 62 71 63 72 68 73 64 74 65 75 67 76 69 77 66 78
REMARK SMILES IDX 50 79 51 80 56 81 52 82 53 83 55 84 57 85 54 86
REMARK H PARENT 17 6 5 13 8 16 24 29 74 48 48 59
REMARK Flexibility Score: inf
ROOT
ATOM      1  C   UNL A   1      33.815  28.858  27.205  1.00  0.00     0.021 C 
ENDROOT
BRANCH   1   2
ATOM      2  C   UNL A   1      33.883  27.761  26.143  1.00  0.00     0.116 C 
BRANCH   2   3
ATOM      3  N   UNL A   1      32.656  26.991  26.087  1.00  0.00    -0.356 N 
ATOM      4  C   UNL A   1      31.705  26.834  25.129  1.00  0.00     0.227 C 
ATOM      5  O   UNL A   1      30.757  26.101  25.436  1.00  0.00    -0.274 OA
ATOM      6  H   UNL A   1      32.476  26.479  26.908  1.00  0.00     0.163 HD
BRANCH   4   7
ATOM      7  C   UNL A   1      31.776  27.486  23.732  1.00  0.00     0.061 C 
ATOM      8  C   UNL A   1      33.261  27.593  23.312  1.00  0.00     0.023 C 
ATOM      9  C   UNL A   1      31.235  28.929  23.795  1.00  0.00     0.023 C 
BRANCH   7  10
ATOM     10  C   UNL A   1      31.028  26.688  22.643  1.00  0.00     0.134 C 
BRANCH  10  11
ATOM     11  N   UNL A   1      31.768  26.488  21.404  1.00  0.00    -0.337 N 
ATOM     12  C   UNL A   1      32.559  25.512  20.924  1.00  0.00     0.315 C 
ATOM     13  H   UNL A   1      31.665  27.238  20.775  1.00  0.00     0.165 HD
ATOM     14  O   UNL A   1      33.080  25.676  19.819  1.00  0.00    -0.249 OA
ATOM     15  N   UNL A   1      32.815  24.372  21.588  1.00  0.00    -0.333 N 
ATOM     16  H   UNL A   1      33.487  23.786  21.169  1.00  0.00     0.165 HD
BRANCH  15  17
ATOM     17  C   UNL A   1      32.261  23.879  22.816  1.00  0.00     0.164 C 
BRANCH  17  18
ATOM     18  C   UNL A   1      33.253  23.803  23.926  1.00  0.00     0.024 A 
ATOM     19  C   UNL A   1      34.526  24.341  23.986  1.00  0.00     0.017 A 
ATOM     20  S   UNL A   1      32.783  23.135  25.432  1.00  0.00    -0.147 S 
ATOM     21  C   UNL A   1      35.061  24.307  25.306  1.00  0.00     0.012 A 
ATOM     22  C   UNL A   1      34.206  23.692  26.193  1.00  0.00     0.065 A 
ENDBRANCH  17  18
ENDBRANCH  15  17
ENDBRANCH  10  11
ENDBRANCH   7  10
ENDBRANCH   4   7
ENDBRANCH   2   3
ENDBRANCH   1   2
BRANCH   1  23
ATOM     23  C   UNL A   1      33.293  30.209  26.709  1.00  0.00     0.002 C 
BRANCH  23  24
ATOM     24  C   UNL A   1      31.805  30.474  26.965  1.00  0.00     0.002 C 
BRANCH  24  25
ATOM     25  C   UNL A   1      31.384  31.947  27.000  1.00  0.00     0.021 C 
BRANCH  25  26
ATOM     26  C   UNL A   1      32.482  32.950  26.658  1.00  0.00     0.116 C 
BRANCH  26  27
ATOM     27  N   UNL A   1      32.380  34.175  27.434  1.00  0.00    -0.352 N 
ATOM     28  C   UNL A   1      33.059  34.567  28.557  1.00  0.00     0.251 C 
ATOM     29  H   UNL A   1      31.719  34.825  27.101  1.00  0.00     0.163 HD
ATOM     30  O   UNL A   1      32.696  35.572  29.173  1.00  0.00    -0.269 OA
BRANCH  28  31
ATOM     31  C   UNL A   1      34.213  33.789  29.054  1.00  0.00     0.039 A 
ATOM     32  C   UNL A   1      35.496  34.325  28.909  1.00  0.00     0.014 A 
ATOM     33  C   UNL A   1      34.045  32.525  29.627  1.00  0.00     0.014 A 
ATOM     34  C   UNL A   1      36.603  33.623  29.394  1.00  0.00     0.010 A 
ATOM     35  C   UNL A   1      35.141  31.858  30.172  1.00  0.00     0.010 A 
ATOM     36  C   UNL A   1      36.432  32.398  30.059  1.00  0.00    -0.014 A 
BRANCH  36  37
ATOM     37  C   UNL A   1      37.592  31.677  30.644  1.00  0.00     0.031 A 
ATOM     38  C   UNL A   1      38.042  31.969  32.050  1.00  0.00     0.074 A 
ATOM     39  C   UNL A   1      38.276  30.794  29.890  1.00  0.00     0.049 A 
ATOM     40  N   UNL A   1      39.063  31.483  32.709  1.00  0.00    -0.248 NA
ATOM     41  C   UNL A   1      37.255  32.957  32.806  1.00  0.00     0.031 C 
ATOM     42  C   UNL A   1      37.967  30.452  28.501  1.00  0.00     0.029 A 
ATOM     43  N   UNL A   1      39.377  30.029  30.184  1.00  0.00    -0.354 N 
ATOM     44  C   UNL A   1      39.047  32.109  33.949  1.00  0.00     0.074 A 
ATOM     45  C   UNL A   1      37.948  33.050  33.932  1.00  0.00     0.031 C 
ATOM     46  C   UNL A   1      38.844  29.530  28.070  1.00  0.00     0.029 A 
ATOM     47  C   UNL A   1      39.798  29.245  29.137  1.00  0.00     0.049 A 
ATOM     48  H   UNL A   1      39.824  30.041  31.061  1.00  0.00     0.167 HD
ATOM     49  C   UNL A   1      39.860  31.903  35.013  1.00  0.00     0.037 A 
ATOM     50  C   UNL A   1      40.840  28.397  29.043  1.00  0.00     0.037 A 
ATOM     51  C   UNL A   1      40.940  30.950  35.037  1.00  0.00     0.049 A 
ATOM     52  C   UNL A   1      41.736  28.197  30.234  1.00  0.00     0.074 A 
ATOM     53  C   UNL A   1      41.783  30.630  36.087  1.00  0.00     0.029 A 
ATOM     54  N   UNL A   1      41.328  30.168  33.960  1.00  0.00    -0.354 N 
ATOM     55  N   UNL A   1      41.668  28.749  31.421  1.00  0.00    -0.248 NA
ATOM     56  C   UNL A   1      42.850  27.252  30.074  1.00  0.00     0.031 C 
ATOM     57  C   UNL A   1      42.712  29.689  35.630  1.00  0.00     0.029 A 
ATOM     58  C   UNL A   1      42.415  29.383  34.313  1.00  0.00     0.049 A 
ATOM     59  H   UNL A   1      40.895  30.169  33.076  1.00  0.00     0.167 HD
ATOM     60  C   UNL A   1      42.709  28.196  32.157  1.00  0.00     0.074 A 
ATOM     61  C   UNL A   1      43.384  27.256  31.287  1.00  0.00     0.031 C 
ATOM     62  C   UNL A   1      43.072  28.446  33.439  1.00  0.00     0.037 A 
BRANCH  49  63
ATOM     63  C   UNL A   1      39.613  32.725  36.246  1.00  0.00     0.057 A 
ATOM     64  C   UNL A   1      38.715  32.314  37.241  1.00  0.00     0.134 A 
ATOM     65  C   UNL A   1      40.310  33.921  36.461  1.00  0.00     0.134 A 
ATOM     66  F   UNL A   1      38.007  31.184  37.093  1.00  0.00    -0.206 F 
ATOM     67  C   UNL A   1      38.502  33.075  38.392  1.00  0.00     0.040 A 
ATOM     68  C   UNL A   1      40.128  34.675  37.621  1.00  0.00     0.040 A 
ATOM     69  F   UNL A   1      41.190  34.370  35.553  1.00  0.00    -0.206 F 
ATOM     70  C   UNL A   1      39.215  34.256  38.588  1.00  0.00     0.006 A 
ENDBRANCH  49  63
BRANCH  50  71
ATOM     71  C   UNL A   1      41.087  27.658  27.778  1.00  0.00     0.057 A 
ATOM     72  C   UNL A   1      40.563  26.375  27.576  1.00  0.00     0.134 A 
ATOM     73  C   UNL A   1      41.862  28.207  26.749  1.00  0.00     0.134 A 
ATOM     74  F   UNL A   1      39.830  25.788  28.533  1.00  0.00    -0.206 F 
ATOM     75  C   UNL A   1      40.819  25.656  26.408  1.00  0.00     0.040 A 
ATOM     76  C   UNL A   1      42.103  27.510  25.564  1.00  0.00     0.040 A 
ATOM     77  F   UNL A   1      42.386  29.435  26.876  1.00  0.00    -0.206 F 
ATOM     78  C   UNL A   1      41.588  26.226  25.395  1.00  0.00     0.006 A 
ENDBRANCH  50  71
BRANCH  62  79
ATOM     79  C   UNL A   1      44.229  27.663  33.991  1.00  0.00     0.057 A 
ATOM     80  C   UNL A   1      44.056  26.412  34.597  1.00  0.00     0.134 A 
ATOM     81  C   UNL A   1      45.537  28.153  33.881  1.00  0.00     0.134 A 
ATOM     82  F   UNL A   1      42.829  25.893  34.745  1.00  0.00    -0.206 F 
ATOM     83  C   UNL A   1      45.140  25.688  35.096  1.00  0.00     0.040 A 
ATOM     84  C   UNL A   1      46.631  27.425  34.350  1.00  0.00     0.040 A 
ATOM     85  F   UNL A   1      45.773  29.341  33.303  1.00  0.00    -0.206 F 
ATOM     86  C   UNL A   1      46.433  26.192  34.965  1.00  0.00     0.006 A 
ENDBRANCH  62  79
ENDBRANCH  36  37
ENDBRANCH  28  31
ENDBRANCH  26  27
ENDBRANCH  25  26
ENDBRANCH  24  25
ENDBRANCH  23  24
ENDBRANCH   1  23
TORSDOF 17
ENDMDL
MODEL 3
REMARK VINA RESULT:      -8.7      5.462     11.493
REMARK SMILES CC(C)(CNC(=O)NCc1cccs1)C(=O)NCCCCCCNC(=O)c1ccc(-c2c3nc(c(-c4c(F)cccc4F)c4ccc([nH]4)c(-c4c(F)cccc4F)c4nc(c(-c5c(F)cccc5F)c5ccc2[nH]5)C=C4)C=C3)cc1
REMARK SMILES IDX 19 1 18 2 17 3 15 4 16 5 2 7 1 8 3 9 4 10 5 11 6 12 7 14
REMARK SMILES IDX 8 15 9 17 10 18 11 19 14 20 12 21 13 22 20 23 21 24 22 25
REMARK SMILES IDX 23 26 24 27 25 28 26 30 27 31 28 32 80 33 29 34 79 35 30 36
REMARK SMILES IDX 31 37 32 38 73 39 33 40 78 41 72 42 74 43 34 44 77 45 71 46
REMARK SMILES IDX 70 47 35 49 61 50 44 51 60 52 45 53 48 54 59 55 75 56 46 57
REMARK SMILES IDX 47 58 58 60 76 61 49 62 36 63 37 64 42 65 38 66 39 67 41 68
REMARK SMILES IDX 43 69 40 70 62 71 63 72 68 73 64 74 65 75 67 76 69 77 66 78
REMARK SMILES IDX 50 79 51 80 56 81 52 82 53 83 55 84 57 85 54 86
REMARK H PARENT 17 6 5 13 8 16 24 29 74 48 48 59
REMARK Flexibility Score: inf
ROOT
ATOM      1  C   UNL A   1      35.709  23.034  26.030  1.00  0.00     0.021 C 
ENDROOT
BRANCH   1   2
ATOM      2  C   UNL A   1      34.497  23.774  25.464  1.00  0.00     0.116 C 
BRANCH   2   3
ATOM      3  N   UNL A   1      34.476  23.742  24.016  1.00  0.00    -0.356 N 
ATOM      4  C   UNL A   1      33.635  23.170  23.113  1.00  0.00     0.227 C 
ATOM      5  O   UNL A   1      33.940  23.331  21.926  1.00  0.00    -0.274 OA
ATOM      6  H   UNL A   1      35.220  24.235  23.601  1.00  0.00     0.163 HD
BRANCH   4   7
ATOM      7  C   UNL A   1      32.363  22.387  23.501  1.00  0.00     0.061 C 
ATOM      8  C   UNL A   1      32.692  21.480  24.711  1.00  0.00     0.023 C 
ATOM      9  C   UNL A   1      31.952  21.446  22.349  1.00  0.00     0.023 C 
BRANCH   7  10
ATOM     10  C   UNL A   1      31.178  23.294  23.892  1.00  0.00     0.134 C 
BRANCH  10  11
ATOM     11  N   UNL A   1      30.698  23.133  25.258  1.00  0.00    -0.337 N 
ATOM     12  C   UNL A   1      30.657  23.925  26.344  1.00  0.00     0.315 C 
ATOM     13  H   UNL A   1      30.318  22.240  25.424  1.00  0.00     0.165 HD
ATOM     14  O   UNL A   1      30.208  23.454  27.391  1.00  0.00    -0.249 OA
ATOM     15  N   UNL A   1      31.084  25.199  26.348  1.00  0.00    -0.333 N 
ATOM     16  H   UNL A   1      31.088  25.635  27.231  1.00  0.00     0.165 HD
BRANCH  15  17
ATOM     17  C   UNL A   1      31.536  26.021  25.262  1.00  0.00     0.164 C 
BRANCH  17  18
ATOM     18  C   UNL A   1      32.263  27.244  25.707  1.00  0.00     0.024 A 
ATOM     19  C   UNL A   1      33.522  27.344  26.269  1.00  0.00     0.017 A 
ATOM     20  S   UNL A   1      31.607  28.787  25.355  1.00  0.00    -0.147 S 
ATOM     21  C   UNL A   1      33.991  28.690  26.297  1.00  0.00     0.012 A 
ATOM     22  C   UNL A   1      33.053  29.573  25.812  1.00  0.00     0.065 A 
ENDBRANCH  17  18
ENDBRANCH  15  17
ENDBRANCH  10  11
ENDBRANCH   7  10
ENDBRANCH   4   7
ENDBRANCH   2   3
ENDBRANCH   1   2
BRANCH   1  23
ATOM     23  C   UNL A   1      36.542  22.271  24.996  1.00  0.00     0.002 C 
BRANCH  23  24
ATOM     24  C   UNL A   1      36.330  20.753  24.970  1.00  0.00     0.002 C 
BRANCH  24  25
ATOM     25  C   UNL A   1      37.601  19.902  24.876  1.00  0.00     0.021 C 
BRANCH  25  26
ATOM     26  C   UNL A   1      38.781  20.392  25.711  1.00  0.00     0.116 C 
BRANCH  26  27
ATOM     27  N   UNL A   1      39.857  19.417  25.780  1.00  0.00    -0.352 N 
ATOM     28  C   UNL A   1      41.183  19.587  26.082  1.00  0.00     0.251 C 
ATOM     29  H   UNL A   1      39.592  18.490  25.580  1.00  0.00     0.163 HD
ATOM     30  O   UNL A   1      41.973  18.656  25.909  1.00  0.00    -0.269 OA
BRANCH  28  31
ATOM     31  C   UNL A   1      41.683  20.879  26.593  1.00  0.00     0.039 A 
ATOM     32  C   UNL A   1      42.129  21.837  25.676  1.00  0.00     0.014 A 
ATOM     33  C   UNL A   1      41.749  21.142  27.964  1.00  0.00     0.014 A 
ATOM     34  C   UNL A   1      42.583  23.077  26.131  1.00  0.00     0.010 A 
ATOM     35  C   UNL A   1      42.136  22.404  28.413  1.00  0.00     0.010 A 
ATOM     36  C   UNL A   1      42.559  23.385  27.501  1.00  0.00    -0.014 A 
BRANCH  36  37
ATOM     37  C   UNL A   1      42.969  24.726  27.991  1.00  0.00     0.031 A 
ATOM     38  C   UNL A   1      41.936  25.783  28.275  1.00  0.00     0.074 A 
ATOM     39  C   UNL A   1      44.278  25.012  28.131  1.00  0.00     0.049 A 
ATOM     40  N   UNL A   1      42.106  27.025  28.655  1.00  0.00    -0.248 NA
ATOM     41  C   UNL A   1      40.528  25.401  28.084  1.00  0.00     0.031 C 
ATOM     42  C   UNL A   1      45.379  24.090  27.850  1.00  0.00     0.029 A 
ATOM     43  N   UNL A   1      44.906  26.163  28.539  1.00  0.00    -0.354 N 
ATOM     44  C   UNL A   1      40.833  27.573  28.738  1.00  0.00     0.074 A 
ATOM     45  C   UNL A   1      39.903  26.547  28.319  1.00  0.00     0.031 C 
ATOM     46  C   UNL A   1      46.545  24.703  28.113  1.00  0.00     0.029 A 
ATOM     47  C   UNL A   1      46.276  26.072  28.544  1.00  0.00     0.049 A 
ATOM     48  H   UNL A   1      44.419  26.978  28.801  1.00  0.00     0.167 HD
ATOM     49  C   UNL A   1      40.469  28.812  29.148  1.00  0.00     0.037 A 
ATOM     50  C   UNL A   1      47.214  26.988  28.853  1.00  0.00     0.037 A 
ATOM     51  C   UNL A   1      41.394  29.826  29.587  1.00  0.00     0.049 A 
ATOM     52  C   UNL A   1      46.783  28.361  29.292  1.00  0.00     0.074 A 
ATOM     53  C   UNL A   1      41.117  31.091  30.074  1.00  0.00     0.029 A 
ATOM     54  N   UNL A   1      42.773  29.691  29.588  1.00  0.00    -0.354 N 
ATOM     55  N   UNL A   1      45.572  28.844  29.428  1.00  0.00    -0.248 NA
ATOM     56  C   UNL A   1      47.850  29.314  29.626  1.00  0.00     0.031 C 
ATOM     57  C   UNL A   1      42.331  31.740  30.324  1.00  0.00     0.029 A 
ATOM     58  C   UNL A   1      43.363  30.859  30.043  1.00  0.00     0.049 A 
ATOM     59  H   UNL A   1      43.262  28.884  29.307  1.00  0.00     0.167 HD
ATOM     60  C   UNL A   1      45.731  30.144  29.891  1.00  0.00     0.074 A 
ATOM     61  C   UNL A   1      47.155  30.369  30.026  1.00  0.00     0.031 C 
ATOM     62  C   UNL A   1      44.782  31.067  30.179  1.00  0.00     0.037 A 
BRANCH  49  63
ATOM     63  C   UNL A   1      39.004  29.143  29.144  1.00  0.00     0.057 A 
ATOM     64  C   UNL A   1      38.338  29.543  27.977  1.00  0.00     0.134 A 
ATOM     65  C   UNL A   1      38.240  29.022  30.312  1.00  0.00     0.134 A 
ATOM     66  F   UNL A   1      39.013  29.689  26.826  1.00  0.00    -0.206 F 
ATOM     67  C   UNL A   1      36.973  29.833  27.977  1.00  0.00     0.040 A 
ATOM     68  C   UNL A   1      36.868  29.282  30.319  1.00  0.00     0.040 A 
ATOM     69  F   UNL A   1      38.811  28.637  31.464  1.00  0.00    -0.206 F 
ATOM     70  C   UNL A   1      36.232  29.696  29.150  1.00  0.00     0.006 A 
ENDBRANCH  49  63
BRANCH  50  71
ATOM     71  C   UNL A   1      48.654  26.636  28.774  1.00  0.00     0.057 A 
ATOM     72  C   UNL A   1      49.378  26.816  27.588  1.00  0.00     0.134 A 
ATOM     73  C   UNL A   1      49.338  26.100  29.871  1.00  0.00     0.134 A 
ATOM     74  F   UNL A   1      48.773  27.308  26.497  1.00  0.00    -0.206 F 
ATOM     75  C   UNL A   1      50.722  26.455  27.490  1.00  0.00     0.040 A 
ATOM     76  C   UNL A   1      50.690  25.759  29.795  1.00  0.00     0.040 A 
ATOM     77  F   UNL A   1      48.705  25.910  31.038  1.00  0.00    -0.206 F 
ATOM     78  C   UNL A   1      51.383  25.929  28.598  1.00  0.00     0.006 A 
ENDBRANCH  50  71
BRANCH  62  79
ATOM     79  C   UNL A   1      45.250  32.394  30.705  1.00  0.00     0.057 A 
ATOM     80  C   UNL A   1      45.448  32.621  32.073  1.00  0.00     0.134 A 
ATOM     81  C   UNL A   1      45.540  33.446  29.826  1.00  0.00     0.134 A 
ATOM     82  F   UNL A   1      45.176  31.660  32.968  1.00  0.00    -0.206 F 
ATOM     83  C   UNL A   1      45.895  33.854  32.550  1.00  0.00     0.040 A 
ATOM     84  C   UNL A   1      46.015  34.674  30.289  1.00  0.00     0.040 A 
ATOM     85  F   UNL A   1      45.381  33.291  28.503  1.00  0.00    -0.206 F 
ATOM     86  C   UNL A   1      46.187  34.882  31.655  1.00  0.00     0.006 A 
ENDBRANCH  62  79
ENDBRANCH  36  37
ENDBRANCH  28  31
ENDBRANCH  26  27
ENDBRANCH  25  26
ENDBRANCH  24  25
ENDBRANCH  23  24
ENDBRANCH   1  23
TORSDOF 17
ENDMDL
