MODEL 1
REMARK VINA RESULT:     -13.2      0.000      0.000
REMARK SMILES O=C(NCCCCCCNC(=O)c1cc2c(Cl)c(C(F)(F)F)cnc2n1S(=O)(=O)c1ccccc1)c1ccc(-c2c3nc(c(-c4c(F)cccc4F)c4ccc([nH]4)c(-c4c(F)cccc4F)c4nc(c(-c5c(F)cccc5F)c5ccc2[nH]5)C=C4)C=C3)cc1
REMARK SMILES IDX 6 1 5 2 4 3 3 4 1 5 2 6 36 8 37 9 89 10 38 11 88 12 39 13
REMARK SMILES IDX 40 14 41 15 82 16 42 17 87 18 81 19 83 20 43 21 86 22 80 23
REMARK SMILES IDX 79 24 44 26 70 27 53 28 69 29 54 30 57 31 68 32 84 33 55 34
REMARK SMILES IDX 56 35 67 37 85 38 58 39 45 40 46 41 51 42 47 43 48 44 50 45
REMARK SMILES IDX 52 46 49 47 71 48 72 49 77 50 73 51 74 52 76 53 78 54 75 55
REMARK SMILES IDX 59 56 60 57 65 58 61 59 62 60 64 61 66 62 63 63 7 64 8 65
REMARK SMILES IDX 9 66 10 67 11 68 12 70 13 71 14 72 26 73 15 74 25 75 16 76
REMARK SMILES IDX 24 77 17 78 18 79 23 80 27 81 28 82 29 83 30 84 31 85 35 86
REMARK SMILES IDX 32 87 34 88 33 89 19 90 20 91 21 92 22 93
REMARK H PARENT 3 7 83 25 57 36 10 69
REMARK Flexibility Score: inf
ROOT
ATOM      1  C   UNL A   1      32.637  27.658  26.591  1.00  0.00     0.002 C 
ENDROOT
BRANCH   1   2
ATOM      2  C   UNL A   1      32.336  29.134  26.880  1.00  0.00     0.021 C 
BRANCH   2   3
ATOM      3  C   UNL A   1      33.443  30.106  26.480  1.00  0.00     0.116 C 
BRANCH   3   4
ATOM      4  N   UNL A   1      33.627  31.219  27.386  1.00  0.00    -0.352 N 
ATOM      5  O   UNL A   1      34.509  32.756  28.718  1.00  0.00    -0.269 OA
ATOM      6  C   UNL A   1      34.672  31.679  28.140  1.00  0.00     0.251 C 
ATOM      7  H   UNL A   1      32.816  31.770  27.483  1.00  0.00     0.163 HD
BRANCH   6   8
ATOM      8  C   UNL A   1      35.938  30.934  28.365  1.00  0.00     0.039 A 
ATOM      9  C   UNL A   1      36.094  29.556  28.228  1.00  0.00     0.014 A 
ATOM     10  C   UNL A   1      37.049  31.706  28.762  1.00  0.00     0.014 A 
ATOM     11  C   UNL A   1      37.291  28.950  28.587  1.00  0.00     0.010 A 
ATOM     12  C   UNL A   1      38.259  31.107  29.094  1.00  0.00     0.010 A 
ATOM     13  C   UNL A   1      38.363  29.722  29.041  1.00  0.00    -0.014 A 
BRANCH  13  14
ATOM     14  C   UNL A   1      39.615  29.023  29.302  1.00  0.00     0.031 A 
ATOM     15  C   UNL A   1      39.987  28.944  30.743  1.00  0.00     0.074 A 
ATOM     16  C   UNL A   1      40.366  28.426  28.358  1.00  0.00     0.049 A 
ATOM     17  N   UNL A   1      41.000  29.489  31.335  1.00  0.00    -0.248 NA
ATOM     18  C   UNL A   1      39.053  28.266  31.654  1.00  0.00     0.031 C 
ATOM     19  C   UNL A   1      40.031  28.159  26.960  1.00  0.00     0.029 A 
ATOM     20  N   UNL A   1      41.595  27.852  28.498  1.00  0.00    -0.354 N 
ATOM     21  C   UNL A   1      40.929  29.088  32.669  1.00  0.00     0.074 A 
ATOM     22  C   UNL A   1      39.650  28.447  32.832  1.00  0.00     0.031 C 
ATOM     23  C   UNL A   1      40.938  27.296  26.444  1.00  0.00     0.029 A 
ATOM     24  C   UNL A   1      41.982  27.060  27.429  1.00  0.00     0.049 A 
ATOM     25  H   UNL A   1      42.161  27.990  29.293  1.00  0.00     0.167 HD
ATOM     26  C   UNL A   1      42.015  29.140  33.488  1.00  0.00     0.037 A 
ATOM     27  C   UNL A   1      43.052  26.227  27.387  1.00  0.00     0.037 A 
ATOM     28  C   UNL A   1      43.030  30.017  32.966  1.00  0.00     0.049 A 
ATOM     29  C   UNL A   1      43.999  26.640  28.450  1.00  0.00     0.074 A 
ATOM     30  C   UNL A   1      43.106  31.363  32.667  1.00  0.00     0.029 A 
ATOM     31  N   UNL A   1      44.125  29.446  32.368  1.00  0.00    -0.354 N 
ATOM     32  N   UNL A   1      44.708  27.732  28.412  1.00  0.00    -0.248 NA
ATOM     33  C   UNL A   1      43.848  26.043  29.768  1.00  0.00     0.031 C 
ATOM     34  C   UNL A   1      43.947  31.439  31.517  1.00  0.00     0.029 A 
ATOM     35  C   UNL A   1      44.359  30.142  31.213  1.00  0.00     0.049 A 
ATOM     36  H   UNL A   1      44.645  28.681  32.706  1.00  0.00     0.167 HD
ATOM     37  C   UNL A   1      44.715  28.193  29.719  1.00  0.00     0.074 A 
ATOM     38  C   UNL A   1      44.261  27.063  30.524  1.00  0.00     0.031 C 
ATOM     39  C   UNL A   1      44.821  29.526  29.994  1.00  0.00     0.037 A 
BRANCH  26  40
ATOM     40  C   UNL A   1      42.330  28.116  34.553  1.00  0.00     0.057 A 
ATOM     41  C   UNL A   1      41.960  28.248  35.906  1.00  0.00     0.134 A 
ATOM     42  C   UNL A   1      42.703  26.815  34.160  1.00  0.00     0.134 A 
ATOM     43  F   UNL A   1      41.538  29.405  36.427  1.00  0.00    -0.206 F 
ATOM     44  C   UNL A   1      41.903  27.161  36.784  1.00  0.00     0.040 A 
ATOM     45  C   UNL A   1      42.601  25.714  35.018  1.00  0.00     0.040 A 
ATOM     46  F   UNL A   1      43.087  26.559  32.900  1.00  0.00    -0.206 F 
ATOM     47  C   UNL A   1      42.181  25.882  36.330  1.00  0.00     0.006 A 
ENDBRANCH  26  40
BRANCH  27  48
ATOM     48  C   UNL A   1      43.195  24.940  26.672  1.00  0.00     0.057 A 
ATOM     49  C   UNL A   1      43.903  24.855  25.462  1.00  0.00     0.134 A 
ATOM     50  C   UNL A   1      42.413  23.825  27.008  1.00  0.00     0.134 A 
ATOM     51  F   UNL A   1      44.617  25.894  25.002  1.00  0.00    -0.206 F 
ATOM     52  C   UNL A   1      43.830  23.736  24.627  1.00  0.00     0.040 A 
ATOM     53  C   UNL A   1      42.326  22.701  26.178  1.00  0.00     0.040 A 
ATOM     54  F   UNL A   1      41.664  23.828  28.121  1.00  0.00    -0.206 F 
ATOM     55  C   UNL A   1      43.028  22.657  24.978  1.00  0.00     0.006 A 
ENDBRANCH  27  48
BRANCH  39  56
ATOM     56  C   UNL A   1      45.200  30.442  28.866  1.00  0.00     0.057 A 
ATOM     57  C   UNL A   1      44.193  30.945  28.037  1.00  0.00     0.134 A 
ATOM     58  C   UNL A   1      46.525  30.737  28.511  1.00  0.00     0.134 A 
ATOM     59  F   UNL A   1      42.906  30.651  28.279  1.00  0.00    -0.206 F 
ATOM     60  C   UNL A   1      44.484  31.727  26.918  1.00  0.00     0.040 A 
ATOM     61  C   UNL A   1      46.828  31.548  27.414  1.00  0.00     0.040 A 
ATOM     62  F   UNL A   1      47.558  30.211  29.182  1.00  0.00    -0.206 F 
ATOM     63  C   UNL A   1      45.805  32.044  26.611  1.00  0.00     0.006 A 
ENDBRANCH  39  56
ENDBRANCH  13  14
ENDBRANCH   6   8
ENDBRANCH   3   4
ENDBRANCH   2   3
ENDBRANCH   1   2
BRANCH   1  64
ATOM     64  C   UNL A   1      31.443  26.693  26.626  1.00  0.00     0.002 C 
BRANCH  64  65
ATOM     65  C   UNL A   1      31.759  25.194  26.535  1.00  0.00     0.021 C 
BRANCH  65  66
ATOM     66  C   UNL A   1      30.561  24.305  26.242  1.00  0.00     0.116 C 
BRANCH  66  67
ATOM     67  N   UNL A   1      30.650  23.570  24.998  1.00  0.00    -0.351 N 
ATOM     68  C   UNL A   1      30.750  24.040  23.717  1.00  0.00     0.269 C 
ATOM     69  H   UNL A   1      30.637  22.590  25.087  1.00  0.00     0.163 HD
ATOM     70  O   UNL A   1      30.884  23.223  22.808  1.00  0.00    -0.268 OA
BRANCH  68  71
ATOM     71  C   UNL A   1      30.542  25.442  23.451  1.00  0.00     0.124 A 
ATOM     72  C   UNL A   1      29.328  26.103  23.577  1.00  0.00     0.047 A 
ATOM     73  N   UNL A   1      31.423  26.350  22.886  1.00  0.00    -0.211 N 
ATOM     74  C   UNL A   1      29.482  27.438  23.120  1.00  0.00     0.040 A 
ATOM     75  C   UNL A   1      30.799  27.558  22.679  1.00  0.00     0.156 A 
ATOM     76  C   UNL A   1      28.670  28.580  22.995  1.00  0.00     0.065 A 
ATOM     77  N   UNL A   1      31.339  28.674  22.156  1.00  0.00    -0.237 NA
ATOM     78  Cl  UNL A   1      27.052  28.390  23.517  1.00  0.00    -0.083 Cl
ATOM     79  C   UNL A   1      29.188  29.765  22.486  1.00  0.00     0.093 A 
ATOM     80  C   UNL A   1      30.513  29.739  22.089  1.00  0.00     0.128 A 
BRANCH  73  81
ATOM     81  S   UNL A   1      32.967  25.942  22.310  1.00  0.00     0.270 S 
ATOM     82  O   UNL A   1      32.751  25.194  21.106  1.00  0.00    -0.201 OA
ATOM     83  O   UNL A   1      33.686  27.216  22.294  1.00  0.00    -0.201 OA
BRANCH  81  84
ATOM     84  C   UNL A   1      33.806  24.827  23.396  1.00  0.00     0.088 A 
ATOM     85  C   UNL A   1      34.370  25.310  24.578  1.00  0.00     0.022 A 
ATOM     86  C   UNL A   1      34.041  23.507  22.983  1.00  0.00     0.022 A 
ATOM     87  C   UNL A   1      35.129  24.454  25.376  1.00  0.00     0.001 A 
ATOM     88  C   UNL A   1      34.780  22.651  23.799  1.00  0.00     0.001 A 
ATOM     89  C   UNL A   1      35.323  23.126  24.992  1.00  0.00     0.000 A 
ENDBRANCH  81  84
ENDBRANCH  73  81
BRANCH  79  90
ATOM     90  C   UNL A   1      28.386  31.015  22.357  1.00  0.00     0.419 C 
ATOM     91  F   UNL A   1      29.152  32.121  22.158  1.00  0.00    -0.166 F 
ATOM     92  F   UNL A   1      27.496  30.972  21.329  1.00  0.00    -0.166 F 
ATOM     93  F   UNL A   1      27.641  31.283  23.467  1.00  0.00    -0.166 F 
ENDBRANCH  79  90
ENDBRANCH  68  71
ENDBRANCH  66  67
ENDBRANCH  65  66
ENDBRANCH  64  65
ENDBRANCH   1  64
TORSDOF 16
ENDMDL
MODEL 2
REMARK VINA RESULT:     -12.9      4.075      7.678
REMARK SMILES O=C(NCCCCCCNC(=O)c1cc2c(Cl)c(C(F)(F)F)cnc2n1S(=O)(=O)c1ccccc1)c1ccc(-c2c3nc(c(-c4c(F)cccc4F)c4ccc([nH]4)c(-c4c(F)cccc4F)c4nc(c(-c5c(F)cccc5F)c5ccc2[nH]5)C=C4)C=C3)cc1
REMARK SMILES IDX 6 1 5 2 4 3 3 4 1 5 2 6 36 8 37 9 89 10 38 11 88 12 39 13
REMARK SMILES IDX 40 14 41 15 82 16 42 17 87 18 81 19 83 20 43 21 86 22 80 23
REMARK SMILES IDX 79 24 44 26 70 27 53 28 69 29 54 30 57 31 68 32 84 33 55 34
REMARK SMILES IDX 56 35 67 37 85 38 58 39 45 40 46 41 51 42 47 43 48 44 50 45
REMARK SMILES IDX 52 46 49 47 71 48 72 49 77 50 73 51 74 52 76 53 78 54 75 55
REMARK SMILES IDX 59 56 60 57 65 58 61 59 62 60 64 61 66 62 63 63 7 64 8 65
REMARK SMILES IDX 9 66 10 67 11 68 12 70 13 71 14 72 26 73 15 74 25 75 16 76
REMARK SMILES IDX 24 77 17 78 18 79 23 80 27 81 28 82 29 83 30 84 31 85 35 86
REMARK SMILES IDX 32 87 34 88 33 89 19 90 20 91 21 92 22 93
REMARK H PARENT 3 7 83 25 57 36 10 69
REMARK Flexibility Score: inf
ROOT
ATOM      1  C   UNL A   1      33.573  27.329  26.056  1.00  0.00     0.002 C 
ENDROOT
BRANCH   1   2
ATOM      2  C   UNL A   1      33.753  28.782  26.512  1.00  0.00     0.021 C 
BRANCH   2   3
ATOM      3  C   UNL A   1      35.154  29.132  27.008  1.00  0.00     0.116 C 
BRANCH   3   4
ATOM      4  N   UNL A   1      35.217  29.555  28.391  1.00  0.00    -0.352 N 
ATOM      5  O   UNL A   1      35.928  30.213  30.385  1.00  0.00    -0.269 OA
ATOM      6  C   UNL A   1      36.226  29.700  29.303  1.00  0.00     0.251 C 
ATOM      7  H   UNL A   1      34.334  29.792  28.758  1.00  0.00     0.163 HD
BRANCH   6   8
ATOM      8  C   UNL A   1      37.616  29.213  29.105  1.00  0.00     0.039 A 
ATOM      9  C   UNL A   1      38.288  28.335  29.953  1.00  0.00     0.014 A 
ATOM     10  C   UNL A   1      38.289  29.705  27.969  1.00  0.00     0.014 A 
ATOM     11  C   UNL A   1      39.629  28.045  29.739  1.00  0.00     0.010 A 
ATOM     12  C   UNL A   1      39.624  29.395  27.733  1.00  0.00     0.010 A 
ATOM     13  C   UNL A   1      40.301  28.593  28.643  1.00  0.00    -0.014 A 
BRANCH  13  14
ATOM     14  C   UNL A   1      41.677  28.162  28.432  1.00  0.00     0.031 A 
ATOM     15  C   UNL A   1      41.811  26.854  27.732  1.00  0.00     0.074 A 
ATOM     16  C   UNL A   1      42.763  28.885  28.765  1.00  0.00     0.049 A 
ATOM     17  N   UNL A   1      42.292  25.746  28.197  1.00  0.00    -0.248 NA
ATOM     18  C   UNL A   1      41.236  26.738  26.383  1.00  0.00     0.031 C 
ATOM     19  C   UNL A   1      42.832  30.282  29.193  1.00  0.00     0.029 A 
ATOM     20  N   UNL A   1      44.073  28.513  28.705  1.00  0.00    -0.354 N 
ATOM     21  C   UNL A   1      42.236  24.830  27.147  1.00  0.00     0.074 A 
ATOM     22  C   UNL A   1      41.465  25.455  26.103  1.00  0.00     0.031 C 
ATOM     23  C   UNL A   1      44.121  30.694  29.151  1.00  0.00     0.029 A 
ATOM     24  C   UNL A   1      44.972  29.561  28.824  1.00  0.00     0.049 A 
ATOM     25  H   UNL A   1      44.357  27.577  28.589  1.00  0.00     0.167 HD
ATOM     26  C   UNL A   1      42.999  23.702  27.143  1.00  0.00     0.037 A 
ATOM     27  C   UNL A   1      46.310  29.506  28.609  1.00  0.00     0.037 A 
ATOM     28  C   UNL A   1      43.480  23.384  28.461  1.00  0.00     0.049 A 
ATOM     29  C   UNL A   1      46.731  28.087  28.696  1.00  0.00     0.074 A 
ATOM     30  C   UNL A   1      42.894  23.066  29.671  1.00  0.00     0.029 A 
ATOM     31  N   UNL A   1      44.789  23.675  28.754  1.00  0.00    -0.354 N 
ATOM     32  N   UNL A   1      46.770  27.403  29.804  1.00  0.00    -0.248 NA
ATOM     33  C   UNL A   1      46.711  27.293  27.476  1.00  0.00     0.031 C 
ATOM     34  C   UNL A   1      43.739  23.656  30.658  1.00  0.00     0.029 A 
ATOM     35  C   UNL A   1      44.803  24.261  29.990  1.00  0.00     0.049 A 
ATOM     36  H   UNL A   1      45.571  23.495  28.182  1.00  0.00     0.167 HD
ATOM     37  C   UNL A   1      46.338  26.135  29.451  1.00  0.00     0.074 A 
ATOM     38  C   UNL A   1      46.417  26.098  27.993  1.00  0.00     0.031 C 
ATOM     39  C   UNL A   1      45.696  25.334  30.351  1.00  0.00     0.037 A 
BRANCH  26  40
ATOM     40  C   UNL A   1      43.631  23.105  25.908  1.00  0.00     0.057 A 
ATOM     41  C   UNL A   1      44.606  23.757  25.128  1.00  0.00     0.134 A 
ATOM     42  C   UNL A   1      43.520  21.717  25.687  1.00  0.00     0.134 A 
ATOM     43  F   UNL A   1      44.866  25.064  25.247  1.00  0.00    -0.206 F 
ATOM     44  C   UNL A   1      45.450  23.075  24.246  1.00  0.00     0.040 A 
ATOM     45  C   UNL A   1      44.393  21.019  24.845  1.00  0.00     0.040 A 
ATOM     46  F   UNL A   1      42.621  20.982  26.360  1.00  0.00    -0.206 F 
ATOM     47  C   UNL A   1      45.375  21.697  24.135  1.00  0.00     0.006 A 
ENDBRANCH  26  40
BRANCH  27  48
ATOM     48  C   UNL A   1      47.205  30.554  28.072  1.00  0.00     0.057 A 
ATOM     49  C   UNL A   1      48.232  31.105  28.856  1.00  0.00     0.134 A 
ATOM     50  C   UNL A   1      46.904  31.235  26.883  1.00  0.00     0.134 A 
ATOM     51  F   UNL A   1      48.547  30.583  30.051  1.00  0.00    -0.206 F 
ATOM     52  C   UNL A   1      48.912  32.270  28.489  1.00  0.00     0.040 A 
ATOM     53  C   UNL A   1      47.572  32.407  26.508  1.00  0.00     0.040 A 
ATOM     54  F   UNL A   1      45.908  30.813  26.089  1.00  0.00    -0.206 F 
ATOM     55  C   UNL A   1      48.574  32.934  27.317  1.00  0.00     0.006 A 
ENDBRANCH  27  48
BRANCH  39  56
ATOM     56  C   UNL A   1      45.715  25.753  31.792  1.00  0.00     0.057 A 
ATOM     57  C   UNL A   1      44.657  26.524  32.285  1.00  0.00     0.134 A 
ATOM     58  C   UNL A   1      46.793  25.522  32.660  1.00  0.00     0.134 A 
ATOM     59  F   UNL A   1      43.621  26.839  31.492  1.00  0.00    -0.206 F 
ATOM     60  C   UNL A   1      44.656  27.022  33.589  1.00  0.00     0.040 A 
ATOM     61  C   UNL A   1      46.788  25.986  33.979  1.00  0.00     0.040 A 
ATOM     62  F   UNL A   1      47.897  24.888  32.243  1.00  0.00    -0.206 F 
ATOM     63  C   UNL A   1      45.717  26.742  34.446  1.00  0.00     0.006 A 
ENDBRANCH  39  56
ENDBRANCH  13  14
ENDBRANCH   6   8
ENDBRANCH   3   4
ENDBRANCH   2   3
ENDBRANCH   1   2
BRANCH   1  64
ATOM     64  C   UNL A   1      32.685  27.099  24.824  1.00  0.00     0.002 C 
BRANCH  64  65
ATOM     65  C   UNL A   1      33.170  26.060  23.805  1.00  0.00     0.021 C 
BRANCH  65  66
ATOM     66  C   UNL A   1      32.386  24.757  23.798  1.00  0.00     0.116 C 
BRANCH  66  67
ATOM     67  N   UNL A   1      31.734  24.444  25.052  1.00  0.00    -0.351 N 
ATOM     68  C   UNL A   1      32.229  23.792  26.149  1.00  0.00     0.269 C 
ATOM     69  H   UNL A   1      30.800  24.743  25.126  1.00  0.00     0.163 HD
ATOM     70  O   UNL A   1      31.509  23.697  27.140  1.00  0.00    -0.268 OA
BRANCH  68  71
ATOM     71  C   UNL A   1      33.495  23.109  26.064  1.00  0.00     0.124 A 
ATOM     72  C   UNL A   1      34.716  23.643  26.456  1.00  0.00     0.047 A 
ATOM     73  N   UNL A   1      33.779  21.897  25.455  1.00  0.00    -0.211 N 
ATOM     74  C   UNL A   1      35.748  22.730  26.116  1.00  0.00     0.040 A 
ATOM     75  C   UNL A   1      35.133  21.655  25.476  1.00  0.00     0.156 A 
ATOM     76  C   UNL A   1      37.148  22.670  26.243  1.00  0.00     0.065 A 
ATOM     77  N   UNL A   1      35.775  20.579  24.986  1.00  0.00    -0.237 NA
ATOM     78  Cl  UNL A   1      37.873  24.020  27.005  1.00  0.00    -0.083 Cl
ATOM     79  C   UNL A   1      37.854  21.568  25.776  1.00  0.00     0.093 A 
ATOM     80  C   UNL A   1      37.113  20.573  25.165  1.00  0.00     0.128 A 
BRANCH  73  81
ATOM     81  S   UNL A   1      32.641  20.978  24.592  1.00  0.00     0.270 S 
ATOM     82  O   UNL A   1      31.418  21.072  25.334  1.00  0.00    -0.201 OA
ATOM     83  O   UNL A   1      32.741  21.486  23.224  1.00  0.00    -0.201 OA
BRANCH  81  84
ATOM     84  C   UNL A   1      33.043  19.257  24.592  1.00  0.00     0.088 A 
ATOM     85  C   UNL A   1      33.346  18.620  23.387  1.00  0.00     0.022 A 
ATOM     86  C   UNL A   1      32.894  18.512  25.771  1.00  0.00     0.022 A 
ATOM     87  C   UNL A   1      33.550  17.240  23.371  1.00  0.00     0.001 A 
ATOM     88  C   UNL A   1      33.124  17.137  25.753  1.00  0.00     0.001 A 
ATOM     89  C   UNL A   1      33.450  16.504  24.554  1.00  0.00     0.000 A 
ENDBRANCH  81  84
ENDBRANCH  73  81
BRANCH  79  90
ATOM     90  C   UNL A   1      39.333  21.434  25.909  1.00  0.00     0.419 C 
ATOM     91  F   UNL A   1      39.812  20.276  25.379  1.00  0.00    -0.166 F 
ATOM     92  F   UNL A   1      40.014  22.446  25.307  1.00  0.00    -0.166 F 
ATOM     93  F   UNL A   1      39.751  21.440  27.207  1.00  0.00    -0.166 F 
ENDBRANCH  79  90
ENDBRANCH  68  71
ENDBRANCH  66  67
ENDBRANCH  65  66
ENDBRANCH  64  65
ENDBRANCH   1  64
TORSDOF 16
ENDMDL
MODEL 3
REMARK VINA RESULT:     -12.9      3.315      7.771
REMARK SMILES O=C(NCCCCCCNC(=O)c1cc2c(Cl)c(C(F)(F)F)cnc2n1S(=O)(=O)c1ccccc1)c1ccc(-c2c3nc(c(-c4c(F)cccc4F)c4ccc([nH]4)c(-c4c(F)cccc4F)c4nc(c(-c5c(F)cccc5F)c5ccc2[nH]5)C=C4)C=C3)cc1
REMARK SMILES IDX 6 1 5 2 4 3 3 4 1 5 2 6 36 8 37 9 89 10 38 11 88 12 39 13
REMARK SMILES IDX 40 14 41 15 82 16 42 17 87 18 81 19 83 20 43 21 86 22 80 23
REMARK SMILES IDX 79 24 44 26 70 27 53 28 69 29 54 30 57 31 68 32 84 33 55 34
REMARK SMILES IDX 56 35 67 37 85 38 58 39 45 40 46 41 51 42 47 43 48 44 50 45
REMARK SMILES IDX 52 46 49 47 71 48 72 49 77 50 73 51 74 52 76 53 78 54 75 55
REMARK SMILES IDX 59 56 60 57 65 58 61 59 62 60 64 61 66 62 63 63 7 64 8 65
REMARK SMILES IDX 9 66 10 67 11 68 12 70 13 71 14 72 26 73 15 74 25 75 16 76
REMARK SMILES IDX 24 77 17 78 18 79 23 80 27 81 28 82 29 83 30 84 31 85 35 86
REMARK SMILES IDX 32 87 34 88 33 89 19 90 20 91 21 92 22 93
REMARK H PARENT 3 7 83 25 57 36 10 69
REMARK Flexibility Score: inf
ROOT
ATOM      1  C   UNL A   1      40.439  22.234  27.692  1.00  0.00     0.002 C 
ENDROOT
BRANCH   1   2
ATOM      2  C   UNL A   1      41.275  20.961  27.507  1.00  0.00     0.021 C 
BRANCH   2   3
ATOM      3  C   UNL A   1      42.735  21.200  27.133  1.00  0.00     0.116 C 
BRANCH   3   4
ATOM      4  N   UNL A   1      42.938  21.754  25.811  1.00  0.00    -0.352 N 
ATOM      5  O   UNL A   1      43.381  23.116  24.119  1.00  0.00    -0.269 OA
ATOM      6  C   UNL A   1      43.104  23.018  25.317  1.00  0.00     0.251 C 
ATOM      7  H   UNL A   1      42.960  21.064  25.108  1.00  0.00     0.163 HD
BRANCH   6   8
ATOM      8  C   UNL A   1      42.895  24.263  26.103  1.00  0.00     0.039 A 
ATOM      9  C   UNL A   1      43.469  24.535  27.343  1.00  0.00     0.014 A 
ATOM     10  C   UNL A   1      42.032  25.219  25.532  1.00  0.00     0.014 A 
ATOM     11  C   UNL A   1      43.105  25.676  28.047  1.00  0.00     0.010 A 
ATOM     12  C   UNL A   1      41.686  26.378  26.219  1.00  0.00     0.010 A 
ATOM     13  C   UNL A   1      42.197  26.583  27.495  1.00  0.00    -0.014 A 
BRANCH  13  14
ATOM     14  C   UNL A   1      41.943  27.802  28.250  1.00  0.00     0.031 A 
ATOM     15  C   UNL A   1      43.012  28.834  28.133  1.00  0.00     0.074 A 
ATOM     16  C   UNL A   1      40.821  28.045  28.954  1.00  0.00     0.049 A 
ATOM     17  N   UNL A   1      43.799  29.276  29.059  1.00  0.00    -0.248 NA
ATOM     18  C   UNL A   1      43.314  29.354  26.791  1.00  0.00     0.031 C 
ATOM     19  C   UNL A   1      39.568  27.290  28.960  1.00  0.00     0.029 A 
ATOM     20  N   UNL A   1      40.552  29.101  29.773  1.00  0.00    -0.354 N 
ATOM     21  C   UNL A   1      44.590  30.255  28.460  1.00  0.00     0.074 A 
ATOM     22  C   UNL A   1      44.338  30.171  27.044  1.00  0.00     0.031 C 
ATOM     23  C   UNL A   1      38.611  28.026  29.575  1.00  0.00     0.029 A 
ATOM     24  C   UNL A   1      39.216  29.232  30.117  1.00  0.00     0.049 A 
ATOM     25  H   UNL A   1      41.249  29.719  30.093  1.00  0.00     0.167 HD
ATOM     26  C   UNL A   1      45.244  31.195  29.196  1.00  0.00     0.037 A 
ATOM     27  C   UNL A   1      38.645  30.287  30.750  1.00  0.00     0.037 A 
ATOM     28  C   UNL A   1      45.369  30.794  30.574  1.00  0.00     0.049 A 
ATOM     29  C   UNL A   1      39.718  31.049  31.433  1.00  0.00     0.074 A 
ATOM     30  C   UNL A   1      45.975  29.749  31.242  1.00  0.00     0.029 A 
ATOM     31  N   UNL A   1      44.527  31.375  31.489  1.00  0.00    -0.354 N 
ATOM     32  N   UNL A   1      40.359  30.625  32.484  1.00  0.00    -0.248 NA
ATOM     33  C   UNL A   1      40.376  32.115  30.692  1.00  0.00     0.031 C 
ATOM     34  C   UNL A   1      45.111  29.461  32.340  1.00  0.00     0.029 A 
ATOM     35  C   UNL A   1      44.057  30.372  32.293  1.00  0.00     0.049 A 
ATOM     36  H   UNL A   1      44.304  32.332  31.555  1.00  0.00     0.167 HD
ATOM     37  C   UNL A   1      41.667  31.040  32.291  1.00  0.00     0.074 A 
ATOM     38  C   UNL A   1      41.596  32.038  31.227  1.00  0.00     0.031 C 
ATOM     39  C   UNL A   1      42.713  30.336  32.814  1.00  0.00     0.037 A 
BRANCH  26  40
ATOM     40  C   UNL A   1      45.430  32.633  28.774  1.00  0.00     0.057 A 
ATOM     41  C   UNL A   1      44.377  33.561  28.656  1.00  0.00     0.134 A 
ATOM     42  C   UNL A   1      46.720  33.197  28.820  1.00  0.00     0.134 A 
ATOM     43  F   UNL A   1      43.091  33.193  28.644  1.00  0.00    -0.206 F 
ATOM     44  C   UNL A   1      44.585  34.944  28.650  1.00  0.00     0.040 A 
ATOM     45  C   UNL A   1      46.934  34.579  28.866  1.00  0.00     0.040 A 
ATOM     46  F   UNL A   1      47.809  32.419  28.921  1.00  0.00    -0.206 F 
ATOM     47  C   UNL A   1      45.862  35.458  28.799  1.00  0.00     0.006 A 
ENDBRANCH  26  40
BRANCH  27  48
ATOM     48  C   UNL A   1      37.280  30.835  30.589  1.00  0.00     0.057 A 
ATOM     49  C   UNL A   1      36.834  31.322  29.349  1.00  0.00     0.134 A 
ATOM     50  C   UNL A   1      36.482  31.150  31.698  1.00  0.00     0.134 A 
ATOM     51  F   UNL A   1      37.560  31.150  28.235  1.00  0.00    -0.206 F 
ATOM     52  C   UNL A   1      35.670  32.087  29.219  1.00  0.00     0.040 A 
ATOM     53  C   UNL A   1      35.319  31.921  31.584  1.00  0.00     0.040 A 
ATOM     54  F   UNL A   1      36.849  30.769  32.932  1.00  0.00    -0.206 F 
ATOM     55  C   UNL A   1      34.915  32.401  30.342  1.00  0.00     0.006 A 
ENDBRANCH  27  48
BRANCH  39  56
ATOM     56  C   UNL A   1      42.399  29.269  33.822  1.00  0.00     0.057 A 
ATOM     57  C   UNL A   1      42.530  29.565  35.182  1.00  0.00     0.134 A 
ATOM     58  C   UNL A   1      42.091  27.941  33.486  1.00  0.00     0.134 A 
ATOM     59  F   UNL A   1      42.884  30.798  35.576  1.00  0.00    -0.206 F 
ATOM     60  C   UNL A   1      42.342  28.594  36.168  1.00  0.00     0.040 A 
ATOM     61  C   UNL A   1      41.866  26.969  34.464  1.00  0.00     0.040 A 
ATOM     62  F   UNL A   1      42.052  27.540  32.208  1.00  0.00    -0.206 F 
ATOM     63  C   UNL A   1      41.993  27.294  35.811  1.00  0.00     0.006 A 
ENDBRANCH  39  56
ENDBRANCH  13  14
ENDBRANCH   6   8
ENDBRANCH   3   4
ENDBRANCH   2   3
ENDBRANCH   1   2
BRANCH   1  64
ATOM     64  C   UNL A   1      39.483  22.601  26.547  1.00  0.00     0.002 C 
BRANCH  64  65
ATOM     65  C   UNL A   1      38.798  23.971  26.627  1.00  0.00     0.021 C 
BRANCH  65  66
ATOM     66  C   UNL A   1      37.478  24.071  25.879  1.00  0.00     0.116 C 
BRANCH  66  67
ATOM     67  N   UNL A   1      37.461  23.391  24.602  1.00  0.00    -0.351 N 
ATOM     68  C   UNL A   1      36.411  23.158  23.756  1.00  0.00     0.269 C 
ATOM     69  H   UNL A   1      38.331  23.044  24.298  1.00  0.00     0.163 HD
ATOM     70  O   UNL A   1      36.644  22.613  22.679  1.00  0.00    -0.268 OA
BRANCH  68  71
ATOM     71  C   UNL A   1      35.064  23.409  24.202  1.00  0.00     0.124 A 
ATOM     72  C   UNL A   1      34.401  24.624  24.088  1.00  0.00     0.047 A 
ATOM     73  N   UNL A   1      34.238  22.584  24.949  1.00  0.00    -0.211 N 
ATOM     74  C   UNL A   1      33.144  24.525  24.739  1.00  0.00     0.040 A 
ATOM     75  C   UNL A   1      33.077  23.243  25.283  1.00  0.00     0.156 A 
ATOM     76  C   UNL A   1      32.038  25.364  24.969  1.00  0.00     0.065 A 
ATOM     77  N   UNL A   1      32.043  22.760  25.994  1.00  0.00    -0.237 NA
ATOM     78  Cl  UNL A   1      32.166  26.940  24.314  1.00  0.00    -0.083 Cl
ATOM     79  C   UNL A   1      30.934  24.903  25.675  1.00  0.00     0.093 A 
ATOM     80  C   UNL A   1      31.005  23.607  26.155  1.00  0.00     0.128 A 
BRANCH  73  81
ATOM     81  S   UNL A   1      34.711  21.075  25.567  1.00  0.00     0.270 S 
ATOM     82  O   UNL A   1      36.138  21.028  25.435  1.00  0.00    -0.201 OA
ATOM     83  O   UNL A   1      34.065  21.012  26.878  1.00  0.00    -0.201 OA
BRANCH  81  84
ATOM     84  C   UNL A   1      34.117  19.738  24.575  1.00  0.00     0.088 A 
ATOM     85  C   UNL A   1      32.868  19.839  23.959  1.00  0.00     0.022 A 
ATOM     86  C   UNL A   1      34.827  18.528  24.549  1.00  0.00     0.022 A 
ATOM     87  C   UNL A   1      32.350  18.740  23.272  1.00  0.00     0.001 A 
ATOM     88  C   UNL A   1      34.315  17.443  23.840  1.00  0.00     0.001 A 
ATOM     89  C   UNL A   1      33.078  17.550  23.204  1.00  0.00     0.000 A 
ENDBRANCH  81  84
ENDBRANCH  73  81
BRANCH  79  90
ATOM     90  C   UNL A   1      29.722  25.734  25.925  1.00  0.00     0.419 C 
ATOM     91  F   UNL A   1      28.778  25.092  26.665  1.00  0.00    -0.166 F 
ATOM     92  F   UNL A   1      29.999  26.896  26.575  1.00  0.00    -0.166 F 
ATOM     93  F   UNL A   1      29.090  26.108  24.775  1.00  0.00    -0.166 F 
ENDBRANCH  79  90
ENDBRANCH  68  71
ENDBRANCH  66  67
ENDBRANCH  65  66
ENDBRANCH  64  65
ENDBRANCH   1  64
TORSDOF 16
ENDMDL
