MODEL 1
REMARK VINA RESULT:     -11.4      0.000      0.000
REMARK SMILES [NH3+][C@@H]1CCC[C@@H](C(=O)N2CCO[C@H](CC(=O)NCCCCCCNC(=O)c3ccc(-c4c5nc(c(-c6c(F)cccc6F)c6ccc([nH]6)c(-c6c(F)cccc6F)c6nc(c(-c7c(F)cccc7F)c7ccc4[nH]7)C=C6)C=C5)cc3)C2)C1
REMARK SMILES IDX 19 1 18 2 17 3 15 4 16 5 14 7 13 8 9 9 10 10 81 11 11 12
REMARK SMILES IDX 12 13 7 14 8 15 6 16 2 17 3 18 82 19 4 20 5 21 1 22 20 26
REMARK SMILES IDX 21 27 22 28 23 29 24 30 25 31 26 33 27 34 28 35 80 36 29 37
REMARK SMILES IDX 79 38 30 39 31 40 32 41 73 42 33 43 78 44 72 45 74 46 34 47
REMARK SMILES IDX 77 48 71 49 70 50 35 52 61 53 44 54 60 55 45 56 48 57 59 58
REMARK SMILES IDX 75 59 46 60 47 61 58 63 76 64 49 65 36 66 37 67 42 68 38 69
REMARK SMILES IDX 39 70 41 71 43 72 40 73 62 74 63 75 68 76 64 77 65 78 67 79
REMARK SMILES IDX 69 80 66 81 50 82 51 83 56 84 52 85 53 86 55 87 57 88 54 89
REMARK H PARENT 17 6 1 23 1 24 1 25 24 32 74 51 48 62
REMARK Flexibility Score: inf
ROOT
ATOM      1  C   UNL A   1      33.683  29.520  27.153  1.00  0.00     0.021 C 
ENDROOT
BRANCH   1   2
ATOM      2  C   UNL A   1      34.288  28.513  26.181  1.00  0.00     0.116 C 
BRANCH   2   3
ATOM      3  N   UNL A   1      34.192  28.981  24.820  1.00  0.00    -0.356 N 
ATOM      4  C   UNL A   1      33.534  28.441  23.772  1.00  0.00     0.222 C 
ATOM      5  O   UNL A   1      33.330  29.173  22.803  1.00  0.00    -0.275 OA
ATOM      6  H   UNL A   1      34.678  29.815  24.627  1.00  0.00     0.163 HD
BRANCH   4   7
ATOM      7  C   UNL A   1      33.003  27.025  23.821  1.00  0.00     0.133 C 
BRANCH   7   8
ATOM      8  C   UNL A   1      31.569  26.839  24.340  1.00  0.00     0.147 C 
ATOM      9  N   UNL A   1      31.671  24.589  25.330  1.00  0.00    -0.338 N 
ATOM     10  C   UNL A   1      30.813  24.064  24.275  1.00  0.00     0.148 C 
ATOM     11  C   UNL A   1      31.431  25.994  25.618  1.00  0.00     0.152 C 
ATOM     12  C   UNL A   1      30.956  24.918  23.013  1.00  0.00     0.182 C 
ATOM     13  O   UNL A   1      30.725  26.312  23.285  1.00  0.00    -0.374 OA
BRANCH   9  14
ATOM     14  C   UNL A   1      32.076  23.768  26.369  1.00  0.00     0.226 C 
ATOM     15  O   UNL A   1      31.483  23.732  27.445  1.00  0.00    -0.275 OA
BRANCH  14  16
ATOM     16  C   UNL A   1      33.466  23.146  26.183  1.00  0.00     0.084 C 
ATOM     17  C   UNL A   1      34.929  21.645  24.696  1.00  0.00     0.181 C 
ATOM     18  C   UNL A   1      35.811  22.856  24.371  1.00  0.00     0.065 C 
ATOM     19  C   UNL A   1      33.511  22.105  25.055  1.00  0.00     0.078 C 
ATOM     20  C   UNL A   1      35.853  23.866  25.514  1.00  0.00     0.007 C 
ATOM     21  C   UNL A   1      34.453  24.293  25.933  1.00  0.00     0.014 C 
BRANCH  17  22
ATOM     22  N   UNL A   1      35.504  20.835  25.770  1.00  0.00    -0.355 N 
ATOM     23  H   UNL A   1      36.301  21.325  26.176  1.00  0.00     0.344 HD
ATOM     24  H   UNL A   1      35.812  19.939  25.391  1.00  0.00     0.344 HD
ATOM     25  H   UNL A   1      34.799  20.675  26.490  1.00  0.00     0.344 HD
ENDBRANCH  17  22
ENDBRANCH  14  16
ENDBRANCH   9  14
ENDBRANCH   7   8
ENDBRANCH   4   7
ENDBRANCH   2   3
ENDBRANCH   1   2
BRANCH   1  26
ATOM     26  C   UNL A   1      32.160  29.671  27.044  1.00  0.00     0.002 C 
BRANCH  26  27
ATOM     27  C   UNL A   1      31.675  30.781  26.104  1.00  0.00     0.002 C 
BRANCH  27  28
ATOM     28  C   UNL A   1      31.398  32.124  26.780  1.00  0.00     0.021 C 
BRANCH  28  29
ATOM     29  C   UNL A   1      32.639  32.821  27.313  1.00  0.00     0.116 C 
BRANCH  29  30
ATOM     30  N   UNL A   1      32.389  34.220  27.607  1.00  0.00    -0.352 N 
ATOM     31  C   UNL A   1      32.968  35.005  28.570  1.00  0.00     0.251 C 
ATOM     32  H   UNL A   1      31.717  34.664  27.041  1.00  0.00     0.163 HD
ATOM     33  O   UNL A   1      32.507  36.111  28.838  1.00  0.00    -0.269 OA
BRANCH  31  34
ATOM     34  C   UNL A   1      34.145  34.494  29.301  1.00  0.00     0.039 A 
ATOM     35  C   UNL A   1      33.958  33.878  30.540  1.00  0.00     0.014 A 
ATOM     36  C   UNL A   1      35.426  34.603  28.749  1.00  0.00     0.014 A 
ATOM     37  C   UNL A   1      35.053  33.323  31.202  1.00  0.00     0.010 A 
ATOM     38  C   UNL A   1      36.499  33.973  29.368  1.00  0.00     0.010 A 
ATOM     39  C   UNL A   1      36.325  33.339  30.607  1.00  0.00    -0.014 A 
BRANCH  39  40
ATOM     40  C   UNL A   1      37.492  32.708  31.272  1.00  0.00     0.031 A 
ATOM     41  C   UNL A   1      38.164  31.518  30.647  1.00  0.00     0.074 A 
ATOM     42  C   UNL A   1      37.909  33.172  32.465  1.00  0.00     0.049 A 
ATOM     43  N   UNL A   1      39.164  30.804  31.096  1.00  0.00    -0.248 NA
ATOM     44  C   UNL A   1      37.619  31.051  29.364  1.00  0.00     0.031 C 
ATOM     45  C   UNL A   1      37.312  34.293  33.194  1.00  0.00     0.029 A 
ATOM     46  N   UNL A   1      38.934  32.756  33.277  1.00  0.00    -0.354 N 
ATOM     47  C   UNL A   1      39.360  29.799  30.156  1.00  0.00     0.074 A 
ATOM     48  C   UNL A   1      38.332  29.957  29.149  1.00  0.00     0.031 C 
ATOM     49  C   UNL A   1      38.001  34.496  34.328  1.00  0.00     0.029 A 
ATOM     50  C   UNL A   1      39.060  33.496  34.427  1.00  0.00     0.049 A 
ATOM     51  H   UNL A   1      39.522  31.998  33.056  1.00  0.00     0.167 HD
ATOM     52  C   UNL A   1      40.323  28.848  30.119  1.00  0.00     0.037 A 
ATOM     53  C   UNL A   1      39.929  33.378  35.449  1.00  0.00     0.037 A 
ATOM     54  C   UNL A   1      41.349  28.703  31.118  1.00  0.00     0.049 A 
ATOM     55  C   UNL A   1      40.973  32.297  35.402  1.00  0.00     0.074 A 
ATOM     56  C   UNL A   1      42.403  27.809  31.149  1.00  0.00     0.029 A 
ATOM     57  N   UNL A   1      41.440  29.469  32.273  1.00  0.00    -0.354 N 
ATOM     58  N   UNL A   1      41.192  31.399  34.472  1.00  0.00    -0.248 NA
ATOM     59  C   UNL A   1      41.893  32.218  36.544  1.00  0.00     0.031 C 
ATOM     60  C   UNL A   1      43.099  27.994  32.349  1.00  0.00     0.029 A 
ATOM     61  C   UNL A   1      42.516  29.045  33.037  1.00  0.00     0.049 A 
ATOM     62  H   UNL A   1      40.830  30.203  32.512  1.00  0.00     0.167 HD
ATOM     63  C   UNL A   1      42.292  30.667  34.903  1.00  0.00     0.074 A 
ATOM     64  C   UNL A   1      42.701  31.236  36.171  1.00  0.00     0.031 C 
ATOM     65  C   UNL A   1      42.911  29.622  34.300  1.00  0.00     0.037 A 
BRANCH  52  66
ATOM     66  C   UNL A   1      40.298  27.887  28.963  1.00  0.00     0.057 A 
ATOM     67  C   UNL A   1      41.013  28.128  27.781  1.00  0.00     0.134 A 
ATOM     68  C   UNL A   1      39.550  26.706  29.031  1.00  0.00     0.134 A 
ATOM     69  F   UNL A   1      41.742  29.247  27.642  1.00  0.00    -0.206 F 
ATOM     70  C   UNL A   1      40.950  27.252  26.696  1.00  0.00     0.040 A 
ATOM     71  C   UNL A   1      39.506  25.805  27.966  1.00  0.00     0.040 A 
ATOM     72  F   UNL A   1      38.846  26.407  30.134  1.00  0.00    -0.206 F 
ATOM     73  C   UNL A   1      40.198  26.083  26.788  1.00  0.00     0.006 A 
ENDBRANCH  52  66
BRANCH  53  74
ATOM     74  C   UNL A   1      39.869  34.334  36.583  1.00  0.00     0.057 A 
ATOM     75  C   UNL A   1      40.515  35.573  36.515  1.00  0.00     0.134 A 
ATOM     76  C   UNL A   1      39.156  34.041  37.752  1.00  0.00     0.134 A 
ATOM     77  F   UNL A   1      41.226  35.904  35.428  1.00  0.00    -0.206 F 
ATOM     78  C   UNL A   1      40.468  36.481  37.574  1.00  0.00     0.040 A 
ATOM     79  C   UNL A   1      39.080  34.951  38.809  1.00  0.00     0.040 A 
ATOM     80  F   UNL A   1      38.508  32.874  37.876  1.00  0.00    -0.206 F 
ATOM     81  C   UNL A   1      39.743  36.173  38.723  1.00  0.00     0.006 A 
ENDBRANCH  53  74
BRANCH  65  82
ATOM     82  C   UNL A   1      44.116  29.046  34.986  1.00  0.00     0.057 A 
ATOM     83  C   UNL A   1      44.019  27.984  35.894  1.00  0.00     0.134 A 
ATOM     84  C   UNL A   1      45.397  29.538  34.703  1.00  0.00     0.134 A 
ATOM     85  F   UNL A   1      42.820  27.474  36.218  1.00  0.00    -0.206 F 
ATOM     86  C   UNL A   1      45.149  27.449  36.515  1.00  0.00     0.040 A 
ATOM     87  C   UNL A   1      46.537  28.992  35.294  1.00  0.00     0.040 A 
ATOM     88  F   UNL A   1      45.564  30.548  33.836  1.00  0.00    -0.206 F 
ATOM     89  C   UNL A   1      46.413  27.948  36.208  1.00  0.00     0.006 A 
ENDBRANCH  65  82
ENDBRANCH  39  40
ENDBRANCH  31  34
ENDBRANCH  29  30
ENDBRANCH  28  29
ENDBRANCH  27  28
ENDBRANCH  26  27
ENDBRANCH   1  26
TORSDOF 17
ENDMDL
MODEL 2
REMARK VINA RESULT:     -11.3      4.091      9.170
REMARK SMILES [NH3+][C@@H]1CCC[C@@H](C(=O)N2CCO[C@H](CC(=O)NCCCCCCNC(=O)c3ccc(-c4c5nc(c(-c6c(F)cccc6F)c6ccc([nH]6)c(-c6c(F)cccc6F)c6nc(c(-c7c(F)cccc7F)c7ccc4[nH]7)C=C6)C=C5)cc3)C2)C1
REMARK SMILES IDX 19 1 18 2 17 3 15 4 16 5 14 7 13 8 9 9 10 10 81 11 11 12
REMARK SMILES IDX 12 13 7 14 8 15 6 16 2 17 3 18 82 19 4 20 5 21 1 22 20 26
REMARK SMILES IDX 21 27 22 28 23 29 24 30 25 31 26 33 27 34 28 35 80 36 29 37
REMARK SMILES IDX 79 38 30 39 31 40 32 41 73 42 33 43 78 44 72 45 74 46 34 47
REMARK SMILES IDX 77 48 71 49 70 50 35 52 61 53 44 54 60 55 45 56 48 57 59 58
REMARK SMILES IDX 75 59 46 60 47 61 58 63 76 64 49 65 36 66 37 67 42 68 38 69
REMARK SMILES IDX 39 70 41 71 43 72 40 73 62 74 63 75 68 76 64 77 65 78 67 79
REMARK SMILES IDX 69 80 66 81 50 82 51 83 56 84 52 85 53 86 55 87 57 88 54 89
REMARK H PARENT 17 6 1 23 1 24 1 25 24 32 74 51 48 62
REMARK Flexibility Score: inf
ROOT
ATOM      1  C   UNL A   1      37.419  22.744  25.501  1.00  0.00     0.021 C 
ENDROOT
BRANCH   1   2
ATOM      2  C   UNL A   1      36.372  23.632  26.166  1.00  0.00     0.116 C 
BRANCH   2   3
ATOM      3  N   UNL A   1      35.540  22.872  27.065  1.00  0.00    -0.356 N 
ATOM      4  C   UNL A   1      34.217  22.611  26.995  1.00  0.00     0.222 C 
ATOM      5  O   UNL A   1      33.792  21.687  27.691  1.00  0.00    -0.275 OA
ATOM      6  H   UNL A   1      36.004  22.488  27.844  1.00  0.00     0.163 HD
BRANCH   4   7
ATOM      7  C   UNL A   1      33.314  23.370  26.047  1.00  0.00     0.133 C 
BRANCH   7   8
ATOM      8  C   UNL A   1      33.246  22.862  24.599  1.00  0.00     0.147 C 
ATOM      9  N   UNL A   1      32.758  24.929  23.355  1.00  0.00    -0.338 N 
ATOM     10  C   UNL A   1      31.416  24.450  23.047  1.00  0.00     0.148 C 
ATOM     11  C   UNL A   1      33.724  23.855  23.526  1.00  0.00     0.152 C 
ATOM     12  C   UNL A   1      30.957  23.459  24.119  1.00  0.00     0.182 C 
ATOM     13  O   UNL A   1      31.906  22.393  24.301  1.00  0.00    -0.374 OA
BRANCH   9  14
ATOM     14  C   UNL A   1      33.203  26.133  22.836  1.00  0.00     0.226 C 
ATOM     15  O   UNL A   1      33.836  26.199  21.785  1.00  0.00    -0.275 OA
BRANCH  14  16
ATOM     16  C   UNL A   1      33.106  27.318  23.806  1.00  0.00     0.084 C 
ATOM     17  C   UNL A   1      31.546  28.693  25.315  1.00  0.00     0.181 C 
ATOM     18  C   UNL A   1      32.328  28.205  26.540  1.00  0.00     0.065 C 
ATOM     19  C   UNL A   1      31.659  27.675  24.174  1.00  0.00     0.078 C 
ATOM     20  C   UNL A   1      33.792  27.925  26.219  1.00  0.00     0.007 C 
ATOM     21  C   UNL A   1      33.934  26.964  25.048  1.00  0.00     0.014 C 
BRANCH  17  22
ATOM     22  N   UNL A   1      31.998  30.016  24.882  1.00  0.00    -0.355 N 
ATOM     23  H   UNL A   1      32.247  29.983  23.893  1.00  0.00     0.344 HD
ATOM     24  H   UNL A   1      32.814  30.291  25.429  1.00  0.00     0.344 HD
ATOM     25  H   UNL A   1      31.250  30.694  25.022  1.00  0.00     0.344 HD
ENDBRANCH  17  22
ENDBRANCH  14  16
ENDBRANCH   9  14
ENDBRANCH   7   8
ENDBRANCH   4   7
ENDBRANCH   2   3
ENDBRANCH   1   2
BRANCH   1  26
ATOM     26  C   UNL A   1      36.848  21.739  24.492  1.00  0.00     0.002 C 
BRANCH  26  27
ATOM     27  C   UNL A   1      36.998  20.263  24.880  1.00  0.00     0.002 C 
BRANCH  27  28
ATOM     28  C   UNL A   1      38.410  19.696  24.729  1.00  0.00     0.021 C 
BRANCH  28  29
ATOM     29  C   UNL A   1      39.196  19.628  26.028  1.00  0.00     0.116 C 
BRANCH  29  30
ATOM     30  N   UNL A   1      40.483  18.983  25.847  1.00  0.00    -0.352 N 
ATOM     31  C   UNL A   1      41.734  19.537  25.937  1.00  0.00     0.251 C 
ATOM     32  H   UNL A   1      40.456  18.022  25.634  1.00  0.00     0.163 HD
ATOM     33  O   UNL A   1      42.723  18.919  25.553  1.00  0.00    -0.269 OA
BRANCH  31  34
ATOM     34  C   UNL A   1      41.877  20.903  26.481  1.00  0.00     0.039 A 
ATOM     35  C   UNL A   1      41.816  21.092  27.862  1.00  0.00     0.014 A 
ATOM     36  C   UNL A   1      42.096  21.988  25.625  1.00  0.00     0.014 A 
ATOM     37  C   UNL A   1      42.028  22.365  28.390  1.00  0.00     0.010 A 
ATOM     38  C   UNL A   1      42.393  23.237  26.158  1.00  0.00     0.010 A 
ATOM     39  C   UNL A   1      42.348  23.440  27.544  1.00  0.00    -0.014 A 
BRANCH  39  40
ATOM     40  C   UNL A   1      42.627  24.791  28.092  1.00  0.00     0.031 A 
ATOM     41  C   UNL A   1      44.018  25.155  28.528  1.00  0.00     0.074 A 
ATOM     42  C   UNL A   1      41.617  25.668  28.248  1.00  0.00     0.049 A 
ATOM     43  N   UNL A   1      44.451  26.264  29.071  1.00  0.00    -0.248 NA
ATOM     44  C   UNL A   1      45.054  24.124  28.360  1.00  0.00     0.031 C 
ATOM     45  C   UNL A   1      40.217  25.416  27.903  1.00  0.00     0.029 A 
ATOM     46  N   UNL A   1      41.614  26.948  28.741  1.00  0.00    -0.354 N 
ATOM     47  C   UNL A   1      45.803  26.060  29.318  1.00  0.00     0.074 A 
ATOM     48  C   UNL A   1      46.102  24.699  28.928  1.00  0.00     0.031 C 
ATOM     49  C   UNL A   1      39.496  26.519  28.164  1.00  0.00     0.029 A 
ATOM     50  C   UNL A   1      40.374  27.538  28.732  1.00  0.00     0.049 A 
ATOM     51  H   UNL A   1      42.424  27.401  29.071  1.00  0.00     0.167 HD
ATOM     52  C   UNL A   1      46.718  26.934  29.799  1.00  0.00     0.037 A 
ATOM     53  C   UNL A   1      39.987  28.761  29.140  1.00  0.00     0.037 A 
ATOM     54  C   UNL A   1      46.416  28.290  30.176  1.00  0.00     0.049 A 
ATOM     55  C   UNL A   1      41.015  29.706  29.699  1.00  0.00     0.074 A 
ATOM     56  C   UNL A   1      47.279  29.274  30.624  1.00  0.00     0.029 A 
ATOM     57  N   UNL A   1      45.146  28.849  30.158  1.00  0.00    -0.354 N 
ATOM     58  N   UNL A   1      42.304  29.526  29.860  1.00  0.00    -0.248 NA
ATOM     59  C   UNL A   1      40.534  31.026  30.128  1.00  0.00     0.031 C 
ATOM     60  C   UNL A   1      46.523  30.410  30.932  1.00  0.00     0.029 A 
ATOM     61  C   UNL A   1      45.198  30.156  30.617  1.00  0.00     0.049 A 
ATOM     62  H   UNL A   1      44.329  28.386  29.863  1.00  0.00     0.167 HD
ATOM     63  C   UNL A   1      42.792  30.718  30.380  1.00  0.00     0.074 A 
ATOM     64  C   UNL A   1      41.662  31.617  30.495  1.00  0.00     0.031 C 
ATOM     65  C   UNL A   1      44.063  31.040  30.727  1.00  0.00     0.037 A 
BRANCH  52  66
ATOM     66  C   UNL A   1      48.129  26.437  29.955  1.00  0.00     0.057 A 
ATOM     67  C   UNL A   1      49.078  26.564  28.931  1.00  0.00     0.134 A 
ATOM     68  C   UNL A   1      48.545  25.824  31.142  1.00  0.00     0.134 A 
ATOM     69  F   UNL A   1      48.745  27.130  27.759  1.00  0.00    -0.206 F 
ATOM     70  C   UNL A   1      50.374  26.061  29.066  1.00  0.00     0.040 A 
ATOM     71  C   UNL A   1      49.847  25.349  31.303  1.00  0.00     0.040 A 
ATOM     72  F   UNL A   1      47.692  25.675  32.168  1.00  0.00    -0.206 F 
ATOM     73  C   UNL A   1      50.763  25.455  30.259  1.00  0.00     0.006 A 
ENDBRANCH  52  66
BRANCH  53  74
ATOM     74  C   UNL A   1      38.568  29.171  29.001  1.00  0.00     0.057 A 
ATOM     75  C   UNL A   1      37.696  29.131  30.095  1.00  0.00     0.134 A 
ATOM     76  C   UNL A   1      38.051  29.624  27.781  1.00  0.00     0.134 A 
ATOM     77  F   UNL A   1      38.128  28.692  31.286  1.00  0.00    -0.206 F 
ATOM     78  C   UNL A   1      36.359  29.513  29.979  1.00  0.00     0.040 A 
ATOM     79  C   UNL A   1      36.721  30.032  27.657  1.00  0.00     0.040 A 
ATOM     80  F   UNL A   1      38.836  29.694  26.696  1.00  0.00    -0.206 F 
ATOM     81  C   UNL A   1      35.870  29.972  28.758  1.00  0.00     0.006 A 
ENDBRANCH  53  74
BRANCH  65  82
ATOM     82  C   UNL A   1      44.306  32.434  31.231  1.00  0.00     0.057 A 
ATOM     83  C   UNL A   1      44.585  33.499  30.367  1.00  0.00     0.134 A 
ATOM     84  C   UNL A   1      44.220  32.718  32.601  1.00  0.00     0.134 A 
ATOM     85  F   UNL A   1      44.693  33.293  29.045  1.00  0.00    -0.206 F 
ATOM     86  C   UNL A   1      44.795  34.793  30.849  1.00  0.00     0.040 A 
ATOM     87  C   UNL A   1      44.398  34.012  33.091  1.00  0.00     0.040 A 
ATOM     88  F   UNL A   1      43.947  31.746  33.483  1.00  0.00    -0.206 F 
ATOM     89  C   UNL A   1      44.694  35.053  32.213  1.00  0.00     0.006 A 
ENDBRANCH  65  82
ENDBRANCH  39  40
ENDBRANCH  31  34
ENDBRANCH  29  30
ENDBRANCH  28  29
ENDBRANCH  27  28
ENDBRANCH  26  27
ENDBRANCH   1  26
TORSDOF 17
ENDMDL
MODEL 3
REMARK VINA RESULT:     -11.3      1.154      6.342
REMARK SMILES [NH3+][C@@H]1CCC[C@@H](C(=O)N2CCO[C@H](CC(=O)NCCCCCCNC(=O)c3ccc(-c4c5nc(c(-c6c(F)cccc6F)c6ccc([nH]6)c(-c6c(F)cccc6F)c6nc(c(-c7c(F)cccc7F)c7ccc4[nH]7)C=C6)C=C5)cc3)C2)C1
REMARK SMILES IDX 19 1 18 2 17 3 15 4 16 5 14 7 13 8 9 9 10 10 81 11 11 12
REMARK SMILES IDX 12 13 7 14 8 15 6 16 2 17 3 18 82 19 4 20 5 21 1 22 20 26
REMARK SMILES IDX 21 27 22 28 23 29 24 30 25 31 26 33 27 34 28 35 80 36 29 37
REMARK SMILES IDX 79 38 30 39 31 40 32 41 73 42 33 43 78 44 72 45 74 46 34 47
REMARK SMILES IDX 77 48 71 49 70 50 35 52 61 53 44 54 60 55 45 56 48 57 59 58
REMARK SMILES IDX 75 59 46 60 47 61 58 63 76 64 49 65 36 66 37 67 42 68 38 69
REMARK SMILES IDX 39 70 41 71 43 72 40 73 62 74 63 75 68 76 64 77 65 78 67 79
REMARK SMILES IDX 69 80 66 81 50 82 51 83 56 84 52 85 53 86 55 87 57 88 54 89
REMARK H PARENT 17 6 1 23 1 24 1 25 24 32 74 51 48 62
REMARK Flexibility Score: inf
ROOT
ATOM      1  C   UNL A   1      33.696  29.493  27.102  1.00  0.00     0.021 C 
ENDROOT
BRANCH   1   2
ATOM      2  C   UNL A   1      34.132  28.415  26.116  1.00  0.00     0.116 C 
BRANCH   2   3
ATOM      3  N   UNL A   1      34.109  28.908  24.762  1.00  0.00    -0.356 N 
ATOM      4  C   UNL A   1      33.497  28.395  23.672  1.00  0.00     0.222 C 
ATOM      5  O   UNL A   1      33.351  29.147  22.708  1.00  0.00    -0.275 OA
ATOM      6  H   UNL A   1      34.613  29.740  24.608  1.00  0.00     0.163 HD
BRANCH   4   7
ATOM      7  C   UNL A   1      32.948  26.985  23.669  1.00  0.00     0.133 C 
BRANCH   7   8
ATOM      8  C   UNL A   1      31.521  26.795  24.205  1.00  0.00     0.147 C 
ATOM      9  N   UNL A   1      31.672  24.589  25.286  1.00  0.00    -0.338 N 
ATOM     10  C   UNL A   1      30.817  24.006  24.259  1.00  0.00     0.148 C 
ATOM     11  C   UNL A   1      31.407  26.000  25.517  1.00  0.00     0.152 C 
ATOM     12  C   UNL A   1      30.936  24.809  22.962  1.00  0.00     0.182 C 
ATOM     13  O   UNL A   1      30.681  26.209  23.178  1.00  0.00    -0.374 OA
BRANCH   9  14
ATOM     14  C   UNL A   1      32.099  23.819  26.355  1.00  0.00     0.226 C 
ATOM     15  O   UNL A   1      31.510  23.813  27.433  1.00  0.00    -0.275 OA
BRANCH  14  16
ATOM     16  C   UNL A   1      33.502  23.222  26.188  1.00  0.00     0.084 C 
ATOM     17  C   UNL A   1      34.998  21.711  24.746  1.00  0.00     0.181 C 
ATOM     18  C   UNL A   1      35.855  22.930  24.387  1.00  0.00     0.065 C 
ATOM     19  C   UNL A   1      33.570  22.150  25.091  1.00  0.00     0.078 C 
ATOM     20  C   UNL A   1      35.874  23.973  25.500  1.00  0.00     0.007 C 
ATOM     21  C   UNL A   1      34.465  24.382  25.906  1.00  0.00     0.014 C 
BRANCH  17  22
ATOM     22  N   UNL A   1      35.588  20.944  25.843  1.00  0.00    -0.355 N 
ATOM     23  H   UNL A   1      36.526  20.642  25.580  1.00  0.00     0.344 HD
ATOM     24  H   UNL A   1      35.009  20.126  26.036  1.00  0.00     0.344 HD
ATOM     25  H   UNL A   1      35.640  21.528  26.678  1.00  0.00     0.344 HD
ENDBRANCH  17  22
ENDBRANCH  14  16
ENDBRANCH   9  14
ENDBRANCH   7   8
ENDBRANCH   4   7
ENDBRANCH   2   3
ENDBRANCH   1   2
BRANCH   1  26
ATOM     26  C   UNL A   1      32.177  29.696  27.190  1.00  0.00     0.002 C 
BRANCH  26  27
ATOM     27  C   UNL A   1      31.588  30.688  26.181  1.00  0.00     0.002 C 
BRANCH  27  28
ATOM     28  C   UNL A   1      31.411  32.114  26.705  1.00  0.00     0.021 C 
BRANCH  28  29
ATOM     29  C   UNL A   1      32.687  32.743  27.239  1.00  0.00     0.116 C 
BRANCH  29  30
ATOM     30  N   UNL A   1      32.462  34.094  27.723  1.00  0.00    -0.352 N 
ATOM     31  C   UNL A   1      33.132  34.768  28.710  1.00  0.00     0.251 C 
ATOM     32  H   UNL A   1      31.734  34.591  27.284  1.00  0.00     0.163 HD
ATOM     33  O   UNL A   1      32.695  35.826  29.153  1.00  0.00    -0.269 OA
BRANCH  31  34
ATOM     34  C   UNL A   1      34.379  34.193  29.254  1.00  0.00     0.039 A 
ATOM     35  C   UNL A   1      34.312  33.375  30.383  1.00  0.00     0.014 A 
ATOM     36  C   UNL A   1      35.606  34.443  28.631  1.00  0.00     0.014 A 
ATOM     37  C   UNL A   1      35.472  32.764  30.858  1.00  0.00     0.010 A 
ATOM     38  C   UNL A   1      36.744  33.765  29.053  1.00  0.00     0.010 A 
ATOM     39  C   UNL A   1      36.690  32.930  30.178  1.00  0.00    -0.014 A 
BRANCH  39  40
ATOM     40  C   UNL A   1      37.925  32.247  30.638  1.00  0.00     0.031 A 
ATOM     41  C   UNL A   1      38.745  32.841  31.748  1.00  0.00     0.074 A 
ATOM     42  C   UNL A   1      38.337  31.126  30.017  1.00  0.00     0.049 A 
ATOM     43  N   UNL A   1      39.874  32.421  32.258  1.00  0.00    -0.248 NA
ATOM     44  C   UNL A   1      38.245  34.090  32.344  1.00  0.00     0.031 C 
ATOM     45  C   UNL A   1      37.651  30.477  28.899  1.00  0.00     0.029 A 
ATOM     46  N   UNL A   1      39.435  30.334  30.239  1.00  0.00    -0.354 N 
ATOM     47  C   UNL A   1      40.223  33.357  33.224  1.00  0.00     0.074 A 
ATOM     48  C   UNL A   1      39.221  34.401  33.181  1.00  0.00     0.031 C 
ATOM     49  C   UNL A   1      38.326  29.368  28.554  1.00  0.00     0.029 A 
ATOM     50  C   UNL A   1      39.512  29.252  29.398  1.00  0.00     0.049 A 
ATOM     51  H   UNL A   1      40.105  30.524  30.935  1.00  0.00     0.167 HD
ATOM     52  C   UNL A   1      41.266  33.336  34.087  1.00  0.00     0.037 A 
ATOM     53  C   UNL A   1      40.437  28.276  29.313  1.00  0.00     0.037 A 
ATOM     54  C   UNL A   1      42.253  32.290  34.132  1.00  0.00     0.049 A 
ATOM     55  C   UNL A   1      41.603  28.289  30.262  1.00  0.00     0.074 A 
ATOM     56  C   UNL A   1      43.319  32.145  35.002  1.00  0.00     0.029 A 
ATOM     57  N   UNL A   1      42.300  31.212  33.259  1.00  0.00    -0.354 N 
ATOM     58  N   UNL A   1      41.883  29.141  31.219  1.00  0.00    -0.248 NA
ATOM     59  C   UNL A   1      42.579  27.200  30.122  1.00  0.00     0.031 C 
ATOM     60  C   UNL A   1      44.045  31.011  34.619  1.00  0.00     0.029 A 
ATOM     61  C   UNL A   1      43.396  30.414  33.550  1.00  0.00     0.049 A 
ATOM     62  H   UNL A   1      41.651  31.040  32.539  1.00  0.00     0.167 HD
ATOM     63  C   UNL A   1      43.049  28.676  31.813  1.00  0.00     0.074 A 
ATOM     64  C   UNL A   1      43.416  27.460  31.116  1.00  0.00     0.031 C 
ATOM     65  C   UNL A   1      43.750  29.206  32.847  1.00  0.00     0.037 A 
BRANCH  52  66
ATOM     66  C   UNL A   1      41.392  34.491  35.042  1.00  0.00     0.057 A 
ATOM     67  C   UNL A   1      40.782  34.481  36.305  1.00  0.00     0.134 A 
ATOM     68  C   UNL A   1      42.132  35.628  34.696  1.00  0.00     0.134 A 
ATOM     69  F   UNL A   1      40.047  33.428  36.698  1.00  0.00    -0.206 F 
ATOM     70  C   UNL A   1      40.868  35.574  37.168  1.00  0.00     0.040 A 
ATOM     71  C   UNL A   1      42.254  36.714  35.564  1.00  0.00     0.040 A 
ATOM     72  F   UNL A   1      42.749  35.704  33.507  1.00  0.00    -0.206 F 
ATOM     73  C   UNL A   1      41.610  36.694  36.800  1.00  0.00     0.006 A 
ENDBRANCH  52  66
BRANCH  53  74
ATOM     74  C   UNL A   1      40.275  27.190  28.315  1.00  0.00     0.057 A 
ATOM     75  C   UNL A   1      39.507  26.056  28.604  1.00  0.00     0.134 A 
ATOM     76  C   UNL A   1      40.868  27.262  27.049  1.00  0.00     0.134 A 
ATOM     77  F   UNL A   1      38.927  25.922  29.805  1.00  0.00    -0.206 F 
ATOM     78  C   UNL A   1      39.347  25.026  27.675  1.00  0.00     0.040 A 
ATOM     79  C   UNL A   1      40.695  26.251  26.102  1.00  0.00     0.040 A 
ATOM     80  F   UNL A   1      41.608  28.327  26.707  1.00  0.00    -0.206 F 
ATOM     81  C   UNL A   1      39.937  25.125  26.417  1.00  0.00     0.006 A 
ENDBRANCH  53  74
BRANCH  65  82
ATOM     82  C   UNL A   1      44.966  28.456  33.309  1.00  0.00     0.057 A 
ATOM     83  C   UNL A   1      46.243  28.722  32.800  1.00  0.00     0.134 A 
ATOM     84  C   UNL A   1      44.860  27.479  34.308  1.00  0.00     0.134 A 
ATOM     85  F   UNL A   1      46.412  29.637  31.833  1.00  0.00    -0.206 F 
ATOM     86  C   UNL A   1      47.367  28.027  33.249  1.00  0.00     0.040 A 
ATOM     87  C   UNL A   1      45.981  26.799  34.787  1.00  0.00     0.040 A 
ATOM     88  F   UNL A   1      43.669  27.180  34.847  1.00  0.00    -0.206 F 
ATOM     89  C   UNL A   1      47.238  27.068  34.251  1.00  0.00     0.006 A 
ENDBRANCH  65  82
ENDBRANCH  39  40
ENDBRANCH  31  34
ENDBRANCH  29  30
ENDBRANCH  28  29
ENDBRANCH  27  28
ENDBRANCH  26  27
ENDBRANCH   1  26
TORSDOF 17
ENDMDL
