MODEL 1
REMARK VINA RESULT:      -9.9      0.000      0.000
REMARK SMILES CC(C)([NH2+]C[C@@H]1CCCO1)C(=O)NCCCCCCNC(=O)c1ccc(-c2c3nc(c(-c4c(F)cccc4F)c4ccc([nH]4)c(-c4c(F)cccc4F)c4nc(c(-c5c(F)cccc5F)c5ccc2[nH]5)C=C4)C=C3)cc1
REMARK SMILES IDX 16 1 15 2 14 3 13 4 11 5 12 6 2 8 1 9 3 10 4 11 5 14 6 15
REMARK SMILES IDX 7 16 10 17 8 18 9 19 17 20 18 21 19 22 20 23 21 24 22 26
REMARK SMILES IDX 23 27 24 28 76 29 25 30 75 31 26 32 27 33 28 34 69 35 29 36
REMARK SMILES IDX 74 37 68 38 70 39 30 40 73 41 67 42 66 43 31 45 57 46 40 47
REMARK SMILES IDX 56 48 41 49 44 50 55 51 71 52 42 53 43 54 54 56 72 57 45 58
REMARK SMILES IDX 32 59 33 60 38 61 34 62 35 63 37 64 39 65 36 66 58 67 59 68
REMARK SMILES IDX 64 69 60 70 61 71 63 72 65 73 62 74 46 75 47 76 52 77 48 78
REMARK SMILES IDX 49 79 51 80 53 81 50 82
REMARK H PARENT 13 7 4 12 4 13 20 25 70 44 44 55
REMARK Flexibility Score: inf
ROOT
ATOM      1  C   UNL A   1      37.945  23.529  25.725  1.00  0.00     0.002 C 
ENDROOT
BRANCH   1   2
ATOM      2  C   UNL A   1      36.937  23.058  24.677  1.00  0.00     0.021 C 
BRANCH   2   3
ATOM      3  C   UNL A   1      35.552  23.700  24.822  1.00  0.00     0.116 C 
BRANCH   3   4
ATOM      4  N   UNL A   1      34.930  23.834  23.521  1.00  0.00    -0.351 N 
ATOM      5  C   UNL A   1      33.907  23.178  22.908  1.00  0.00     0.280 C 
ATOM      6  O   UNL A   1      33.817  23.417  21.694  1.00  0.00    -0.268 OA
ATOM      7  H   UNL A   1      35.328  24.544  22.968  1.00  0.00     0.163 HD
BRANCH   5   8
ATOM      8  C   UNL A   1      32.860  22.265  23.639  1.00  0.00     0.169 C 
ATOM      9  C   UNL A   1      32.070  21.552  22.495  1.00  0.00     0.090 C 
ATOM     10  C   UNL A   1      31.806  23.074  24.402  1.00  0.00     0.090 C 
BRANCH   8  11
ATOM     11  N   UNL A   1      33.423  21.100  24.372  1.00  0.00    -0.332 N 
ATOM     12  H   UNL A   1      33.696  21.449  25.290  1.00  0.00     0.347 HD
ATOM     13  H   UNL A   1      34.139  20.773  23.722  1.00  0.00     0.347 HD
BRANCH  11  14
ATOM     14  C   UNL A   1      32.667  19.881  24.613  1.00  0.00     0.293 C 
BRANCH  14  15
ATOM     15  C   UNL A   1      33.406  18.527  24.722  1.00  0.00     0.173 C 
ATOM     16  C   UNL A   1      33.461  17.708  23.442  1.00  0.00     0.040 C 
ATOM     17  O   UNL A   1      32.868  17.659  25.733  1.00  0.00    -0.372 OA
ATOM     18  C   UNL A   1      33.686  16.313  23.976  1.00  0.00     0.031 C 
ATOM     19  C   UNL A   1      32.831  16.319  25.222  1.00  0.00     0.161 C 
ENDBRANCH  14  15
ENDBRANCH  11  14
ENDBRANCH   8  11
ENDBRANCH   5   8
ENDBRANCH   3   4
ENDBRANCH   2   3
ENDBRANCH   1   2
BRANCH   1  20
ATOM     20  C   UNL A   1      38.792  22.408  26.336  1.00  0.00     0.002 C 
BRANCH  20  21
ATOM     21  C   UNL A   1      38.950  21.151  25.471  1.00  0.00     0.021 C 
BRANCH  21  22
ATOM     22  C   UNL A   1      39.219  19.858  26.239  1.00  0.00     0.116 C 
BRANCH  22  23
ATOM     23  N   UNL A   1      40.471  19.235  25.843  1.00  0.00    -0.352 N 
ATOM     24  C   UNL A   1      41.745  19.742  25.809  1.00  0.00     0.251 C 
ATOM     25  H   UNL A   1      40.392  18.298  25.553  1.00  0.00     0.163 HD
ATOM     26  O   UNL A   1      42.633  19.114  25.244  1.00  0.00    -0.269 OA
BRANCH  24  27
ATOM     27  C   UNL A   1      42.059  21.045  26.435  1.00  0.00     0.039 A 
ATOM     28  C   UNL A   1      42.440  22.107  25.609  1.00  0.00     0.014 A 
ATOM     29  C   UNL A   1      42.037  21.214  27.823  1.00  0.00     0.014 A 
ATOM     30  C   UNL A   1      42.751  23.347  26.168  1.00  0.00     0.010 A 
ATOM     31  C   UNL A   1      42.289  22.470  28.377  1.00  0.00     0.010 A 
ATOM     32  C   UNL A   1      42.652  23.547  27.555  1.00  0.00    -0.014 A 
BRANCH  32  33
ATOM     33  C   UNL A   1      42.910  24.885  28.142  1.00  0.00     0.031 A 
ATOM     34  C   UNL A   1      44.294  25.285  28.570  1.00  0.00     0.074 A 
ATOM     35  C   UNL A   1      41.879  25.733  28.324  1.00  0.00     0.049 A 
ATOM     36  N   UNL A   1      44.702  26.414  29.094  1.00  0.00    -0.248 NA
ATOM     37  C   UNL A   1      45.355  24.280  28.410  1.00  0.00     0.031 C 
ATOM     38  C   UNL A   1      40.479  25.440  28.006  1.00  0.00     0.029 A 
ATOM     39  N   UNL A   1      41.847  27.010  28.821  1.00  0.00    -0.354 N 
ATOM     40  C   UNL A   1      46.061  26.252  29.333  1.00  0.00     0.074 A 
ATOM     41  C   UNL A   1      46.399  24.900  28.941  1.00  0.00     0.031 C 
ATOM     42  C   UNL A   1      39.730  26.519  28.289  1.00  0.00     0.029 A 
ATOM     43  C   UNL A   1      40.590  27.566  28.830  1.00  0.00     0.049 A 
ATOM     44  H   UNL A   1      42.649  27.485  29.141  1.00  0.00     0.167 HD
ATOM     45  C   UNL A   1      46.950  27.155  29.813  1.00  0.00     0.037 A 
ATOM     46  C   UNL A   1      40.179  28.785  29.224  1.00  0.00     0.037 A 
ATOM     47  C   UNL A   1      46.618  28.506  30.182  1.00  0.00     0.049 A 
ATOM     48  C   UNL A   1      41.189  29.776  29.728  1.00  0.00     0.074 A 
ATOM     49  C   UNL A   1      47.459  29.515  30.617  1.00  0.00     0.029 A 
ATOM     50  N   UNL A   1      45.338  29.039  30.158  1.00  0.00    -0.354 N 
ATOM     51  N   UNL A   1      42.483  29.633  29.877  1.00  0.00    -0.248 NA
ATOM     52  C   UNL A   1      40.681  31.101  30.109  1.00  0.00     0.031 C 
ATOM     53  C   UNL A   1      46.683  30.646  30.892  1.00  0.00     0.029 A 
ATOM     54  C   UNL A   1      45.364  30.355  30.590  1.00  0.00     0.049 A 
ATOM     55  H   UNL A   1      44.529  28.553  29.877  1.00  0.00     0.167 HD
ATOM     56  C   UNL A   1      42.946  30.852  30.351  1.00  0.00     0.074 A 
ATOM     57  C   UNL A   1      41.798  31.730  30.442  1.00  0.00     0.031 C 
ATOM     58  C   UNL A   1      44.211  31.213  30.683  1.00  0.00     0.037 A 
BRANCH  45  59
ATOM     59  C   UNL A   1      48.375  26.708  29.963  1.00  0.00     0.057 A 
ATOM     60  C   UNL A   1      49.326  26.928  28.957  1.00  0.00     0.134 A 
ATOM     61  C   UNL A   1      48.811  26.083  31.139  1.00  0.00     0.134 A 
ATOM     62  F   UNL A   1      48.971  27.511  27.802  1.00  0.00    -0.206 F 
ATOM     63  C   UNL A   1      50.653  26.522  29.106  1.00  0.00     0.040 A 
ATOM     64  C   UNL A   1      50.141  25.696  31.309  1.00  0.00     0.040 A 
ATOM     65  F   UNL A   1      47.955  25.848  32.144  1.00  0.00    -0.206 F 
ATOM     66  C   UNL A   1      51.066  25.909  30.288  1.00  0.00     0.006 A 
ENDBRANCH  45  59
BRANCH  46  67
ATOM     67  C   UNL A   1      38.745  29.150  29.120  1.00  0.00     0.057 A 
ATOM     68  C   UNL A   1      37.907  29.106  30.241  1.00  0.00     0.134 A 
ATOM     69  C   UNL A   1      38.177  29.546  27.904  1.00  0.00     0.134 A 
ATOM     70  F   UNL A   1      38.390  28.716  31.429  1.00  0.00    -0.206 F 
ATOM     71  C   UNL A   1      36.552  29.428  30.153  1.00  0.00     0.040 A 
ATOM     72  C   UNL A   1      36.829  29.893  27.806  1.00  0.00     0.040 A 
ATOM     73  F   UNL A   1      38.930  29.616  26.796  1.00  0.00    -0.206 F 
ATOM     74  C   UNL A   1      36.011  29.828  28.933  1.00  0.00     0.006 A 
ENDBRANCH  46  67
BRANCH  58  75
ATOM     75  C   UNL A   1      44.409  32.620  31.164  1.00  0.00     0.057 A 
ATOM     76  C   UNL A   1      44.675  33.671  30.276  1.00  0.00     0.134 A 
ATOM     77  C   UNL A   1      44.325  32.928  32.528  1.00  0.00     0.134 A 
ATOM     78  F   UNL A   1      44.782  33.438  28.960  1.00  0.00    -0.206 F 
ATOM     79  C   UNL A   1      44.882  34.974  30.732  1.00  0.00     0.040 A 
ATOM     80  C   UNL A   1      44.506  34.232  32.992  1.00  0.00     0.040 A 
ATOM     81  F   UNL A   1      44.066  31.969  33.428  1.00  0.00    -0.206 F 
ATOM     82  C   UNL A   1      44.792  35.257  32.093  1.00  0.00     0.006 A 
ENDBRANCH  58  75
ENDBRANCH  32  33
ENDBRANCH  24  27
ENDBRANCH  22  23
ENDBRANCH  21  22
ENDBRANCH  20  21
ENDBRANCH   1  20
TORSDOF 16
ENDMDL
MODEL 2
REMARK VINA RESULT:      -9.9      4.788      9.709
REMARK SMILES CC(C)([NH2+]C[C@@H]1CCCO1)C(=O)NCCCCCCNC(=O)c1ccc(-c2c3nc(c(-c4c(F)cccc4F)c4ccc([nH]4)c(-c4c(F)cccc4F)c4nc(c(-c5c(F)cccc5F)c5ccc2[nH]5)C=C4)C=C3)cc1
REMARK SMILES IDX 16 1 15 2 14 3 13 4 11 5 12 6 2 8 1 9 3 10 4 11 5 14 6 15
REMARK SMILES IDX 7 16 10 17 8 18 9 19 17 20 18 21 19 22 20 23 21 24 22 26
REMARK SMILES IDX 23 27 24 28 76 29 25 30 75 31 26 32 27 33 28 34 69 35 29 36
REMARK SMILES IDX 74 37 68 38 70 39 30 40 73 41 67 42 66 43 31 45 57 46 40 47
REMARK SMILES IDX 56 48 41 49 44 50 55 51 71 52 42 53 43 54 54 56 72 57 45 58
REMARK SMILES IDX 32 59 33 60 38 61 34 62 35 63 37 64 39 65 36 66 58 67 59 68
REMARK SMILES IDX 64 69 60 70 61 71 63 72 65 73 62 74 46 75 47 76 52 77 48 78
REMARK SMILES IDX 49 79 51 80 53 81 50 82
REMARK H PARENT 13 7 4 12 4 13 20 25 70 44 44 55
REMARK Flexibility Score: inf
ROOT
ATOM      1  C   UNL A   1      33.162  30.166  27.257  1.00  0.00     0.002 C 
ENDROOT
BRANCH   1   2
ATOM      2  C   UNL A   1      33.828  29.053  26.447  1.00  0.00     0.021 C 
BRANCH   2   3
ATOM      3  C   UNL A   1      33.076  27.718  26.502  1.00  0.00     0.116 C 
BRANCH   3   4
ATOM      4  N   UNL A   1      33.722  26.750  25.640  1.00  0.00    -0.351 N 
ATOM      5  C   UNL A   1      33.644  26.497  24.305  1.00  0.00     0.280 C 
ATOM      6  O   UNL A   1      34.171  25.425  23.968  1.00  0.00    -0.268 OA
ATOM      7  H   UNL A   1      34.344  26.155  26.117  1.00  0.00     0.163 HD
BRANCH   5   8
ATOM      8  C   UNL A   1      33.037  27.476  23.239  1.00  0.00     0.169 C 
ATOM      9  C   UNL A   1      32.846  26.612  21.951  1.00  0.00     0.090 C 
ATOM     10  C   UNL A   1      34.016  28.583  22.832  1.00  0.00     0.090 C 
BRANCH   8  11
ATOM     11  N   UNL A   1      31.641  27.922  23.498  1.00  0.00    -0.332 N 
ATOM     12  H   UNL A   1      31.717  28.808  23.998  1.00  0.00     0.347 HD
ATOM     13  H   UNL A   1      31.248  27.107  23.969  1.00  0.00     0.347 HD
BRANCH  11  14
ATOM     14  C   UNL A   1      30.676  28.141  22.433  1.00  0.00     0.293 C 
BRANCH  14  15
ATOM     15  C   UNL A   1      29.892  29.473  22.368  1.00  0.00     0.173 C 
ATOM     16  C   UNL A   1      29.710  30.189  23.698  1.00  0.00     0.040 C 
ATOM     17  O   UNL A   1      28.580  29.341  21.799  1.00  0.00    -0.372 OA
ATOM     18  C   UNL A   1      28.501  31.052  23.422  1.00  0.00     0.031 C 
ATOM     19  C   UNL A   1      27.662  30.138  22.560  1.00  0.00     0.161 C 
ENDBRANCH  14  15
ENDBRANCH  11  14
ENDBRANCH   8  11
ENDBRANCH   5   8
ENDBRANCH   3   4
ENDBRANCH   2   3
ENDBRANCH   1   2
BRANCH   1  20
ATOM     20  C   UNL A   1      31.781  30.582  26.740  1.00  0.00     0.002 C 
BRANCH  20  21
ATOM     21  C   UNL A   1      31.443  32.072  26.875  1.00  0.00     0.021 C 
BRANCH  21  22
ATOM     22  C   UNL A   1      32.637  33.023  26.795  1.00  0.00     0.116 C 
BRANCH  22  23
ATOM     23  N   UNL A   1      32.455  34.202  27.625  1.00  0.00    -0.352 N 
ATOM     24  C   UNL A   1      33.076  34.576  28.789  1.00  0.00     0.251 C 
ATOM     25  H   UNL A   1      31.775  34.836  27.298  1.00  0.00     0.163 HD
ATOM     26  O   UNL A   1      32.628  35.511  29.443  1.00  0.00    -0.269 OA
BRANCH  24  27
ATOM     27  C   UNL A   1      34.275  33.856  29.273  1.00  0.00     0.039 A 
ATOM     28  C   UNL A   1      35.527  34.255  28.797  1.00  0.00     0.014 A 
ATOM     29  C   UNL A   1      34.172  32.764  30.140  1.00  0.00     0.014 A 
ATOM     30  C   UNL A   1      36.678  33.592  29.228  1.00  0.00     0.010 A 
ATOM     31  C   UNL A   1      35.326  32.141  30.616  1.00  0.00     0.010 A 
ATOM     32  C   UNL A   1      36.590  32.547  30.162  1.00  0.00    -0.014 A 
BRANCH  32  33
ATOM     33  C   UNL A   1      37.818  31.891  30.676  1.00  0.00     0.031 A 
ATOM     34  C   UNL A   1      38.457  32.349  31.956  1.00  0.00     0.074 A 
ATOM     35  C   UNL A   1      38.380  30.898  29.961  1.00  0.00     0.049 A 
ATOM     36  N   UNL A   1      39.526  31.887  32.556  1.00  0.00    -0.248 NA
ATOM     37  C   UNL A   1      37.829  33.488  32.642  1.00  0.00     0.031 C 
ATOM     38  C   UNL A   1      37.891  30.402  28.672  1.00  0.00     0.029 A 
ATOM     39  N   UNL A   1      39.486  30.127  30.214  1.00  0.00    -0.354 N 
ATOM     40  C   UNL A   1      39.702  32.681  33.682  1.00  0.00     0.074 A 
ATOM     41  C   UNL A   1      38.658  33.684  33.657  1.00  0.00     0.031 C 
ATOM     42  C   UNL A   1      38.676  29.393  28.263  1.00  0.00     0.029 A 
ATOM     43  C   UNL A   1      39.735  29.187  29.244  1.00  0.00     0.049 A 
ATOM     44  H   UNL A   1      40.048  30.238  31.015  1.00  0.00     0.167 HD
ATOM     45  C   UNL A   1      40.635  32.571  34.659  1.00  0.00     0.037 A 
ATOM     46  C   UNL A   1      40.705  28.258  29.159  1.00  0.00     0.037 A 
ATOM     47  C   UNL A   1      41.658  31.559  34.695  1.00  0.00     0.049 A 
ATOM     48  C   UNL A   1      41.711  28.140  30.269  1.00  0.00     0.074 A 
ATOM     49  C   UNL A   1      42.608  31.325  35.675  1.00  0.00     0.029 A 
ATOM     50  N   UNL A   1      41.867  30.611  33.705  1.00  0.00    -0.354 N 
ATOM     51  N   UNL A   1      41.819  28.850  31.365  1.00  0.00    -0.248 NA
ATOM     52  C   UNL A   1      42.723  27.083  30.133  1.00  0.00     0.031 C 
ATOM     53  C   UNL A   1      43.414  30.260  35.260  1.00  0.00     0.029 A 
ATOM     54  C   UNL A   1      42.941  29.803  34.041  1.00  0.00     0.049 A 
ATOM     55  H   UNL A   1      41.330  30.525  32.884  1.00  0.00     0.167 HD
ATOM     56  C   UNL A   1      42.897  28.317  32.057  1.00  0.00     0.074 A 
ATOM     57  C   UNL A   1      43.394  27.208  31.268  1.00  0.00     0.031 C 
ATOM     58  C   UNL A   1      43.430  28.710  33.240  1.00  0.00     0.037 A 
BRANCH  45  59
ATOM     59  C   UNL A   1      40.585  33.571  35.777  1.00  0.00     0.057 A 
ATOM     60  C   UNL A   1      41.253  34.801  35.696  1.00  0.00     0.134 A 
ATOM     61  C   UNL A   1      39.833  33.320  36.932  1.00  0.00     0.134 A 
ATOM     62  F   UNL A   1      42.000  35.099  34.622  1.00  0.00    -0.206 F 
ATOM     63  C   UNL A   1      41.194  35.734  36.733  1.00  0.00     0.040 A 
ATOM     64  C   UNL A   1      39.746  34.255  37.964  1.00  0.00     0.040 A 
ATOM     65  F   UNL A   1      39.164  32.166  37.072  1.00  0.00    -0.206 F 
ATOM     66  C   UNL A   1      40.433  35.464  37.869  1.00  0.00     0.006 A 
ENDBRANCH  45  59
BRANCH  46  67
ATOM     67  C   UNL A   1      40.749  27.340  27.995  1.00  0.00     0.057 A 
ATOM     68  C   UNL A   1      40.044  26.131  28.004  1.00  0.00     0.134 A 
ATOM     69  C   UNL A   1      41.494  27.645  26.850  1.00  0.00     0.134 A 
ATOM     70  F   UNL A   1      39.327  25.775  29.081  1.00  0.00    -0.206 F 
ATOM     71  C   UNL A   1      40.092  25.248  26.924  1.00  0.00     0.040 A 
ATOM     72  C   UNL A   1      41.532  26.784  25.753  1.00  0.00     0.040 A 
ATOM     73  F   UNL A   1      42.184  28.793  26.778  1.00  0.00    -0.206 F 
ATOM     74  C   UNL A   1      40.834  25.577  25.792  1.00  0.00     0.006 A 
ENDBRANCH  46  67
BRANCH  58  75
ATOM     75  C   UNL A   1      44.602  27.926  33.749  1.00  0.00     0.057 A 
ATOM     76  C   UNL A   1      44.436  26.786  34.548  1.00  0.00     0.134 A 
ATOM     77  C   UNL A   1      45.911  28.308  33.430  1.00  0.00     0.134 A 
ATOM     78  F   UNL A   1      43.208  26.378  34.901  1.00  0.00    -0.206 F 
ATOM     79  C   UNL A   1      45.532  26.074  35.038  1.00  0.00     0.040 A 
ATOM     80  C   UNL A   1      47.014  27.589  33.894  1.00  0.00     0.040 A 
ATOM     81  F   UNL A   1      46.139  29.384  32.664  1.00  0.00    -0.206 F 
ATOM     82  C   UNL A   1      46.825  26.473  34.707  1.00  0.00     0.006 A 
ENDBRANCH  58  75
ENDBRANCH  32  33
ENDBRANCH  24  27
ENDBRANCH  22  23
ENDBRANCH  21  22
ENDBRANCH  20  21
ENDBRANCH   1  20
TORSDOF 16
ENDMDL
MODEL 3
REMARK VINA RESULT:      -9.8      1.766      6.550
REMARK SMILES CC(C)([NH2+]C[C@@H]1CCCO1)C(=O)NCCCCCCNC(=O)c1ccc(-c2c3nc(c(-c4c(F)cccc4F)c4ccc([nH]4)c(-c4c(F)cccc4F)c4nc(c(-c5c(F)cccc5F)c5ccc2[nH]5)C=C4)C=C3)cc1
REMARK SMILES IDX 16 1 15 2 14 3 13 4 11 5 12 6 2 8 1 9 3 10 4 11 5 14 6 15
REMARK SMILES IDX 7 16 10 17 8 18 9 19 17 20 18 21 19 22 20 23 21 24 22 26
REMARK SMILES IDX 23 27 24 28 76 29 25 30 75 31 26 32 27 33 28 34 69 35 29 36
REMARK SMILES IDX 74 37 68 38 70 39 30 40 73 41 67 42 66 43 31 45 57 46 40 47
REMARK SMILES IDX 56 48 41 49 44 50 55 51 71 52 42 53 43 54 54 56 72 57 45 58
REMARK SMILES IDX 32 59 33 60 38 61 34 62 35 63 37 64 39 65 36 66 58 67 59 68
REMARK SMILES IDX 64 69 60 70 61 71 63 72 65 73 62 74 46 75 47 76 52 77 48 78
REMARK SMILES IDX 49 79 51 80 53 81 50 82
REMARK H PARENT 13 7 4 12 4 13 20 25 70 44 44 55
REMARK Flexibility Score: inf
ROOT
ATOM      1  C   UNL A   1      37.024  21.837  24.077  1.00  0.00     0.002 C 
ENDROOT
BRANCH   1   2
ATOM      2  C   UNL A   1      36.418  23.080  24.728  1.00  0.00     0.021 C 
BRANCH   2   3
ATOM      3  C   UNL A   1      35.306  23.731  23.896  1.00  0.00     0.116 C 
BRANCH   3   4
ATOM      4  N   UNL A   1      34.262  24.228  24.768  1.00  0.00    -0.351 N 
ATOM      5  C   UNL A   1      33.182  23.642  25.353  1.00  0.00     0.280 C 
ATOM      6  O   UNL A   1      32.378  24.451  25.842  1.00  0.00    -0.268 OA
ATOM      7  H   UNL A   1      34.352  25.185  24.980  1.00  0.00     0.163 HD
BRANCH   5   8
ATOM      8  C   UNL A   1      32.971  22.093  25.502  1.00  0.00     0.169 C 
ATOM      9  C   UNL A   1      31.438  21.910  25.734  1.00  0.00     0.090 C 
ATOM     10  C   UNL A   1      33.633  21.529  26.764  1.00  0.00     0.090 C 
BRANCH   8  11
ATOM     11  N   UNL A   1      33.175  21.295  24.263  1.00  0.00    -0.332 N 
ATOM     12  H   UNL A   1      34.179  21.123  24.201  1.00  0.00     0.347 HD
ATOM     13  H   UNL A   1      32.718  21.880  23.564  1.00  0.00     0.347 HD
BRANCH  11  14
ATOM     14  C   UNL A   1      32.531  20.011  24.041  1.00  0.00     0.293 C 
BRANCH  14  15
ATOM     15  C   UNL A   1      33.219  18.712  24.523  1.00  0.00     0.173 C 
ATOM     16  C   UNL A   1      33.424  17.646  23.457  1.00  0.00     0.040 C 
ATOM     17  O   UNL A   1      32.535  18.069  25.610  1.00  0.00    -0.372 OA
ATOM     18  C   UNL A   1      33.546  16.394  24.293  1.00  0.00     0.031 C 
ATOM     19  C   UNL A   1      32.535  16.653  25.385  1.00  0.00     0.161 C 
ENDBRANCH  14  15
ENDBRANCH  11  14
ENDBRANCH   8  11
ENDBRANCH   5   8
ENDBRANCH   3   4
ENDBRANCH   2   3
ENDBRANCH   1   2
BRANCH   1  20
ATOM     20  C   UNL A   1      36.610  20.516  24.733  1.00  0.00     0.002 C 
BRANCH  20  21
ATOM     21  C   UNL A   1      37.748  19.523  24.999  1.00  0.00     0.021 C 
BRANCH  21  22
ATOM     22  C   UNL A   1      38.945  20.088  25.763  1.00  0.00     0.116 C 
BRANCH  22  23
ATOM     23  N   UNL A   1      40.034  19.131  25.861  1.00  0.00    -0.352 N 
ATOM     24  C   UNL A   1      41.379  19.329  26.039  1.00  0.00     0.251 C 
ATOM     25  H   UNL A   1      39.762  18.187  25.789  1.00  0.00     0.163 HD
ATOM     26  O   UNL A   1      42.156  18.393  25.887  1.00  0.00    -0.269 OA
BRANCH  24  27
ATOM     27  C   UNL A   1      41.907  20.663  26.402  1.00  0.00     0.039 A 
ATOM     28  C   UNL A   1      42.349  21.505  25.378  1.00  0.00     0.014 A 
ATOM     29  C   UNL A   1      42.022  21.066  27.737  1.00  0.00     0.014 A 
ATOM     30  C   UNL A   1      42.860  22.767  25.686  1.00  0.00     0.010 A 
ATOM     31  C   UNL A   1      42.477  22.349  28.040  1.00  0.00     0.010 A 
ATOM     32  C   UNL A   1      42.904  23.210  27.018  1.00  0.00    -0.014 A 
BRANCH  32  33
ATOM     33  C   UNL A   1      43.378  24.580  27.340  1.00  0.00     0.031 A 
ATOM     34  C   UNL A   1      42.415  25.642  27.789  1.00  0.00     0.074 A 
ATOM     35  C   UNL A   1      44.683  24.874  27.191  1.00  0.00     0.049 A 
ATOM     36  N   UNL A   1      42.654  26.887  28.118  1.00  0.00    -0.248 NA
ATOM     37  C   UNL A   1      40.995  25.267  27.856  1.00  0.00     0.031 C 
ATOM     38  C   UNL A   1      45.709  23.948  26.705  1.00  0.00     0.029 A 
ATOM     39  N   UNL A   1      45.372  26.035  27.431  1.00  0.00    -0.354 N 
ATOM     40  C   UNL A   1      41.419  27.444  28.423  1.00  0.00     0.074 A 
ATOM     41  C   UNL A   1      40.426  26.416  28.193  1.00  0.00     0.031 C 
ATOM     42  C   UNL A   1      46.900  24.568  26.711  1.00  0.00     0.029 A 
ATOM     43  C   UNL A   1      46.719  25.939  27.176  1.00  0.00     0.049 A 
ATOM     44  H   UNL A   1      44.943  26.860  27.757  1.00  0.00     0.167 HD
ATOM     45  C   UNL A   1      41.139  28.691  28.874  1.00  0.00     0.037 A 
ATOM     46  C   UNL A   1      47.699  26.852  27.307  1.00  0.00     0.037 A 
ATOM     47  C   UNL A   1      42.130  29.706  29.123  1.00  0.00     0.049 A 
ATOM     48  C   UNL A   1      47.366  28.219  27.834  1.00  0.00     0.074 A 
ATOM     49  C   UNL A   1      41.953  30.977  29.642  1.00  0.00     0.029 A 
ATOM     50  N   UNL A   1      43.486  29.565  28.871  1.00  0.00    -0.354 N 
ATOM     51  N   UNL A   1      46.202  28.706  28.189  1.00  0.00    -0.248 NA
ATOM     52  C   UNL A   1      48.486  29.158  27.988  1.00  0.00     0.031 C 
ATOM     53  C   UNL A   1      43.196  31.618  29.668  1.00  0.00     0.029 A 
ATOM     54  C   UNL A   1      44.154  30.732  29.205  1.00  0.00     0.049 A 
ATOM     55  H   UNL A   1      43.912  28.755  28.508  1.00  0.00     0.167 HD
ATOM     56  C   UNL A   1      46.451  30.001  28.624  1.00  0.00     0.074 A 
ATOM     57  C   UNL A   1      47.879  30.214  28.511  1.00  0.00     0.031 C 
ATOM     58  C   UNL A   1      45.575  30.931  29.077  1.00  0.00     0.037 A 
BRANCH  45  59
ATOM     59  C   UNL A   1      39.699  29.025  29.133  1.00  0.00     0.057 A 
ATOM     60  C   UNL A   1      38.852  29.476  28.112  1.00  0.00     0.134 A 
ATOM     61  C   UNL A   1      39.143  28.860  30.408  1.00  0.00     0.134 A 
ATOM     62  F   UNL A   1      39.325  29.667  26.870  1.00  0.00    -0.206 F 
ATOM     63  C   UNL A   1      37.510  29.774  28.354  1.00  0.00     0.040 A 
ATOM     64  C   UNL A   1      37.796  29.130  30.656  1.00  0.00     0.040 A 
ATOM     65  F   UNL A   1      39.896  28.425  31.429  1.00  0.00    -0.206 F 
ATOM     66  C   UNL A   1      36.977  29.594  29.630  1.00  0.00     0.006 A 
ENDBRANCH  45  59
BRANCH  46  67
ATOM     67  C   UNL A   1      49.097  26.489  26.969  1.00  0.00     0.057 A 
ATOM     68  C   UNL A   1      49.952  25.941  27.931  1.00  0.00     0.134 A 
ATOM     69  C   UNL A   1      49.610  26.682  25.681  1.00  0.00     0.134 A 
ATOM     70  F   UNL A   1      49.521  25.750  29.187  1.00  0.00    -0.206 F 
ATOM     71  C   UNL A   1      51.275  25.614  27.632  1.00  0.00     0.040 A 
ATOM     72  C   UNL A   1      50.924  26.338  25.361  1.00  0.00     0.040 A 
ATOM     73  F   UNL A   1      48.837  27.196  24.713  1.00  0.00    -0.206 F 
ATOM     74  C   UNL A   1      51.763  25.808  26.340  1.00  0.00     0.006 A 
ENDBRANCH  46  67
BRANCH  58  75
ATOM     75  C   UNL A   1      46.146  32.255  29.489  1.00  0.00     0.057 A 
ATOM     76  C   UNL A   1      46.591  32.490  30.797  1.00  0.00     0.134 A 
ATOM     77  C   UNL A   1      46.260  33.303  28.567  1.00  0.00     0.134 A 
ATOM     78  F   UNL A   1      46.495  31.531  31.730  1.00  0.00    -0.206 F 
ATOM     79  C   UNL A   1      47.101  33.732  31.181  1.00  0.00     0.040 A 
ATOM     80  C   UNL A   1      46.791  34.541  28.933  1.00  0.00     0.040 A 
ATOM     81  F   UNL A   1      45.859  33.141  27.298  1.00  0.00    -0.206 F 
ATOM     82  C   UNL A   1      47.205  34.760  30.246  1.00  0.00     0.006 A 
ENDBRANCH  58  75
ENDBRANCH  32  33
ENDBRANCH  24  27
ENDBRANCH  22  23
ENDBRANCH  21  22
ENDBRANCH  20  21
ENDBRANCH   1  20
TORSDOF 16
ENDMDL
