MODEL 1
REMARK VINA RESULT:     -10.5      0.000      0.000
REMARK SMILES C[N@@H+](CC(=O)NCCCCCCNC(=O)c1ccc(-c2c3nc(c(-c4c(F)cccc4F)c4ccc([nH]4)c(-c4c(F)cccc4F)c4nc(c(-c5c(F)cccc5F)c5ccc2[nH]5)C=C4)C=C3)cc1)Cc1nc(-c2ccsc2)no1
REMARK SMILES IDX 8 1 7 2 6 3 4 4 5 5 3 7 2 8 1 9 70 11 71 12 72 13 80 14
REMARK SMILES IDX 73 15 79 16 74 17 75 18 78 19 76 20 77 21 9 22 10 23 11 24
REMARK SMILES IDX 12 25 13 26 14 27 15 29 16 30 17 31 69 32 18 33 68 34 19 35
REMARK SMILES IDX 20 36 21 37 62 38 22 39 67 40 61 41 63 42 23 43 66 44 60 45
REMARK SMILES IDX 59 46 24 48 50 49 33 50 49 51 34 52 37 53 48 54 64 55 35 56
REMARK SMILES IDX 36 57 47 59 65 60 38 61 25 62 26 63 31 64 27 65 28 66 30 67
REMARK SMILES IDX 32 68 29 69 51 70 52 71 57 72 53 73 54 74 56 75 58 76 55 77
REMARK SMILES IDX 39 78 40 79 45 80 41 81 42 82 44 83 46 84 43 85
REMARK H PARENT 6 6 2 10 13 28 63 47 37 58
REMARK Flexibility Score: inf
ROOT
ATOM      1  C   UNL A   1      36.690  23.249  24.886  1.00  0.00     0.021 C 
ENDROOT
BRANCH   1   2
ATOM      2  C   UNL A   1      35.300  23.467  25.482  1.00  0.00     0.116 C 
BRANCH   2   3
ATOM      3  N   UNL A   1      34.891  24.854  25.403  1.00  0.00    -0.351 N 
ATOM      4  C   UNL A   1      33.704  25.448  25.705  1.00  0.00     0.275 C 
ATOM      5  O   UNL A   1      33.605  26.663  25.513  1.00  0.00    -0.269 OA
ATOM      6  H   UNL A   1      35.586  25.470  25.077  1.00  0.00     0.163 HD
BRANCH   4   7
ATOM      7  C   UNL A   1      32.539  24.652  26.286  1.00  0.00     0.363 C 
BRANCH   7   8
ATOM      8  N   UNL A   1      31.548  24.166  25.320  1.00  0.00    -0.322 N 
ATOM      9  C   UNL A   1      30.638  25.148  24.773  1.00  0.00     0.333 C 
ATOM     10  H   UNL A   1      32.162  23.997  24.524  1.00  0.00     0.348 HD
BRANCH   8  11
ATOM     11  C   UNL A   1      31.014  22.808  25.511  1.00  0.00     0.364 C 
BRANCH  11  12
ATOM     12  C   UNL A   1      31.791  21.641  24.984  1.00  0.00     0.282 A 
ATOM     13  N   UNL A   1      31.771  20.376  25.356  1.00  0.00    -0.186 NA
ATOM     14  O   UNL A   1      32.721  21.893  24.020  1.00  0.00    -0.333 OA
ATOM     15  C   UNL A   1      32.709  19.815  24.526  1.00  0.00     0.203 A 
ATOM     16  N   UNL A   1      33.315  20.676  23.699  1.00  0.00    -0.057 NA
BRANCH  15  17
ATOM     17  C   UNL A   1      33.049  18.393  24.612  1.00  0.00     0.033 A 
ATOM     18  C   UNL A   1      33.836  17.727  23.619  1.00  0.00     0.024 A 
ATOM     19  C   UNL A   1      32.683  17.539  25.630  1.00  0.00     0.077 A 
ATOM     20  C   UNL A   1      34.056  16.403  23.930  1.00  0.00     0.065 A 
ATOM     21  S   UNL A   1      33.301  15.956  25.398  1.00  0.00    -0.152 S 
ENDBRANCH  15  17
ENDBRANCH  11  12
ENDBRANCH   8  11
ENDBRANCH   7   8
ENDBRANCH   4   7
ENDBRANCH   2   3
ENDBRANCH   1   2
BRANCH   1  22
ATOM     22  C   UNL A   1      36.842  21.971  24.055  1.00  0.00     0.002 C 
BRANCH  22  23
ATOM     23  C   UNL A   1      36.798  20.675  24.863  1.00  0.00     0.002 C 
BRANCH  23  24
ATOM     24  C   UNL A   1      38.080  19.839  24.809  1.00  0.00     0.021 C 
BRANCH  24  25
ATOM     25  C   UNL A   1      39.070  20.115  25.936  1.00  0.00     0.116 C 
BRANCH  25  26
ATOM     26  N   UNL A   1      40.209  19.213  25.896  1.00  0.00    -0.352 N 
ATOM     27  C   UNL A   1      41.540  19.500  26.067  1.00  0.00     0.251 C 
ATOM     28  H   UNL A   1      39.996  18.268  25.722  1.00  0.00     0.163 HD
ATOM     29  O   UNL A   1      42.399  18.669  25.796  1.00  0.00    -0.269 OA
BRANCH  27  30
ATOM     30  C   UNL A   1      41.935  20.831  26.570  1.00  0.00     0.039 A 
ATOM     31  C   UNL A   1      42.332  21.812  25.657  1.00  0.00     0.014 A 
ATOM     32  C   UNL A   1      41.907  21.110  27.940  1.00  0.00     0.014 A 
ATOM     33  C   UNL A   1      42.650  23.091  26.116  1.00  0.00     0.010 A 
ATOM     34  C   UNL A   1      42.158  22.404  28.387  1.00  0.00     0.010 A 
ATOM     35  C   UNL A   1      42.538  23.406  27.481  1.00  0.00    -0.014 A 
BRANCH  35  36
ATOM     36  C   UNL A   1      42.822  24.775  27.980  1.00  0.00     0.031 A 
ATOM     37  C   UNL A   1      44.229  25.170  28.334  1.00  0.00     0.074 A 
ATOM     38  C   UNL A   1      41.809  25.640  28.171  1.00  0.00     0.049 A 
ATOM     39  N   UNL A   1      44.670  26.290  28.846  1.00  0.00    -0.248 NA
ATOM     40  C   UNL A   1      45.276  24.160  28.109  1.00  0.00     0.031 C 
ATOM     41  C   UNL A   1      40.396  25.362  27.909  1.00  0.00     0.029 A 
ATOM     42  N   UNL A   1      41.811  26.930  28.642  1.00  0.00    -0.354 N 
ATOM     43  C   UNL A   1      46.037  26.116  29.017  1.00  0.00     0.074 A 
ATOM     44  C   UNL A   1      46.346  24.765  28.605  1.00  0.00     0.031 C 
ATOM     45  C   UNL A   1      39.671  26.454  28.202  1.00  0.00     0.029 A 
ATOM     46  C   UNL A   1      40.561  27.495  28.705  1.00  0.00     0.049 A 
ATOM     47  H   UNL A   1      42.631  27.404  28.909  1.00  0.00     0.167 HD
ATOM     48  C   UNL A   1      46.956  27.010  29.454  1.00  0.00     0.037 A 
ATOM     49  C   UNL A   1      40.176  28.714  29.128  1.00  0.00     0.037 A 
ATOM     50  C   UNL A   1      46.651  28.362  29.839  1.00  0.00     0.049 A 
ATOM     51  C   UNL A   1      41.215  29.686  29.612  1.00  0.00     0.074 A 
ATOM     52  C   UNL A   1      47.520  29.363  30.238  1.00  0.00     0.029 A 
ATOM     53  N   UNL A   1      45.374  28.903  29.872  1.00  0.00    -0.354 N 
ATOM     54  N   UNL A   1      42.513  29.531  29.706  1.00  0.00    -0.248 NA
ATOM     55  C   UNL A   1      40.736  31.007  30.045  1.00  0.00     0.031 C 
ATOM     56  C   UNL A   1      46.764  30.498  30.555  1.00  0.00     0.029 A 
ATOM     57  C   UNL A   1      45.430  30.218  30.306  1.00  0.00     0.049 A 
ATOM     58  H   UNL A   1      44.550  28.425  29.625  1.00  0.00     0.167 HD
ATOM     59  C   UNL A   1      43.009  30.738  30.180  1.00  0.00     0.074 A 
ATOM     60  C   UNL A   1      41.873  31.622  30.342  1.00  0.00     0.031 C 
ATOM     61  C   UNL A   1      44.289  31.086  30.456  1.00  0.00     0.037 A 
BRANCH  48  62
ATOM     62  C   UNL A   1      48.383  26.550  29.536  1.00  0.00     0.057 A 
ATOM     63  C   UNL A   1      48.899  25.943  30.688  1.00  0.00     0.134 A 
ATOM     64  C   UNL A   1      49.242  26.687  28.438  1.00  0.00     0.134 A 
ATOM     65  F   UNL A   1      48.133  25.793  31.779  1.00  0.00    -0.206 F 
ATOM     66  C   UNL A   1      50.225  25.514  30.756  1.00  0.00     0.040 A 
ATOM     67  C   UNL A   1      50.563  26.237  28.485  1.00  0.00     0.040 A 
ATOM     68  F   UNL A   1      48.812  27.254  27.301  1.00  0.00    -0.206 F 
ATOM     69  C   UNL A   1      51.060  25.654  29.649  1.00  0.00     0.006 A 
ENDBRANCH  48  62
BRANCH  49  70
ATOM     70  C   UNL A   1      38.741  29.095  29.091  1.00  0.00     0.057 A 
ATOM     71  C   UNL A   1      38.158  29.593  27.920  1.00  0.00     0.134 A 
ATOM     72  C   UNL A   1      37.923  28.978  30.220  1.00  0.00     0.134 A 
ATOM     73  F   UNL A   1      38.896  29.745  26.811  1.00  0.00    -0.206 F 
ATOM     74  C   UNL A   1      36.818  29.979  27.878  1.00  0.00     0.040 A 
ATOM     75  C   UNL A   1      36.574  29.337  30.186  1.00  0.00     0.040 A 
ATOM     76  F   UNL A   1      38.420  28.499  31.371  1.00  0.00    -0.206 F 
ATOM     77  C   UNL A   1      36.020  29.847  29.013  1.00  0.00     0.006 A 
ENDBRANCH  49  70
BRANCH  61  78
ATOM     78  C   UNL A   1      44.533  32.488  30.929  1.00  0.00     0.057 A 
ATOM     79  C   UNL A   1      44.748  33.544  30.033  1.00  0.00     0.134 A 
ATOM     80  C   UNL A   1      44.515  32.793  32.296  1.00  0.00     0.134 A 
ATOM     81  F   UNL A   1      44.791  33.315  28.712  1.00  0.00    -0.206 F 
ATOM     82  C   UNL A   1      44.957  34.849  30.481  1.00  0.00     0.040 A 
ATOM     83  C   UNL A   1      44.696  34.098  32.755  1.00  0.00     0.040 A 
ATOM     84  F   UNL A   1      44.306  31.830  33.206  1.00  0.00    -0.206 F 
ATOM     85  C   UNL A   1      44.924  35.129  31.847  1.00  0.00     0.006 A 
ENDBRANCH  61  78
ENDBRANCH  35  36
ENDBRANCH  27  30
ENDBRANCH  25  26
ENDBRANCH  24  25
ENDBRANCH  23  24
ENDBRANCH  22  23
ENDBRANCH   1  22
TORSDOF 17
ENDMDL
MODEL 2
REMARK VINA RESULT:     -10.4      1.456      6.396
REMARK SMILES C[N@@H+](CC(=O)NCCCCCCNC(=O)c1ccc(-c2c3nc(c(-c4c(F)cccc4F)c4ccc([nH]4)c(-c4c(F)cccc4F)c4nc(c(-c5c(F)cccc5F)c5ccc2[nH]5)C=C4)C=C3)cc1)Cc1nc(-c2ccsc2)no1
REMARK SMILES IDX 8 1 7 2 6 3 4 4 5 5 3 7 2 8 1 9 70 11 71 12 72 13 80 14
REMARK SMILES IDX 73 15 79 16 74 17 75 18 78 19 76 20 77 21 9 22 10 23 11 24
REMARK SMILES IDX 12 25 13 26 14 27 15 29 16 30 17 31 69 32 18 33 68 34 19 35
REMARK SMILES IDX 20 36 21 37 62 38 22 39 67 40 61 41 63 42 23 43 66 44 60 45
REMARK SMILES IDX 59 46 24 48 50 49 33 50 49 51 34 52 37 53 48 54 64 55 35 56
REMARK SMILES IDX 36 57 47 59 65 60 38 61 25 62 26 63 31 64 27 65 28 66 30 67
REMARK SMILES IDX 32 68 29 69 51 70 52 71 57 72 53 73 54 74 56 75 58 76 55 77
REMARK SMILES IDX 39 78 40 79 45 80 41 81 42 82 44 83 46 84 43 85
REMARK H PARENT 6 6 2 10 13 28 63 47 37 58
REMARK Flexibility Score: inf
ROOT
ATOM      1  C   UNL A   1      36.659  23.131  25.418  1.00  0.00     0.021 C 
ENDROOT
BRANCH   1   2
ATOM      2  C   UNL A   1      35.479  24.101  25.465  1.00  0.00     0.116 C 
BRANCH   2   3
ATOM      3  N   UNL A   1      34.345  23.537  26.168  1.00  0.00    -0.351 N 
ATOM      4  C   UNL A   1      33.017  23.822  26.084  1.00  0.00     0.275 C 
ATOM      5  O   UNL A   1      32.250  23.208  26.829  1.00  0.00    -0.269 OA
ATOM      6  H   UNL A   1      34.572  22.829  26.813  1.00  0.00     0.163 HD
BRANCH   4   7
ATOM      7  C   UNL A   1      32.484  24.846  25.086  1.00  0.00     0.363 C 
BRANCH   7   8
ATOM      8  N   UNL A   1      32.044  24.314  23.792  1.00  0.00    -0.322 N 
ATOM      9  C   UNL A   1      30.634  24.028  23.652  1.00  0.00     0.333 C 
ATOM     10  H   UNL A   1      32.135  25.158  23.227  1.00  0.00     0.348 HD
BRANCH   8  11
ATOM     11  C   UNL A   1      32.971  23.432  23.064  1.00  0.00     0.364 C 
BRANCH  11  12
ATOM     12  C   UNL A   1      32.723  21.955  23.067  1.00  0.00     0.282 A 
ATOM     13  N   UNL A   1      33.099  21.038  23.936  1.00  0.00    -0.186 NA
ATOM     14  O   UNL A   1      32.072  21.428  21.991  1.00  0.00    -0.333 OA
ATOM     15  C   UNL A   1      32.596  19.889  23.380  1.00  0.00     0.203 A 
ATOM     16  N   UNL A   1      31.967  20.058  22.210  1.00  0.00    -0.057 NA
BRANCH  15  17
ATOM     17  C   UNL A   1      32.808  18.582  24.008  1.00  0.00     0.033 A 
ATOM     18  C   UNL A   1      33.336  17.461  23.293  1.00  0.00     0.024 A 
ATOM     19  C   UNL A   1      32.554  18.273  25.327  1.00  0.00     0.077 A 
ATOM     20  C   UNL A   1      33.482  16.352  24.098  1.00  0.00     0.065 A 
ATOM     21  S   UNL A   1      32.966  16.652  25.701  1.00  0.00    -0.152 S 
ENDBRANCH  15  17
ENDBRANCH  11  12
ENDBRANCH   8  11
ENDBRANCH   7   8
ENDBRANCH   4   7
ENDBRANCH   2   3
ENDBRANCH   1   2
BRANCH   1  22
ATOM     22  C   UNL A   1      36.520  21.995  24.400  1.00  0.00     0.002 C 
BRANCH  22  23
ATOM     23  C   UNL A   1      36.598  20.590  24.997  1.00  0.00     0.002 C 
BRANCH  23  24
ATOM     24  C   UNL A   1      37.930  19.869  24.772  1.00  0.00     0.021 C 
BRANCH  24  25
ATOM     25  C   UNL A   1      39.015  20.200  25.793  1.00  0.00     0.116 C 
BRANCH  25  26
ATOM     26  N   UNL A   1      40.009  19.145  25.895  1.00  0.00    -0.352 N 
ATOM     27  C   UNL A   1      41.363  19.255  26.087  1.00  0.00     0.251 C 
ATOM     28  H   UNL A   1      39.664  18.226  25.815  1.00  0.00     0.163 HD
ATOM     29  O   UNL A   1      42.097  18.284  25.941  1.00  0.00    -0.269 OA
BRANCH  27  30
ATOM     30  C   UNL A   1      41.938  20.564  26.460  1.00  0.00     0.039 A 
ATOM     31  C   UNL A   1      42.349  21.437  25.450  1.00  0.00     0.014 A 
ATOM     32  C   UNL A   1      42.065  20.927  27.804  1.00  0.00     0.014 A 
ATOM     33  C   UNL A   1      42.837  22.700  25.789  1.00  0.00     0.010 A 
ATOM     34  C   UNL A   1      42.487  22.210  28.137  1.00  0.00     0.010 A 
ATOM     35  C   UNL A   1      42.884  23.108  27.134  1.00  0.00    -0.014 A 
BRANCH  35  36
ATOM     36  C   UNL A   1      43.353  24.465  27.509  1.00  0.00     0.031 A 
ATOM     37  C   UNL A   1      42.362  25.514  27.934  1.00  0.00     0.074 A 
ATOM     38  C   UNL A   1      44.660  24.771  27.410  1.00  0.00     0.049 A 
ATOM     39  N   UNL A   1      42.566  26.770  28.235  1.00  0.00    -0.248 NA
ATOM     40  C   UNL A   1      40.951  25.101  28.001  1.00  0.00     0.031 C 
ATOM     41  C   UNL A   1      45.714  23.856  26.967  1.00  0.00     0.029 A 
ATOM     42  N   UNL A   1      45.326  25.944  27.666  1.00  0.00    -0.354 N 
ATOM     43  C   UNL A   1      41.313  27.301  28.513  1.00  0.00     0.074 A 
ATOM     44  C   UNL A   1      40.349  26.245  28.293  1.00  0.00     0.031 C 
ATOM     45  C   UNL A   1      46.894  24.495  27.003  1.00  0.00     0.029 A 
ATOM     46  C   UNL A   1      46.678  25.872  27.436  1.00  0.00     0.049 A 
ATOM     47  H   UNL A   1      44.876  26.760  27.984  1.00  0.00     0.167 HD
ATOM     48  C   UNL A   1      40.997  28.548  28.936  1.00  0.00     0.037 A 
ATOM     49  C   UNL A   1      47.634  26.812  27.554  1.00  0.00     0.037 A 
ATOM     50  C   UNL A   1      41.959  29.589  29.180  1.00  0.00     0.049 A 
ATOM     51  C   UNL A   1      47.256  28.190  28.023  1.00  0.00     0.074 A 
ATOM     52  C   UNL A   1      41.744  30.866  29.667  1.00  0.00     0.029 A 
ATOM     53  N   UNL A   1      43.322  29.471  28.951  1.00  0.00    -0.354 N 
ATOM     54  N   UNL A   1      46.075  28.658  28.346  1.00  0.00    -0.248 NA
ATOM     55  C   UNL A   1      48.345  29.168  28.149  1.00  0.00     0.031 C 
ATOM     56  C   UNL A   1      42.973  31.536  29.694  1.00  0.00     0.029 A 
ATOM     57  C   UNL A   1      43.959  30.660  29.269  1.00  0.00     0.049 A 
ATOM     58  H   UNL A   1      43.772  28.662  28.614  1.00  0.00     0.167 HD
ATOM     59  C   UNL A   1      46.282  29.974  28.740  1.00  0.00     0.074 A 
ATOM     60  C   UNL A   1      47.704  30.226  28.628  1.00  0.00     0.031 C 
ATOM     61  C   UNL A   1      45.376  30.892  29.157  1.00  0.00     0.037 A 
BRANCH  48  62
ATOM     62  C   UNL A   1      39.544  28.851  29.168  1.00  0.00     0.057 A 
ATOM     63  C   UNL A   1      38.713  29.311  28.139  1.00  0.00     0.134 A 
ATOM     64  C   UNL A   1      38.964  28.651  30.427  1.00  0.00     0.134 A 
ATOM     65  F   UNL A   1      39.208  29.536  26.913  1.00  0.00    -0.206 F 
ATOM     66  C   UNL A   1      37.363  29.588  28.359  1.00  0.00     0.040 A 
ATOM     67  C   UNL A   1      37.608  28.898  30.652  1.00  0.00     0.040 A 
ATOM     68  F   UNL A   1      39.701  28.206  31.455  1.00  0.00    -0.206 F 
ATOM     69  C   UNL A   1      36.805  29.374  29.618  1.00  0.00     0.006 A 
ENDBRANCH  48  62
BRANCH  49  70
ATOM     70  C   UNL A   1      49.047  26.478  27.246  1.00  0.00     0.057 A 
ATOM     71  C   UNL A   1      49.556  26.621  25.950  1.00  0.00     0.134 A 
ATOM     72  C   UNL A   1      49.920  26.004  28.233  1.00  0.00     0.134 A 
ATOM     73  F   UNL A   1      48.763  27.052  24.958  1.00  0.00    -0.206 F 
ATOM     74  C   UNL A   1      50.874  26.285  25.641  1.00  0.00     0.040 A 
ATOM     75  C   UNL A   1      51.248  25.688  27.943  1.00  0.00     0.040 A 
ATOM     76  F   UNL A   1      49.496  25.853  29.497  1.00  0.00    -0.206 F 
ATOM     77  C   UNL A   1      51.726  25.821  26.641  1.00  0.00     0.006 A 
ENDBRANCH  49  70
BRANCH  61  78
ATOM     78  C   UNL A   1      45.899  32.240  29.555  1.00  0.00     0.057 A 
ATOM     79  C   UNL A   1      46.330  32.511  30.860  1.00  0.00     0.134 A 
ATOM     80  C   UNL A   1      46.010  33.268  28.611  1.00  0.00     0.134 A 
ATOM     81  F   UNL A   1      46.237  31.572  31.814  1.00  0.00    -0.206 F 
ATOM     82  C   UNL A   1      46.831  33.763  31.217  1.00  0.00     0.040 A 
ATOM     83  C   UNL A   1      46.534  34.517  28.949  1.00  0.00     0.040 A 
ATOM     84  F   UNL A   1      45.623  33.073  27.341  1.00  0.00    -0.206 F 
ATOM     85  C   UNL A   1      46.941  34.768  30.257  1.00  0.00     0.006 A 
ENDBRANCH  61  78
ENDBRANCH  35  36
ENDBRANCH  27  30
ENDBRANCH  25  26
ENDBRANCH  24  25
ENDBRANCH  23  24
ENDBRANCH  22  23
ENDBRANCH   1  22
TORSDOF 17
ENDMDL
MODEL 3
REMARK VINA RESULT:     -10.3      5.365     10.364
REMARK SMILES C[N@@H+](CC(=O)NCCCCCCNC(=O)c1ccc(-c2c3nc(c(-c4c(F)cccc4F)c4ccc([nH]4)c(-c4c(F)cccc4F)c4nc(c(-c5c(F)cccc5F)c5ccc2[nH]5)C=C4)C=C3)cc1)Cc1nc(-c2ccsc2)no1
REMARK SMILES IDX 8 1 7 2 6 3 4 4 5 5 3 7 2 8 1 9 70 11 71 12 72 13 80 14
REMARK SMILES IDX 73 15 79 16 74 17 75 18 78 19 76 20 77 21 9 22 10 23 11 24
REMARK SMILES IDX 12 25 13 26 14 27 15 29 16 30 17 31 69 32 18 33 68 34 19 35
REMARK SMILES IDX 20 36 21 37 62 38 22 39 67 40 61 41 63 42 23 43 66 44 60 45
REMARK SMILES IDX 59 46 24 48 50 49 33 50 49 51 34 52 37 53 48 54 64 55 35 56
REMARK SMILES IDX 36 57 47 59 65 60 38 61 25 62 26 63 31 64 27 65 28 66 30 67
REMARK SMILES IDX 32 68 29 69 51 70 52 71 57 72 53 73 54 74 56 75 58 76 55 77
REMARK SMILES IDX 39 78 40 79 45 80 41 81 42 82 44 83 46 84 43 85
REMARK H PARENT 6 6 2 10 13 28 63 47 37 58
REMARK Flexibility Score: inf
ROOT
ATOM      1  C   UNL A   1      34.595  31.309  28.467  1.00  0.00     0.021 C 
ENDROOT
BRANCH   1   2
ATOM      2  C   UNL A   1      34.443  30.376  27.267  1.00  0.00     0.116 C 
BRANCH   2   3
ATOM      3  N   UNL A   1      33.381  29.411  27.465  1.00  0.00    -0.351 N 
ATOM      4  C   UNL A   1      32.186  29.263  26.830  1.00  0.00     0.275 C 
ATOM      5  O   UNL A   1      31.436  28.365  27.220  1.00  0.00    -0.269 OA
ATOM      6  H   UNL A   1      33.551  28.753  28.177  1.00  0.00     0.163 HD
BRANCH   4   7
ATOM      7  C   UNL A   1      31.791  30.157  25.658  1.00  0.00     0.363 C 
BRANCH   7   8
ATOM      8  N   UNL A   1      31.950  29.572  24.322  1.00  0.00    -0.322 N 
ATOM      9  C   UNL A   1      30.803  28.884  23.773  1.00  0.00     0.333 C 
ATOM     10  H   UNL A   1      31.955  30.428  23.767  1.00  0.00     0.348 HD
BRANCH   8  11
ATOM     11  C   UNL A   1      33.273  29.038  23.962  1.00  0.00     0.364 C 
BRANCH  11  12
ATOM     12  C   UNL A   1      33.381  27.624  23.482  1.00  0.00     0.282 A 
ATOM     13  N   UNL A   1      33.337  26.496  24.163  1.00  0.00    -0.186 NA
ATOM     14  O   UNL A   1      33.630  27.431  22.155  1.00  0.00    -0.333 OA
ATOM     15  C   UNL A   1      33.516  25.556  23.178  1.00  0.00     0.203 A 
ATOM     16  N   UNL A   1      33.697  26.056  21.950  1.00  0.00    -0.057 NA
BRANCH  15  17
ATOM     17  C   UNL A   1      33.570  24.126  23.491  1.00  0.00     0.033 A 
ATOM     18  C   UNL A   1      32.733  23.163  22.844  1.00  0.00     0.024 A 
ATOM     19  C   UNL A   1      34.414  23.534  24.406  1.00  0.00     0.077 A 
ATOM     20  C   UNL A   1      32.986  21.879  23.273  1.00  0.00     0.065 A 
ATOM     21  S   UNL A   1      34.211  21.833  24.467  1.00  0.00    -0.152 S 
ENDBRANCH  15  17
ENDBRANCH  11  12
ENDBRANCH   8  11
ENDBRANCH   7   8
ENDBRANCH   4   7
ENDBRANCH   2   3
ENDBRANCH   1   2
BRANCH   1  22
ATOM     22  C   UNL A   1      34.764  32.791  28.115  1.00  0.00     0.002 C 
BRANCH  22  23
ATOM     23  C   UNL A   1      34.501  33.755  29.270  1.00  0.00     0.002 C 
BRANCH  23  24
ATOM     24  C   UNL A   1      33.252  34.626  29.109  1.00  0.00     0.021 C 
BRANCH  24  25
ATOM     25  C   UNL A   1      33.385  36.042  29.664  1.00  0.00     0.116 C 
BRANCH  25  26
ATOM     26  N   UNL A   1      32.488  36.277  30.783  1.00  0.00    -0.352 N 
ATOM     27  C   UNL A   1      32.547  35.764  32.054  1.00  0.00     0.251 C 
ATOM     28  H   UNL A   1      31.735  36.886  30.603  1.00  0.00     0.163 HD
ATOM     29  O   UNL A   1      31.601  35.889  32.824  1.00  0.00    -0.269 OA
BRANCH  27  30
ATOM     30  C   UNL A   1      33.761  35.043  32.489  1.00  0.00     0.039 A 
ATOM     31  C   UNL A   1      33.643  33.728  32.944  1.00  0.00     0.014 A 
ATOM     32  C   UNL A   1      35.012  35.666  32.441  1.00  0.00     0.014 A 
ATOM     33  C   UNL A   1      34.790  33.017  33.301  1.00  0.00     0.010 A 
ATOM     34  C   UNL A   1      36.159  34.934  32.732  1.00  0.00     0.010 A 
ATOM     35  C   UNL A   1      36.060  33.605  33.170  1.00  0.00    -0.014 A 
BRANCH  35  36
ATOM     36  C   UNL A   1      37.294  32.847  33.496  1.00  0.00     0.031 A 
ATOM     37  C   UNL A   1      38.046  33.141  34.765  1.00  0.00     0.074 A 
ATOM     38  C   UNL A   1      37.771  31.940  32.624  1.00  0.00     0.049 A 
ATOM     39  N   UNL A   1      39.174  32.637  35.194  1.00  0.00    -0.248 NA
ATOM     40  C   UNL A   1      37.464  34.158  35.657  1.00  0.00     0.031 C 
ATOM     41  C   UNL A   1      37.159  31.596  31.338  1.00  0.00     0.029 A 
ATOM     42  N   UNL A   1      38.889  31.145  32.682  1.00  0.00    -0.354 N 
ATOM     43  C   UNL A   1      39.444  33.283  36.394  1.00  0.00     0.074 A 
ATOM     44  C   UNL A   1      38.391  34.252  36.599  1.00  0.00     0.031 C 
ATOM     45  C   UNL A   1      37.897  30.647  30.740  1.00  0.00     0.029 A 
ATOM     46  C   UNL A   1      39.050  30.340  31.580  1.00  0.00     0.049 A 
ATOM     47  H   UNL A   1      39.515  31.151  33.441  1.00  0.00     0.167 HD
ATOM     48  C   UNL A   1      40.465  33.069  37.258  1.00  0.00     0.037 A 
ATOM     49  C   UNL A   1      40.023  29.459  31.279  1.00  0.00     0.037 A 
ATOM     50  C   UNL A   1      41.498  32.087  37.065  1.00  0.00     0.049 A 
ATOM     51  C   UNL A   1      41.147  29.244  32.254  1.00  0.00     0.074 A 
ATOM     52  C   UNL A   1      42.540  31.753  37.911  1.00  0.00     0.029 A 
ATOM     53  N   UNL A   1      41.617  31.278  35.944  1.00  0.00    -0.354 N 
ATOM     54  N   UNL A   1      41.355  29.814  33.416  1.00  0.00    -0.248 NA
ATOM     55  C   UNL A   1      42.169  28.257  31.878  1.00  0.00     0.031 C 
ATOM     56  C   UNL A   1      43.316  30.771  37.283  1.00  0.00     0.029 A 
ATOM     57  C   UNL A   1      42.729  30.461  36.068  1.00  0.00     0.049 A 
ATOM     58  H   UNL A   1      41.003  31.284  35.175  1.00  0.00     0.167 HD
ATOM     59  C   UNL A   1      42.512  29.237  33.922  1.00  0.00     0.074 A 
ATOM     60  C   UNL A   1      42.955  28.262  32.946  1.00  0.00     0.031 C 
ATOM     61  C   UNL A   1      43.152  29.491  35.089  1.00  0.00     0.037 A 
BRANCH  48  62
ATOM     62  C   UNL A   1      40.510  33.917  38.497  1.00  0.00     0.057 A 
ATOM     63  C   UNL A   1      41.271  35.092  38.560  1.00  0.00     0.134 A 
ATOM     64  C   UNL A   1      39.760  33.571  39.628  1.00  0.00     0.134 A 
ATOM     65  F   UNL A   1      42.022  35.474  37.516  1.00  0.00    -0.206 F 
ATOM     66  C   UNL A   1      41.306  35.878  39.713  1.00  0.00     0.040 A 
ATOM     67  C   UNL A   1      39.766  34.364  40.777  1.00  0.00     0.040 A 
ATOM     68  F   UNL A   1      39.006  32.463  39.633  1.00  0.00    -0.206 F 
ATOM     69  C   UNL A   1      40.545  35.518  40.824  1.00  0.00     0.006 A 
ENDBRANCH  48  62
BRANCH  49  70
ATOM     70  C   UNL A   1      39.966  28.695  30.007  1.00  0.00     0.057 A 
ATOM     71  C   UNL A   1      39.269  27.484  29.924  1.00  0.00     0.134 A 
ATOM     72  C   UNL A   1      40.610  29.150  28.850  1.00  0.00     0.134 A 
ATOM     73  F   UNL A   1      38.649  26.988  31.004  1.00  0.00    -0.206 F 
ATOM     74  C   UNL A   1      39.230  26.743  28.743  1.00  0.00     0.040 A 
ATOM     75  C   UNL A   1      40.558  28.431  27.655  1.00  0.00     0.040 A 
ATOM     76  F   UNL A   1      41.288  30.308  28.862  1.00  0.00    -0.206 F 
ATOM     77  C   UNL A   1      39.872  27.219  27.602  1.00  0.00     0.006 A 
ENDBRANCH  49  70
BRANCH  61  78
ATOM     78  C   UNL A   1      44.378  28.681  35.391  1.00  0.00     0.057 A 
ATOM     79  C   UNL A   1      45.659  29.113  35.025  1.00  0.00     0.134 A 
ATOM     80  C   UNL A   1      44.277  27.472  36.091  1.00  0.00     0.134 A 
ATOM     81  F   UNL A   1      45.820  30.255  34.340  1.00  0.00    -0.206 F 
ATOM     82  C   UNL A   1      46.795  28.361  35.326  1.00  0.00     0.040 A 
ATOM     83  C   UNL A   1      45.408  26.724  36.421  1.00  0.00     0.040 A 
ATOM     84  F   UNL A   1      43.081  27.006  36.479  1.00  0.00    -0.206 F 
ATOM     85  C   UNL A   1      46.671  27.165  36.032  1.00  0.00     0.006 A 
ENDBRANCH  61  78
ENDBRANCH  35  36
ENDBRANCH  27  30
ENDBRANCH  25  26
ENDBRANCH  24  25
ENDBRANCH  23  24
ENDBRANCH  22  23
ENDBRANCH   1  22
TORSDOF 17
ENDMDL
