MODEL 1
REMARK VINA RESULT:     -12.9      0.000      0.000
REMARK SMILES O=C(NCCCCCCNC(=O)[C@@H]1CC=CC[C@H]1C(=O)N1CC[NH+](Cc2ccc3c(c2)OCO3)CC1)c1ccc(-c2c3nc(c(-c4c(F)cccc4F)c4ccc([nH]4)c(-c4c(F)cccc4F)c4nc(c(-c5c(F)cccc5F)c5ccc2[nH]5)C=C4)C=C3)cc1
REMARK SMILES IDX 7 1 6 2 5 3 4 4 3 5 1 6 2 7 37 9 38 10 90 11 39 12 89 13
REMARK SMILES IDX 40 14 41 15 42 16 83 17 43 18 88 19 82 20 84 21 44 22 87 23
REMARK SMILES IDX 81 24 80 25 45 27 71 28 54 29 70 30 55 31 58 32 69 33 85 34
REMARK SMILES IDX 56 35 57 36 68 38 86 39 59 40 46 41 47 42 52 43 48 44 49 45
REMARK SMILES IDX 51 46 53 47 50 48 72 49 73 50 78 51 74 52 75 53 77 54 79 55
REMARK SMILES IDX 76 56 60 57 61 58 66 59 62 60 63 61 65 62 67 63 64 64 8 65
REMARK SMILES IDX 9 66 10 67 11 68 12 70 13 71 14 72 18 73 15 74 17 75 16 76
REMARK SMILES IDX 19 77 20 78 21 79 22 80 36 81 23 82 35 83 24 84 25 86 26 87
REMARK SMILES IDX 27 88 31 89 28 90 30 91 29 92 32 93 34 94 33 95
REMARK H PARENT 3 8 84 26 58 37 10 69 24 85
REMARK Flexibility Score: inf
ROOT
ATOM      1  C   UNL A   1      32.781  29.879  25.945  1.00  0.00     0.002 C 
ENDROOT
BRANCH   1   2
ATOM      2  C   UNL A   1      31.382  30.477  25.758  1.00  0.00     0.002 C 
BRANCH   2   3
ATOM      3  C   UNL A   1      31.236  31.915  26.255  1.00  0.00     0.021 C 
BRANCH   3   4
ATOM      4  C   UNL A   1      32.468  32.437  26.983  1.00  0.00     0.116 C 
BRANCH   4   5
ATOM      5  N   UNL A   1      32.303  33.829  27.379  1.00  0.00    -0.352 N 
ATOM      6  O   UNL A   1      32.525  35.611  28.754  1.00  0.00    -0.269 OA
ATOM      7  C   UNL A   1      32.948  34.523  28.369  1.00  0.00     0.251 C 
ATOM      8  H   UNL A   1      31.636  34.341  26.867  1.00  0.00     0.163 HD
BRANCH   7   9
ATOM      9  C   UNL A   1      34.161  33.944  28.977  1.00  0.00     0.039 A 
ATOM     10  C   UNL A   1      34.043  32.997  29.998  1.00  0.00     0.014 A 
ATOM     11  C   UNL A   1      35.420  34.344  28.524  1.00  0.00     0.014 A 
ATOM     12  C   UNL A   1      35.178  32.553  30.659  1.00  0.00     0.010 A 
ATOM     13  C   UNL A   1      36.566  33.818  29.125  1.00  0.00     0.010 A 
ATOM     14  C   UNL A   1      36.451  32.933  30.210  1.00  0.00    -0.014 A 
BRANCH  14  15
ATOM     15  C   UNL A   1      37.647  32.315  30.831  1.00  0.00     0.031 A 
ATOM     16  C   UNL A   1      38.315  31.118  30.223  1.00  0.00     0.074 A 
ATOM     17  C   UNL A   1      38.131  32.864  31.962  1.00  0.00     0.049 A 
ATOM     18  N   UNL A   1      39.361  30.455  30.649  1.00  0.00    -0.248 NA
ATOM     19  C   UNL A   1      37.730  30.586  28.983  1.00  0.00     0.031 C 
ATOM     20  C   UNL A   1      37.550  34.021  32.650  1.00  0.00     0.029 A 
ATOM     21  N   UNL A   1      39.215  32.533  32.730  1.00  0.00    -0.354 N 
ATOM     22  C   UNL A   1      39.550  29.419  29.743  1.00  0.00     0.074 A 
ATOM     23  C   UNL A   1      38.493  29.524  28.759  1.00  0.00     0.031 C 
ATOM     24  C   UNL A   1      38.302  34.324  33.716  1.00  0.00     0.029 A 
ATOM     25  C   UNL A   1      39.372  33.341  33.829  1.00  0.00     0.049 A 
ATOM     26  H   UNL A   1      39.824  31.789  32.515  1.00  0.00     0.167 HD
ATOM     27  C   UNL A   1      40.521  28.474  29.737  1.00  0.00     0.037 A 
ATOM     28  C   UNL A   1      40.259  33.282  34.838  1.00  0.00     0.037 A 
ATOM     29  C   UNL A   1      41.568  28.383  30.724  1.00  0.00     0.049 A 
ATOM     30  C   UNL A   1      41.300  32.202  34.825  1.00  0.00     0.074 A 
ATOM     31  C   UNL A   1      42.622  27.489  30.783  1.00  0.00     0.029 A 
ATOM     32  N   UNL A   1      41.682  29.207  31.836  1.00  0.00    -0.354 N 
ATOM     33  N   UNL A   1      41.499  31.259  33.936  1.00  0.00    -0.248 NA
ATOM     34  C   UNL A   1      42.240  32.177  35.952  1.00  0.00     0.031 C 
ATOM     35  C   UNL A   1      43.337  27.732  31.960  1.00  0.00     0.029 A 
ATOM     36  C   UNL A   1      42.770  28.819  32.604  1.00  0.00     0.049 A 
ATOM     37  H   UNL A   1      41.079  29.956  32.048  1.00  0.00     0.167 HD
ATOM     38  C   UNL A   1      42.595  30.540  34.385  1.00  0.00     0.074 A 
ATOM     39  C   UNL A   1      43.031  31.170  35.616  1.00  0.00     0.031 C 
ATOM     40  C   UNL A   1      43.188  29.454  33.830  1.00  0.00     0.037 A 
BRANCH  27  41
ATOM     41  C   UNL A   1      40.479  27.441  28.645  1.00  0.00     0.057 A 
ATOM     42  C   UNL A   1      39.663  26.304  28.724  1.00  0.00     0.134 A 
ATOM     43  C   UNL A   1      41.241  27.604  27.480  1.00  0.00     0.134 A 
ATOM     44  F   UNL A   1      38.912  26.079  29.814  1.00  0.00    -0.206 F 
ATOM     45  C   UNL A   1      39.630  25.354  27.701  1.00  0.00     0.040 A 
ATOM     46  C   UNL A   1      41.195  26.676  26.438  1.00  0.00     0.040 A 
ATOM     47  F   UNL A   1      42.038  28.672  27.331  1.00  0.00    -0.206 F 
ATOM     48  C   UNL A   1      40.393  25.543  26.551  1.00  0.00     0.006 A 
ENDBRANCH  27  41
BRANCH  28  49
ATOM     49  C   UNL A   1      40.174  34.263  35.947  1.00  0.00     0.057 A 
ATOM     50  C   UNL A   1      40.803  35.510  35.866  1.00  0.00     0.134 A 
ATOM     51  C   UNL A   1      39.440  33.986  37.108  1.00  0.00     0.134 A 
ATOM     52  F   UNL A   1      41.532  35.830  34.787  1.00  0.00    -0.206 F 
ATOM     53  C   UNL A   1      40.718  36.439  36.903  1.00  0.00     0.040 A 
ATOM     54  C   UNL A   1      39.319  34.916  38.139  1.00  0.00     0.040 A 
ATOM     55  F   UNL A   1      38.801  32.813  37.240  1.00  0.00    -0.206 F 
ATOM     56  C   UNL A   1      39.968  36.145  38.042  1.00  0.00     0.006 A 
ENDBRANCH  28  49
BRANCH  40  57
ATOM     57  C   UNL A   1      44.393  28.900  34.535  1.00  0.00     0.057 A 
ATOM     58  C   UNL A   1      45.671  29.445  34.359  1.00  0.00     0.134 A 
ATOM     59  C   UNL A   1      44.265  27.823  35.422  1.00  0.00     0.134 A 
ATOM     60  F   UNL A   1      45.865  30.467  33.511  1.00  0.00    -0.206 F 
ATOM     61  C   UNL A   1      46.783  28.923  35.022  1.00  0.00     0.040 A 
ATOM     62  C   UNL A   1      45.363  27.314  36.113  1.00  0.00     0.040 A 
ATOM     63  F   UNL A   1      43.069  27.258  35.640  1.00  0.00    -0.206 F 
ATOM     64  C   UNL A   1      46.629  27.859  35.909  1.00  0.00     0.006 A 
ENDBRANCH  40  57
ENDBRANCH  14  15
ENDBRANCH   7   9
ENDBRANCH   4   5
ENDBRANCH   3   4
ENDBRANCH   2   3
ENDBRANCH   1   2
BRANCH   1  65
ATOM     65  C   UNL A   1      32.830  28.622  26.823  1.00  0.00     0.021 C 
BRANCH  65  66
ATOM     66  C   UNL A   1      31.510  28.320  27.532  1.00  0.00     0.116 C 
BRANCH  66  67
ATOM     67  N   UNL A   1      31.111  26.951  27.280  1.00  0.00    -0.356 N 
ATOM     68  C   UNL A   1      30.780  26.306  26.137  1.00  0.00     0.224 C 
ATOM     69  H   UNL A   1      31.072  26.388  28.087  1.00  0.00     0.163 HD
ATOM     70  O   UNL A   1      30.346  25.155  26.258  1.00  0.00    -0.275 OA
BRANCH  68  71
ATOM     71  C   UNL A   1      31.004  26.888  24.745  1.00  0.00     0.095 C 
ATOM     72  C   UNL A   1      29.683  27.451  24.196  1.00  0.00     0.041 C 
ATOM     73  C   UNL A   1      31.715  26.011  23.714  1.00  0.00     0.095 C 
ATOM     74  C   UNL A   1      29.818  27.972  22.793  1.00  0.00    -0.030 C 
ATOM     75  C   UNL A   1      31.992  26.796  22.414  1.00  0.00     0.041 C 
ATOM     76  C   UNL A   1      30.862  27.689  22.001  1.00  0.00    -0.030 C 
BRANCH  73  77
ATOM     77  C   UNL A   1      33.014  25.319  24.110  1.00  0.00     0.227 C 
ATOM     78  O   UNL A   1      33.950  25.991  24.551  1.00  0.00    -0.275 OA
ATOM     79  N   UNL A   1      32.980  23.946  24.252  1.00  0.00    -0.331 N 
ATOM     80  C   UNL A   1      33.666  23.393  25.411  1.00  0.00     0.181 C 
ATOM     81  C   UNL A   1      32.896  23.040  23.110  1.00  0.00     0.181 C 
ATOM     82  C   UNL A   1      33.172  21.978  25.770  1.00  0.00     0.284 C 
ATOM     83  C   UNL A   1      32.349  21.658  23.506  1.00  0.00     0.284 C 
ATOM     84  N   UNL A   1      33.008  21.028  24.660  1.00  0.00    -0.328 N 
ATOM     85  H   UNL A   1      32.364  20.315  25.002  1.00  0.00     0.348 HD
BRANCH  84  86
ATOM     86  C   UNL A   1      34.177  20.195  24.345  1.00  0.00     0.299 C 
BRANCH  86  87
ATOM     87  C   UNL A   1      34.123  18.750  24.786  1.00  0.00     0.010 A 
ATOM     88  C   UNL A   1      35.250  17.912  24.628  1.00  0.00     0.013 A 
ATOM     89  C   UNL A   1      32.920  18.201  25.267  1.00  0.00     0.060 A 
ATOM     90  C   UNL A   1      35.154  16.529  24.813  1.00  0.00     0.051 A 
ATOM     91  C   UNL A   1      32.858  16.836  25.452  1.00  0.00     0.166 A 
ATOM     92  C   UNL A   1      33.937  16.021  25.206  1.00  0.00     0.165 A 
ATOM     93  O   UNL A   1      31.754  16.136  25.823  1.00  0.00    -0.454 OA
ATOM     94  O   UNL A   1      33.643  14.704  25.374  1.00  0.00    -0.454 OA
ATOM     95  C   UNL A   1      32.250  14.784  25.738  1.00  0.00     0.468 C 
ENDBRANCH  86  87
ENDBRANCH  84  86
ENDBRANCH  73  77
ENDBRANCH  68  71
ENDBRANCH  66  67
ENDBRANCH  65  66
ENDBRANCH   1  65
TORSDOF 16
ENDMDL
MODEL 2
REMARK VINA RESULT:     -12.7      0.663      5.920
REMARK SMILES O=C(NCCCCCCNC(=O)[C@@H]1CC=CC[C@H]1C(=O)N1CC[NH+](Cc2ccc3c(c2)OCO3)CC1)c1ccc(-c2c3nc(c(-c4c(F)cccc4F)c4ccc([nH]4)c(-c4c(F)cccc4F)c4nc(c(-c5c(F)cccc5F)c5ccc2[nH]5)C=C4)C=C3)cc1
REMARK SMILES IDX 7 1 6 2 5 3 4 4 3 5 1 6 2 7 37 9 38 10 90 11 39 12 89 13
REMARK SMILES IDX 40 14 41 15 42 16 83 17 43 18 88 19 82 20 84 21 44 22 87 23
REMARK SMILES IDX 81 24 80 25 45 27 71 28 54 29 70 30 55 31 58 32 69 33 85 34
REMARK SMILES IDX 56 35 57 36 68 38 86 39 59 40 46 41 47 42 52 43 48 44 49 45
REMARK SMILES IDX 51 46 53 47 50 48 72 49 73 50 78 51 74 52 75 53 77 54 79 55
REMARK SMILES IDX 76 56 60 57 61 58 66 59 62 60 63 61 65 62 67 63 64 64 8 65
REMARK SMILES IDX 9 66 10 67 11 68 12 70 13 71 14 72 18 73 15 74 17 75 16 76
REMARK SMILES IDX 19 77 20 78 21 79 22 80 36 81 23 82 35 83 24 84 25 86 26 87
REMARK SMILES IDX 27 88 31 89 28 90 30 91 29 92 32 93 34 94 33 95
REMARK H PARENT 3 8 84 26 58 37 10 69 24 85
REMARK Flexibility Score: inf
ROOT
ATOM      1  C   UNL A   1      32.787  29.987  25.957  1.00  0.00     0.002 C 
ENDROOT
BRANCH   1   2
ATOM      2  C   UNL A   1      31.385  30.604  25.932  1.00  0.00     0.002 C 
BRANCH   2   3
ATOM      3  C   UNL A   1      31.315  32.040  26.452  1.00  0.00     0.021 C 
BRANCH   3   4
ATOM      4  C   UNL A   1      32.594  32.505  27.135  1.00  0.00     0.116 C 
BRANCH   4   5
ATOM      5  N   UNL A   1      32.485  33.885  27.588  1.00  0.00    -0.352 N 
ATOM      6  O   UNL A   1      32.782  35.600  29.032  1.00  0.00    -0.269 OA
ATOM      7  C   UNL A   1      33.161  34.512  28.602  1.00  0.00     0.251 C 
ATOM      8  H   UNL A   1      31.837  34.443  27.100  1.00  0.00     0.163 HD
BRANCH   7   9
ATOM      9  C   UNL A   1      34.353  33.863  29.178  1.00  0.00     0.039 A 
ATOM     10  C   UNL A   1      34.201  32.872  30.152  1.00  0.00     0.014 A 
ATOM     11  C   UNL A   1      35.626  34.241  28.744  1.00  0.00     0.014 A 
ATOM     12  C   UNL A   1      35.320  32.356  30.789  1.00  0.00     0.010 A 
ATOM     13  C   UNL A   1      36.752  33.646  29.316  1.00  0.00     0.010 A 
ATOM     14  C   UNL A   1      36.606  32.714  30.357  1.00  0.00    -0.014 A 
BRANCH  14  15
ATOM     15  C   UNL A   1      37.780  32.025  30.945  1.00  0.00     0.031 A 
ATOM     16  C   UNL A   1      38.290  32.374  32.312  1.00  0.00     0.074 A 
ATOM     17  C   UNL A   1      38.381  31.062  30.219  1.00  0.00     0.049 A 
ATOM     18  N   UNL A   1      39.309  31.873  32.962  1.00  0.00    -0.248 NA
ATOM     19  C   UNL A   1      37.571  33.429  33.042  1.00  0.00     0.031 C 
ATOM     20  C   UNL A   1      37.980  30.652  28.870  1.00  0.00     0.029 A 
ATOM     21  N   UNL A   1      39.447  30.253  30.507  1.00  0.00    -0.354 N 
ATOM     22  C   UNL A   1      39.368  32.561  34.167  1.00  0.00     0.074 A 
ATOM     23  C   UNL A   1      38.297  33.535  34.146  1.00  0.00     0.031 C 
ATOM     24  C   UNL A   1      38.764  29.647  28.463  1.00  0.00     0.029 A 
ATOM     25  C   UNL A   1      39.769  29.392  29.487  1.00  0.00     0.049 A 
ATOM     26  H   UNL A   1      39.935  30.284  31.362  1.00  0.00     0.167 HD
ATOM     27  C   UNL A   1      40.234  32.386  35.194  1.00  0.00     0.037 A 
ATOM     28  C   UNL A   1      40.781  28.514  29.370  1.00  0.00     0.037 A 
ATOM     29  C   UNL A   1      41.296  31.410  35.200  1.00  0.00     0.049 A 
ATOM     30  C   UNL A   1      41.748  28.368  30.507  1.00  0.00     0.074 A 
ATOM     31  C   UNL A   1      42.200  31.126  36.208  1.00  0.00     0.029 A 
ATOM     32  N   UNL A   1      41.605  30.570  34.138  1.00  0.00    -0.354 N 
ATOM     33  N   UNL A   1      41.762  28.989  31.663  1.00  0.00    -0.248 NA
ATOM     34  C   UNL A   1      42.838  27.402  30.328  1.00  0.00     0.031 C 
ATOM     35  C   UNL A   1      43.094  30.160  35.735  1.00  0.00     0.029 A 
ATOM     36  C   UNL A   1      42.708  29.791  34.456  1.00  0.00     0.049 A 
ATOM     37  H   UNL A   1      41.114  30.532  33.287  1.00  0.00     0.167 HD
ATOM     38  C   UNL A   1      42.849  28.477  32.355  1.00  0.00     0.074 A 
ATOM     39  C   UNL A   1      43.457  27.479  31.497  1.00  0.00     0.031 C 
ATOM     40  C   UNL A   1      43.305  28.805  33.589  1.00  0.00     0.037 A 
BRANCH  27  41
ATOM     41  C   UNL A   1      40.093  33.293  36.386  1.00  0.00     0.057 A 
ATOM     42  C   UNL A   1      39.222  33.002  37.445  1.00  0.00     0.134 A 
ATOM     43  C   UNL A   1      40.865  34.457  36.490  1.00  0.00     0.134 A 
ATOM     44  F   UNL A   1      38.446  31.908  37.408  1.00  0.00    -0.206 F 
ATOM     45  C   UNL A   1      39.104  33.850  38.548  1.00  0.00     0.040 A 
ATOM     46  C   UNL A   1      40.777  35.298  37.602  1.00  0.00     0.040 A 
ATOM     47  F   UNL A   1      41.726  34.793  35.519  1.00  0.00    -0.206 F 
ATOM     48  C   UNL A   1      39.887  34.999  38.631  1.00  0.00     0.006 A 
ENDBRANCH  27  41
BRANCH  28  49
ATOM     49  C   UNL A   1      40.933  27.732  28.120  1.00  0.00     0.057 A 
ATOM     50  C   UNL A   1      40.371  26.457  27.984  1.00  0.00     0.134 A 
ATOM     51  C   UNL A   1      41.625  28.251  27.017  1.00  0.00     0.134 A 
ATOM     52  F   UNL A   1      39.709  25.900  29.008  1.00  0.00    -0.206 F 
ATOM     53  C   UNL A   1      40.504  25.723  26.806  1.00  0.00     0.040 A 
ATOM     54  C   UNL A   1      41.738  27.542  25.823  1.00  0.00     0.040 A 
ATOM     55  F   UNL A   1      42.173  29.474  27.078  1.00  0.00    -0.206 F 
ATOM     56  C   UNL A   1      41.184  26.268  25.718  1.00  0.00     0.006 A 
ENDBRANCH  28  49
BRANCH  40  57
ATOM     57  C   UNL A   1      44.501  28.052  34.097  1.00  0.00     0.057 A 
ATOM     58  C   UNL A   1      44.377  26.830  34.770  1.00  0.00     0.134 A 
ATOM     59  C   UNL A   1      45.795  28.544  33.882  1.00  0.00     0.134 A 
ATOM     60  F   UNL A   1      43.165  26.311  35.023  1.00  0.00    -0.206 F 
ATOM     61  C   UNL A   1      45.496  26.137  35.235  1.00  0.00     0.040 A 
ATOM     62  C   UNL A   1      46.921  27.846  34.314  1.00  0.00     0.040 A 
ATOM     63  F   UNL A   1      45.984  29.705  33.238  1.00  0.00    -0.206 F 
ATOM     64  C   UNL A   1      46.774  26.642  34.999  1.00  0.00     0.006 A 
ENDBRANCH  40  57
ENDBRANCH  14  15
ENDBRANCH   7   9
ENDBRANCH   4   5
ENDBRANCH   3   4
ENDBRANCH   2   3
ENDBRANCH   1   2
BRANCH   1  65
ATOM     65  C   UNL A   1      32.893  28.665  26.728  1.00  0.00     0.021 C 
BRANCH  65  66
ATOM     66  C   UNL A   1      31.650  28.337  27.554  1.00  0.00     0.116 C 
BRANCH  66  67
ATOM     67  N   UNL A   1      31.244  26.967  27.323  1.00  0.00    -0.356 N 
ATOM     68  C   UNL A   1      30.868  26.318  26.196  1.00  0.00     0.224 C 
ATOM     69  H   UNL A   1      31.240  26.407  28.133  1.00  0.00     0.163 HD
ATOM     70  O   UNL A   1      30.442  25.167  26.339  1.00  0.00    -0.275 OA
BRANCH  68  71
ATOM     71  C   UNL A   1      31.032  26.896  24.795  1.00  0.00     0.095 C 
ATOM     72  C   UNL A   1      29.688  27.451  24.298  1.00  0.00     0.041 C 
ATOM     73  C   UNL A   1      31.705  26.019  23.739  1.00  0.00     0.095 C 
ATOM     74  C   UNL A   1      29.763  27.968  22.889  1.00  0.00    -0.030 C 
ATOM     75  C   UNL A   1      31.925  26.801  22.426  1.00  0.00     0.041 C 
ATOM     76  C   UNL A   1      30.775  27.688  22.056  1.00  0.00    -0.030 C 
BRANCH  73  77
ATOM     77  C   UNL A   1      33.022  25.335  24.084  1.00  0.00     0.227 C 
ATOM     78  O   UNL A   1      33.979  26.015  24.464  1.00  0.00    -0.275 OA
ATOM     79  N   UNL A   1      32.996  23.965  24.254  1.00  0.00    -0.331 N 
ATOM     80  C   UNL A   1      33.739  23.434  25.389  1.00  0.00     0.181 C 
ATOM     81  C   UNL A   1      32.856  23.037  23.136  1.00  0.00     0.181 C 
ATOM     82  C   UNL A   1      33.263  22.027  25.800  1.00  0.00     0.284 C 
ATOM     83  C   UNL A   1      32.330  21.663  23.586  1.00  0.00     0.284 C 
ATOM     84  N   UNL A   1      33.045  21.055  24.718  1.00  0.00    -0.328 N 
ATOM     85  H   UNL A   1      32.419  20.350  25.106  1.00  0.00     0.348 HD
BRANCH  84  86
ATOM     86  C   UNL A   1      34.197  20.215  24.363  1.00  0.00     0.299 C 
BRANCH  86  87
ATOM     87  C   UNL A   1      34.145  18.767  24.794  1.00  0.00     0.010 A 
ATOM     88  C   UNL A   1      35.284  17.941  24.664  1.00  0.00     0.013 A 
ATOM     89  C   UNL A   1      32.935  18.205  25.240  1.00  0.00     0.060 A 
ATOM     90  C   UNL A   1      35.196  16.557  24.839  1.00  0.00     0.051 A 
ATOM     91  C   UNL A   1      32.881  16.839  25.416  1.00  0.00     0.166 A 
ATOM     92  C   UNL A   1      33.973  16.035  25.196  1.00  0.00     0.165 A 
ATOM     93  O   UNL A   1      31.773  16.127  25.754  1.00  0.00    -0.454 OA
ATOM     94  O   UNL A   1      33.688  14.715  25.349  1.00  0.00    -0.454 OA
ATOM     95  C   UNL A   1      32.284  14.780  25.676  1.00  0.00     0.468 C 
ENDBRANCH  86  87
ENDBRANCH  84  86
ENDBRANCH  73  77
ENDBRANCH  68  71
ENDBRANCH  66  67
ENDBRANCH  65  66
ENDBRANCH   1  65
TORSDOF 16
ENDMDL
MODEL 3
REMARK VINA RESULT:     -12.7      0.668      1.663
REMARK SMILES O=C(NCCCCCCNC(=O)[C@@H]1CC=CC[C@H]1C(=O)N1CC[NH+](Cc2ccc3c(c2)OCO3)CC1)c1ccc(-c2c3nc(c(-c4c(F)cccc4F)c4ccc([nH]4)c(-c4c(F)cccc4F)c4nc(c(-c5c(F)cccc5F)c5ccc2[nH]5)C=C4)C=C3)cc1
REMARK SMILES IDX 7 1 6 2 5 3 4 4 3 5 1 6 2 7 37 9 38 10 90 11 39 12 89 13
REMARK SMILES IDX 40 14 41 15 42 16 83 17 43 18 88 19 82 20 84 21 44 22 87 23
REMARK SMILES IDX 81 24 80 25 45 27 71 28 54 29 70 30 55 31 58 32 69 33 85 34
REMARK SMILES IDX 56 35 57 36 68 38 86 39 59 40 46 41 47 42 52 43 48 44 49 45
REMARK SMILES IDX 51 46 53 47 50 48 72 49 73 50 78 51 74 52 75 53 77 54 79 55
REMARK SMILES IDX 76 56 60 57 61 58 66 59 62 60 63 61 65 62 67 63 64 64 8 65
REMARK SMILES IDX 9 66 10 67 11 68 12 70 13 71 14 72 18 73 15 74 17 75 16 76
REMARK SMILES IDX 19 77 20 78 21 79 22 80 36 81 23 82 35 83 24 84 25 86 26 87
REMARK SMILES IDX 27 88 31 89 28 90 30 91 29 92 32 93 34 94 33 95
REMARK H PARENT 3 8 84 26 58 37 10 69 24 85
REMARK Flexibility Score: inf
ROOT
ATOM      1  C   UNL A   1      32.763  29.811  26.122  1.00  0.00     0.002 C 
ENDROOT
BRANCH   1   2
ATOM      2  C   UNL A   1      31.383  30.467  26.003  1.00  0.00     0.002 C 
BRANCH   2   3
ATOM      3  C   UNL A   1      31.360  31.960  26.330  1.00  0.00     0.021 C 
BRANCH   3   4
ATOM      4  C   UNL A   1      32.655  32.468  26.951  1.00  0.00     0.116 C 
BRANCH   4   5
ATOM      5  N   UNL A   1      32.509  33.830  27.447  1.00  0.00    -0.352 N 
ATOM      6  O   UNL A   1      32.734  35.498  28.957  1.00  0.00    -0.269 OA
ATOM      7  C   UNL A   1      33.144  34.433  28.501  1.00  0.00     0.251 C 
ATOM      8  H   UNL A   1      31.866  34.394  26.960  1.00  0.00     0.163 HD
BRANCH   7   9
ATOM      9  C   UNL A   1      34.331  33.783  29.090  1.00  0.00     0.039 A 
ATOM     10  C   UNL A   1      34.169  32.711  29.971  1.00  0.00     0.014 A 
ATOM     11  C   UNL A   1      35.607  34.243  28.759  1.00  0.00     0.014 A 
ATOM     12  C   UNL A   1      35.273  32.187  30.627  1.00  0.00     0.010 A 
ATOM     13  C   UNL A   1      36.725  33.646  29.344  1.00  0.00     0.010 A 
ATOM     14  C   UNL A   1      36.565  32.626  30.298  1.00  0.00    -0.014 A 
BRANCH  14  15
ATOM     15  C   UNL A   1      37.733  31.936  30.894  1.00  0.00     0.031 A 
ATOM     16  C   UNL A   1      38.477  30.868  30.148  1.00  0.00     0.074 A 
ATOM     17  C   UNL A   1      38.121  32.299  32.132  1.00  0.00     0.049 A 
ATOM     18  N   UNL A   1      39.510  30.164  30.534  1.00  0.00    -0.248 NA
ATOM     19  C   UNL A   1      37.995  30.540  28.798  1.00  0.00     0.031 C 
ATOM     20  C   UNL A   1      37.460  33.315  32.957  1.00  0.00     0.029 A 
ATOM     21  N   UNL A   1      39.160  31.865  32.912  1.00  0.00    -0.354 N 
ATOM     22  C   UNL A   1      39.792  29.296  29.487  1.00  0.00     0.074 A 
ATOM     23  C   UNL A   1      38.802  29.543  28.459  1.00  0.00     0.031 C 
ATOM     24  C   UNL A   1      38.128  33.450  34.109  1.00  0.00     0.029 A 
ATOM     25  C   UNL A   1      39.217  32.482  34.137  1.00  0.00     0.049 A 
ATOM     26  H   UNL A   1      39.804  31.178  32.622  1.00  0.00     0.167 HD
ATOM     27  C   UNL A   1      40.789  28.383  29.396  1.00  0.00     0.037 A 
ATOM     28  C   UNL A   1      40.033  32.273  35.185  1.00  0.00     0.037 A 
ATOM     29  C   UNL A   1      41.768  28.149  30.428  1.00  0.00     0.049 A 
ATOM     30  C   UNL A   1      41.105  31.230  35.070  1.00  0.00     0.074 A 
ATOM     31  C   UNL A   1      42.843  27.277  30.415  1.00  0.00     0.029 A 
ATOM     32  N   UNL A   1      41.781  28.779  31.666  1.00  0.00    -0.354 N 
ATOM     33  N   UNL A   1      41.393  30.451  34.054  1.00  0.00    -0.248 NA
ATOM     34  C   UNL A   1      41.966  31.035  36.243  1.00  0.00     0.031 C 
ATOM     35  C   UNL A   1      43.468  27.334  31.665  1.00  0.00     0.029 A 
ATOM     36  C   UNL A   1      42.825  28.289  32.436  1.00  0.00     0.049 A 
ATOM     37  H   UNL A   1      41.143  29.471  31.953  1.00  0.00     0.167 HD
ATOM     38  C   UNL A   1      42.477  29.687  34.458  1.00  0.00     0.074 A 
ATOM     39  C   UNL A   1      42.808  30.112  35.804  1.00  0.00     0.031 C 
ATOM     40  C   UNL A   1      43.139  28.719  33.777  1.00  0.00     0.037 A 
BRANCH  27  41
ATOM     41  C   UNL A   1      40.853  27.545  28.149  1.00  0.00     0.057 A 
ATOM     42  C   UNL A   1      41.632  27.911  27.043  1.00  0.00     0.134 A 
ATOM     43  C   UNL A   1      40.151  26.335  28.068  1.00  0.00     0.134 A 
ATOM     44  F   UNL A   1      42.325  29.060  27.047  1.00  0.00    -0.206 F 
ATOM     45  C   UNL A   1      41.686  27.120  25.892  1.00  0.00     0.040 A 
ATOM     46  C   UNL A   1      40.221  25.522  26.935  1.00  0.00     0.040 A 
ATOM     47  F   UNL A   1      39.393  25.917  29.092  1.00  0.00    -0.206 F 
ATOM     48  C   UNL A   1      40.983  25.919  25.839  1.00  0.00     0.006 A 
ENDBRANCH  27  41
BRANCH  28  49
ATOM     49  C   UNL A   1      39.844  33.055  36.430  1.00  0.00     0.057 A 
ATOM     50  C   UNL A   1      38.953  32.637  37.424  1.00  0.00     0.134 A 
ATOM     51  C   UNL A   1      40.570  34.230  36.668  1.00  0.00     0.134 A 
ATOM     52  F   UNL A   1      38.219  31.528  37.250  1.00  0.00    -0.206 F 
ATOM     53  C   UNL A   1      38.779  33.364  38.601  1.00  0.00     0.040 A 
ATOM     54  C   UNL A   1      40.430  34.950  37.853  1.00  0.00     0.040 A 
ATOM     55  F   UNL A   1      41.451  34.676  35.760  1.00  0.00    -0.206 F 
ATOM     56  C   UNL A   1      39.524  34.522  38.821  1.00  0.00     0.006 A 
ENDBRANCH  28  49
BRANCH  40  57
ATOM     57  C   UNL A   1      44.308  28.078  34.466  1.00  0.00     0.057 A 
ATOM     58  C   UNL A   1      44.174  26.903  35.217  1.00  0.00     0.134 A 
ATOM     59  C   UNL A   1      45.591  28.630  34.352  1.00  0.00     0.134 A 
ATOM     60  F   UNL A   1      42.970  26.333  35.380  1.00  0.00    -0.206 F 
ATOM     61  C   UNL A   1      45.269  26.314  35.852  1.00  0.00     0.040 A 
ATOM     62  C   UNL A   1      46.698  28.033  34.955  1.00  0.00     0.040 A 
ATOM     63  F   UNL A   1      45.790  29.750  33.643  1.00  0.00    -0.206 F 
ATOM     64  C   UNL A   1      46.538  26.876  35.714  1.00  0.00     0.006 A 
ENDBRANCH  40  57
ENDBRANCH  14  15
ENDBRANCH   7   9
ENDBRANCH   4   5
ENDBRANCH   3   4
ENDBRANCH   2   3
ENDBRANCH   1   2
BRANCH   1  65
ATOM     65  C   UNL A   1      32.817  28.594  27.055  1.00  0.00     0.021 C 
BRANCH  65  66
ATOM     66  C   UNL A   1      31.461  28.222  27.653  1.00  0.00     0.116 C 
BRANCH  66  67
ATOM     67  N   UNL A   1      31.128  26.853  27.322  1.00  0.00    -0.356 N 
ATOM     68  C   UNL A   1      30.797  26.267  26.147  1.00  0.00     0.224 C 
ATOM     69  H   UNL A   1      31.144  26.237  28.089  1.00  0.00     0.163 HD
ATOM     70  O   UNL A   1      30.430  25.088  26.202  1.00  0.00    -0.275 OA
BRANCH  68  71
ATOM     71  C   UNL A   1      30.946  26.949  24.792  1.00  0.00     0.095 C 
ATOM     72  C   UNL A   1      29.588  27.502  24.333  1.00  0.00     0.041 C 
ATOM     73  C   UNL A   1      31.644  26.171  23.676  1.00  0.00     0.095 C 
ATOM     74  C   UNL A   1      29.650  28.122  22.966  1.00  0.00    -0.030 C 
ATOM     75  C   UNL A   1      31.843  27.052  22.425  1.00  0.00     0.041 C 
ATOM     76  C   UNL A   1      30.670  27.931  22.117  1.00  0.00    -0.030 C 
BRANCH  73  77
ATOM     77  C   UNL A   1      32.979  25.499  23.974  1.00  0.00     0.227 C 
ATOM     78  O   UNL A   1      33.953  26.192  24.279  1.00  0.00    -0.275 OA
ATOM     79  N   UNL A   1      32.965  24.136  24.193  1.00  0.00    -0.331 N 
ATOM     80  C   UNL A   1      33.769  23.645  25.304  1.00  0.00     0.181 C 
ATOM     81  C   UNL A   1      32.769  23.169  23.116  1.00  0.00     0.181 C 
ATOM     82  C   UNL A   1      33.319  22.253  25.788  1.00  0.00     0.284 C 
ATOM     83  C   UNL A   1      32.270  21.812  23.641  1.00  0.00     0.284 C 
ATOM     84  N   UNL A   1      33.046  21.244  24.754  1.00  0.00    -0.328 N 
ATOM     85  H   UNL A   1      32.443  20.552  25.199  1.00  0.00     0.348 HD
BRANCH  84  86
ATOM     86  C   UNL A   1      34.180  20.393  24.367  1.00  0.00     0.299 C 
BRANCH  86  87
ATOM     87  C   UNL A   1      34.102  18.935  24.757  1.00  0.00     0.010 A 
ATOM     88  C   UNL A   1      35.177  18.061  24.474  1.00  0.00     0.013 A 
ATOM     89  C   UNL A   1      32.922  18.413  25.319  1.00  0.00     0.060 A 
ATOM     90  C   UNL A   1      35.039  16.677  24.615  1.00  0.00     0.051 A 
ATOM     91  C   UNL A   1      32.819  17.046  25.457  1.00  0.00     0.166 A 
ATOM     92  C   UNL A   1      33.838  16.200  25.092  1.00  0.00     0.165 A 
ATOM     93  O   UNL A   1      31.721  16.375  25.896  1.00  0.00    -0.454 OA
ATOM     94  O   UNL A   1      33.505  14.890  25.236  1.00  0.00    -0.454 OA
ATOM     95  C   UNL A   1      32.151  15.009  25.720  1.00  0.00     0.468 C 
ENDBRANCH  86  87
ENDBRANCH  84  86
ENDBRANCH  73  77
ENDBRANCH  68  71
ENDBRANCH  66  67
ENDBRANCH  65  66
ENDBRANCH   1  65
TORSDOF 16
ENDMDL
