MODEL 1
REMARK VINA RESULT:     -11.7      0.000      0.000
REMARK SMILES O=C(NCCCCCCNC(=O)c1ccc(-c2c3nc(c(-c4c(F)cccc4F)c4ccc([nH]4)c(-c4c(F)cccc4F)c4nc(c(-c5c(F)cccc5F)c5ccc2[nH]5)C=C4)C=C3)cc1)C1=Cc2c(ccc(Cl)c2Cl)O[C@H]1C(F)(F)F
REMARK SMILES IDX 7 1 6 2 5 3 4 4 3 5 1 6 2 7 67 9 68 10 78 11 69 12 77 13
REMARK SMILES IDX 70 14 75 15 71 16 73 17 76 18 72 19 74 20 79 21 80 22 81 23
REMARK SMILES IDX 82 24 8 25 9 26 10 27 11 28 12 30 13 31 14 32 66 33 15 34
REMARK SMILES IDX 65 35 16 36 17 37 18 38 59 39 19 40 64 41 58 42 60 43 20 44
REMARK SMILES IDX 63 45 57 46 56 47 21 49 47 50 30 51 46 52 31 53 34 54 45 55
REMARK SMILES IDX 61 56 32 57 33 58 44 60 62 61 35 62 22 63 23 64 28 65 24 66
REMARK SMILES IDX 25 67 27 68 29 69 26 70 48 71 49 72 54 73 50 74 51 75 53 76
REMARK SMILES IDX 55 77 52 78 36 79 37 80 42 81 38 82 39 83 41 84 43 85 40 86
REMARK H PARENT 3 8 10 29 60 48 34 59
REMARK Flexibility Score: inf
ROOT
ATOM      1  C   UNL A   1      31.651  28.080  25.631  1.00  0.00     0.002 C 
ENDROOT
BRANCH   1   2
ATOM      2  C   UNL A   1      31.086  26.828  24.945  1.00  0.00     0.002 C 
BRANCH   2   3
ATOM      3  C   UNL A   1      30.411  25.785  25.837  1.00  0.00     0.021 C 
BRANCH   3   4
ATOM      4  C   UNL A   1      31.006  24.386  25.778  1.00  0.00     0.116 C 
BRANCH   4   5
ATOM      5  N   UNL A   1      31.377  23.793  27.058  1.00  0.00    -0.352 N 
ATOM      6  O   UNL A   1      32.628  22.376  28.346  1.00  0.00    -0.270 OA
ATOM      7  C   UNL A   1      32.410  22.894  27.272  1.00  0.00     0.251 C 
ATOM      8  H   UNL A   1      30.844  24.055  27.843  1.00  0.00     0.163 HD
BRANCH   7   9
ATOM      9  C   UNL A   1      33.219  22.583  26.069  1.00  0.00     0.067 C 
ATOM     10  C   UNL A   1      32.863  21.465  25.424  1.00  0.00     0.027 C 
ATOM     11  C   UNL A   1      34.561  23.237  25.975  1.00  0.00     0.314 C 
ATOM     12  C   UNL A   1      33.965  20.617  24.949  1.00  0.00     0.037 A 
ATOM     13  O   UNL A   1      35.618  22.328  25.575  1.00  0.00    -0.475 OA
ATOM     14  C   UNL A   1      35.281  21.067  25.160  1.00  0.00     0.129 A 
ATOM     15  C   UNL A   1      33.754  19.269  24.581  1.00  0.00     0.070 A 
ATOM     16  C   UNL A   1      36.359  20.188  25.053  1.00  0.00     0.049 A 
ATOM     17  C   UNL A   1      34.844  18.385  24.514  1.00  0.00     0.060 A 
ATOM     18  Cl  UNL A   1      32.144  18.674  24.296  1.00  0.00    -0.082 Cl
ATOM     19  C   UNL A   1      36.138  18.845  24.761  1.00  0.00     0.026 A 
ATOM     20  Cl  UNL A   1      34.653  16.691  24.217  1.00  0.00    -0.083 Cl
BRANCH  11  21
ATOM     21  C   UNL A   1      34.562  24.510  25.105  1.00  0.00     0.429 C 
ATOM     22  F   UNL A   1      34.294  25.637  25.801  1.00  0.00    -0.167 F 
ATOM     23  F   UNL A   1      35.771  24.681  24.512  1.00  0.00    -0.167 F 
ATOM     24  F   UNL A   1      33.647  24.441  24.107  1.00  0.00    -0.167 F 
ENDBRANCH  11  21
ENDBRANCH   7   9
ENDBRANCH   4   5
ENDBRANCH   3   4
ENDBRANCH   2   3
ENDBRANCH   1   2
BRANCH   1  25
ATOM     25  C   UNL A   1      32.265  27.915  27.027  1.00  0.00     0.021 C 
BRANCH  25  26
ATOM     26  C   UNL A   1      33.653  28.516  27.250  1.00  0.00     0.116 C 
BRANCH  26  27
ATOM     27  N   UNL A   1      33.621  29.897  27.692  1.00  0.00    -0.352 N 
ATOM     28  C   UNL A   1      34.578  30.683  28.285  1.00  0.00     0.251 C 
ATOM     29  H   UNL A   1      32.761  30.352  27.540  1.00  0.00     0.163 HD
ATOM     30  O   UNL A   1      34.270  31.818  28.645  1.00  0.00    -0.269 OA
BRANCH  28  31
ATOM     31  C   UNL A   1      35.962  30.202  28.533  1.00  0.00     0.039 A 
ATOM     32  C   UNL A   1      36.874  30.253  27.468  1.00  0.00     0.014 A 
ATOM     33  C   UNL A   1      36.364  29.638  29.746  1.00  0.00     0.014 A 
ATOM     34  C   UNL A   1      38.187  29.798  27.634  1.00  0.00     0.010 A 
ATOM     35  C   UNL A   1      37.690  29.229  29.927  1.00  0.00     0.010 A 
ATOM     36  C   UNL A   1      38.615  29.305  28.874  1.00  0.00    -0.014 A 
BRANCH  36  37
ATOM     37  C   UNL A   1      40.023  28.872  29.082  1.00  0.00     0.031 A 
ATOM     38  C   UNL A   1      41.032  29.805  29.694  1.00  0.00     0.074 A 
ATOM     39  C   UNL A   1      40.416  27.649  28.674  1.00  0.00     0.049 A 
ATOM     40  N   UNL A   1      42.317  29.630  29.876  1.00  0.00    -0.248 NA
ATOM     41  C   UNL A   1      40.534  31.113  30.146  1.00  0.00     0.031 C 
ATOM     42  C   UNL A   1      39.553  26.649  28.043  1.00  0.00     0.029 A 
ATOM     43  N   UNL A   1      41.647  27.044  28.721  1.00  0.00    -0.354 N 
ATOM     44  C   UNL A   1      42.787  30.812  30.433  1.00  0.00     0.074 A 
ATOM     45  C   UNL A   1      41.652  31.704  30.547  1.00  0.00     0.031 C 
ATOM     46  C   UNL A   1      40.278  25.550  27.777  1.00  0.00     0.029 A 
ATOM     47  C   UNL A   1      41.659  25.776  28.191  1.00  0.00     0.049 A 
ATOM     48  H   UNL A   1      42.446  27.477  29.100  1.00  0.00     0.167 HD
ATOM     49  C   UNL A   1      44.046  31.125  30.822  1.00  0.00     0.037 A 
ATOM     50  C   UNL A   1      42.669  24.897  28.048  1.00  0.00     0.037 A 
ATOM     51  C   UNL A   1      45.172  30.230  30.764  1.00  0.00     0.049 A 
ATOM     52  C   UNL A   1      44.051  25.261  28.510  1.00  0.00     0.074 A 
ATOM     53  C   UNL A   1      46.467  30.444  31.206  1.00  0.00     0.029 A 
ATOM     54  N   UNL A   1      45.135  28.950  30.238  1.00  0.00    -0.354 N 
ATOM     55  N   UNL A   1      44.468  26.370  29.067  1.00  0.00    -0.248 NA
ATOM     56  C   UNL A   1      45.101  24.248  28.322  1.00  0.00     0.031 C 
ATOM     57  C   UNL A   1      47.220  29.297  30.929  1.00  0.00     0.029 A 
ATOM     58  C   UNL A   1      46.388  28.366  30.332  1.00  0.00     0.049 A 
ATOM     59  H   UNL A   1      44.338  28.519  29.854  1.00  0.00     0.167 HD
ATOM     60  C   UNL A   1      45.822  26.182  29.314  1.00  0.00     0.074 A 
ATOM     61  C   UNL A   1      46.156  24.852  28.851  1.00  0.00     0.031 C 
ATOM     62  C   UNL A   1      46.707  27.039  29.877  1.00  0.00     0.037 A 
BRANCH  49  63
ATOM     63  C   UNL A   1      44.278  32.506  31.352  1.00  0.00     0.057 A 
ATOM     64  C   UNL A   1      44.169  32.799  32.716  1.00  0.00     0.134 A 
ATOM     65  C   UNL A   1      44.657  33.544  30.491  1.00  0.00     0.134 A 
ATOM     66  F   UNL A   1      43.800  31.849  33.588  1.00  0.00    -0.206 F 
ATOM     67  C   UNL A   1      44.417  34.082  33.206  1.00  0.00     0.040 A 
ATOM     68  C   UNL A   1      44.922  34.827  30.971  1.00  0.00     0.040 A 
ATOM     69  F   UNL A   1      44.782  33.325  29.173  1.00  0.00    -0.206 F 
ATOM     70  C   UNL A   1      44.798  35.099  32.332  1.00  0.00     0.006 A 
ENDBRANCH  49  63
BRANCH  50  71
ATOM     71  C   UNL A   1      42.408  23.567  27.451  1.00  0.00     0.057 A 
ATOM     72  C   UNL A   1      42.113  22.465  28.261  1.00  0.00     0.134 A 
ATOM     73  C   UNL A   1      42.456  23.365  26.069  1.00  0.00     0.134 A 
ATOM     74  F   UNL A   1      42.076  22.598  29.595  1.00  0.00    -0.206 F 
ATOM     75  C   UNL A   1      41.886  21.201  27.717  1.00  0.00     0.040 A 
ATOM     76  C   UNL A   1      42.216  22.109  25.508  1.00  0.00     0.040 A 
ATOM     77  F   UNL A   1      42.734  24.386  25.244  1.00  0.00    -0.206 F 
ATOM     78  C   UNL A   1      41.933  21.023  26.334  1.00  0.00     0.006 A 
ENDBRANCH  50  71
BRANCH  62  79
ATOM     79  C   UNL A   1      48.112  26.554  30.047  1.00  0.00     0.057 A 
ATOM     80  C   UNL A   1      48.517  25.875  31.202  1.00  0.00     0.134 A 
ATOM     81  C   UNL A   1      49.061  26.741  29.035  1.00  0.00     0.134 A 
ATOM     82  F   UNL A   1      47.656  25.679  32.212  1.00  0.00    -0.206 F 
ATOM     83  C   UNL A   1      49.824  25.408  31.350  1.00  0.00     0.040 A 
ATOM     84  C   UNL A   1      50.367  26.267  29.166  1.00  0.00     0.040 A 
ATOM     85  F   UNL A   1      48.732  27.383  27.904  1.00  0.00    -0.206 F 
ATOM     86  C   UNL A   1      50.752  25.599  30.328  1.00  0.00     0.006 A 
ENDBRANCH  62  79
ENDBRANCH  36  37
ENDBRANCH  28  31
ENDBRANCH  26  27
ENDBRANCH  25  26
ENDBRANCH   1  25
TORSDOF 14
ENDMDL
MODEL 2
REMARK VINA RESULT:     -11.6      2.713      7.614
REMARK SMILES O=C(NCCCCCCNC(=O)c1ccc(-c2c3nc(c(-c4c(F)cccc4F)c4ccc([nH]4)c(-c4c(F)cccc4F)c4nc(c(-c5c(F)cccc5F)c5ccc2[nH]5)C=C4)C=C3)cc1)C1=Cc2c(ccc(Cl)c2Cl)O[C@H]1C(F)(F)F
REMARK SMILES IDX 7 1 6 2 5 3 4 4 3 5 1 6 2 7 67 9 68 10 78 11 69 12 77 13
REMARK SMILES IDX 70 14 75 15 71 16 73 17 76 18 72 19 74 20 79 21 80 22 81 23
REMARK SMILES IDX 82 24 8 25 9 26 10 27 11 28 12 30 13 31 14 32 66 33 15 34
REMARK SMILES IDX 65 35 16 36 17 37 18 38 59 39 19 40 64 41 58 42 60 43 20 44
REMARK SMILES IDX 63 45 57 46 56 47 21 49 47 50 30 51 46 52 31 53 34 54 45 55
REMARK SMILES IDX 61 56 32 57 33 58 44 60 62 61 35 62 22 63 23 64 28 65 24 66
REMARK SMILES IDX 25 67 27 68 29 69 26 70 48 71 49 72 54 73 50 74 51 75 53 76
REMARK SMILES IDX 55 77 52 78 36 79 37 80 42 81 38 82 39 83 41 84 43 85 40 86
REMARK H PARENT 3 8 10 29 60 48 34 59
REMARK Flexibility Score: inf
ROOT
ATOM      1  C   UNL A   1      36.097  20.056  24.970  1.00  0.00     0.002 C 
ENDROOT
BRANCH   1   2
ATOM      2  C   UNL A   1      35.802  21.420  25.610  1.00  0.00     0.002 C 
BRANCH   2   3
ATOM      3  C   UNL A   1      34.743  21.462  26.713  1.00  0.00     0.021 C 
BRANCH   3   4
ATOM      4  C   UNL A   1      34.150  22.833  27.002  1.00  0.00     0.116 C 
BRANCH   4   5
ATOM      5  N   UNL A   1      32.735  22.857  27.357  1.00  0.00    -0.352 N 
ATOM      6  O   UNL A   1      30.627  23.734  27.216  1.00  0.00    -0.270 OA
ATOM      7  C   UNL A   1      31.777  23.709  26.832  1.00  0.00     0.251 C 
ATOM      8  H   UNL A   1      32.433  22.208  28.033  1.00  0.00     0.163 HD
BRANCH   7   9
ATOM      9  C   UNL A   1      32.272  24.621  25.773  1.00  0.00     0.067 C 
ATOM     10  C   UNL A   1      32.652  25.830  26.204  1.00  0.00     0.027 C 
ATOM     11  C   UNL A   1      31.877  24.296  24.368  1.00  0.00     0.314 C 
ATOM     12  C   UNL A   1      32.251  26.968  25.366  1.00  0.00     0.037 A 
ATOM     13  O   UNL A   1      31.419  25.450  23.618  1.00  0.00    -0.475 OA
ATOM     14  C   UNL A   1      31.560  26.695  24.172  1.00  0.00     0.129 A 
ATOM     15  C   UNL A   1      32.265  28.292  25.860  1.00  0.00     0.070 A 
ATOM     16  C   UNL A   1      30.859  27.703  23.509  1.00  0.00     0.049 A 
ATOM     17  C   UNL A   1      31.525  29.290  25.204  1.00  0.00     0.060 A 
ATOM     18  Cl  UNL A   1      33.121  28.676  27.325  1.00  0.00    -0.082 Cl
ATOM     19  C   UNL A   1      30.817  28.990  24.039  1.00  0.00     0.026 A 
ATOM     20  Cl  UNL A   1      31.371  30.896  25.828  1.00  0.00    -0.083 Cl
BRANCH  11  21
ATOM     21  C   UNL A   1      32.959  23.520  23.590  1.00  0.00     0.429 C 
ATOM     22  F   UNL A   1      32.930  22.188  23.814  1.00  0.00    -0.167 F 
ATOM     23  F   UNL A   1      32.813  23.707  22.254  1.00  0.00    -0.167 F 
ATOM     24  F   UNL A   1      34.209  23.943  23.906  1.00  0.00    -0.167 F 
ENDBRANCH  11  21
ENDBRANCH   7   9
ENDBRANCH   4   5
ENDBRANCH   3   4
ENDBRANCH   2   3
ENDBRANCH   1   2
BRANCH   1  25
ATOM     25  C   UNL A   1      37.557  19.717  24.649  1.00  0.00     0.021 C 
BRANCH  25  26
ATOM     26  C   UNL A   1      38.609  20.136  25.677  1.00  0.00     0.116 C 
BRANCH  26  27
ATOM     27  N   UNL A   1      39.791  19.295  25.669  1.00  0.00    -0.352 N 
ATOM     28  C   UNL A   1      41.088  19.549  26.041  1.00  0.00     0.251 C 
ATOM     29  H   UNL A   1      39.636  18.380  25.340  1.00  0.00     0.163 HD
ATOM     30  O   UNL A   1      41.937  18.678  25.857  1.00  0.00    -0.269 OA
BRANCH  28  31
ATOM     31  C   UNL A   1      41.508  20.847  26.630  1.00  0.00     0.039 A 
ATOM     32  C   UNL A   1      41.907  21.867  25.753  1.00  0.00     0.014 A 
ATOM     33  C   UNL A   1      41.593  21.064  28.008  1.00  0.00     0.014 A 
ATOM     34  C   UNL A   1      42.330  23.106  26.249  1.00  0.00     0.010 A 
ATOM     35  C   UNL A   1      41.968  22.318  28.502  1.00  0.00     0.010 A 
ATOM     36  C   UNL A   1      42.339  23.352  27.629  1.00  0.00    -0.014 A 
BRANCH  36  37
ATOM     37  C   UNL A   1      42.732  24.682  28.167  1.00  0.00     0.031 A 
ATOM     38  C   UNL A   1      41.696  25.744  28.421  1.00  0.00     0.074 A 
ATOM     39  C   UNL A   1      44.031  24.961  28.385  1.00  0.00     0.049 A 
ATOM     40  N   UNL A   1      41.860  26.984  28.808  1.00  0.00    -0.248 NA
ATOM     41  C   UNL A   1      40.293  25.367  28.192  1.00  0.00     0.031 C 
ATOM     42  C   UNL A   1      45.145  24.038  28.161  1.00  0.00     0.029 A 
ATOM     43  N   UNL A   1      44.636  26.109  28.836  1.00  0.00    -0.354 N 
ATOM     44  C   UNL A   1      40.590  27.544  28.841  1.00  0.00     0.074 A 
ATOM     45  C   UNL A   1      39.665  26.513  28.419  1.00  0.00     0.031 C 
ATOM     46  C   UNL A   1      46.294  24.650  28.491  1.00  0.00     0.029 A 
ATOM     47  C   UNL A   1      46.004  26.014  28.921  1.00  0.00     0.049 A 
ATOM     48  H   UNL A   1      44.137  26.922  29.076  1.00  0.00     0.167 HD
ATOM     49  C   UNL A   1      40.225  28.799  29.197  1.00  0.00     0.037 A 
ATOM     50  C   UNL A   1      46.922  26.924  29.295  1.00  0.00     0.037 A 
ATOM     51  C   UNL A   1      41.128  29.816  29.668  1.00  0.00     0.049 A 
ATOM     52  C   UNL A   1      46.488  28.301  29.709  1.00  0.00     0.074 A 
ATOM     53  C   UNL A   1      40.830  31.091  30.119  1.00  0.00     0.029 A 
ATOM     54  N   UNL A   1      42.502  29.672  29.756  1.00  0.00    -0.354 N 
ATOM     55  N   UNL A   1      45.280  28.801  29.767  1.00  0.00    -0.248 NA
ATOM     56  C   UNL A   1      47.549  29.240  30.107  1.00  0.00     0.031 C 
ATOM     57  C   UNL A   1      42.029  31.727  30.462  1.00  0.00     0.029 A 
ATOM     58  C   UNL A   1      43.068  30.839  30.242  1.00  0.00     0.049 A 
ATOM     59  H   UNL A   1      43.002  28.861  29.510  1.00  0.00     0.167 HD
ATOM     60  C   UNL A   1      45.431  30.103  30.227  1.00  0.00     0.074 A 
ATOM     61  C   UNL A   1      46.847  30.316  30.436  1.00  0.00     0.031 C 
ATOM     62  C   UNL A   1      44.477  31.037  30.455  1.00  0.00     0.037 A 
BRANCH  49  63
ATOM     63  C   UNL A   1      38.773  29.148  29.090  1.00  0.00     0.057 A 
ATOM     64  C   UNL A   1      37.914  29.068  30.192  1.00  0.00     0.134 A 
ATOM     65  C   UNL A   1      38.240  29.611  27.881  1.00  0.00     0.134 A 
ATOM     66  F   UNL A   1      38.365  28.622  31.374  1.00  0.00    -0.206 F 
ATOM     67  C   UNL A   1      36.568  29.424  30.092  1.00  0.00     0.040 A 
ATOM     68  C   UNL A   1      36.899  29.984  27.772  1.00  0.00     0.040 A 
ATOM     69  F   UNL A   1      39.014  29.713  26.789  1.00  0.00    -0.206 F 
ATOM     70  C   UNL A   1      36.059  29.888  28.880  1.00  0.00     0.006 A 
ENDBRANCH  49  63
BRANCH  50  71
ATOM     71  C   UNL A   1      48.358  26.557  29.316  1.00  0.00     0.057 A 
ATOM     72  C   UNL A   1      49.182  26.831  28.219  1.00  0.00     0.134 A 
ATOM     73  C   UNL A   1      48.932  25.919  30.419  1.00  0.00     0.134 A 
ATOM     74  F   UNL A   1      48.676  27.421  27.126  1.00  0.00    -0.206 F 
ATOM     75  C   UNL A   1      50.530  26.473  28.214  1.00  0.00     0.040 A 
ATOM     76  C   UNL A   1      50.283  25.569  30.434  1.00  0.00     0.040 A 
ATOM     77  F   UNL A   1      48.189  25.632  31.498  1.00  0.00    -0.206 F 
ATOM     78  C   UNL A   1      51.084  25.843  29.327  1.00  0.00     0.006 A 
ENDBRANCH  50  71
BRANCH  62  79
ATOM     79  C   UNL A   1      44.931  32.361  30.983  1.00  0.00     0.057 A 
ATOM     80  C   UNL A   1      45.056  32.598  32.357  1.00  0.00     0.134 A 
ATOM     81  C   UNL A   1      45.276  33.399  30.108  1.00  0.00     0.134 A 
ATOM     82  F   UNL A   1      44.726  31.646  33.243  1.00  0.00    -0.206 F 
ATOM     83  C   UNL A   1      45.497  33.829  32.845  1.00  0.00     0.040 A 
ATOM     84  C   UNL A   1      45.732  34.629  30.585  1.00  0.00     0.040 A 
ATOM     85  F   UNL A   1      45.179  33.232  28.781  1.00  0.00    -0.206 F 
ATOM     86  C   UNL A   1      45.841  34.847  31.957  1.00  0.00     0.006 A 
ENDBRANCH  62  79
ENDBRANCH  36  37
ENDBRANCH  28  31
ENDBRANCH  26  27
ENDBRANCH  25  26
ENDBRANCH   1  25
TORSDOF 14
ENDMDL
MODEL 3
REMARK VINA RESULT:     -11.6      4.193      8.879
REMARK SMILES O=C(NCCCCCCNC(=O)c1ccc(-c2c3nc(c(-c4c(F)cccc4F)c4ccc([nH]4)c(-c4c(F)cccc4F)c4nc(c(-c5c(F)cccc5F)c5ccc2[nH]5)C=C4)C=C3)cc1)C1=Cc2c(ccc(Cl)c2Cl)O[C@H]1C(F)(F)F
REMARK SMILES IDX 7 1 6 2 5 3 4 4 3 5 1 6 2 7 67 9 68 10 78 11 69 12 77 13
REMARK SMILES IDX 70 14 75 15 71 16 73 17 76 18 72 19 74 20 79 21 80 22 81 23
REMARK SMILES IDX 82 24 8 25 9 26 10 27 11 28 12 30 13 31 14 32 66 33 15 34
REMARK SMILES IDX 65 35 16 36 17 37 18 38 59 39 19 40 64 41 58 42 60 43 20 44
REMARK SMILES IDX 63 45 57 46 56 47 21 49 47 50 30 51 46 52 31 53 34 54 45 55
REMARK SMILES IDX 61 56 32 57 33 58 44 60 62 61 35 62 22 63 23 64 28 65 24 66
REMARK SMILES IDX 25 67 27 68 29 69 26 70 48 71 49 72 54 73 50 74 51 75 53 76
REMARK SMILES IDX 55 77 52 78 36 79 37 80 42 81 38 82 39 83 41 84 43 85 40 86
REMARK H PARENT 3 8 10 29 60 48 34 59
REMARK Flexibility Score: inf
ROOT
ATOM      1  C   UNL A   1      40.738  21.493  26.642  1.00  0.00     0.002 C 
ENDROOT
BRANCH   1   2
ATOM      2  C   UNL A   1      39.335  21.926  26.190  1.00  0.00     0.002 C 
BRANCH   2   3
ATOM      3  C   UNL A   1      38.861  23.317  26.615  1.00  0.00     0.021 C 
BRANCH   3   4
ATOM      4  C   UNL A   1      37.543  23.775  26.007  1.00  0.00     0.116 C 
BRANCH   4   5
ATOM      5  N   UNL A   1      37.469  23.753  24.550  1.00  0.00    -0.352 N 
ATOM      6  O   UNL A   1      36.544  23.047  22.580  1.00  0.00    -0.270 OA
ATOM      7  C   UNL A   1      36.516  23.092  23.792  1.00  0.00     0.251 C 
ATOM      8  H   UNL A   1      38.161  24.254  24.059  1.00  0.00     0.163 HD
BRANCH   7   9
ATOM      9  C   UNL A   1      35.463  22.408  24.581  1.00  0.00     0.067 C 
ATOM     10  C   UNL A   1      35.700  21.115  24.835  1.00  0.00     0.027 C 
ATOM     11  C   UNL A   1      34.113  23.053  24.600  1.00  0.00     0.314 C 
ATOM     12  C   UNL A   1      34.549  20.212  24.704  1.00  0.00     0.037 A 
ATOM     13  O   UNL A   1      33.026  22.117  24.390  1.00  0.00    -0.475 OA
ATOM     14  C   UNL A   1      33.302  20.775  24.380  1.00  0.00     0.129 A 
ATOM     15  C   UNL A   1      34.717  18.813  24.591  1.00  0.00     0.070 A 
ATOM     16  C   UNL A   1      32.260  19.975  23.910  1.00  0.00     0.049 A 
ATOM     17  C   UNL A   1      33.672  18.023  24.081  1.00  0.00     0.060 A 
ATOM     18  Cl  UNL A   1      36.238  18.072  24.996  1.00  0.00    -0.082 Cl
ATOM     19  C   UNL A   1      32.454  18.608  23.733  1.00  0.00     0.026 A 
ATOM     20  Cl  UNL A   1      33.850  16.330  23.774  1.00  0.00    -0.083 Cl
BRANCH  11  21
ATOM     21  C   UNL A   1      33.867  23.921  25.851  1.00  0.00     0.429 C 
ATOM     22  F   UNL A   1      32.567  24.239  26.036  1.00  0.00    -0.167 F 
ATOM     23  F   UNL A   1      34.287  23.276  26.969  1.00  0.00    -0.167 F 
ATOM     24  F   UNL A   1      34.552  25.090  25.797  1.00  0.00    -0.167 F 
ENDBRANCH  11  21
ENDBRANCH   7   9
ENDBRANCH   4   5
ENDBRANCH   3   4
ENDBRANCH   2   3
ENDBRANCH   1   2
BRANCH   1  25
ATOM     25  C   UNL A   1      41.389  22.268  27.794  1.00  0.00     0.021 C 
BRANCH  25  26
ATOM     26  C   UNL A   1      42.578  23.164  27.444  1.00  0.00     0.116 C 
BRANCH  26  27
ATOM     27  N   UNL A   1      42.355  23.989  26.272  1.00  0.00    -0.352 N 
ATOM     28  C   UNL A   1      41.913  25.283  26.144  1.00  0.00     0.251 C 
ATOM     29  H   UNL A   1      42.555  23.543  25.417  1.00  0.00     0.163 HD
ATOM     30  O   UNL A   1      41.726  25.734  25.015  1.00  0.00    -0.269 OA
BRANCH  28  31
ATOM     31  C   UNL A   1      41.627  26.147  27.319  1.00  0.00     0.039 A 
ATOM     32  C   UNL A   1      42.481  27.234  27.557  1.00  0.00     0.014 A 
ATOM     33  C   UNL A   1      40.601  25.877  28.228  1.00  0.00     0.014 A 
ATOM     34  C   UNL A   1      42.273  28.074  28.658  1.00  0.00     0.010 A 
ATOM     35  C   UNL A   1      40.363  26.744  29.300  1.00  0.00     0.010 A 
ATOM     36  C   UNL A   1      41.196  27.852  29.526  1.00  0.00    -0.014 A 
BRANCH  36  37
ATOM     37  C   UNL A   1      40.930  28.769  30.667  1.00  0.00     0.031 A 
ATOM     38  C   UNL A   1      39.815  29.777  30.597  1.00  0.00     0.074 A 
ATOM     39  C   UNL A   1      41.722  28.733  31.755  1.00  0.00     0.049 A 
ATOM     40  N   UNL A   1      39.489  30.710  31.457  1.00  0.00    -0.248 NA
ATOM     41  C   UNL A   1      38.968  29.745  29.395  1.00  0.00     0.031 C 
ATOM     42  C   UNL A   1      42.853  27.824  31.950  1.00  0.00     0.029 A 
ATOM     43  N   UNL A   1      41.701  29.489  32.901  1.00  0.00    -0.354 N 
ATOM     44  C   UNL A   1      38.422  31.393  30.890  1.00  0.00     0.074 A 
ATOM     45  C   UNL A   1      38.163  30.779  29.604  1.00  0.00     0.031 C 
ATOM     46  C   UNL A   1      43.406  28.065  33.150  1.00  0.00     0.029 A 
ATOM     47  C   UNL A   1      42.691  29.161  33.797  1.00  0.00     0.049 A 
ATOM     48  H   UNL A   1      41.039  30.198  33.067  1.00  0.00     0.167 HD
ATOM     49  C   UNL A   1      37.714  32.432  31.395  1.00  0.00     0.037 A 
ATOM     50  C   UNL A   1      42.993  29.687  34.998  1.00  0.00     0.037 A 
ATOM     51  C   UNL A   1      37.926  33.017  32.693  1.00  0.00     0.049 A 
ATOM     52  C   UNL A   1      42.177  30.823  35.546  1.00  0.00     0.074 A 
ATOM     53  C   UNL A   1      37.205  34.026  33.312  1.00  0.00     0.029 A 
ATOM     54  N   UNL A   1      38.927  32.642  33.574  1.00  0.00    -0.354 N 
ATOM     55  N   UNL A   1      41.150  31.433  35.011  1.00  0.00    -0.248 NA
ATOM     56  C   UNL A   1      42.568  31.343  36.866  1.00  0.00     0.031 C 
ATOM     57  C   UNL A   1      37.784  34.275  34.562  1.00  0.00     0.029 A 
ATOM     58  C   UNL A   1      38.851  33.408  34.726  1.00  0.00     0.049 A 
ATOM     59  H   UNL A   1      39.592  31.937  33.406  1.00  0.00     0.167 HD
ATOM     60  C   UNL A   1      40.757  32.392  35.934  1.00  0.00     0.074 A 
ATOM     61  C   UNL A   1      41.654  32.283  37.065  1.00  0.00     0.031 C 
ATOM     62  C   UNL A   1      39.742  33.285  35.848  1.00  0.00     0.037 A 
BRANCH  49  63
ATOM     63  C   UNL A   1      36.634  33.011  30.536  1.00  0.00     0.057 A 
ATOM     64  C   UNL A   1      36.924  33.867  29.466  1.00  0.00     0.134 A 
ATOM     65  C   UNL A   1      35.293  32.674  30.754  1.00  0.00     0.134 A 
ATOM     66  F   UNL A   1      38.189  34.234  29.214  1.00  0.00    -0.206 F 
ATOM     67  C   UNL A   1      35.914  34.379  28.651  1.00  0.00     0.040 A 
ATOM     68  C   UNL A   1      34.276  33.167  29.936  1.00  0.00     0.040 A 
ATOM     69  F   UNL A   1      34.952  31.855  31.761  1.00  0.00    -0.206 F 
ATOM     70  C   UNL A   1      34.586  34.025  28.883  1.00  0.00     0.006 A 
ENDBRANCH  49  63
BRANCH  50  71
ATOM     71  C   UNL A   1      44.119  29.130  35.784  1.00  0.00     0.057 A 
ATOM     72  C   UNL A   1      45.407  29.664  35.665  1.00  0.00     0.134 A 
ATOM     73  C   UNL A   1      43.938  28.052  36.655  1.00  0.00     0.134 A 
ATOM     74  F   UNL A   1      45.640  30.683  34.826  1.00  0.00    -0.206 F 
ATOM     75  C   UNL A   1      46.482  29.138  36.382  1.00  0.00     0.040 A 
ATOM     76  C   UNL A   1      45.001  27.525  37.391  1.00  0.00     0.040 A 
ATOM     77  F   UNL A   1      42.725  27.501  36.808  1.00  0.00    -0.206 F 
ATOM     78  C   UNL A   1      46.278  28.067  37.251  1.00  0.00     0.006 A 
ENDBRANCH  50  71
BRANCH  62  79
ATOM     79  C   UNL A   1      39.530  34.191  37.020  1.00  0.00     0.057 A 
ATOM     80  C   UNL A   1      39.984  35.515  37.013  1.00  0.00     0.134 A 
ATOM     81  C   UNL A   1      38.840  33.745  38.153  1.00  0.00     0.134 A 
ATOM     82  F   UNL A   1      40.665  35.994  35.960  1.00  0.00    -0.206 F 
ATOM     83  C   UNL A   1      39.769  36.364  38.100  1.00  0.00     0.040 A 
ATOM     84  C   UNL A   1      38.606  34.589  39.241  1.00  0.00     0.040 A 
ATOM     85  F   UNL A   1      38.379  32.488  38.219  1.00  0.00    -0.206 F 
ATOM     86  C   UNL A   1      39.074  35.902  39.216  1.00  0.00     0.006 A 
ENDBRANCH  62  79
ENDBRANCH  36  37
ENDBRANCH  28  31
ENDBRANCH  26  27
ENDBRANCH  25  26
ENDBRANCH   1  25
TORSDOF 14
ENDMDL
