MODEL 1
REMARK VINA RESULT:     -11.1      0.000      0.000
REMARK SMILES O=C(NCCCCCCNC(=O)c1cc2sc(Cl)cc2s1)c1ccc(-c2c3nc(c(-c4c(F)cccc4F)c4ccc([nH]4)c(-c4c(F)cccc4F)c4nc(c(-c5c(F)cccc5F)c5ccc2[nH]5)C=C4)C=C3)cc1
REMARK SMILES IDX 5 1 4 2 3 3 1 4 2 5 22 7 23 8 75 9 24 10 74 11 25 12 26 13
REMARK SMILES IDX 27 14 68 15 28 16 73 17 67 18 69 19 29 20 72 21 66 22 65 23
REMARK SMILES IDX 30 25 56 26 39 27 55 28 40 29 43 30 54 31 70 32 41 33 42 34
REMARK SMILES IDX 53 36 71 37 44 38 31 39 32 40 37 41 33 42 34 43 36 44 38 45
REMARK SMILES IDX 35 46 57 47 58 48 63 49 59 50 60 51 62 52 64 53 61 54 45 55
REMARK SMILES IDX 46 56 51 57 47 58 48 59 50 60 52 61 49 62 6 63 7 64 8 65
REMARK SMILES IDX 9 66 10 67 11 68 12 70 13 71 14 72 21 73 15 74 20 75 16 76
REMARK SMILES IDX 19 77 17 78 18 79
REMARK H PARENT 3 6 69 24 43 35 10 69
REMARK Flexibility Score: inf
ROOT
ATOM      1  C   UNL A   1      36.896  21.841  24.459  1.00  0.00     0.021 C 
ENDROOT
BRANCH   1   2
ATOM      2  C   UNL A   1      37.661  22.134  25.750  1.00  0.00     0.116 C 
BRANCH   2   3
ATOM      3  N   UNL A   1      39.075  21.840  25.680  1.00  0.00    -0.352 N 
ATOM      4  O   UNL A   1      41.242  21.741  26.081  1.00  0.00    -0.269 OA
ATOM      5  C   UNL A   1      40.197  22.375  26.244  1.00  0.00     0.251 C 
ATOM      6  H   UNL A   1      39.275  21.077  25.089  1.00  0.00     0.163 HD
BRANCH   5   7
ATOM      7  C   UNL A   1      40.260  23.682  26.953  1.00  0.00     0.039 A 
ATOM      8  C   UNL A   1      39.482  24.807  26.675  1.00  0.00     0.014 A 
ATOM      9  C   UNL A   1      41.248  23.778  27.951  1.00  0.00     0.014 A 
ATOM     10  C   UNL A   1      39.759  26.025  27.292  1.00  0.00     0.010 A 
ATOM     11  C   UNL A   1      41.522  24.985  28.579  1.00  0.00     0.010 A 
ATOM     12  C   UNL A   1      40.804  26.117  28.211  1.00  0.00    -0.014 A 
BRANCH  12  13
ATOM     13  C   UNL A   1      41.018  27.388  28.893  1.00  0.00     0.031 A 
ATOM     14  C   UNL A   1      42.260  28.099  28.472  1.00  0.00     0.074 A 
ATOM     15  C   UNL A   1      40.099  27.950  29.705  1.00  0.00     0.049 A 
ATOM     16  N   UNL A   1      43.275  28.442  29.197  1.00  0.00    -0.248 NA
ATOM     17  C   UNL A   1      42.449  28.344  27.032  1.00  0.00     0.031 C 
ATOM     18  C   UNL A   1      38.729  27.498  29.959  1.00  0.00     0.029 A 
ATOM     19  N   UNL A   1      40.164  29.118  30.405  1.00  0.00    -0.354 N 
ATOM     20  C   UNL A   1      44.144  29.123  28.343  1.00  0.00     0.074 A 
ATOM     21  C   UNL A   1      43.668  28.884  27.008  1.00  0.00     0.031 C 
ATOM     22  C   UNL A   1      38.032  28.493  30.556  1.00  0.00     0.029 A 
ATOM     23  C   UNL A   1      38.933  29.596  30.843  1.00  0.00     0.049 A 
ATOM     24  H   UNL A   1      41.012  29.586  30.585  1.00  0.00     0.167 HD
ATOM     25  C   UNL A   1      45.043  30.028  28.823  1.00  0.00     0.037 A 
ATOM     26  C   UNL A   1      38.671  30.833  31.339  1.00  0.00     0.037 A 
ATOM     27  C   UNL A   1      45.287  29.816  30.227  1.00  0.00     0.049 A 
ATOM     28  C   UNL A   1      39.963  31.437  31.749  1.00  0.00     0.074 A 
ATOM     29  C   UNL A   1      45.775  28.774  30.991  1.00  0.00     0.029 A 
ATOM     30  N   UNL A   1      44.687  30.673  31.115  1.00  0.00    -0.354 N 
ATOM     31  N   UNL A   1      40.672  31.022  32.759  1.00  0.00    -0.248 NA
ATOM     32  C   UNL A   1      40.686  32.213  30.753  1.00  0.00     0.031 C 
ATOM     33  C   UNL A   1      45.017  28.816  32.199  1.00  0.00     0.029 A 
ATOM     34  C   UNL A   1      44.160  29.914  32.123  1.00  0.00     0.049 A 
ATOM     35  H   UNL A   1      44.645  31.654  31.040  1.00  0.00     0.167 HD
ATOM     36  C   UNL A   1      41.984  31.092  32.317  1.00  0.00     0.074 A 
ATOM     37  C   UNL A   1      41.937  31.908  31.106  1.00  0.00     0.031 C 
ATOM     38  C   UNL A   1      42.937  30.246  32.808  1.00  0.00     0.037 A 
BRANCH  25  39
ATOM     39  C   UNL A   1      45.356  31.353  28.151  1.00  0.00     0.057 A 
ATOM     40  C   UNL A   1      44.285  32.208  27.820  1.00  0.00     0.134 A 
ATOM     41  C   UNL A   1      46.577  31.668  27.522  1.00  0.00     0.134 A 
ATOM     42  F   UNL A   1      43.072  32.041  28.370  1.00  0.00    -0.206 F 
ATOM     43  C   UNL A   1      44.386  33.198  26.835  1.00  0.00     0.040 A 
ATOM     44  C   UNL A   1      46.700  32.686  26.571  1.00  0.00     0.040 A 
ATOM     45  F   UNL A   1      47.697  30.965  27.713  1.00  0.00    -0.206 F 
ATOM     46  C   UNL A   1      45.593  33.424  26.189  1.00  0.00     0.006 A 
ENDBRANCH  25  39
BRANCH  26  47
ATOM     47  C   UNL A   1      37.445  31.655  31.188  1.00  0.00     0.057 A 
ATOM     48  C   UNL A   1      37.055  32.162  29.939  1.00  0.00     0.134 A 
ATOM     49  C   UNL A   1      36.479  31.722  32.206  1.00  0.00     0.134 A 
ATOM     50  F   UNL A   1      37.889  32.102  28.889  1.00  0.00    -0.206 F 
ATOM     51  C   UNL A   1      35.773  32.684  29.710  1.00  0.00     0.040 A 
ATOM     52  C   UNL A   1      35.198  32.245  31.994  1.00  0.00     0.040 A 
ATOM     53  F   UNL A   1      36.711  31.196  33.416  1.00  0.00    -0.206 F 
ATOM     54  C   UNL A   1      34.836  32.716  30.739  1.00  0.00     0.006 A 
ENDBRANCH  26  47
BRANCH  38  55
ATOM     55  C   UNL A   1      42.593  29.422  34.015  1.00  0.00     0.057 A 
ATOM     56  C   UNL A   1      42.029  28.138  33.956  1.00  0.00     0.134 A 
ATOM     57  C   UNL A   1      42.997  29.880  35.273  1.00  0.00     0.134 A 
ATOM     58  F   UNL A   1      41.704  27.574  32.786  1.00  0.00    -0.206 F 
ATOM     59  C   UNL A   1      41.839  27.366  35.106  1.00  0.00     0.040 A 
ATOM     60  C   UNL A   1      42.845  29.105  36.423  1.00  0.00     0.040 A 
ATOM     61  F   UNL A   1      43.596  31.076  35.395  1.00  0.00    -0.206 F 
ATOM     62  C   UNL A   1      42.255  27.847  36.344  1.00  0.00     0.006 A 
ENDBRANCH  38  55
ENDBRANCH  12  13
ENDBRANCH   5   7
ENDBRANCH   2   3
ENDBRANCH   1   2
BRANCH   1  63
ATOM     63  C   UNL A   1      36.649  23.060  23.564  1.00  0.00     0.002 C 
BRANCH  63  64
ATOM     64  C   UNL A   1      35.214  23.594  23.557  1.00  0.00     0.002 C 
BRANCH  64  65
ATOM     65  C   UNL A   1      34.821  24.433  24.778  1.00  0.00     0.021 C 
BRANCH  65  66
ATOM     66  C   UNL A   1      33.374  24.921  24.782  1.00  0.00     0.116 C 
BRANCH  66  67
ATOM     67  N   UNL A   1      32.713  24.641  26.046  1.00  0.00    -0.351 N 
ATOM     68  C   UNL A   1      32.221  23.453  26.523  1.00  0.00     0.261 C 
ATOM     69  H   UNL A   1      32.602  25.415  26.644  1.00  0.00     0.163 HD
ATOM     70  O   UNL A   1      31.501  23.497  27.532  1.00  0.00    -0.268 OA
BRANCH  68  71
ATOM     71  C   UNL A   1      32.569  22.226  25.839  1.00  0.00     0.094 A 
ATOM     72  C   UNL A   1      32.008  21.703  24.688  1.00  0.00     0.045 A 
ATOM     73  S   UNL A   1      33.859  21.277  26.455  1.00  0.00    -0.129 S 
ATOM     74  C   UNL A   1      32.561  20.425  24.386  1.00  0.00     0.047 A 
ATOM     75  C   UNL A   1      33.558  20.057  25.248  1.00  0.00     0.047 A 
ATOM     76  S   UNL A   1      32.257  19.208  23.172  1.00  0.00    -0.122 S 
ATOM     77  C   UNL A   1      34.102  18.769  24.950  1.00  0.00     0.052 A 
ATOM     78  C   UNL A   1      33.457  18.236  23.866  1.00  0.00     0.095 A 
ATOM     79  Cl  UNL A   1      33.774  16.691  23.174  1.00  0.00    -0.072 Cl
ENDBRANCH  68  71
ENDBRANCH  66  67
ENDBRANCH  65  66
ENDBRANCH  64  65
ENDBRANCH  63  64
ENDBRANCH   1  63
TORSDOF 13
ENDMDL
MODEL 2
REMARK VINA RESULT:     -11.1      3.317      8.148
REMARK SMILES O=C(NCCCCCCNC(=O)c1cc2sc(Cl)cc2s1)c1ccc(-c2c3nc(c(-c4c(F)cccc4F)c4ccc([nH]4)c(-c4c(F)cccc4F)c4nc(c(-c5c(F)cccc5F)c5ccc2[nH]5)C=C4)C=C3)cc1
REMARK SMILES IDX 5 1 4 2 3 3 1 4 2 5 22 7 23 8 75 9 24 10 74 11 25 12 26 13
REMARK SMILES IDX 27 14 68 15 28 16 73 17 67 18 69 19 29 20 72 21 66 22 65 23
REMARK SMILES IDX 30 25 56 26 39 27 55 28 40 29 43 30 54 31 70 32 41 33 42 34
REMARK SMILES IDX 53 36 71 37 44 38 31 39 32 40 37 41 33 42 34 43 36 44 38 45
REMARK SMILES IDX 35 46 57 47 58 48 63 49 59 50 60 51 62 52 64 53 61 54 45 55
REMARK SMILES IDX 46 56 51 57 47 58 48 59 50 60 52 61 49 62 6 63 7 64 8 65
REMARK SMILES IDX 9 66 10 67 11 68 12 70 13 71 14 72 21 73 15 74 20 75 16 76
REMARK SMILES IDX 19 77 17 78 18 79
REMARK H PARENT 3 6 69 24 43 35 10 69
REMARK Flexibility Score: inf
ROOT
ATOM      1  C   UNL A   1      33.376  33.919  28.386  1.00  0.00     0.021 C 
ENDROOT
BRANCH   1   2
ATOM      2  C   UNL A   1      33.403  35.203  29.216  1.00  0.00     0.116 C 
BRANCH   2   3
ATOM      3  N   UNL A   1      33.029  35.020  30.601  1.00  0.00    -0.352 N 
ATOM      4  O   UNL A   1      33.072  34.707  32.785  1.00  0.00    -0.269 OA
ATOM      5  C   UNL A   1      33.669  34.558  31.716  1.00  0.00     0.251 C 
ATOM      6  H   UNL A   1      32.099  35.290  30.783  1.00  0.00     0.163 HD
BRANCH   5   7
ATOM      7  C   UNL A   1      34.966  33.830  31.720  1.00  0.00     0.039 A 
ATOM      8  C   UNL A   1      36.235  34.410  31.784  1.00  0.00     0.014 A 
ATOM      9  C   UNL A   1      34.873  32.432  31.582  1.00  0.00     0.014 A 
ATOM     10  C   UNL A   1      37.375  33.632  31.601  1.00  0.00     0.010 A 
ATOM     11  C   UNL A   1      36.005  31.648  31.412  1.00  0.00     0.010 A 
ATOM     12  C   UNL A   1      37.252  32.260  31.375  1.00  0.00    -0.014 A 
BRANCH  12  13
ATOM     13  C   UNL A   1      38.469  31.464  31.262  1.00  0.00     0.031 A 
ATOM     14  C   UNL A   1      39.143  31.200  32.566  1.00  0.00     0.074 A 
ATOM     15  C   UNL A   1      38.861  30.880  30.110  1.00  0.00     0.049 A 
ATOM     16  N   UNL A   1      40.337  31.532  32.935  1.00  0.00    -0.248 NA
ATOM     17  C   UNL A   1      38.334  30.602  33.642  1.00  0.00     0.031 C 
ATOM     18  C   UNL A   1      38.130  30.817  28.842  1.00  0.00     0.029 A 
ATOM     19  N   UNL A   1      39.965  30.121  29.860  1.00  0.00    -0.354 N 
ATOM     20  C   UNL A   1      40.501  31.010  34.220  1.00  0.00     0.074 A 
ATOM     21  C   UNL A   1      39.194  30.604  34.661  1.00  0.00     0.031 C 
ATOM     22  C   UNL A   1      38.694  29.877  28.047  1.00  0.00     0.029 A 
ATOM     23  C   UNL A   1      39.892  29.368  28.692  1.00  0.00     0.049 A 
ATOM     24  H   UNL A   1      40.749  30.106  30.455  1.00  0.00     0.167 HD
ATOM     25  C   UNL A   1      41.738  30.733  34.719  1.00  0.00     0.037 A 
ATOM     26  C   UNL A   1      40.721  28.356  28.324  1.00  0.00     0.037 A 
ATOM     27  C   UNL A   1      42.756  31.461  34.004  1.00  0.00     0.049 A 
ATOM     28  C   UNL A   1      41.958  28.470  29.135  1.00  0.00     0.074 A 
ATOM     29  C   UNL A   1      43.034  32.795  33.781  1.00  0.00     0.029 A 
ATOM     30  N   UNL A   1      43.507  30.770  33.086  1.00  0.00    -0.354 N 
ATOM     31  N   UNL A   1      42.829  29.429  29.001  1.00  0.00    -0.248 NA
ATOM     32  C   UNL A   1      41.993  27.764  30.406  1.00  0.00     0.031 C 
ATOM     33  C   UNL A   1      43.532  32.849  32.445  1.00  0.00     0.029 A 
ATOM     34  C   UNL A   1      43.587  31.542  31.960  1.00  0.00     0.049 A 
ATOM     35  H   UNL A   1      43.914  29.882  33.214  1.00  0.00     0.167 HD
ATOM     36  C   UNL A   1      43.209  29.738  30.298  1.00  0.00     0.074 A 
ATOM     37  C   UNL A   1      42.724  28.628  31.114  1.00  0.00     0.031 C 
ATOM     38  C   UNL A   1      43.622  30.997  30.626  1.00  0.00     0.037 A 
BRANCH  25  39
ATOM     39  C   UNL A   1      42.068  29.496  35.535  1.00  0.00     0.057 A 
ATOM     40  C   UNL A   1      42.972  29.622  36.611  1.00  0.00     0.134 A 
ATOM     41  C   UNL A   1      41.825  28.171  35.124  1.00  0.00     0.134 A 
ATOM     42  F   UNL A   1      43.272  30.825  37.123  1.00  0.00    -0.206 F 
ATOM     43  C   UNL A   1      43.683  28.534  37.131  1.00  0.00     0.040 A 
ATOM     44  C   UNL A   1      42.496  27.072  35.669  1.00  0.00     0.040 A 
ATOM     45  F   UNL A   1      41.002  27.860  34.118  1.00  0.00    -0.206 F 
ATOM     46  C   UNL A   1      43.462  27.254  36.642  1.00  0.00     0.006 A 
ENDBRANCH  25  39
BRANCH  26  47
ATOM     47  C   UNL A   1      40.400  27.120  27.569  1.00  0.00     0.057 A 
ATOM     48  C   UNL A   1      41.038  26.820  26.354  1.00  0.00     0.134 A 
ATOM     49  C   UNL A   1      39.677  26.069  28.158  1.00  0.00     0.134 A 
ATOM     50  F   UNL A   1      41.792  27.742  25.735  1.00  0.00    -0.206 F 
ATOM     51  C   UNL A   1      40.978  25.545  25.773  1.00  0.00     0.040 A 
ATOM     52  C   UNL A   1      39.604  24.794  27.586  1.00  0.00     0.040 A 
ATOM     53  F   UNL A   1      39.096  26.215  29.356  1.00  0.00    -0.206 F 
ATOM     54  C   UNL A   1      40.267  24.524  26.395  1.00  0.00     0.006 A 
ENDBRANCH  26  47
BRANCH  38  55
ATOM     55  C   UNL A   1      43.903  31.961  29.511  1.00  0.00     0.057 A 
ATOM     56  C   UNL A   1      43.012  32.960  29.090  1.00  0.00     0.134 A 
ATOM     57  C   UNL A   1      45.185  31.979  28.952  1.00  0.00     0.134 A 
ATOM     58  F   UNL A   1      41.797  33.084  29.640  1.00  0.00    -0.206 F 
ATOM     59  C   UNL A   1      43.371  33.907  28.126  1.00  0.00     0.040 A 
ATOM     60  C   UNL A   1      45.567  32.941  28.016  1.00  0.00     0.040 A 
ATOM     61  F   UNL A   1      46.108  31.088  29.350  1.00  0.00    -0.206 F 
ATOM     62  C   UNL A   1      44.655  33.903  27.591  1.00  0.00     0.006 A 
ENDBRANCH  38  55
ENDBRANCH  12  13
ENDBRANCH   5   7
ENDBRANCH   2   3
ENDBRANCH   1   2
BRANCH   1  63
ATOM     63  C   UNL A   1      34.754  33.326  28.071  1.00  0.00     0.002 C 
BRANCH  63  64
ATOM     64  C   UNL A   1      34.782  31.814  27.833  1.00  0.00     0.002 C 
BRANCH  64  65
ATOM     65  C   UNL A   1      33.443  31.189  27.429  1.00  0.00     0.021 C 
BRANCH  65  66
ATOM     66  C   UNL A   1      33.530  29.743  26.944  1.00  0.00     0.116 C 
BRANCH  66  67
ATOM     67  N   UNL A   1      33.885  29.666  25.536  1.00  0.00    -0.351 N 
ATOM     68  C   UNL A   1      33.761  28.612  24.668  1.00  0.00     0.261 C 
ATOM     69  H   UNL A   1      34.270  30.486  25.153  1.00  0.00     0.163 HD
ATOM     70  O   UNL A   1      34.333  28.704  23.571  1.00  0.00    -0.268 OA
BRANCH  68  71
ATOM     71  C   UNL A   1      32.971  27.466  25.066  1.00  0.00     0.094 A 
ATOM     72  C   UNL A   1      31.597  27.316  25.006  1.00  0.00     0.045 A 
ATOM     73  S   UNL A   1      33.779  26.070  25.651  1.00  0.00    -0.129 S 
ATOM     74  C   UNL A   1      31.193  26.077  25.583  1.00  0.00     0.047 A 
ATOM     75  C   UNL A   1      32.250  25.304  25.983  1.00  0.00     0.047 A 
ATOM     76  S   UNL A   1      29.658  25.313  25.910  1.00  0.00    -0.122 S 
ATOM     77  C   UNL A   1      31.842  24.068  26.573  1.00  0.00     0.052 A 
ATOM     78  C   UNL A   1      30.474  23.994  26.589  1.00  0.00     0.095 A 
ATOM     79  Cl  UNL A   1      29.551  22.690  27.230  1.00  0.00    -0.072 Cl
ENDBRANCH  68  71
ENDBRANCH  66  67
ENDBRANCH  65  66
ENDBRANCH  64  65
ENDBRANCH  63  64
ENDBRANCH   1  63
TORSDOF 13
ENDMDL
MODEL 3
REMARK VINA RESULT:     -11.1      2.765      7.457
REMARK SMILES O=C(NCCCCCCNC(=O)c1cc2sc(Cl)cc2s1)c1ccc(-c2c3nc(c(-c4c(F)cccc4F)c4ccc([nH]4)c(-c4c(F)cccc4F)c4nc(c(-c5c(F)cccc5F)c5ccc2[nH]5)C=C4)C=C3)cc1
REMARK SMILES IDX 5 1 4 2 3 3 1 4 2 5 22 7 23 8 75 9 24 10 74 11 25 12 26 13
REMARK SMILES IDX 27 14 68 15 28 16 73 17 67 18 69 19 29 20 72 21 66 22 65 23
REMARK SMILES IDX 30 25 56 26 39 27 55 28 40 29 43 30 54 31 70 32 41 33 42 34
REMARK SMILES IDX 53 36 71 37 44 38 31 39 32 40 37 41 33 42 34 43 36 44 38 45
REMARK SMILES IDX 35 46 57 47 58 48 63 49 59 50 60 51 62 52 64 53 61 54 45 55
REMARK SMILES IDX 46 56 51 57 47 58 48 59 50 60 52 61 49 62 6 63 7 64 8 65
REMARK SMILES IDX 9 66 10 67 11 68 12 70 13 71 14 72 21 73 15 74 20 75 16 76
REMARK SMILES IDX 19 77 17 78 18 79
REMARK H PARENT 3 6 69 24 43 35 10 69
REMARK Flexibility Score: inf
ROOT
ATOM      1  C   UNL A   1      33.313  28.989  27.225  1.00  0.00     0.021 C 
ENDROOT
BRANCH   1   2
ATOM      2  C   UNL A   1      33.544  30.463  26.889  1.00  0.00     0.116 C 
BRANCH   2   3
ATOM      3  N   UNL A   1      33.698  31.316  28.047  1.00  0.00    -0.352 N 
ATOM      4  O   UNL A   1      34.530  32.565  29.664  1.00  0.00    -0.269 OA
ATOM      5  C   UNL A   1      34.743  31.657  28.857  1.00  0.00     0.251 C 
ATOM      6  H   UNL A   1      32.855  31.752  28.312  1.00  0.00     0.163 HD
BRANCH   5   7
ATOM      7  C   UNL A   1      36.062  30.969  28.889  1.00  0.00     0.039 A 
ATOM      8  C   UNL A   1      36.270  29.589  28.901  1.00  0.00     0.014 A 
ATOM      9  C   UNL A   1      37.182  31.819  28.978  1.00  0.00     0.014 A 
ATOM     10  C   UNL A   1      37.546  29.071  29.111  1.00  0.00     0.010 A 
ATOM     11  C   UNL A   1      38.457  31.310  29.175  1.00  0.00     0.010 A 
ATOM     12  C   UNL A   1      38.627  29.935  29.288  1.00  0.00    -0.014 A 
BRANCH  12  13
ATOM     13  C   UNL A   1      39.960  29.359  29.431  1.00  0.00     0.031 A 
ATOM     14  C   UNL A   1      40.437  29.281  30.843  1.00  0.00     0.074 A 
ATOM     15  C   UNL A   1      40.631  28.796  28.405  1.00  0.00     0.049 A 
ATOM     16  N   UNL A   1      41.480  29.833  31.370  1.00  0.00    -0.248 NA
ATOM     17  C   UNL A   1      39.565  28.604  31.819  1.00  0.00     0.031 C 
ATOM     18  C   UNL A   1      40.147  28.545  27.046  1.00  0.00     0.029 A 
ATOM     19  N   UNL A   1      41.871  28.230  28.392  1.00  0.00    -0.354 N 
ATOM     20  C   UNL A   1      41.507  29.411  32.701  1.00  0.00     0.074 A 
ATOM     21  C   UNL A   1      40.228  28.806  32.958  1.00  0.00     0.031 C 
ATOM     22  C   UNL A   1      40.983  27.680  26.425  1.00  0.00     0.029 A 
ATOM     23  C   UNL A   1      42.121  27.420  27.290  1.00  0.00     0.049 A 
ATOM     24  H   UNL A   1      42.534  28.381  29.104  1.00  0.00     0.167 HD
ATOM     25  C   UNL A   1      42.670  29.379  33.409  1.00  0.00     0.037 A 
ATOM     26  C   UNL A   1      43.155  26.551  27.137  1.00  0.00     0.037 A 
ATOM     27  C   UNL A   1      43.661  30.237  32.811  1.00  0.00     0.049 A 
ATOM     28  C   UNL A   1      44.201  26.919  28.122  1.00  0.00     0.074 A 
ATOM     29  C   UNL A   1      43.750  31.587  32.533  1.00  0.00     0.029 A 
ATOM     30  N   UNL A   1      44.660  29.645  32.080  1.00  0.00    -0.354 N 
ATOM     31  N   UNL A   1      44.914  28.007  28.055  1.00  0.00    -0.248 NA
ATOM     32  C   UNL A   1      44.136  26.292  29.434  1.00  0.00     0.031 C 
ATOM     33  C   UNL A   1      44.452  31.662  31.293  1.00  0.00     0.029 A 
ATOM     34  C   UNL A   1      44.802  30.362  30.925  1.00  0.00     0.049 A 
ATOM     35  H   UNL A   1      45.179  28.849  32.339  1.00  0.00     0.167 HD
ATOM     36  C   UNL A   1      45.012  28.441  29.368  1.00  0.00     0.074 A 
ATOM     37  C   UNL A   1      44.585  27.304  30.180  1.00  0.00     0.031 C 
ATOM     38  C   UNL A   1      45.152  29.767  29.660  1.00  0.00     0.037 A 
BRANCH  25  39
ATOM     39  C   UNL A   1      43.055  28.261  34.361  1.00  0.00     0.057 A 
ATOM     40  C   UNL A   1      43.127  26.945  33.857  1.00  0.00     0.134 A 
ATOM     41  C   UNL A   1      43.020  28.351  35.766  1.00  0.00     0.134 A 
ATOM     42  F   UNL A   1      43.196  26.714  32.538  1.00  0.00    -0.206 F 
ATOM     43  C   UNL A   1      43.024  25.816  34.679  1.00  0.00     0.040 A 
ATOM     44  C   UNL A   1      42.964  27.229  36.598  1.00  0.00     0.040 A 
ATOM     45  F   UNL A   1      42.947  29.515  36.419  1.00  0.00    -0.206 F 
ATOM     46  C   UNL A   1      42.918  25.957  36.055  1.00  0.00     0.006 A 
ENDBRANCH  25  39
BRANCH  26  47
ATOM     47  C   UNL A   1      43.175  25.243  26.438  1.00  0.00     0.057 A 
ATOM     48  C   UNL A   1      44.042  25.003  25.361  1.00  0.00     0.134 A 
ATOM     49  C   UNL A   1      42.553  24.109  26.989  1.00  0.00     0.134 A 
ATOM     50  F   UNL A   1      44.720  26.013  24.795  1.00  0.00    -0.206 F 
ATOM     51  C   UNL A   1      44.293  23.711  24.875  1.00  0.00     0.040 A 
ATOM     52  C   UNL A   1      42.789  22.815  26.511  1.00  0.00     0.040 A 
ATOM     53  F   UNL A   1      41.768  24.207  28.070  1.00  0.00    -0.206 F 
ATOM     54  C   UNL A   1      43.672  22.611  25.459  1.00  0.00     0.006 A 
ENDBRANCH  26  47
BRANCH  38  55
ATOM     55  C   UNL A   1      45.456  30.710  28.532  1.00  0.00     0.057 A 
ATOM     56  C   UNL A   1      44.479  31.318  27.729  1.00  0.00     0.134 A 
ATOM     57  C   UNL A   1      46.776  31.138  28.358  1.00  0.00     0.134 A 
ATOM     58  F   UNL A   1      43.178  31.047  27.892  1.00  0.00    -0.206 F 
ATOM     59  C   UNL A   1      44.811  32.280  26.769  1.00  0.00     0.040 A 
ATOM     60  C   UNL A   1      47.115  32.121  27.429  1.00  0.00     0.040 A 
ATOM     61  F   UNL A   1      47.755  30.639  29.132  1.00  0.00    -0.206 F 
ATOM     62  C   UNL A   1      46.132  32.689  26.623  1.00  0.00     0.006 A 
ENDBRANCH  38  55
ENDBRANCH  12  13
ENDBRANCH   5   7
ENDBRANCH   2   3
ENDBRANCH   1   2
BRANCH   1  63
ATOM     63  C   UNL A   1      31.844  28.551  27.229  1.00  0.00     0.002 C 
BRANCH  63  64
ATOM     64  C   UNL A   1      31.584  27.108  26.790  1.00  0.00     0.002 C 
BRANCH  64  65
ATOM     65  C   UNL A   1      30.682  26.949  25.562  1.00  0.00     0.021 C 
BRANCH  65  66
ATOM     66  C   UNL A   1      30.397  25.504  25.157  1.00  0.00     0.116 C 
BRANCH  66  67
ATOM     67  N   UNL A   1      29.876  24.724  26.268  1.00  0.00    -0.351 N 
ATOM     68  C   UNL A   1      30.350  23.555  26.805  1.00  0.00     0.261 C 
ATOM     69  H   UNL A   1      29.067  25.087  26.695  1.00  0.00     0.163 HD
ATOM     70  O   UNL A   1      29.617  22.955  27.605  1.00  0.00    -0.268 OA
BRANCH  68  71
ATOM     71  C   UNL A   1      31.667  23.092  26.421  1.00  0.00     0.094 A 
ATOM     72  C   UNL A   1      32.894  23.580  26.833  1.00  0.00     0.045 A 
ATOM     73  S   UNL A   1      31.793  21.747  25.364  1.00  0.00    -0.129 S 
ATOM     74  C   UNL A   1      33.959  22.919  26.155  1.00  0.00     0.047 A 
ATOM     75  C   UNL A   1      33.527  21.919  25.327  1.00  0.00     0.047 A 
ATOM     76  S   UNL A   1      35.696  23.093  26.125  1.00  0.00    -0.122 S 
ATOM     77  C   UNL A   1      34.596  21.267  24.638  1.00  0.00     0.052 A 
ATOM     78  C   UNL A   1      35.789  21.839  24.992  1.00  0.00     0.095 A 
ATOM     79  Cl  UNL A   1      37.335  21.382  24.387  1.00  0.00    -0.072 Cl
ENDBRANCH  68  71
ENDBRANCH  66  67
ENDBRANCH  65  66
ENDBRANCH  64  65
ENDBRANCH  63  64
ENDBRANCH   1  63
TORSDOF 13
ENDMDL
