MODEL 1
REMARK VINA RESULT:     -10.7      0.000      0.000
REMARK SMILES C[NH2+][C@@](C)(CC[N@@H+](C)C1CCC(C)(C)CC1)C(=O)NCCCCCCNC(=O)c1ccc(-c2c3nc(c(-c4c(F)cccc4F)c4ccc([nH]4)c(-c4c(F)cccc4F)c4nc(c(-c5c(F)cccc5F)c5ccc2[nH]5)C=C4)C=C3)cc1
REMARK SMILES IDX 21 1 20 2 19 3 17 4 18 5 3 7 4 8 2 9 1 10 5 13 6 14 7 15
REMARK SMILES IDX 8 16 9 18 10 19 16 20 11 21 15 22 12 23 13 24 14 25 22 26
REMARK SMILES IDX 23 27 24 28 25 29 26 30 27 31 28 33 29 34 30 35 82 36 31 37
REMARK SMILES IDX 81 38 32 39 33 40 34 41 75 42 35 43 80 44 74 45 76 46 36 47
REMARK SMILES IDX 79 48 73 49 72 50 37 52 63 53 46 54 62 55 47 56 50 57 61 58
REMARK SMILES IDX 77 59 48 60 49 61 60 63 78 64 51 65 38 66 39 67 44 68 40 69
REMARK SMILES IDX 41 70 43 71 45 72 42 73 64 74 65 75 70 76 66 77 67 78 69 79
REMARK SMILES IDX 71 80 68 81 52 82 53 83 58 84 54 85 55 86 57 87 59 88 56 89
REMARK H PARENT 19 6 2 11 2 12 7 17 26 32 76 51 50 62
REMARK Flexibility Score: inf
ROOT
ATOM      1  C   UNL A   1      33.305  28.996  26.826  1.00  0.00     0.021 C 
ENDROOT
BRANCH   1   2
ATOM      2  C   UNL A   1      33.169  27.585  26.291  1.00  0.00     0.116 C 
BRANCH   2   3
ATOM      3  N   UNL A   1      31.928  26.979  26.686  1.00  0.00    -0.351 N 
ATOM      4  C   UNL A   1      30.936  26.432  25.937  1.00  0.00     0.281 C 
ATOM      5  O   UNL A   1      30.173  25.700  26.574  1.00  0.00    -0.268 OA
ATOM      6  H   UNL A   1      31.772  26.956  27.657  1.00  0.00     0.163 HD
BRANCH   4   7
ATOM      7  C   UNL A   1      30.886  26.661  24.398  1.00  0.00     0.177 C 
ATOM      8  C   UNL A   1      29.604  25.991  23.832  1.00  0.00     0.090 C 
BRANCH   7   9
ATOM      9  N   UNL A   1      30.717  28.077  23.965  1.00  0.00    -0.336 N 
ATOM     10  C   UNL A   1      29.984  28.414  22.758  1.00  0.00     0.331 C 
ATOM     11  H   UNL A   1      30.250  28.559  24.732  1.00  0.00     0.346 HD
ATOM     12  H   UNL A   1      31.671  28.350  23.727  1.00  0.00     0.346 HD
ENDBRANCH   7   9
BRANCH   7  13
ATOM     13  C   UNL A   1      32.163  26.082  23.661  1.00  0.00     0.140 C 
BRANCH  13  14
ATOM     14  C   UNL A   1      32.583  24.563  23.426  1.00  0.00     0.269 C 
BRANCH  14  15
ATOM     15  N   UNL A   1      33.042  23.536  24.382  1.00  0.00    -0.335 N 
ATOM     16  C   UNL A   1      31.881  22.920  25.058  1.00  0.00     0.332 C 
ATOM     17  H   UNL A   1      33.638  24.109  24.979  1.00  0.00     0.348 HD
BRANCH  15  18
ATOM     18  C   UNL A   1      33.991  22.457  23.976  1.00  0.00     0.183 C 
ATOM     19  C   UNL A   1      35.251  22.745  23.119  1.00  0.00     0.065 C 
ATOM     20  C   UNL A   1      34.478  21.563  25.095  1.00  0.00     0.065 C 
ATOM     21  C   UNL A   1      36.396  23.412  23.879  1.00  0.00     0.012 C 
ATOM     22  C   UNL A   1      35.539  22.226  25.968  1.00  0.00     0.012 C 
ATOM     23  C   UNL A   1      36.766  22.759  25.232  1.00  0.00    -0.035 C 
ATOM     24  C   UNL A   1      37.433  23.836  26.119  1.00  0.00     0.011 C 
ATOM     25  C   UNL A   1      37.731  21.572  25.092  1.00  0.00     0.011 C 
ENDBRANCH  15  18
ENDBRANCH  14  15
ENDBRANCH  13  14
ENDBRANCH   7  13
ENDBRANCH   4   7
ENDBRANCH   2   3
ENDBRANCH   1   2
BRANCH   1  26
ATOM     26  C   UNL A   1      31.969  29.669  27.131  1.00  0.00     0.002 C 
BRANCH  26  27
ATOM     27  C   UNL A   1      31.544  30.742  26.122  1.00  0.00     0.002 C 
BRANCH  27  28
ATOM     28  C   UNL A   1      31.440  32.160  26.690  1.00  0.00     0.021 C 
BRANCH  28  29
ATOM     29  C   UNL A   1      32.759  32.713  27.186  1.00  0.00     0.116 C 
BRANCH  29  30
ATOM     30  N   UNL A   1      32.609  34.088  27.621  1.00  0.00    -0.352 N 
ATOM     31  C   UNL A   1      33.194  34.679  28.707  1.00  0.00     0.251 C 
ATOM     32  H   UNL A   1      32.023  34.659  27.075  1.00  0.00     0.163 HD
ATOM     33  O   UNL A   1      32.768  35.740  29.159  1.00  0.00    -0.269 OA
BRANCH  31  34
ATOM     34  C   UNL A   1      34.345  34.003  29.329  1.00  0.00     0.039 A 
ATOM     35  C   UNL A   1      34.120  33.028  30.299  1.00  0.00     0.014 A 
ATOM     36  C   UNL A   1      35.642  34.306  28.900  1.00  0.00     0.014 A 
ATOM     37  C   UNL A   1      35.207  32.334  30.827  1.00  0.00     0.010 A 
ATOM     38  C   UNL A   1      36.708  33.546  29.352  1.00  0.00     0.010 A 
ATOM     39  C   UNL A   1      36.505  32.573  30.340  1.00  0.00    -0.014 A 
BRANCH  39  40
ATOM     40  C   UNL A   1      37.671  31.845  30.887  1.00  0.00     0.031 A 
ATOM     41  C   UNL A   1      38.171  32.172  32.266  1.00  0.00     0.074 A 
ATOM     42  C   UNL A   1      38.307  30.936  30.125  1.00  0.00     0.049 A 
ATOM     43  N   UNL A   1      39.203  31.687  32.908  1.00  0.00    -0.248 NA
ATOM     44  C   UNL A   1      37.433  33.206  33.012  1.00  0.00     0.031 C 
ATOM     45  C   UNL A   1      37.945  30.579  28.753  1.00  0.00     0.029 A 
ATOM     46  N   UNL A   1      39.399  30.152  30.397  1.00  0.00    -0.354 N 
ATOM     47  C   UNL A   1      39.244  32.366  34.119  1.00  0.00     0.074 A 
ATOM     48  C   UNL A   1      38.179  33.343  34.097  1.00  0.00     0.031 C 
ATOM     49  C   UNL A   1      38.784  29.629  28.311  1.00  0.00     0.029 A 
ATOM     50  C   UNL A   1      39.767  29.342  29.351  1.00  0.00     0.049 A 
ATOM     51  H   UNL A   1      39.874  30.169  31.259  1.00  0.00     0.167 HD
ATOM     52  C   UNL A   1      40.077  32.172  35.168  1.00  0.00     0.037 A 
ATOM     53  C   UNL A   1      40.789  28.473  29.243  1.00  0.00     0.037 A 
ATOM     54  C   UNL A   1      41.121  31.184  35.187  1.00  0.00     0.049 A 
ATOM     55  C   UNL A   1      41.706  28.278  30.418  1.00  0.00     0.074 A 
ATOM     56  C   UNL A   1      41.980  30.857  36.221  1.00  0.00     0.029 A 
ATOM     57  N   UNL A   1      41.452  30.366  34.116  1.00  0.00    -0.354 N 
ATOM     58  N   UNL A   1      41.684  28.866  31.590  1.00  0.00    -0.248 NA
ATOM     59  C   UNL A   1      42.784  27.293  30.261  1.00  0.00     0.031 C 
ATOM     60  C   UNL A   1      42.872  29.886  35.755  1.00  0.00     0.029 A 
ATOM     61  C   UNL A   1      42.525  29.559  34.453  1.00  0.00     0.049 A 
ATOM     62  H   UNL A   1      40.993  30.361  33.246  1.00  0.00     0.167 HD
ATOM     63  C   UNL A   1      42.726  28.306  32.319  1.00  0.00     0.074 A 
ATOM     64  C   UNL A   1      43.349  27.319  31.460  1.00  0.00     0.031 C 
ATOM     65  C   UNL A   1      43.131  28.582  33.583  1.00  0.00     0.037 A 
BRANCH  52  66
ATOM     66  C   UNL A   1      39.893  33.054  36.370  1.00  0.00     0.057 A 
ATOM     67  C   UNL A   1      38.984  32.741  37.392  1.00  0.00     0.134 A 
ATOM     68  C   UNL A   1      40.642  34.229  36.515  1.00  0.00     0.134 A 
ATOM     69  F   UNL A   1      38.224  31.639  37.311  1.00  0.00    -0.206 F 
ATOM     70  C   UNL A   1      38.804  33.580  38.493  1.00  0.00     0.040 A 
ATOM     71  C   UNL A   1      40.494  35.059  37.628  1.00  0.00     0.040 A 
ATOM     72  F   UNL A   1      41.533  34.590  35.578  1.00  0.00    -0.206 F 
ATOM     73  C   UNL A   1      39.565  34.740  38.616  1.00  0.00     0.006 A 
ENDBRANCH  52  66
BRANCH  53  74
ATOM     74  C   UNL A   1      40.986  27.717  27.980  1.00  0.00     0.057 A 
ATOM     75  C   UNL A   1      40.404  26.458  27.789  1.00  0.00     0.134 A 
ATOM     76  C   UNL A   1      41.754  28.238  26.932  1.00  0.00     0.134 A 
ATOM     77  F   UNL A   1      39.669  25.899  28.760  1.00  0.00    -0.206 F 
ATOM     78  C   UNL A   1      40.595  25.736  26.609  1.00  0.00     0.040 A 
ATOM     79  C   UNL A   1      41.930  27.539  25.737  1.00  0.00     0.040 A 
ATOM     80  F   UNL A   1      42.329  29.444  27.048  1.00  0.00    -0.206 F 
ATOM     81  C   UNL A   1      41.356  26.280  25.576  1.00  0.00     0.006 A 
ENDBRANCH  53  74
BRANCH  65  82
ATOM     82  C   UNL A   1      44.282  27.785  34.126  1.00  0.00     0.057 A 
ATOM     83  C   UNL A   1      44.098  26.538  34.739  1.00  0.00     0.134 A 
ATOM     84  C   UNL A   1      45.596  28.252  33.991  1.00  0.00     0.134 A 
ATOM     85  F   UNL A   1      42.865  26.040  34.911  1.00  0.00    -0.206 F 
ATOM     86  C   UNL A   1      45.179  25.797  35.219  1.00  0.00     0.040 A 
ATOM     87  C   UNL A   1      46.686  27.505  34.438  1.00  0.00     0.040 A 
ATOM     88  F   UNL A   1      45.843  29.432  33.404  1.00  0.00    -0.206 F 
ATOM     89  C   UNL A   1      46.478  26.277  35.061  1.00  0.00     0.006 A 
ENDBRANCH  65  82
ENDBRANCH  39  40
ENDBRANCH  31  34
ENDBRANCH  29  30
ENDBRANCH  28  29
ENDBRANCH  27  28
ENDBRANCH  26  27
ENDBRANCH   1  26
TORSDOF 18
ENDMDL
MODEL 2
REMARK VINA RESULT:     -10.7      0.932      6.185
REMARK SMILES C[NH2+][C@@](C)(CC[N@@H+](C)C1CCC(C)(C)CC1)C(=O)NCCCCCCNC(=O)c1ccc(-c2c3nc(c(-c4c(F)cccc4F)c4ccc([nH]4)c(-c4c(F)cccc4F)c4nc(c(-c5c(F)cccc5F)c5ccc2[nH]5)C=C4)C=C3)cc1
REMARK SMILES IDX 21 1 20 2 19 3 17 4 18 5 3 7 4 8 2 9 1 10 5 13 6 14 7 15
REMARK SMILES IDX 8 16 9 18 10 19 16 20 11 21 15 22 12 23 13 24 14 25 22 26
REMARK SMILES IDX 23 27 24 28 25 29 26 30 27 31 28 33 29 34 30 35 82 36 31 37
REMARK SMILES IDX 81 38 32 39 33 40 34 41 75 42 35 43 80 44 74 45 76 46 36 47
REMARK SMILES IDX 79 48 73 49 72 50 37 52 63 53 46 54 62 55 47 56 50 57 61 58
REMARK SMILES IDX 77 59 48 60 49 61 60 63 78 64 51 65 38 66 39 67 44 68 40 69
REMARK SMILES IDX 41 70 43 71 45 72 42 73 64 74 65 75 70 76 66 77 67 78 69 79
REMARK SMILES IDX 71 80 68 81 52 82 53 83 58 84 54 85 55 86 57 87 59 88 56 89
REMARK H PARENT 19 6 2 11 2 12 7 17 26 32 76 51 50 62
REMARK Flexibility Score: inf
ROOT
ATOM      1  C   UNL A   1      33.407  28.960  26.937  1.00  0.00     0.021 C 
ENDROOT
BRANCH   1   2
ATOM      2  C   UNL A   1      33.217  27.532  26.468  1.00  0.00     0.116 C 
BRANCH   2   3
ATOM      3  N   UNL A   1      31.920  27.022  26.815  1.00  0.00    -0.351 N 
ATOM      4  C   UNL A   1      30.929  26.524  26.032  1.00  0.00     0.281 C 
ATOM      5  O   UNL A   1      30.088  25.862  26.646  1.00  0.00    -0.268 OA
ATOM      6  H   UNL A   1      31.716  27.035  27.778  1.00  0.00     0.163 HD
BRANCH   4   7
ATOM      7  C   UNL A   1      30.969  26.715  24.487  1.00  0.00     0.177 C 
ATOM      8  C   UNL A   1      29.738  26.002  23.861  1.00  0.00     0.090 C 
BRANCH   7   9
ATOM      9  N   UNL A   1      30.794  28.116  24.009  1.00  0.00    -0.336 N 
ATOM     10  C   UNL A   1      29.726  28.473  23.092  1.00  0.00     0.331 C 
ATOM     11  H   UNL A   1      30.665  28.691  24.841  1.00  0.00     0.346 HD
ATOM     12  H   UNL A   1      31.630  28.261  23.442  1.00  0.00     0.346 HD
ENDBRANCH   7   9
BRANCH   7  13
ATOM     13  C   UNL A   1      32.301  26.150  23.844  1.00  0.00     0.140 C 
BRANCH  13  14
ATOM     14  C   UNL A   1      32.669  24.649  23.455  1.00  0.00     0.269 C 
BRANCH  14  15
ATOM     15  N   UNL A   1      32.975  23.485  24.308  1.00  0.00    -0.335 N 
ATOM     16  C   UNL A   1      31.721  22.870  24.792  1.00  0.00     0.332 C 
ATOM     17  H   UNL A   1      33.539  23.939  25.025  1.00  0.00     0.348 HD
BRANCH  15  18
ATOM     18  C   UNL A   1      33.898  22.402  23.855  1.00  0.00     0.183 C 
ATOM     19  C   UNL A   1      35.162  22.698  23.006  1.00  0.00     0.065 C 
ATOM     20  C   UNL A   1      34.369  21.453  24.935  1.00  0.00     0.065 C 
ATOM     21  C   UNL A   1      36.323  23.308  23.789  1.00  0.00     0.012 C 
ATOM     22  C   UNL A   1      35.447  22.056  25.831  1.00  0.00     0.012 C 
ATOM     23  C   UNL A   1      36.683  22.592  25.113  1.00  0.00    -0.035 C 
ATOM     24  C   UNL A   1      37.376  23.617  26.041  1.00  0.00     0.011 C 
ATOM     25  C   UNL A   1      37.621  21.391  24.920  1.00  0.00     0.011 C 
ENDBRANCH  15  18
ENDBRANCH  14  15
ENDBRANCH  13  14
ENDBRANCH   7  13
ENDBRANCH   4   7
ENDBRANCH   2   3
ENDBRANCH   1   2
BRANCH   1  26
ATOM     26  C   UNL A   1      32.098  29.693  27.219  1.00  0.00     0.002 C 
BRANCH  26  27
ATOM     27  C   UNL A   1      31.705  30.738  26.168  1.00  0.00     0.002 C 
BRANCH  27  28
ATOM     28  C   UNL A   1      31.453  32.145  26.715  1.00  0.00     0.021 C 
BRANCH  28  29
ATOM     29  C   UNL A   1      32.680  32.783  27.331  1.00  0.00     0.116 C 
BRANCH  29  30
ATOM     30  N   UNL A   1      32.459  34.197  27.569  1.00  0.00    -0.352 N 
ATOM     31  C   UNL A   1      32.997  34.961  28.568  1.00  0.00     0.251 C 
ATOM     32  H   UNL A   1      31.856  34.658  26.943  1.00  0.00     0.163 HD
ATOM     33  O   UNL A   1      32.515  36.052  28.864  1.00  0.00    -0.269 OA
BRANCH  31  34
ATOM     34  C   UNL A   1      34.168  34.433  29.289  1.00  0.00     0.039 A 
ATOM     35  C   UNL A   1      33.981  33.776  30.504  1.00  0.00     0.014 A 
ATOM     36  C   UNL A   1      35.442  34.550  28.723  1.00  0.00     0.014 A 
ATOM     37  C   UNL A   1      35.081  33.209  31.144  1.00  0.00     0.010 A 
ATOM     38  C   UNL A   1      36.515  33.899  29.310  1.00  0.00     0.010 A 
ATOM     39  C   UNL A   1      36.350  33.248  30.539  1.00  0.00    -0.014 A 
BRANCH  39  40
ATOM     40  C   UNL A   1      37.530  32.649  31.203  1.00  0.00     0.031 A 
ATOM     41  C   UNL A   1      38.203  31.455  30.585  1.00  0.00     0.074 A 
ATOM     42  C   UNL A   1      37.956  33.143  32.379  1.00  0.00     0.049 A 
ATOM     43  N   UNL A   1      39.214  30.754  31.029  1.00  0.00    -0.248 NA
ATOM     44  C   UNL A   1      37.644  30.962  29.314  1.00  0.00     0.031 C 
ATOM     45  C   UNL A   1      37.346  34.261  33.100  1.00  0.00     0.029 A 
ATOM     46  N   UNL A   1      39.001  32.759  33.181  1.00  0.00    -0.354 N 
ATOM     47  C   UNL A   1      39.399  29.735  30.103  1.00  0.00     0.074 A 
ATOM     48  C   UNL A   1      38.357  29.866  29.111  1.00  0.00     0.031 C 
ATOM     49  C   UNL A   1      38.041  34.490  34.225  1.00  0.00     0.029 A 
ATOM     50  C   UNL A   1      39.117  33.509  34.326  1.00  0.00     0.049 A 
ATOM     51  H   UNL A   1      39.608  32.017  32.959  1.00  0.00     0.167 HD
ATOM     52  C   UNL A   1      40.369  28.792  30.068  1.00  0.00     0.037 A 
ATOM     53  C   UNL A   1      39.990  33.408  35.346  1.00  0.00     0.037 A 
ATOM     54  C   UNL A   1      41.414  28.684  31.051  1.00  0.00     0.049 A 
ATOM     55  C   UNL A   1      41.055  32.350  35.290  1.00  0.00     0.074 A 
ATOM     56  C   UNL A   1      42.485  27.809  31.078  1.00  0.00     0.029 A 
ATOM     57  N   UNL A   1      41.512  29.474  32.188  1.00  0.00    -0.354 N 
ATOM     58  N   UNL A   1      41.272  31.443  34.367  1.00  0.00    -0.248 NA
ATOM     59  C   UNL A   1      42.004  32.304  36.410  1.00  0.00     0.031 C 
ATOM     60  C   UNL A   1      43.197  28.028  32.261  1.00  0.00     0.029 A 
ATOM     61  C   UNL A   1      42.608  29.084  32.939  1.00  0.00     0.049 A 
ATOM     62  H   UNL A   1      40.895  30.203  32.424  1.00  0.00     0.167 HD
ATOM     63  C   UNL A   1      42.395  30.737  34.781  1.00  0.00     0.074 A 
ATOM     64  C   UNL A   1      42.822  31.332  36.031  1.00  0.00     0.031 C 
ATOM     65  C   UNL A   1      43.016  29.691  34.182  1.00  0.00     0.037 A 
BRANCH  52  66
ATOM     66  C   UNL A   1      40.335  27.805  28.937  1.00  0.00     0.057 A 
ATOM     67  C   UNL A   1      39.571  26.630  28.996  1.00  0.00     0.134 A 
ATOM     68  C   UNL A   1      41.067  28.036  27.765  1.00  0.00     0.134 A 
ATOM     69  F   UNL A   1      38.857  26.339  30.094  1.00  0.00    -0.206 F 
ATOM     70  C   UNL A   1      39.565  25.708  27.949  1.00  0.00     0.040 A 
ATOM     71  C   UNL A   1      41.043  27.137  26.697  1.00  0.00     0.040 A 
ATOM     72  F   UNL A   1      41.818  29.141  27.637  1.00  0.00    -0.206 F 
ATOM     73  C   UNL A   1      40.297  25.963  26.792  1.00  0.00     0.006 A 
ENDBRANCH  52  66
BRANCH  53  74
ATOM     74  C   UNL A   1      39.895  34.344  36.495  1.00  0.00     0.057 A 
ATOM     75  C   UNL A   1      40.489  35.611  36.452  1.00  0.00     0.134 A 
ATOM     76  C   UNL A   1      39.203  33.997  37.662  1.00  0.00     0.134 A 
ATOM     77  F   UNL A   1      41.177  35.996  35.368  1.00  0.00    -0.206 F 
ATOM     78  C   UNL A   1      40.414  36.491  37.533  1.00  0.00     0.040 A 
ATOM     79  C   UNL A   1      39.097  34.877  38.739  1.00  0.00     0.040 A 
ATOM     80  F   UNL A   1      38.602  32.802  37.762  1.00  0.00    -0.206 F 
ATOM     81  C   UNL A   1      39.712  36.126  38.679  1.00  0.00     0.006 A 
ENDBRANCH  53  74
BRANCH  65  82
ATOM     82  C   UNL A   1      44.243  29.144  34.853  1.00  0.00     0.057 A 
ATOM     83  C   UNL A   1      44.177  28.093  35.777  1.00  0.00     0.134 A 
ATOM     84  C   UNL A   1      45.511  29.647  34.533  1.00  0.00     0.134 A 
ATOM     85  F   UNL A   1      42.993  27.576  36.137  1.00  0.00    -0.206 F 
ATOM     86  C   UNL A   1      45.328  27.578  36.377  1.00  0.00     0.040 A 
ATOM     87  C   UNL A   1      46.670  29.118  35.103  1.00  0.00     0.040 A 
ATOM     88  F   UNL A   1      45.645  30.644  33.648  1.00  0.00    -0.206 F 
ATOM     89  C   UNL A   1      46.579  28.085  36.033  1.00  0.00     0.006 A 
ENDBRANCH  65  82
ENDBRANCH  39  40
ENDBRANCH  31  34
ENDBRANCH  29  30
ENDBRANCH  28  29
ENDBRANCH  27  28
ENDBRANCH  26  27
ENDBRANCH   1  26
TORSDOF 18
ENDMDL
MODEL 3
REMARK VINA RESULT:     -10.5      1.400      2.471
REMARK SMILES C[NH2+][C@@](C)(CC[N@@H+](C)C1CCC(C)(C)CC1)C(=O)NCCCCCCNC(=O)c1ccc(-c2c3nc(c(-c4c(F)cccc4F)c4ccc([nH]4)c(-c4c(F)cccc4F)c4nc(c(-c5c(F)cccc5F)c5ccc2[nH]5)C=C4)C=C3)cc1
REMARK SMILES IDX 21 1 20 2 19 3 17 4 18 5 3 7 4 8 2 9 1 10 5 13 6 14 7 15
REMARK SMILES IDX 8 16 9 18 10 19 16 20 11 21 15 22 12 23 13 24 14 25 22 26
REMARK SMILES IDX 23 27 24 28 25 29 26 30 27 31 28 33 29 34 30 35 82 36 31 37
REMARK SMILES IDX 81 38 32 39 33 40 34 41 75 42 35 43 80 44 74 45 76 46 36 47
REMARK SMILES IDX 79 48 73 49 72 50 37 52 63 53 46 54 62 55 47 56 50 57 61 58
REMARK SMILES IDX 77 59 48 60 49 61 60 63 78 64 51 65 38 66 39 67 44 68 40 69
REMARK SMILES IDX 41 70 43 71 45 72 42 73 64 74 65 75 70 76 66 77 67 78 69 79
REMARK SMILES IDX 71 80 68 81 52 82 53 83 58 84 54 85 55 86 57 87 59 88 56 89
REMARK H PARENT 19 6 2 11 2 12 7 17 26 32 76 51 50 62
REMARK Flexibility Score: inf
ROOT
ATOM      1  C   UNL A   1      33.316  29.228  25.220  1.00  0.00     0.021 C 
ENDROOT
BRANCH   1   2
ATOM      2  C   UNL A   1      32.451  28.558  24.173  1.00  0.00     0.116 C 
BRANCH   2   3
ATOM      3  N   UNL A   1      33.235  28.011  23.101  1.00  0.00    -0.351 N 
ATOM      4  C   UNL A   1      33.406  26.724  22.702  1.00  0.00     0.281 C 
ATOM      5  O   UNL A   1      33.859  26.610  21.559  1.00  0.00    -0.268 OA
ATOM      6  H   UNL A   1      33.727  28.677  22.569  1.00  0.00     0.163 HD
BRANCH   4   7
ATOM      7  C   UNL A   1      32.952  25.545  23.610  1.00  0.00     0.177 C 
ATOM      8  C   UNL A   1      33.903  25.458  24.835  1.00  0.00     0.090 C 
BRANCH   7   9
ATOM      9  N   UNL A   1      31.620  25.711  24.260  1.00  0.00    -0.336 N 
ATOM     10  C   UNL A   1      30.794  24.564  24.591  1.00  0.00     0.331 C 
ATOM     11  H   UNL A   1      31.785  26.210  25.133  1.00  0.00     0.346 HD
ATOM     12  H   UNL A   1      31.075  26.172  23.531  1.00  0.00     0.346 HD
ENDBRANCH   7   9
BRANCH   7  13
ATOM     13  C   UNL A   1      32.941  24.161  22.841  1.00  0.00     0.140 C 
BRANCH  13  14
ATOM     14  C   UNL A   1      34.128  23.116  22.639  1.00  0.00     0.269 C 
BRANCH  14  15
ATOM     15  N   UNL A   1      34.624  22.047  23.526  1.00  0.00    -0.335 N 
ATOM     16  C   UNL A   1      35.924  22.439  24.112  1.00  0.00     0.332 C 
ATOM     17  H   UNL A   1      34.664  21.275  22.861  1.00  0.00     0.348 HD
BRANCH  15  18
ATOM     18  C   UNL A   1      33.769  21.460  24.601  1.00  0.00     0.183 C 
ATOM     19  C   UNL A   1      32.348  20.908  24.315  1.00  0.00     0.065 C 
ATOM     20  C   UNL A   1      34.432  20.402  25.457  1.00  0.00     0.065 C 
ATOM     21  C   UNL A   1      32.324  19.554  23.610  1.00  0.00     0.012 C 
ATOM     22  C   UNL A   1      34.548  19.054  24.753  1.00  0.00     0.012 C 
ATOM     23  C   UNL A   1      33.242  18.468  24.220  1.00  0.00    -0.035 C 
ATOM     24  C   UNL A   1      33.587  17.449  23.110  1.00  0.00     0.011 C 
ATOM     25  C   UNL A   1      32.599  17.716  25.395  1.00  0.00     0.011 C 
ENDBRANCH  15  18
ENDBRANCH  14  15
ENDBRANCH  13  14
ENDBRANCH   7  13
ENDBRANCH   4   7
ENDBRANCH   2   3
ENDBRANCH   1   2
BRANCH   1  26
ATOM     26  C   UNL A   1      32.519  29.896  26.339  1.00  0.00     0.002 C 
BRANCH  26  27
ATOM     27  C   UNL A   1      31.440  30.876  25.864  1.00  0.00     0.002 C 
BRANCH  27  28
ATOM     28  C   UNL A   1      31.315  32.156  26.694  1.00  0.00     0.021 C 
BRANCH  28  29
ATOM     29  C   UNL A   1      32.636  32.656  27.239  1.00  0.00     0.116 C 
BRANCH  29  30
ATOM     30  N   UNL A   1      32.548  34.060  27.593  1.00  0.00    -0.352 N 
ATOM     31  C   UNL A   1      33.185  34.693  28.624  1.00  0.00     0.251 C 
ATOM     32  H   UNL A   1      31.965  34.618  27.030  1.00  0.00     0.163 HD
ATOM     33  O   UNL A   1      32.811  35.794  29.022  1.00  0.00    -0.269 OA
BRANCH  31  34
ATOM     34  C   UNL A   1      34.331  34.014  29.252  1.00  0.00     0.039 A 
ATOM     35  C   UNL A   1      34.097  33.043  30.225  1.00  0.00     0.014 A 
ATOM     36  C   UNL A   1      35.631  34.310  28.828  1.00  0.00     0.014 A 
ATOM     37  C   UNL A   1      35.179  32.346  30.759  1.00  0.00     0.010 A 
ATOM     38  C   UNL A   1      36.692  33.546  29.288  1.00  0.00     0.010 A 
ATOM     39  C   UNL A   1      36.480  32.578  30.278  1.00  0.00    -0.014 A 
BRANCH  39  40
ATOM     40  C   UNL A   1      37.641  31.846  30.832  1.00  0.00     0.031 A 
ATOM     41  C   UNL A   1      38.135  32.174  32.214  1.00  0.00     0.074 A 
ATOM     42  C   UNL A   1      38.277  30.933  30.076  1.00  0.00     0.049 A 
ATOM     43  N   UNL A   1      39.161  31.686  32.862  1.00  0.00    -0.248 NA
ATOM     44  C   UNL A   1      37.396  33.211  32.954  1.00  0.00     0.031 C 
ATOM     45  C   UNL A   1      37.921  30.576  28.701  1.00  0.00     0.029 A 
ATOM     46  N   UNL A   1      39.365  30.146  30.355  1.00  0.00    -0.354 N 
ATOM     47  C   UNL A   1      39.197  32.367  34.072  1.00  0.00     0.074 A 
ATOM     48  C   UNL A   1      38.136  33.347  34.042  1.00  0.00     0.031 C 
ATOM     49  C   UNL A   1      38.760  29.622  28.266  1.00  0.00     0.029 A 
ATOM     50  C   UNL A   1      39.736  29.334  29.312  1.00  0.00     0.049 A 
ATOM     51  H   UNL A   1      39.836  30.163  31.219  1.00  0.00     0.167 HD
ATOM     52  C   UNL A   1      40.024  32.172  35.126  1.00  0.00     0.037 A 
ATOM     53  C   UNL A   1      40.755  28.460  29.210  1.00  0.00     0.037 A 
ATOM     54  C   UNL A   1      41.064  31.179  35.152  1.00  0.00     0.049 A 
ATOM     55  C   UNL A   1      41.665  28.264  30.390  1.00  0.00     0.074 A 
ATOM     56  C   UNL A   1      41.917  30.851  36.191  1.00  0.00     0.029 A 
ATOM     57  N   UNL A   1      41.399  30.359  34.084  1.00  0.00    -0.354 N 
ATOM     58  N   UNL A   1      41.639  28.854  31.562  1.00  0.00    -0.248 NA
ATOM     59  C   UNL A   1      42.740  27.275  30.241  1.00  0.00     0.031 C 
ATOM     60  C   UNL A   1      42.807  29.876  35.732  1.00  0.00     0.029 A 
ATOM     61  C   UNL A   1      42.467  29.548  34.428  1.00  0.00     0.049 A 
ATOM     62  H   UNL A   1      40.944  30.354  33.211  1.00  0.00     0.167 HD
ATOM     63  C   UNL A   1      42.675  28.291  32.297  1.00  0.00     0.074 A 
ATOM     64  C   UNL A   1      43.299  27.301  31.443  1.00  0.00     0.031 C 
ATOM     65  C   UNL A   1      43.074  28.567  33.562  1.00  0.00     0.037 A 
BRANCH  52  66
ATOM     66  C   UNL A   1      39.837  33.056  36.326  1.00  0.00     0.057 A 
ATOM     67  C   UNL A   1      38.947  32.730  37.360  1.00  0.00     0.134 A 
ATOM     68  C   UNL A   1      40.564  34.246  36.455  1.00  0.00     0.134 A 
ATOM     69  F   UNL A   1      38.208  31.612  37.293  1.00  0.00    -0.206 F 
ATOM     70  C   UNL A   1      38.763  33.571  38.458  1.00  0.00     0.040 A 
ATOM     71  C   UNL A   1      40.413  35.079  37.566  1.00  0.00     0.040 A 
ATOM     72  F   UNL A   1      41.436  34.620  35.506  1.00  0.00    -0.206 F 
ATOM     73  C   UNL A   1      39.502  34.747  38.567  1.00  0.00     0.006 A 
ENDBRANCH  52  66
BRANCH  53  74
ATOM     74  C   UNL A   1      40.956  27.702  27.950  1.00  0.00     0.057 A 
ATOM     75  C   UNL A   1      41.734  28.218  26.907  1.00  0.00     0.134 A 
ATOM     76  C   UNL A   1      40.383  26.438  27.761  1.00  0.00     0.134 A 
ATOM     77  F   UNL A   1      42.299  29.429  27.021  1.00  0.00    -0.206 F 
ATOM     78  C   UNL A   1      41.918  27.516  25.714  1.00  0.00     0.040 A 
ATOM     79  C   UNL A   1      40.581  25.713  26.585  1.00  0.00     0.040 A 
ATOM     80  F   UNL A   1      39.637  25.882  28.727  1.00  0.00    -0.206 F 
ATOM     81  C   UNL A   1      41.344  26.256  25.554  1.00  0.00     0.006 A 
ENDBRANCH  53  74
BRANCH  65  82
ATOM     82  C   UNL A   1      44.219  27.767  34.113  1.00  0.00     0.057 A 
ATOM     83  C   UNL A   1      45.541  28.227  34.059  1.00  0.00     0.134 A 
ATOM     84  C   UNL A   1      43.986  26.539  34.748  1.00  0.00     0.134 A 
ATOM     85  F   UNL A   1      45.832  29.388  33.453  1.00  0.00    -0.206 F 
ATOM     86  C   UNL A   1      46.593  27.483  34.595  1.00  0.00     0.040 A 
ATOM     87  C   UNL A   1      45.027  25.803  35.316  1.00  0.00     0.040 A 
ATOM     88  F   UNL A   1      42.743  26.047  34.845  1.00  0.00    -0.206 F 
ATOM     89  C   UNL A   1      46.336  26.272  35.233  1.00  0.00     0.006 A 
ENDBRANCH  65  82
ENDBRANCH  39  40
ENDBRANCH  31  34
ENDBRANCH  29  30
ENDBRANCH  28  29
ENDBRANCH  27  28
ENDBRANCH  26  27
ENDBRANCH   1  26
TORSDOF 18
ENDMDL
