MODEL 1
REMARK VINA RESULT:     -10.8      0.000      0.000
REMARK SMILES CC[C@@H](C)[C@@H](NC(=O)CCn1ccc2ccc(Br)cc21)C(=O)NCCCCCCNC(=O)c1ccc(-c2c3nc(c(-c4c(F)cccc4F)c4ccc([nH]4)c(-c4c(F)cccc4F)c4nc(c(-c5c(F)cccc5F)c5ccc2[nH]5)C=C4)C=C3)cc1
REMARK SMILES IDX 25 1 24 2 23 3 21 4 22 5 5 7 3 8 4 9 2 10 1 11 6 12 7 13
REMARK SMILES IDX 8 15 9 16 10 17 11 18 12 19 20 20 13 21 14 22 19 23 15 24
REMARK SMILES IDX 17 25 16 26 18 27 26 28 27 29 28 30 29 31 30 32 31 33 32 35
REMARK SMILES IDX 33 36 34 37 86 38 35 39 85 40 36 41 37 42 38 43 79 44 39 45
REMARK SMILES IDX 84 46 78 47 80 48 40 49 83 50 77 51 76 52 41 54 67 55 50 56
REMARK SMILES IDX 66 57 51 58 54 59 65 60 81 61 52 62 53 63 64 65 82 66 55 67
REMARK SMILES IDX 42 68 43 69 48 70 44 71 45 72 47 73 49 74 46 75 68 76 69 77
REMARK SMILES IDX 74 78 70 79 71 80 73 81 75 82 72 83 56 84 57 85 62 86 58 87
REMARK SMILES IDX 59 88 61 89 63 90 60 91
REMARK H PARENT 23 6 6 14 30 34 80 53 54 64
REMARK Flexibility Score: inf
ROOT
ATOM      1  C   UNL A   1      32.530  29.835  25.450  1.00  0.00     0.021 C 
ENDROOT
BRANCH   1   2
ATOM      2  C   UNL A   1      31.163  29.402  24.811  1.00  0.00     0.116 C 
BRANCH   2   3
ATOM      3  N   UNL A   1      30.716  27.876  24.625  1.00  0.00    -0.354 N 
ATOM      4  C   UNL A   1      30.861  26.499  24.603  1.00  0.00     0.242 C 
ATOM      5  O   UNL A   1      29.749  26.007  24.280  1.00  0.00    -0.273 OA
ATOM      6  H   UNL A   1      29.769  27.978  24.378  1.00  0.00     0.163 HD
BRANCH   4   7
ATOM      7  C   UNL A   1      31.997  25.311  25.005  1.00  0.00     0.174 C 
BRANCH   7   8
ATOM      8  C   UNL A   1      33.583  25.111  24.850  1.00  0.00     0.018 C 
ATOM      9  C   UNL A   1      34.439  26.235  25.476  1.00  0.00     0.010 C 
BRANCH   8  10
ATOM     10  C   UNL A   1      34.159  24.809  23.414  1.00  0.00     0.002 C 
ATOM     11  C   UNL A   1      33.476  23.620  22.719  1.00  0.00     0.004 C 
ENDBRANCH   8  10
ENDBRANCH   7   8
BRANCH   7  12
ATOM     12  N   UNL A   1      31.585  24.747  26.269  1.00  0.00    -0.344 N 
ATOM     13  C   UNL A   1      30.915  23.588  26.363  1.00  0.00     0.222 C 
ATOM     14  H   UNL A   1      31.805  25.234  27.096  1.00  0.00     0.164 HD
ATOM     15  O   UNL A   1      30.327  23.305  27.426  1.00  0.00    -0.275 OA
BRANCH  13  16
ATOM     16  C   UNL A   1      31.029  22.617  25.225  1.00  0.00     0.122 C 
BRANCH  16  17
ATOM     17  C   UNL A   1      31.899  21.312  25.289  1.00  0.00     0.132 C 
BRANCH  17  18
ATOM     18  N   UNL A   1      33.305  20.809  25.360  1.00  0.00    -0.347 N 
ATOM     19  C   UNL A   1      33.361  19.410  25.201  1.00  0.00     0.087 A 
ATOM     20  C   UNL A   1      34.677  21.220  25.442  1.00  0.00     0.049 A 
ATOM     21  C   UNL A   1      34.614  19.032  24.810  1.00  0.00     0.028 A 
ATOM     22  C   UNL A   1      35.455  20.152  24.928  1.00  0.00    -0.000 A 
ATOM     23  C   UNL A   1      35.461  22.339  25.865  1.00  0.00     0.042 A 
ATOM     24  C   UNL A   1      36.843  20.317  24.660  1.00  0.00     0.011 A 
ATOM     25  C   UNL A   1      36.835  22.476  25.629  1.00  0.00     0.020 A 
ATOM     26  C   UNL A   1      37.522  21.491  24.977  1.00  0.00     0.016 A 
ATOM     27  Br  UNL A   1      37.747  24.018  26.256  1.00  0.00    -0.051 Br
ENDBRANCH  17  18
ENDBRANCH  16  17
ENDBRANCH  13  16
ENDBRANCH   7  12
ENDBRANCH   4   7
ENDBRANCH   2   3
ENDBRANCH   1   2
BRANCH   1  28
ATOM     28  C   UNL A   1      32.836  29.569  26.937  1.00  0.00     0.002 C 
BRANCH  28  29
ATOM     29  C   UNL A   1      34.291  29.449  27.373  1.00  0.00     0.002 C 
BRANCH  29  30
ATOM     30  C   UNL A   1      35.093  30.745  27.553  1.00  0.00     0.021 C 
BRANCH  30  31
ATOM     31  C   UNL A   1      34.340  31.989  28.038  1.00  0.00     0.116 C 
BRANCH  31  32
ATOM     32  N   UNL A   1      34.329  32.228  29.471  1.00  0.00    -0.352 N 
ATOM     33  C   UNL A   1      35.156  31.952  30.519  1.00  0.00     0.251 C 
ATOM     34  H   UNL A   1      33.520  32.711  29.757  1.00  0.00     0.163 HD
ATOM     35  O   UNL A   1      34.810  32.403  31.624  1.00  0.00    -0.269 OA
BRANCH  33  36
ATOM     36  C   UNL A   1      36.389  31.130  30.457  1.00  0.00     0.039 A 
ATOM     37  C   UNL A   1      36.441  29.750  30.643  1.00  0.00     0.014 A 
ATOM     38  C   UNL A   1      37.585  31.813  30.156  1.00  0.00     0.014 A 
ATOM     39  C   UNL A   1      37.667  29.085  30.619  1.00  0.00     0.010 A 
ATOM     40  C   UNL A   1      38.807  31.146  30.093  1.00  0.00     0.010 A 
ATOM     41  C   UNL A   1      38.854  29.782  30.360  1.00  0.00    -0.014 A 
BRANCH  41  42
ATOM     42  C   UNL A   1      40.092  29.006  30.248  1.00  0.00     0.031 A 
ATOM     43  C   UNL A   1      40.839  28.811  31.527  1.00  0.00     0.074 A 
ATOM     44  C   UNL A   1      40.518  28.383  29.131  1.00  0.00     0.049 A 
ATOM     45  N   UNL A   1      42.032  29.212  31.828  1.00  0.00    -0.248 NA
ATOM     46  C   UNL A   1      40.130  28.153  32.636  1.00  0.00     0.031 C 
ATOM     47  C   UNL A   1      39.802  28.197  27.868  1.00  0.00     0.029 A 
ATOM     48  N   UNL A   1      41.683  27.695  28.929  1.00  0.00    -0.354 N 
ATOM     49  C   UNL A   1      42.299  28.711  33.102  1.00  0.00     0.074 A 
ATOM     50  C   UNL A   1      41.056  28.179  33.596  1.00  0.00     0.031 C 
ATOM     51  C   UNL A   1      40.455  27.283  27.115  1.00  0.00     0.029 A 
ATOM     52  C   UNL A   1      41.697  26.922  27.778  1.00  0.00     0.049 A 
ATOM     53  H   UNL A   1      42.447  27.745  29.549  1.00  0.00     0.167 HD
ATOM     54  C   UNL A   1      43.570  28.592  33.574  1.00  0.00     0.037 A 
ATOM     55  C   UNL A   1      42.636  26.016  27.412  1.00  0.00     0.037 A 
ATOM     56  C   UNL A   1      44.489  29.426  32.845  1.00  0.00     0.049 A 
ATOM     57  C   UNL A   1      43.876  26.307  28.166  1.00  0.00     0.074 A 
ATOM     58  C   UNL A   1      44.608  30.781  32.599  1.00  0.00     0.029 A 
ATOM     59  N   UNL A   1      45.348  28.821  31.963  1.00  0.00    -0.354 N 
ATOM     60  N   UNL A   1      44.641  27.339  27.951  1.00  0.00    -0.248 NA
ATOM     61  C   UNL A   1      44.082  25.634  29.438  1.00  0.00     0.031 C 
ATOM     62  C   UNL A   1      45.140  30.873  31.279  1.00  0.00     0.029 A 
ATOM     63  C   UNL A   1      45.341  29.572  30.819  1.00  0.00     0.049 A 
ATOM     64  H   UNL A   1      45.871  28.002  32.122  1.00  0.00     0.167 HD
ATOM     65  C   UNL A   1      45.098  27.704  29.207  1.00  0.00     0.074 A 
ATOM     66  C   UNL A   1      44.825  26.552  30.059  1.00  0.00     0.031 C 
ATOM     67  C   UNL A   1      45.397  29.005  29.494  1.00  0.00     0.037 A 
BRANCH  54  68
ATOM     68  C   UNL A   1      44.055  27.440  34.430  1.00  0.00     0.057 A 
ATOM     69  C   UNL A   1      44.191  26.116  33.967  1.00  0.00     0.134 A 
ATOM     70  C   UNL A   1      44.727  27.719  35.638  1.00  0.00     0.134 A 
ATOM     71  F   UNL A   1      43.653  25.697  32.817  1.00  0.00    -0.206 F 
ATOM     72  C   UNL A   1      44.983  25.164  34.617  1.00  0.00     0.040 A 
ATOM     73  C   UNL A   1      45.562  26.789  36.267  1.00  0.00     0.040 A 
ATOM     74  F   UNL A   1      44.671  28.940  36.191  1.00  0.00    -0.206 F 
ATOM     75  C   UNL A   1      45.707  25.510  35.746  1.00  0.00     0.006 A 
ENDBRANCH  54  68
BRANCH  55  76
ATOM     76  C   UNL A   1      42.478  24.779  26.616  1.00  0.00     0.057 A 
ATOM     77  C   UNL A   1      41.725  23.694  27.098  1.00  0.00     0.134 A 
ATOM     78  C   UNL A   1      43.273  24.524  25.491  1.00  0.00     0.134 A 
ATOM     79  F   UNL A   1      40.991  23.803  28.215  1.00  0.00    -0.206 F 
ATOM     80  C   UNL A   1      41.768  22.429  26.504  1.00  0.00     0.040 A 
ATOM     81  C   UNL A   1      43.333  23.259  24.891  1.00  0.00     0.040 A 
ATOM     82  F   UNL A   1      44.062  25.482  24.980  1.00  0.00    -0.206 F 
ATOM     83  C   UNL A   1      42.585  22.203  25.404  1.00  0.00     0.006 A 
ENDBRANCH  55  76
BRANCH  67  84
ATOM     84  C   UNL A   1      45.517  29.963  28.345  1.00  0.00     0.057 A 
ATOM     85  C   UNL A   1      46.793  30.288  27.871  1.00  0.00     0.134 A 
ATOM     86  C   UNL A   1      44.433  30.653  27.782  1.00  0.00     0.134 A 
ATOM     87  F   UNL A   1      47.881  29.713  28.406  1.00  0.00    -0.206 F 
ATOM     88  C   UNL A   1      46.983  31.239  26.866  1.00  0.00     0.040 A 
ATOM     89  C   UNL A   1      44.608  31.579  26.751  1.00  0.00     0.040 A 
ATOM     90  F   UNL A   1      43.188  30.486  28.245  1.00  0.00    -0.206 F 
ATOM     91  C   UNL A   1      45.888  31.878  26.292  1.00  0.00     0.006 A 
ENDBRANCH  67  84
ENDBRANCH  41  42
ENDBRANCH  33  36
ENDBRANCH  31  32
ENDBRANCH  30  31
ENDBRANCH  29  30
ENDBRANCH  28  29
ENDBRANCH   1  28
TORSDOF 19
ENDMDL
MODEL 2
REMARK VINA RESULT:     -10.8      2.953      7.636
REMARK SMILES CC[C@@H](C)[C@@H](NC(=O)CCn1ccc2ccc(Br)cc21)C(=O)NCCCCCCNC(=O)c1ccc(-c2c3nc(c(-c4c(F)cccc4F)c4ccc([nH]4)c(-c4c(F)cccc4F)c4nc(c(-c5c(F)cccc5F)c5ccc2[nH]5)C=C4)C=C3)cc1
REMARK SMILES IDX 25 1 24 2 23 3 21 4 22 5 5 7 3 8 4 9 2 10 1 11 6 12 7 13
REMARK SMILES IDX 8 15 9 16 10 17 11 18 12 19 20 20 13 21 14 22 19 23 15 24
REMARK SMILES IDX 17 25 16 26 18 27 26 28 27 29 28 30 29 31 30 32 31 33 32 35
REMARK SMILES IDX 33 36 34 37 86 38 35 39 85 40 36 41 37 42 38 43 79 44 39 45
REMARK SMILES IDX 84 46 78 47 80 48 40 49 83 50 77 51 76 52 41 54 67 55 50 56
REMARK SMILES IDX 66 57 51 58 54 59 65 60 81 61 52 62 53 63 64 65 82 66 55 67
REMARK SMILES IDX 42 68 43 69 48 70 44 71 45 72 47 73 49 74 46 75 68 76 69 77
REMARK SMILES IDX 74 78 70 79 71 80 73 81 75 82 72 83 56 84 57 85 62 86 58 87
REMARK SMILES IDX 59 88 61 89 63 90 60 91
REMARK H PARENT 23 6 6 14 30 34 80 53 54 64
REMARK Flexibility Score: inf
ROOT
ATOM      1  C   UNL A   1      36.509  23.630  25.689  1.00  0.00     0.021 C 
ENDROOT
BRANCH   1   2
ATOM      2  C   UNL A   1      35.602  23.792  24.419  1.00  0.00     0.116 C 
BRANCH   2   3
ATOM      3  N   UNL A   1      34.349  24.787  24.347  1.00  0.00    -0.354 N 
ATOM      4  C   UNL A   1      33.359  25.626  24.829  1.00  0.00     0.242 C 
ATOM      5  O   UNL A   1      32.702  26.043  23.839  1.00  0.00    -0.273 OA
ATOM      6  H   UNL A   1      34.181  24.821  23.378  1.00  0.00     0.163 HD
BRANCH   4   7
ATOM      7  C   UNL A   1      32.871  26.354  26.276  1.00  0.00     0.174 C 
BRANCH   7   8
ATOM      8  C   UNL A   1      32.971  27.812  26.943  1.00  0.00     0.018 C 
ATOM      9  C   UNL A   1      31.647  28.608  26.955  1.00  0.00     0.010 C 
BRANCH   8  10
ATOM     10  C   UNL A   1      34.111  28.780  26.446  1.00  0.00     0.002 C 
ATOM     11  C   UNL A   1      34.949  29.376  27.589  1.00  0.00     0.004 C 
ENDBRANCH   8  10
ENDBRANCH   7   8
BRANCH   7  12
ATOM     12  N   UNL A   1      31.595  25.776  26.627  1.00  0.00    -0.344 N 
ATOM     13  C   UNL A   1      31.413  24.455  26.779  1.00  0.00     0.222 C 
ATOM     14  H   UNL A   1      30.827  26.377  26.760  1.00  0.00     0.164 HD
ATOM     15  O   UNL A   1      30.255  23.992  26.779  1.00  0.00    -0.275 OA
BRANCH  13  16
ATOM     16  C   UNL A   1      32.615  23.612  27.088  1.00  0.00     0.122 C 
BRANCH  16  17
ATOM     17  C   UNL A   1      32.826  22.167  26.511  1.00  0.00     0.132 C 
BRANCH  17  18
ATOM     18  N   UNL A   1      32.473  21.267  25.372  1.00  0.00    -0.347 N 
ATOM     19  C   UNL A   1      32.025  21.999  24.254  1.00  0.00     0.087 A 
ATOM     20  C   UNL A   1      32.498  19.903  24.926  1.00  0.00     0.049 A 
ATOM     21  C   UNL A   1      32.152  21.249  23.120  1.00  0.00     0.028 A 
ATOM     22  C   UNL A   1      32.471  19.936  23.508  1.00  0.00    -0.000 A 
ATOM     23  C   UNL A   1      32.544  18.577  25.460  1.00  0.00     0.042 A 
ATOM     24  C   UNL A   1      32.708  18.761  22.741  1.00  0.00     0.011 A 
ATOM     25  C   UNL A   1      32.740  17.422  24.692  1.00  0.00     0.020 A 
ATOM     26  C   UNL A   1      32.879  17.513  23.336  1.00  0.00     0.016 A 
ATOM     27  Br  UNL A   1      32.774  15.724  25.540  1.00  0.00    -0.051 Br
ENDBRANCH  17  18
ENDBRANCH  16  17
ENDBRANCH  13  16
ENDBRANCH   7  12
ENDBRANCH   4   7
ENDBRANCH   2   3
ENDBRANCH   1   2
BRANCH   1  28
ATOM     28  C   UNL A   1      38.010  23.307  25.563  1.00  0.00     0.002 C 
BRANCH  28  29
ATOM     29  C   UNL A   1      38.958  23.797  26.651  1.00  0.00     0.002 C 
BRANCH  29  30
ATOM     30  C   UNL A   1      40.027  22.822  27.161  1.00  0.00     0.021 C 
BRANCH  30  31
ATOM     31  C   UNL A   1      40.632  21.837  26.155  1.00  0.00     0.116 C 
BRANCH  31  32
ATOM     32  N   UNL A   1      41.837  22.265  25.465  1.00  0.00    -0.352 N 
ATOM     33  C   UNL A   1      42.661  23.351  25.511  1.00  0.00     0.251 C 
ATOM     34  H   UNL A   1      42.133  21.606  24.797  1.00  0.00     0.163 HD
ATOM     35  O   UNL A   1      43.666  23.308  24.780  1.00  0.00    -0.269 OA
BRANCH  33  36
ATOM     36  C   UNL A   1      42.434  24.578  26.312  1.00  0.00     0.039 A 
ATOM     37  C   UNL A   1      42.837  24.756  27.634  1.00  0.00     0.014 A 
ATOM     38  C   UNL A   1      41.786  25.646  25.657  1.00  0.00     0.014 A 
ATOM     39  C   UNL A   1      42.520  25.934  28.310  1.00  0.00     0.010 A 
ATOM     40  C   UNL A   1      41.502  26.838  26.319  1.00  0.00     0.010 A 
ATOM     41  C   UNL A   1      41.839  26.972  27.661  1.00  0.00    -0.014 A 
BRANCH  41  42
ATOM     42  C   UNL A   1      41.629  28.220  28.400  1.00  0.00     0.031 A 
ATOM     43  C   UNL A   1      42.694  29.252  28.223  1.00  0.00     0.074 A 
ATOM     44  C   UNL A   1      40.520  28.526  29.105  1.00  0.00     0.049 A 
ATOM     45  N   UNL A   1      43.476  29.758  29.120  1.00  0.00    -0.248 NA
ATOM     46  C   UNL A   1      42.972  29.714  26.855  1.00  0.00     0.031 C 
ATOM     47  C   UNL A   1      39.253  27.796  29.164  1.00  0.00     0.029 A 
ATOM     48  N   UNL A   1      40.274  29.635  29.867  1.00  0.00    -0.354 N 
ATOM     49  C   UNL A   1      44.232  30.733  28.469  1.00  0.00     0.074 A 
ATOM     50  C   UNL A   1      43.970  30.576  27.062  1.00  0.00     0.031 C 
ATOM     51  C   UNL A   1      38.315  28.577  29.747  1.00  0.00     0.029 A 
ATOM     52  C   UNL A   1      38.943  29.799  30.220  1.00  0.00     0.049 A 
ATOM     53  H   UNL A   1      40.981  30.263  30.141  1.00  0.00     0.167 HD
ATOM     54  C   UNL A   1      44.862  31.729  29.152  1.00  0.00     0.037 A 
ATOM     55  C   UNL A   1      38.383  30.878  30.819  1.00  0.00     0.037 A 
ATOM     56  C   UNL A   1      45.034  31.393  30.542  1.00  0.00     0.049 A 
ATOM     57  C   UNL A   1      39.461  31.654  31.473  1.00  0.00     0.074 A 
ATOM     58  C   UNL A   1      45.668  30.383  31.240  1.00  0.00     0.029 A 
ATOM     59  N   UNL A   1      44.232  32.022  31.460  1.00  0.00    -0.354 N 
ATOM     60  N   UNL A   1      40.102  31.267  32.539  1.00  0.00    -0.248 NA
ATOM     61  C   UNL A   1      40.098  32.719  30.715  1.00  0.00     0.031 C 
ATOM     62  C   UNL A   1      44.851  30.155  32.387  1.00  0.00     0.029 A 
ATOM     63  C   UNL A   1      43.791  31.061  32.329  1.00  0.00     0.049 A 
ATOM     64  H   UNL A   1      44.015  32.982  31.489  1.00  0.00     0.167 HD
ATOM     65  C   UNL A   1      41.400  31.713  32.348  1.00  0.00     0.074 A 
ATOM     66  C   UNL A   1      41.308  32.700  31.278  1.00  0.00     0.031 C 
ATOM     67  C   UNL A   1      42.459  31.037  32.881  1.00  0.00     0.037 A 
BRANCH  54  68
ATOM     68  C   UNL A   1      44.974  33.157  28.663  1.00  0.00     0.057 A 
ATOM     69  C   UNL A   1      46.170  33.740  28.198  1.00  0.00     0.134 A 
ATOM     70  C   UNL A   1      43.800  33.861  28.326  1.00  0.00     0.134 A 
ATOM     71  F   UNL A   1      47.368  33.179  28.395  1.00  0.00    -0.206 F 
ATOM     72  C   UNL A   1      46.192  34.892  27.405  1.00  0.00     0.040 A 
ATOM     73  C   UNL A   1      43.809  34.984  27.491  1.00  0.00     0.040 A 
ATOM     74  F   UNL A   1      42.594  33.417  28.715  1.00  0.00    -0.206 F 
ATOM     75  C   UNL A   1      45.008  35.494  27.013  1.00  0.00     0.006 A 
ENDBRANCH  54  68
BRANCH  55  76
ATOM     76  C   UNL A   1      37.008  31.407  30.689  1.00  0.00     0.057 A 
ATOM     77  C   UNL A   1      36.584  32.051  29.512  1.00  0.00     0.134 A 
ATOM     78  C   UNL A   1      36.163  31.537  31.799  1.00  0.00     0.134 A 
ATOM     79  F   UNL A   1      37.352  32.059  28.413  1.00  0.00    -0.206 F 
ATOM     80  C   UNL A   1      35.398  32.786  29.445  1.00  0.00     0.040 A 
ATOM     81  C   UNL A   1      34.975  32.279  31.749  1.00  0.00     0.040 A 
ATOM     82  F   UNL A   1      36.498  30.997  32.980  1.00  0.00    -0.206 F 
ATOM     83  C   UNL A   1      34.594  32.916  30.571  1.00  0.00     0.006 A 
ENDBRANCH  55  76
BRANCH  67  84
ATOM     84  C   UNL A   1      42.170  29.998  33.924  1.00  0.00     0.057 A 
ATOM     85  C   UNL A   1      42.356  30.326  35.271  1.00  0.00     0.134 A 
ATOM     86  C   UNL A   1      41.832  28.667  33.633  1.00  0.00     0.134 A 
ATOM     87  F   UNL A   1      42.739  31.564  35.619  1.00  0.00    -0.206 F 
ATOM     88  C   UNL A   1      42.192  29.383  36.287  1.00  0.00     0.040 A 
ATOM     89  C   UNL A   1      41.630  27.723  34.643  1.00  0.00     0.040 A 
ATOM     90  F   UNL A   1      41.738  28.235  32.369  1.00  0.00    -0.206 F 
ATOM     91  C   UNL A   1      41.813  28.079  35.976  1.00  0.00     0.006 A 
ENDBRANCH  67  84
ENDBRANCH  41  42
ENDBRANCH  33  36
ENDBRANCH  31  32
ENDBRANCH  30  31
ENDBRANCH  29  30
ENDBRANCH  28  29
ENDBRANCH   1  28
TORSDOF 19
ENDMDL
MODEL 3
REMARK VINA RESULT:     -10.7      2.965      8.100
REMARK SMILES CC[C@@H](C)[C@@H](NC(=O)CCn1ccc2ccc(Br)cc21)C(=O)NCCCCCCNC(=O)c1ccc(-c2c3nc(c(-c4c(F)cccc4F)c4ccc([nH]4)c(-c4c(F)cccc4F)c4nc(c(-c5c(F)cccc5F)c5ccc2[nH]5)C=C4)C=C3)cc1
REMARK SMILES IDX 25 1 24 2 23 3 21 4 22 5 5 7 3 8 4 9 2 10 1 11 6 12 7 13
REMARK SMILES IDX 8 15 9 16 10 17 11 18 12 19 20 20 13 21 14 22 19 23 15 24
REMARK SMILES IDX 17 25 16 26 18 27 26 28 27 29 28 30 29 31 30 32 31 33 32 35
REMARK SMILES IDX 33 36 34 37 86 38 35 39 85 40 36 41 37 42 38 43 79 44 39 45
REMARK SMILES IDX 84 46 78 47 80 48 40 49 83 50 77 51 76 52 41 54 67 55 50 56
REMARK SMILES IDX 66 57 51 58 54 59 65 60 81 61 52 62 53 63 64 65 82 66 55 67
REMARK SMILES IDX 42 68 43 69 48 70 44 71 45 72 47 73 49 74 46 75 68 76 69 77
REMARK SMILES IDX 74 78 70 79 71 80 73 81 75 82 72 83 56 84 57 85 62 86 58 87
REMARK SMILES IDX 59 88 61 89 63 90 60 91
REMARK H PARENT 23 6 6 14 30 34 80 53 54 64
REMARK Flexibility Score: inf
ROOT
ATOM      1  C   UNL A   1      38.737  24.540  27.304  1.00  0.00     0.021 C 
ENDROOT
BRANCH   1   2
ATOM      2  C   UNL A   1      37.993  23.686  26.218  1.00  0.00     0.116 C 
BRANCH   2   3
ATOM      3  N   UNL A   1      36.524  24.026  25.679  1.00  0.00    -0.354 N 
ATOM      4  C   UNL A   1      35.229  23.770  25.259  1.00  0.00     0.242 C 
ATOM      5  O   UNL A   1      34.703  24.874  24.963  1.00  0.00    -0.273 OA
ATOM      6  H   UNL A   1      36.567  25.006  25.597  1.00  0.00     0.163 HD
BRANCH   4   7
ATOM      7  C   UNL A   1      34.129  22.488  25.165  1.00  0.00     0.174 C 
BRANCH   7   8
ATOM      8  C   UNL A   1      33.875  21.236  24.192  1.00  0.00     0.018 C 
ATOM      9  C   UNL A   1      32.543  21.286  23.410  1.00  0.00     0.010 C 
BRANCH   8  10
ATOM     10  C   UNL A   1      34.029  19.786  24.789  1.00  0.00     0.002 C 
ATOM     11  C   UNL A   1      32.689  19.131  25.160  1.00  0.00     0.004 C 
ENDBRANCH   8  10
ENDBRANCH   7   8
BRANCH   7  12
ATOM     12  N   UNL A   1      33.841  22.082  26.520  1.00  0.00    -0.344 N 
ATOM     13  C   UNL A   1      32.785  22.543  27.208  1.00  0.00     0.222 C 
ATOM     14  H   UNL A   1      34.445  21.439  26.957  1.00  0.00     0.164 HD
ATOM     15  O   UNL A   1      32.753  22.404  28.447  1.00  0.00    -0.275 OA
BRANCH  13  16
ATOM     16  C   UNL A   1      31.620  23.080  26.430  1.00  0.00     0.122 C 
BRANCH  16  17
ATOM     17  C   UNL A   1      31.198  24.592  26.444  1.00  0.00     0.132 C 
BRANCH  17  18
ATOM     18  N   UNL A   1      31.459  25.917  25.804  1.00  0.00    -0.347 N 
ATOM     19  C   UNL A   1      30.654  26.107  24.663  1.00  0.00     0.087 A 
ATOM     20  C   UNL A   1      32.171  27.153  25.955  1.00  0.00     0.049 A 
ATOM     21  C   UNL A   1      30.555  27.438  24.375  1.00  0.00     0.028 A 
ATOM     22  C   UNL A   1      31.478  28.122  25.185  1.00  0.00    -0.000 A 
ATOM     23  C   UNL A   1      33.321  27.679  26.624  1.00  0.00     0.042 A 
ATOM     24  C   UNL A   1      31.791  29.506  25.291  1.00  0.00     0.011 A 
ATOM     25  C   UNL A   1      33.642  29.041  26.691  1.00  0.00     0.020 A 
ATOM     26  C   UNL A   1      32.849  29.966  26.072  1.00  0.00     0.016 A 
ATOM     27  Br  UNL A   1      35.207  29.594  27.612  1.00  0.00    -0.051 Br
ENDBRANCH  17  18
ENDBRANCH  16  17
ENDBRANCH  13  16
ENDBRANCH   7  12
ENDBRANCH   4   7
ENDBRANCH   2   3
ENDBRANCH   1   2
BRANCH   1  28
ATOM     28  C   UNL A   1      40.229  24.312  27.615  1.00  0.00     0.002 C 
BRANCH  28  29
ATOM     29  C   UNL A   1      40.674  22.936  28.097  1.00  0.00     0.002 C 
BRANCH  29  30
ATOM     30  C   UNL A   1      41.736  22.199  27.271  1.00  0.00     0.021 C 
BRANCH  30  31
ATOM     31  C   UNL A   1      41.618  22.255  25.744  1.00  0.00     0.116 C 
BRANCH  31  32
ATOM     32  N   UNL A   1      42.749  22.813  25.022  1.00  0.00    -0.352 N 
ATOM     33  C   UNL A   1      43.476  23.965  25.075  1.00  0.00     0.251 C 
ATOM     34  H   UNL A   1      43.070  22.206  24.316  1.00  0.00     0.163 HD
ATOM     35  O   UNL A   1      44.447  24.037  24.303  1.00  0.00    -0.269 OA
BRANCH  33  36
ATOM     36  C   UNL A   1      43.180  25.138  25.933  1.00  0.00     0.039 A 
ATOM     37  C   UNL A   1      43.708  25.353  27.204  1.00  0.00     0.014 A 
ATOM     38  C   UNL A   1      42.319  26.113  25.388  1.00  0.00     0.014 A 
ATOM     39  C   UNL A   1      43.315  26.467  27.947  1.00  0.00     0.010 A 
ATOM     40  C   UNL A   1      41.955  27.246  26.112  1.00  0.00     0.010 A 
ATOM     41  C   UNL A   1      42.426  27.408  27.411  1.00  0.00    -0.014 A 
BRANCH  41  42
ATOM     42  C   UNL A   1      42.136  28.604  28.205  1.00  0.00     0.031 A 
ATOM     43  C   UNL A   1      43.160  29.688  28.121  1.00  0.00     0.074 A 
ATOM     44  C   UNL A   1      40.991  28.826  28.883  1.00  0.00     0.049 A 
ATOM     45  N   UNL A   1      43.888  30.178  29.072  1.00  0.00    -0.248 NA
ATOM     46  C   UNL A   1      43.466  30.235  26.790  1.00  0.00     0.031 C 
ATOM     47  C   UNL A   1      39.756  28.041  28.857  1.00  0.00     0.029 A 
ATOM     48  N   UNL A   1      40.670  29.882  29.691  1.00  0.00    -0.354 N 
ATOM     49  C   UNL A   1      44.623  31.218  28.501  1.00  0.00     0.074 A 
ATOM     50  C   UNL A   1      44.417  31.124  27.079  1.00  0.00     0.031 C 
ATOM     51  C   UNL A   1      38.765  28.750  29.443  1.00  0.00     0.029 A 
ATOM     52  C   UNL A   1      39.322  29.970  30.003  1.00  0.00     0.049 A 
ATOM     53  H   UNL A   1      41.339  30.523  30.024  1.00  0.00     0.167 HD
ATOM     54  C   UNL A   1      45.184  32.200  29.258  1.00  0.00     0.037 A 
ATOM     55  C   UNL A   1      38.694  30.992  30.636  1.00  0.00     0.037 A 
ATOM     56  C   UNL A   1      45.322  31.798  30.634  1.00  0.00     0.049 A 
ATOM     57  C   UNL A   1      39.713  31.776  31.369  1.00  0.00     0.074 A 
ATOM     58  C   UNL A   1      45.974  30.780  31.302  1.00  0.00     0.029 A 
ATOM     59  N   UNL A   1      44.461  32.343  31.553  1.00  0.00    -0.354 N 
ATOM     60  N   UNL A   1      40.333  31.360  32.436  1.00  0.00    -0.248 NA
ATOM     61  C   UNL A   1      40.329  32.906  30.691  1.00  0.00     0.031 C 
ATOM     62  C   UNL A   1      45.128  30.458  32.405  1.00  0.00     0.029 A 
ATOM     63  C   UNL A   1      44.033  31.320  32.354  1.00  0.00     0.049 A 
ATOM     64  H   UNL A   1      44.202  33.290  31.624  1.00  0.00     0.167 HD
ATOM     65  C   UNL A   1      41.616  31.869  32.317  1.00  0.00     0.074 A 
ATOM     66  C   UNL A   1      41.519  32.908  31.297  1.00  0.00     0.031 C 
ATOM     67  C   UNL A   1      42.685  31.211  32.854  1.00  0.00     0.037 A 
BRANCH  54  68
ATOM     68  C   UNL A   1      45.251  33.657  28.848  1.00  0.00     0.057 A 
ATOM     69  C   UNL A   1      46.444  34.329  28.519  1.00  0.00     0.134 A 
ATOM     70  C   UNL A   1      44.069  34.309  28.441  1.00  0.00     0.134 A 
ATOM     71  F   UNL A   1      47.653  33.828  28.795  1.00  0.00    -0.206 F 
ATOM     72  C   UNL A   1      46.465  35.521  27.786  1.00  0.00     0.040 A 
ATOM     73  C   UNL A   1      44.081  35.473  27.664  1.00  0.00     0.040 A 
ATOM     74  F   UNL A   1      42.864  33.778  28.701  1.00  0.00    -0.206 F 
ATOM     75  C   UNL A   1      45.284  36.074  27.319  1.00  0.00     0.006 A 
ENDBRANCH  54  68
BRANCH  55  76
ATOM     76  C   UNL A   1      37.303  31.469  30.481  1.00  0.00     0.057 A 
ATOM     77  C   UNL A   1      36.942  32.336  29.434  1.00  0.00     0.134 A 
ATOM     78  C   UNL A   1      36.354  31.309  31.500  1.00  0.00     0.134 A 
ATOM     79  F   UNL A   1      37.804  32.625  28.447  1.00  0.00    -0.206 F 
ATOM     80  C   UNL A   1      35.718  33.009  29.405  1.00  0.00     0.040 A 
ATOM     81  C   UNL A   1      35.127  31.985  31.490  1.00  0.00     0.040 A 
ATOM     82  F   UNL A   1      36.619  30.538  32.565  1.00  0.00    -0.206 F 
ATOM     83  C   UNL A   1      34.809  32.847  30.443  1.00  0.00     0.006 A 
ENDBRANCH  55  76
BRANCH  67  84
ATOM     84  C   UNL A   1      42.404  30.106  33.830  1.00  0.00     0.057 A 
ATOM     85  C   UNL A   1      42.152  28.821  33.338  1.00  0.00     0.134 A 
ATOM     86  C   UNL A   1      42.262  30.299  35.213  1.00  0.00     0.134 A 
ATOM     87  F   UNL A   1      42.210  28.578  32.019  1.00  0.00    -0.206 F 
ATOM     88  C   UNL A   1      41.797  27.767  34.182  1.00  0.00     0.040 A 
ATOM     89  C   UNL A   1      41.943  29.244  36.072  1.00  0.00     0.040 A 
ATOM     90  F   UNL A   1      42.379  31.515  35.760  1.00  0.00    -0.206 F 
ATOM     91  C   UNL A   1      41.705  27.973  35.556  1.00  0.00     0.006 A 
ENDBRANCH  67  84
ENDBRANCH  41  42
ENDBRANCH  33  36
ENDBRANCH  31  32
ENDBRANCH  30  31
ENDBRANCH  29  30
ENDBRANCH  28  29
ENDBRANCH   1  28
TORSDOF 19
ENDMDL
