MODEL 1
REMARK VINA RESULT:      -9.4      0.000      0.000
REMARK SMILES CCCC[C@H](C(=O)OC)[C@H](O)C(=O)NCCCCCCNC(=O)c1ccc(-c2c3nc(c(-c4c(F)cccc4F)c4ccc([nH]4)c(-c4c(F)cccc4F)c4nc(c(-c5c(F)cccc5F)c5ccc2[nH]5)C=C4)C=C3)cc1
REMARK SMILES IDX 16 1 15 2 14 3 12 4 13 5 10 7 5 8 4 9 3 10 2 11 1 12 6 13
REMARK SMILES IDX 7 14 8 15 9 16 11 17 17 19 18 20 19 21 20 22 21 23 22 24
REMARK SMILES IDX 23 26 24 27 25 28 77 29 26 30 76 31 27 32 28 33 29 34 70 35
REMARK SMILES IDX 30 36 75 37 69 38 71 39 31 40 74 41 68 42 67 43 32 45 58 46
REMARK SMILES IDX 41 47 57 48 42 49 45 50 56 51 72 52 43 53 44 54 55 56 73 57
REMARK SMILES IDX 46 58 33 59 34 60 39 61 35 62 36 63 38 64 40 65 37 66 59 67
REMARK SMILES IDX 60 68 65 69 61 70 62 71 64 72 66 73 63 74 47 75 48 76 53 77
REMARK SMILES IDX 49 78 50 79 52 80 54 81 51 82
REMARK H PARENT 14 6 11 18 21 25 71 44 45 55
REMARK Flexibility Score: inf
ROOT
ATOM      1  C   UNL A   1      32.308  27.780  26.696  1.00  0.00     0.021 C 
ENDROOT
BRANCH   1   2
ATOM      2  C   UNL A   1      30.977  27.050  26.826  1.00  0.00     0.116 C 
BRANCH   2   3
ATOM      3  N   UNL A   1      31.089  25.691  26.344  1.00  0.00    -0.354 N 
ATOM      4  C   UNL A   1      30.803  25.149  25.131  1.00  0.00     0.249 C 
ATOM      5  O   UNL A   1      31.128  23.973  24.939  1.00  0.00    -0.272 OA
ATOM      6  H   UNL A   1      31.429  25.048  27.007  1.00  0.00     0.163 HD
BRANCH   4   7
ATOM      7  C   UNL A   1      30.067  25.949  24.046  1.00  0.00     0.217 C 
BRANCH   7   8
ATOM      8  C   UNL A   1      30.731  27.214  23.460  1.00  0.00     0.137 C 
BRANCH   8   9
ATOM      9  C   UNL A   1      29.637  28.165  22.893  1.00  0.00     0.018 C 
BRANCH   9  10
ATOM     10  C   UNL A   1      29.956  29.664  22.743  1.00  0.00     0.001 C 
BRANCH  10  11
ATOM     11  C   UNL A   1      29.082  30.674  23.491  1.00  0.00    -0.003 C 
ATOM     12  C   UNL A   1      27.599  30.562  23.199  1.00  0.00     0.004 C 
ENDBRANCH  10  11
ENDBRANCH   9  10
ENDBRANCH   8   9
BRANCH   8  13
ATOM     13  C   UNL A   1      31.880  27.011  22.486  1.00  0.00     0.311 C 
ATOM     14  O   UNL A   1      32.881  27.705  22.385  1.00  0.00    -0.252 OA
BRANCH  13  15
ATOM     15  O   UNL A   1      31.648  25.911  21.711  1.00  0.00    -0.469 OA
ATOM     16  C   UNL A   1      32.778  25.042  21.595  1.00  0.00     0.282 C 
ENDBRANCH  13  15
ENDBRANCH   8  13
ENDBRANCH   7   8
BRANCH   7  17
ATOM     17  O   UNL A   1      28.701  26.238  24.377  1.00  0.00    -0.382 OA
ATOM     18  H   UNL A   1      28.391  25.611  25.050  1.00  0.00     0.211 HD
ENDBRANCH   7  17
ENDBRANCH   4   7
ENDBRANCH   2   3
ENDBRANCH   1   2
BRANCH   1  19
ATOM     19  C   UNL A   1      32.272  29.234  27.190  1.00  0.00     0.002 C 
BRANCH  19  20
ATOM     20  C   UNL A   1      31.825  30.264  26.150  1.00  0.00     0.002 C 
BRANCH  20  21
ATOM     21  C   UNL A   1      31.576  31.670  26.697  1.00  0.00     0.021 C 
BRANCH  21  22
ATOM     22  C   UNL A   1      32.835  32.425  27.107  1.00  0.00     0.116 C 
BRANCH  22  23
ATOM     23  N   UNL A   1      32.559  33.796  27.499  1.00  0.00    -0.352 N 
ATOM     24  C   UNL A   1      33.136  34.538  28.497  1.00  0.00     0.251 C 
ATOM     25  H   UNL A   1      31.861  34.255  26.978  1.00  0.00     0.163 HD
ATOM     26  O   UNL A   1      32.677  35.634  28.804  1.00  0.00    -0.269 OA
BRANCH  24  27
ATOM     27  C   UNL A   1      34.300  33.994  29.225  1.00  0.00     0.039 A 
ATOM     28  C   UNL A   1      34.086  33.027  30.208  1.00  0.00     0.014 A 
ATOM     29  C   UNL A   1      35.596  34.424  28.923  1.00  0.00     0.014 A 
ATOM     30  C   UNL A   1      35.181  32.446  30.850  1.00  0.00     0.010 A 
ATOM     31  C   UNL A   1      36.687  33.787  29.508  1.00  0.00     0.010 A 
ATOM     32  C   UNL A   1      36.489  32.795  30.480  1.00  0.00    -0.014 A 
BRANCH  32  33
ATOM     33  C   UNL A   1      37.663  32.129  31.099  1.00  0.00     0.031 A 
ATOM     34  C   UNL A   1      38.395  31.044  30.359  1.00  0.00     0.074 A 
ATOM     35  C   UNL A   1      38.034  32.465  32.349  1.00  0.00     0.049 A 
ATOM     36  N   UNL A   1      39.407  30.314  30.754  1.00  0.00    -0.248 NA
ATOM     37  C   UNL A   1      37.910  30.718  29.009  1.00  0.00     0.031 C 
ATOM     38  C   UNL A   1      37.375  33.469  33.187  1.00  0.00     0.029 A 
ATOM     39  N   UNL A   1      39.053  31.993  33.138  1.00  0.00    -0.354 N 
ATOM     40  C   UNL A   1      39.672  29.440  29.708  1.00  0.00     0.074 A 
ATOM     41  C   UNL A   1      38.678  29.688  28.687  1.00  0.00     0.031 C 
ATOM     42  C   UNL A   1      38.022  33.557  34.359  1.00  0.00     0.029 A 
ATOM     43  C   UNL A   1      39.113  32.588  34.375  1.00  0.00     0.049 A 
ATOM     44  H   UNL A   1      39.681  31.293  32.845  1.00  0.00     0.167 HD
ATOM     45  C   UNL A   1      40.668  28.529  29.597  1.00  0.00     0.037 A 
ATOM     46  C   UNL A   1      39.949  32.371  35.409  1.00  0.00     0.037 A 
ATOM     47  C   UNL A   1      41.665  28.297  30.609  1.00  0.00     0.049 A 
ATOM     48  C   UNL A   1      41.034  31.339  35.268  1.00  0.00     0.074 A 
ATOM     49  C   UNL A   1      42.748  27.436  30.571  1.00  0.00     0.029 A 
ATOM     50  N   UNL A   1      41.697  28.923  31.847  1.00  0.00    -0.354 N 
ATOM     51  N   UNL A   1      41.316  30.569  34.246  1.00  0.00    -0.248 NA
ATOM     52  C   UNL A   1      41.921  31.151  36.424  1.00  0.00     0.031 C 
ATOM     53  C   UNL A   1      43.403  27.500  31.805  1.00  0.00     0.029 A 
ATOM     54  C   UNL A   1      42.764  28.447  32.590  1.00  0.00     0.049 A 
ATOM     55  H   UNL A   1      41.055  29.605  32.151  1.00  0.00     0.167 HD
ATOM     56  C   UNL A   1      42.430  29.829  34.622  1.00  0.00     0.074 A 
ATOM     57  C   UNL A   1      42.780  30.253  35.962  1.00  0.00     0.031 C 
ATOM     58  C   UNL A   1      43.104  28.884  33.921  1.00  0.00     0.037 A 
BRANCH  45  59
ATOM     59  C   UNL A   1      40.727  27.715  28.336  1.00  0.00     0.057 A 
ATOM     60  C   UNL A   1      41.454  28.139  27.214  1.00  0.00     0.134 A 
ATOM     61  C   UNL A   1      40.079  26.477  28.252  1.00  0.00     0.134 A 
ATOM     62  F   UNL A   1      42.090  29.320  27.222  1.00  0.00    -0.206 F 
ATOM     63  C   UNL A   1      41.509  27.375  26.047  1.00  0.00     0.040 A 
ATOM     64  C   UNL A   1      40.152  25.689  27.102  1.00  0.00     0.040 A 
ATOM     65  F   UNL A   1      39.371  26.006  29.290  1.00  0.00    -0.206 F 
ATOM     66  C   UNL A   1      40.862  26.142  25.992  1.00  0.00     0.006 A 
ENDBRANCH  45  59
BRANCH  46  67
ATOM     67  C   UNL A   1      39.805  33.157  36.661  1.00  0.00     0.057 A 
ATOM     68  C   UNL A   1      40.557  34.318  36.875  1.00  0.00     0.134 A 
ATOM     69  C   UNL A   1      38.925  32.762  37.676  1.00  0.00     0.134 A 
ATOM     70  F   UNL A   1      41.429  34.739  35.948  1.00  0.00    -0.206 F 
ATOM     71  C   UNL A   1      40.456  35.046  38.062  1.00  0.00     0.040 A 
ATOM     72  C   UNL A   1      38.793  33.496  38.856  1.00  0.00     0.040 A 
ATOM     73  F   UNL A   1      38.168  31.664  37.529  1.00  0.00    -0.206 F 
ATOM     74  C   UNL A   1      39.567  34.638  39.055  1.00  0.00     0.006 A 
ENDBRANCH  46  67
BRANCH  58  75
ATOM     75  C   UNL A   1      44.310  28.272  34.573  1.00  0.00     0.057 A 
ATOM     76  C   UNL A   1      45.583  28.848  34.470  1.00  0.00     0.134 A 
ATOM     77  C   UNL A   1      44.189  27.110  35.345  1.00  0.00     0.134 A 
ATOM     78  F   UNL A   1      45.772  29.955  33.735  1.00  0.00    -0.206 F 
ATOM     79  C   UNL A   1      46.694  28.277  35.092  1.00  0.00     0.040 A 
ATOM     80  C   UNL A   1      45.286  26.546  35.997  1.00  0.00     0.040 A 
ATOM     81  F   UNL A   1      42.996  26.512  35.494  1.00  0.00    -0.206 F 
ATOM     82  C   UNL A   1      46.546  27.127  35.865  1.00  0.00     0.006 A 
ENDBRANCH  58  75
ENDBRANCH  32  33
ENDBRANCH  24  27
ENDBRANCH  22  23
ENDBRANCH  21  22
ENDBRANCH  20  21
ENDBRANCH  19  20
ENDBRANCH   1  19
TORSDOF 20
ENDMDL
MODEL 2
REMARK VINA RESULT:      -9.4      0.839      6.431
REMARK SMILES CCCC[C@H](C(=O)OC)[C@H](O)C(=O)NCCCCCCNC(=O)c1ccc(-c2c3nc(c(-c4c(F)cccc4F)c4ccc([nH]4)c(-c4c(F)cccc4F)c4nc(c(-c5c(F)cccc5F)c5ccc2[nH]5)C=C4)C=C3)cc1
REMARK SMILES IDX 16 1 15 2 14 3 12 4 13 5 10 7 5 8 4 9 3 10 2 11 1 12 6 13
REMARK SMILES IDX 7 14 8 15 9 16 11 17 17 19 18 20 19 21 20 22 21 23 22 24
REMARK SMILES IDX 23 26 24 27 25 28 77 29 26 30 76 31 27 32 28 33 29 34 70 35
REMARK SMILES IDX 30 36 75 37 69 38 71 39 31 40 74 41 68 42 67 43 32 45 58 46
REMARK SMILES IDX 41 47 57 48 42 49 45 50 56 51 72 52 43 53 44 54 55 56 73 57
REMARK SMILES IDX 46 58 33 59 34 60 39 61 35 62 36 63 38 64 40 65 37 66 59 67
REMARK SMILES IDX 60 68 65 69 61 70 62 71 64 72 66 73 63 74 47 75 48 76 53 77
REMARK SMILES IDX 49 78 50 79 52 80 54 81 51 82
REMARK H PARENT 14 6 11 18 21 25 71 44 45 55
REMARK Flexibility Score: inf
ROOT
ATOM      1  C   UNL A   1      32.277  27.916  26.696  1.00  0.00     0.021 C 
ENDROOT
BRANCH   1   2
ATOM      2  C   UNL A   1      30.996  27.115  26.902  1.00  0.00     0.116 C 
BRANCH   2   3
ATOM      3  N   UNL A   1      31.148  25.767  26.404  1.00  0.00    -0.354 N 
ATOM      4  C   UNL A   1      30.763  25.201  25.230  1.00  0.00     0.249 C 
ATOM      5  O   UNL A   1      31.147  24.051  24.995  1.00  0.00    -0.272 OA
ATOM      6  H   UNL A   1      31.609  25.153  27.020  1.00  0.00     0.163 HD
BRANCH   4   7
ATOM      7  C   UNL A   1      29.850  25.942  24.242  1.00  0.00     0.217 C 
BRANCH   7   8
ATOM      8  C   UNL A   1      30.285  27.321  23.701  1.00  0.00     0.137 C 
BRANCH   8   9
ATOM      9  C   UNL A   1      29.036  28.108  23.206  1.00  0.00     0.018 C 
BRANCH   9  10
ATOM     10  C   UNL A   1      29.193  29.589  22.819  1.00  0.00     0.001 C 
BRANCH  10  11
ATOM     11  C   UNL A   1      28.239  30.612  23.441  1.00  0.00    -0.003 C 
ATOM     12  C   UNL A   1      28.692  32.053  23.318  1.00  0.00     0.004 C 
ENDBRANCH  10  11
ENDBRANCH   9  10
ENDBRANCH   8   9
BRANCH   8  13
ATOM     13  C   UNL A   1      31.421  27.347  22.691  1.00  0.00     0.311 C 
ATOM     14  O   UNL A   1      31.354  27.032  21.512  1.00  0.00    -0.252 OA
BRANCH  13  15
ATOM     15  O   UNL A   1      32.568  27.789  23.287  1.00  0.00    -0.469 OA
ATOM     16  C   UNL A   1      33.439  28.496  22.400  1.00  0.00     0.282 C 
ENDBRANCH  13  15
ENDBRANCH   8  13
ENDBRANCH   7   8
BRANCH   7  17
ATOM     17  O   UNL A   1      28.482  26.008  24.668  1.00  0.00    -0.382 OA
ATOM     18  H   UNL A   1      28.148  25.111  24.828  1.00  0.00     0.211 HD
ENDBRANCH   7  17
ENDBRANCH   4   7
ENDBRANCH   2   3
ENDBRANCH   1   2
BRANCH   1  19
ATOM     19  C   UNL A   1      32.169  29.385  27.128  1.00  0.00     0.002 C 
BRANCH  19  20
ATOM     20  C   UNL A   1      31.625  30.339  26.059  1.00  0.00     0.002 C 
BRANCH  20  21
ATOM     21  C   UNL A   1      31.374  31.769  26.538  1.00  0.00     0.021 C 
BRANCH  21  22
ATOM     22  C   UNL A   1      32.621  32.512  27.004  1.00  0.00     0.116 C 
BRANCH  22  23
ATOM     23  N   UNL A   1      32.330  33.864  27.447  1.00  0.00    -0.352 N 
ATOM     24  C   UNL A   1      32.951  34.602  28.422  1.00  0.00     0.251 C 
ATOM     25  H   UNL A   1      31.585  34.312  26.986  1.00  0.00     0.163 HD
ATOM     26  O   UNL A   1      32.480  35.675  28.786  1.00  0.00    -0.269 OA
BRANCH  24  27
ATOM     27  C   UNL A   1      34.179  34.080  29.055  1.00  0.00     0.039 A 
ATOM     28  C   UNL A   1      34.064  33.328  30.225  1.00  0.00     0.014 A 
ATOM     29  C   UNL A   1      35.433  34.315  28.484  1.00  0.00     0.014 A 
ATOM     30  C   UNL A   1      35.207  32.762  30.794  1.00  0.00     0.010 A 
ATOM     31  C   UNL A   1      36.558  33.685  29.007  1.00  0.00     0.010 A 
ATOM     32  C   UNL A   1      36.456  32.905  30.169  1.00  0.00    -0.014 A 
BRANCH  32  33
ATOM     33  C   UNL A   1      37.666  32.244  30.719  1.00  0.00     0.031 A 
ATOM     34  C   UNL A   1      38.317  32.774  31.967  1.00  0.00     0.074 A 
ATOM     35  C   UNL A   1      38.210  31.201  30.063  1.00  0.00     0.049 A 
ATOM     36  N   UNL A   1      39.405  32.364  32.568  1.00  0.00    -0.248 NA
ATOM     37  C   UNL A   1      37.677  33.934  32.608  1.00  0.00     0.031 C 
ATOM     38  C   UNL A   1      37.698  30.624  28.818  1.00  0.00     0.029 A 
ATOM     39  N   UNL A   1      39.318  30.444  30.348  1.00  0.00    -0.354 N 
ATOM     40  C   UNL A   1      39.583  33.219  33.649  1.00  0.00     0.074 A 
ATOM     41  C   UNL A   1      38.527  34.206  33.586  1.00  0.00     0.031 C 
ATOM     42  C   UNL A   1      38.473  29.589  28.462  1.00  0.00     0.029 A 
ATOM     43  C   UNL A   1      39.560  29.453  29.426  1.00  0.00     0.049 A 
ATOM     44  H   UNL A   1      39.886  30.596  31.138  1.00  0.00     0.167 HD
ATOM     45  C   UNL A   1      40.526  33.171  34.620  1.00  0.00     0.037 A 
ATOM     46  C   UNL A   1      40.551  28.544  29.362  1.00  0.00     0.037 A 
ATOM     47  C   UNL A   1      41.565  32.177  34.687  1.00  0.00     0.049 A 
ATOM     48  C   UNL A   1      41.598  28.525  30.442  1.00  0.00     0.074 A 
ATOM     49  C   UNL A   1      42.535  32.009  35.659  1.00  0.00     0.029 A 
ATOM     50  N   UNL A   1      41.774  31.186  33.738  1.00  0.00    -0.354 N 
ATOM     51  N   UNL A   1      41.713  29.294  31.496  1.00  0.00    -0.248 NA
ATOM     52  C   UNL A   1      42.650  27.505  30.324  1.00  0.00     0.031 C 
ATOM     53  C   UNL A   1      43.365  30.952  35.271  1.00  0.00     0.029 A 
ATOM     54  C   UNL A   1      42.875  30.421  34.089  1.00  0.00     0.049 A 
ATOM     55  H   UNL A   1      41.222  31.047  32.935  1.00  0.00     0.167 HD
ATOM     56  C   UNL A   1      42.829  28.833  32.184  1.00  0.00     0.074 A 
ATOM     57  C   UNL A   1      43.346  27.709  31.434  1.00  0.00     0.031 C 
ATOM     58  C   UNL A   1      43.375  29.300  33.334  1.00  0.00     0.037 A 
BRANCH  45  59
ATOM     59  C   UNL A   1      40.476  34.226  35.688  1.00  0.00     0.057 A 
ATOM     60  C   UNL A   1      41.113  35.465  35.534  1.00  0.00     0.134 A 
ATOM     61  C   UNL A   1      39.757  34.015  36.870  1.00  0.00     0.134 A 
ATOM     62  F   UNL A   1      41.829  35.731  34.431  1.00  0.00    -0.206 F 
ATOM     63  C   UNL A   1      41.060  36.443  36.529  1.00  0.00     0.040 A 
ATOM     64  C   UNL A   1      39.670  34.996  37.859  1.00  0.00     0.040 A 
ATOM     65  F   UNL A   1      39.117  32.854  37.081  1.00  0.00    -0.206 F 
ATOM     66  C   UNL A   1      40.329  36.212  37.693  1.00  0.00     0.006 A 
ENDBRANCH  45  59
BRANCH  46  67
ATOM     67  C   UNL A   1      40.592  27.564  28.246  1.00  0.00     0.057 A 
ATOM     68  C   UNL A   1      39.931  26.334  28.340  1.00  0.00     0.134 A 
ATOM     69  C   UNL A   1      41.300  27.827  27.067  1.00  0.00     0.134 A 
ATOM     70  F   UNL A   1      39.250  26.016  29.450  1.00  0.00    -0.206 F 
ATOM     71  C   UNL A   1      39.991  25.391  27.312  1.00  0.00     0.040 A 
ATOM     72  C   UNL A   1      41.345  26.906  26.020  1.00  0.00     0.040 A 
ATOM     73  F   UNL A   1      41.947  28.991  26.910  1.00  0.00    -0.206 F 
ATOM     74  C   UNL A   1      40.696  25.679  26.145  1.00  0.00     0.006 A 
ENDBRANCH  46  67
BRANCH  58  75
ATOM     75  C   UNL A   1      44.572  28.570  33.874  1.00  0.00     0.057 A 
ATOM     76  C   UNL A   1      44.449  27.503  34.773  1.00  0.00     0.134 A 
ATOM     77  C   UNL A   1      45.863  28.917  33.457  1.00  0.00     0.134 A 
ATOM     78  F   UNL A   1      43.241  27.127  35.223  1.00  0.00    -0.206 F 
ATOM     79  C   UNL A   1      45.568  26.825  35.257  1.00  0.00     0.040 A 
ATOM     80  C   UNL A   1      46.988  28.227  33.910  1.00  0.00     0.040 A 
ATOM     81  F   UNL A   1      46.052  29.923  32.589  1.00  0.00    -0.206 F 
ATOM     82  C   UNL A   1      46.842  27.181  34.818  1.00  0.00     0.006 A 
ENDBRANCH  58  75
ENDBRANCH  32  33
ENDBRANCH  24  27
ENDBRANCH  22  23
ENDBRANCH  21  22
ENDBRANCH  20  21
ENDBRANCH  19  20
ENDBRANCH   1  19
TORSDOF 20
ENDMDL
MODEL 3
REMARK VINA RESULT:      -9.3      1.393      3.060
REMARK SMILES CCCC[C@H](C(=O)OC)[C@H](O)C(=O)NCCCCCCNC(=O)c1ccc(-c2c3nc(c(-c4c(F)cccc4F)c4ccc([nH]4)c(-c4c(F)cccc4F)c4nc(c(-c5c(F)cccc5F)c5ccc2[nH]5)C=C4)C=C3)cc1
REMARK SMILES IDX 16 1 15 2 14 3 12 4 13 5 10 7 5 8 4 9 3 10 2 11 1 12 6 13
REMARK SMILES IDX 7 14 8 15 9 16 11 17 17 19 18 20 19 21 20 22 21 23 22 24
REMARK SMILES IDX 23 26 24 27 25 28 77 29 26 30 76 31 27 32 28 33 29 34 70 35
REMARK SMILES IDX 30 36 75 37 69 38 71 39 31 40 74 41 68 42 67 43 32 45 58 46
REMARK SMILES IDX 41 47 57 48 42 49 45 50 56 51 72 52 43 53 44 54 55 56 73 57
REMARK SMILES IDX 46 58 33 59 34 60 39 61 35 62 36 63 38 64 40 65 37 66 59 67
REMARK SMILES IDX 60 68 65 69 61 70 62 71 64 72 66 73 63 74 47 75 48 76 53 77
REMARK SMILES IDX 49 78 50 79 52 80 54 81 51 82
REMARK H PARENT 14 6 11 18 21 25 71 44 45 55
REMARK Flexibility Score: inf
ROOT
ATOM      1  C   UNL A   1      33.103  28.508  27.151  1.00  0.00     0.021 C 
ENDROOT
BRANCH   1   2
ATOM      2  C   UNL A   1      33.031  27.192  26.385  1.00  0.00     0.116 C 
BRANCH   2   3
ATOM      3  N   UNL A   1      31.670  26.709  26.323  1.00  0.00    -0.354 N 
ATOM      4  C   UNL A   1      31.161  25.456  26.457  1.00  0.00     0.249 C 
ATOM      5  O   UNL A   1      29.933  25.338  26.502  1.00  0.00    -0.272 OA
ATOM      6  H   UNL A   1      30.995  27.406  26.155  1.00  0.00     0.163 HD
BRANCH   4   7
ATOM      7  C   UNL A   1      32.073  24.220  26.509  1.00  0.00     0.217 C 
BRANCH   7   8
ATOM      8  C   UNL A   1      32.516  23.553  25.190  1.00  0.00     0.137 C 
BRANCH   8   9
ATOM      9  C   UNL A   1      34.069  23.472  25.139  1.00  0.00     0.018 C 
BRANCH   9  10
ATOM     10  C   UNL A   1      34.737  22.644  24.026  1.00  0.00     0.001 C 
BRANCH  10  11
ATOM     11  C   UNL A   1      36.216  22.891  23.720  1.00  0.00    -0.003 C 
ATOM     12  C   UNL A   1      37.033  23.369  24.904  1.00  0.00     0.004 C 
ENDBRANCH  10  11
ENDBRANCH   9  10
ENDBRANCH   8   9
BRANCH   8  13
ATOM     13  C   UNL A   1      31.924  24.098  23.900  1.00  0.00     0.311 C 
ATOM     14  O   UNL A   1      31.029  23.593  23.238  1.00  0.00    -0.252 OA
BRANCH  13  15
ATOM     15  O   UNL A   1      32.538  25.270  23.561  1.00  0.00    -0.469 OA
ATOM     16  C   UNL A   1      32.887  25.355  22.177  1.00  0.00     0.282 C 
ENDBRANCH  13  15
ENDBRANCH   8  13
ENDBRANCH   7   8
BRANCH   7  17
ATOM     17  O   UNL A   1      31.617  23.212  27.423  1.00  0.00    -0.382 OA
ATOM     18  H   UNL A   1      30.910  22.693  27.006  1.00  0.00     0.211 HD
ENDBRANCH   7  17
ENDBRANCH   4   7
ENDBRANCH   2   3
ENDBRANCH   1   2
BRANCH   1  19
ATOM     19  C   UNL A   1      31.810  29.335  27.092  1.00  0.00     0.002 C 
BRANCH  19  20
ATOM     20  C   UNL A   1      31.776  30.411  26.003  1.00  0.00     0.002 C 
BRANCH  20  21
ATOM     21  C   UNL A   1      31.476  31.825  26.501  1.00  0.00     0.021 C 
BRANCH  21  22
ATOM     22  C   UNL A   1      32.597  32.465  27.311  1.00  0.00     0.116 C 
BRANCH  22  23
ATOM     23  N   UNL A   1      32.342  33.865  27.605  1.00  0.00    -0.352 N 
ATOM     24  C   UNL A   1      32.976  34.684  28.504  1.00  0.00     0.251 C 
ATOM     25  H   UNL A   1      31.616  34.282  27.089  1.00  0.00     0.163 HD
ATOM     26  O   UNL A   1      32.534  35.803  28.745  1.00  0.00    -0.269 OA
BRANCH  24  27
ATOM     27  C   UNL A   1      34.180  34.197  29.205  1.00  0.00     0.039 A 
ATOM     28  C   UNL A   1      34.021  33.408  30.345  1.00  0.00     0.014 A 
ATOM     29  C   UNL A   1      35.458  34.503  28.727  1.00  0.00     0.014 A 
ATOM     30  C   UNL A   1      35.147  32.875  30.976  1.00  0.00     0.010 A 
ATOM     31  C   UNL A   1      36.573  33.906  29.309  1.00  0.00     0.010 A 
ATOM     32  C   UNL A   1      36.428  33.090  30.441  1.00  0.00    -0.014 A 
BRANCH  32  33
ATOM     33  C   UNL A   1      37.627  32.466  31.055  1.00  0.00     0.031 A 
ATOM     34  C   UNL A   1      38.265  31.263  30.417  1.00  0.00     0.074 A 
ATOM     35  C   UNL A   1      38.107  32.950  32.217  1.00  0.00     0.049 A 
ATOM     36  N   UNL A   1      39.283  30.552  30.830  1.00  0.00    -0.248 NA
ATOM     37  C   UNL A   1      37.663  30.780  29.163  1.00  0.00     0.031 C 
ATOM     38  C   UNL A   1      37.548  34.083  32.957  1.00  0.00     0.029 A 
ATOM     39  N   UNL A   1      39.171  32.546  32.983  1.00  0.00    -0.354 N 
ATOM     40  C   UNL A   1      39.436  29.536  29.895  1.00  0.00     0.074 A 
ATOM     41  C   UNL A   1      38.371  29.686  28.927  1.00  0.00     0.031 C 
ATOM     42  C   UNL A   1      38.289  34.299  34.055  1.00  0.00     0.029 A 
ATOM     43  C   UNL A   1      39.348  33.297  34.120  1.00  0.00     0.049 A 
ATOM     44  H   UNL A   1      39.753  31.789  32.742  1.00  0.00     0.167 HD
ATOM     45  C   UNL A   1      40.393  28.579  29.834  1.00  0.00     0.037 A 
ATOM     46  C   UNL A   1      40.257  33.186  35.107  1.00  0.00     0.037 A 
ATOM     47  C   UNL A   1      41.460  28.443  30.791  1.00  0.00     0.049 A 
ATOM     48  C   UNL A   1      41.296  32.102  35.027  1.00  0.00     0.074 A 
ATOM     49  C   UNL A   1      42.510  27.542  30.788  1.00  0.00     0.029 A 
ATOM     50  N   UNL A   1      41.610  29.227  31.926  1.00  0.00    -0.354 N 
ATOM     51  N   UNL A   1      41.472  31.192  34.100  1.00  0.00    -0.248 NA
ATOM     52  C   UNL A   1      42.267  32.034  36.128  1.00  0.00     0.031 C 
ATOM     53  C   UNL A   1      43.263  27.743  31.949  1.00  0.00     0.029 A 
ATOM     54  C   UNL A   1      42.719  28.811  32.644  1.00  0.00     0.049 A 
ATOM     55  H   UNL A   1      41.015  29.969  32.182  1.00  0.00     0.167 HD
ATOM     56  C   UNL A   1      42.590  30.464  34.489  1.00  0.00     0.074 A 
ATOM     57  C   UNL A   1      43.059  31.048  35.728  1.00  0.00     0.031 C 
ATOM     58  C   UNL A   1      43.176  29.407  33.874  1.00  0.00     0.037 A 
BRANCH  45  59
ATOM     59  C   UNL A   1      40.326  27.602  28.694  1.00  0.00     0.057 A 
ATOM     60  C   UNL A   1      39.561  26.430  28.768  1.00  0.00     0.134 A 
ATOM     61  C   UNL A   1      41.008  27.851  27.497  1.00  0.00     0.134 A 
ATOM     62  F   UNL A   1      38.891  26.123  29.890  1.00  0.00    -0.206 F 
ATOM     63  C   UNL A   1      39.500  25.528  27.704  1.00  0.00     0.040 A 
ATOM     64  C   UNL A   1      40.930  26.974  26.415  1.00  0.00     0.040 A 
ATOM     65  F   UNL A   1      41.754  28.957  27.355  1.00  0.00    -0.206 F 
ATOM     66  C   UNL A   1      40.180  25.804  26.519  1.00  0.00     0.006 A 
ENDBRANCH  45  59
BRANCH  46  67
ATOM     67  C   UNL A   1      40.238  34.137  36.248  1.00  0.00     0.057 A 
ATOM     68  C   UNL A   1      39.523  33.852  37.416  1.00  0.00     0.134 A 
ATOM     69  C   UNL A   1      40.923  35.358  36.194  1.00  0.00     0.134 A 
ATOM     70  F   UNL A   1      38.833  32.707  37.523  1.00  0.00    -0.206 F 
ATOM     71  C   UNL A   1      39.469  34.753  38.480  1.00  0.00     0.040 A 
ATOM     72  C   UNL A   1      40.901  36.257  37.261  1.00  0.00     0.040 A 
ATOM     73  F   UNL A   1      41.635  35.689  35.107  1.00  0.00    -0.206 F 
ATOM     74  C   UNL A   1      40.165  35.959  38.406  1.00  0.00     0.006 A 
ENDBRANCH  46  67
BRANCH  58  75
ATOM     75  C   UNL A   1      44.413  28.839  34.510  1.00  0.00     0.057 A 
ATOM     76  C   UNL A   1      44.358  27.781  35.426  1.00  0.00     0.134 A 
ATOM     77  C   UNL A   1      45.679  29.335  34.172  1.00  0.00     0.134 A 
ATOM     78  F   UNL A   1      43.177  27.268  35.804  1.00  0.00    -0.206 F 
ATOM     79  C   UNL A   1      45.516  27.253  36.000  1.00  0.00     0.040 A 
ATOM     80  C   UNL A   1      46.844  28.795  34.715  1.00  0.00     0.040 A 
ATOM     81  F   UNL A   1      45.803  30.342  33.292  1.00  0.00    -0.206 F 
ATOM     82  C   UNL A   1      46.764  27.755  35.639  1.00  0.00     0.006 A 
ENDBRANCH  58  75
ENDBRANCH  32  33
ENDBRANCH  24  27
ENDBRANCH  22  23
ENDBRANCH  21  22
ENDBRANCH  20  21
ENDBRANCH  19  20
ENDBRANCH   1  19
TORSDOF 20
ENDMDL
