MODEL 1
REMARK VINA RESULT:     -10.8      0.000      0.000
REMARK SMILES C[C@H]([NH2+][C@H](C)c1ccccn1)[C@@H](C)C(=O)NCCCCCCNC(=O)c1ccc(-c2c3nc(c(-c4c(F)cccc4F)c4ccc([nH]4)c(-c4c(F)cccc4F)c4nc(c(-c5c(F)cccc5F)c5ccc2[nH]5)C=C4)C=C3)cc1
REMARK SMILES IDX 18 1 17 2 16 3 14 4 15 5 12 7 13 8 2 9 1 10 3 11 4 14 5 15
REMARK SMILES IDX 6 16 7 17 11 18 8 19 10 20 9 21 19 22 20 23 21 24 22 25
REMARK SMILES IDX 23 26 24 27 25 29 26 30 27 31 79 32 28 33 78 34 29 35 30 36
REMARK SMILES IDX 31 37 72 38 32 39 77 40 71 41 73 42 33 43 76 44 70 45 69 46
REMARK SMILES IDX 34 48 60 49 43 50 59 51 44 52 47 53 58 54 74 55 45 56 46 57
REMARK SMILES IDX 57 59 75 60 48 61 35 62 36 63 41 64 37 65 38 66 40 67 42 68
REMARK SMILES IDX 39 69 61 70 62 71 67 72 63 73 64 74 66 75 68 76 65 77 49 78
REMARK SMILES IDX 50 79 55 80 51 81 52 82 54 83 56 84 53 85
REMARK H PARENT 16 6 3 12 3 13 23 28 73 47 47 58
REMARK Flexibility Score: inf
ROOT
ATOM      1  C   UNL A   1      37.155  22.822  25.146  1.00  0.00     0.021 C 
ENDROOT
BRANCH   1   2
ATOM      2  C   UNL A   1      36.072  23.707  25.749  1.00  0.00     0.116 C 
BRANCH   2   3
ATOM      3  N   UNL A   1      35.319  22.996  26.764  1.00  0.00    -0.356 N 
ATOM      4  C   UNL A   1      33.983  22.756  26.855  1.00  0.00     0.228 C 
ATOM      5  O   UNL A   1      33.584  22.088  27.812  1.00  0.00    -0.275 OA
ATOM      6  H   UNL A   1      35.858  22.630  27.502  1.00  0.00     0.163 HD
BRANCH   4   7
ATOM      7  C   UNL A   1      33.002  23.305  25.824  1.00  0.00     0.133 C 
ATOM      8  C   UNL A   1      32.600  24.741  26.210  1.00  0.00     0.024 C 
BRANCH   7   9
ATOM      9  C   UNL A   1      31.821  22.330  25.553  1.00  0.00     0.192 C 
ATOM     10  C   UNL A   1      30.576  22.662  26.396  1.00  0.00     0.076 C 
BRANCH   9  11
ATOM     11  N   UNL A   1      32.141  20.886  25.627  1.00  0.00    -0.336 N 
ATOM     12  H   UNL A   1      31.257  20.378  25.662  1.00  0.00     0.347 HD
ATOM     13  H   UNL A   1      32.730  20.792  26.454  1.00  0.00     0.347 HD
BRANCH  11  14
ATOM     14  C   UNL A   1      32.943  20.306  24.524  1.00  0.00     0.229 C 
ATOM     15  C   UNL A   1      32.306  20.653  23.171  1.00  0.00     0.082 C 
BRANCH  14  16
ATOM     16  C   UNL A   1      33.084  18.776  24.650  1.00  0.00     0.097 A 
ATOM     17  C   UNL A   1      33.840  18.067  23.715  1.00  0.00     0.030 A 
ATOM     18  N   UNL A   1      32.411  18.141  25.646  1.00  0.00    -0.255 NA
ATOM     19  C   UNL A   1      33.880  16.676  23.794  1.00  0.00     0.004 A 
ATOM     20  C   UNL A   1      32.454  16.794  25.689  1.00  0.00     0.111 A 
ATOM     21  C   UNL A   1      33.166  16.024  24.791  1.00  0.00     0.020 A 
ENDBRANCH  14  16
ENDBRANCH  11  14
ENDBRANCH   9  11
ENDBRANCH   7   9
ENDBRANCH   4   7
ENDBRANCH   2   3
ENDBRANCH   1   2
BRANCH   1  22
ATOM     22  C   UNL A   1      36.606  21.692  24.269  1.00  0.00     0.002 C 
BRANCH  22  23
ATOM     23  C   UNL A   1      36.612  20.307  24.924  1.00  0.00     0.002 C 
BRANCH  23  24
ATOM     24  C   UNL A   1      37.947  19.560  24.855  1.00  0.00     0.021 C 
BRANCH  24  25
ATOM     25  C   UNL A   1      38.965  19.973  25.912  1.00  0.00     0.116 C 
BRANCH  25  26
ATOM     26  N   UNL A   1      40.180  19.178  25.842  1.00  0.00    -0.352 N 
ATOM     27  C   UNL A   1      41.480  19.560  26.020  1.00  0.00     0.251 C 
ATOM     28  H   UNL A   1      40.046  18.225  25.636  1.00  0.00     0.163 HD
ATOM     29  O   UNL A   1      42.392  18.779  25.744  1.00  0.00    -0.269 OA
BRANCH  27  30
ATOM     30  C   UNL A   1      41.798  20.909  26.526  1.00  0.00     0.039 A 
ATOM     31  C   UNL A   1      41.694  21.149  27.897  1.00  0.00     0.014 A 
ATOM     32  C   UNL A   1      42.164  21.943  25.656  1.00  0.00     0.014 A 
ATOM     33  C   UNL A   1      41.996  22.413  28.404  1.00  0.00     0.010 A 
ATOM     34  C   UNL A   1      42.527  23.186  26.169  1.00  0.00     0.010 A 
ATOM     35  C   UNL A   1      42.435  23.435  27.545  1.00  0.00    -0.014 A 
BRANCH  35  36
ATOM     36  C   UNL A   1      42.799  24.766  28.088  1.00  0.00     0.031 A 
ATOM     37  C   UNL A   1      41.743  25.811  28.318  1.00  0.00     0.074 A 
ATOM     38  C   UNL A   1      44.092  25.042  28.346  1.00  0.00     0.049 A 
ATOM     39  N   UNL A   1      41.871  27.021  28.797  1.00  0.00    -0.248 NA
ATOM     40  C   UNL A   1      40.365  25.458  27.939  1.00  0.00     0.031 C 
ATOM     41  C   UNL A   1      45.213  24.131  28.106  1.00  0.00     0.029 A 
ATOM     42  N   UNL A   1      44.681  26.166  28.865  1.00  0.00    -0.354 N 
ATOM     43  C   UNL A   1      40.598  27.577  28.769  1.00  0.00     0.074 A 
ATOM     44  C   UNL A   1      39.721  26.590  28.179  1.00  0.00     0.031 C 
ATOM     45  C   UNL A   1      46.351  24.723  28.504  1.00  0.00     0.029 A 
ATOM     46  C   UNL A   1      46.042  26.059  29.004  1.00  0.00     0.049 A 
ATOM     47  H   UNL A   1      44.174  26.972  29.115  1.00  0.00     0.167 HD
ATOM     48  C   UNL A   1      40.194  28.790  29.217  1.00  0.00     0.037 A 
ATOM     49  C   UNL A   1      46.940  26.938  29.485  1.00  0.00     0.037 A 
ATOM     50  C   UNL A   1      41.067  29.758  29.828  1.00  0.00     0.049 A 
ATOM     51  C   UNL A   1      46.462  28.267  29.999  1.00  0.00     0.074 A 
ATOM     52  C   UNL A   1      40.743  30.987  30.375  1.00  0.00     0.029 A 
ATOM     53  N   UNL A   1      42.438  29.606  29.971  1.00  0.00    -0.354 N 
ATOM     54  N   UNL A   1      45.243  28.746  30.040  1.00  0.00    -0.248 NA
ATOM     55  C   UNL A   1      47.483  29.170  30.544  1.00  0.00     0.031 C 
ATOM     56  C   UNL A   1      41.924  31.596  30.814  1.00  0.00     0.029 A 
ATOM     57  C   UNL A   1      42.977  30.727  30.580  1.00  0.00     0.049 A 
ATOM     58  H   UNL A   1      42.951  28.817  29.682  1.00  0.00     0.167 HD
ATOM     59  C   UNL A   1      45.347  29.996  30.635  1.00  0.00     0.074 A 
ATOM     60  C   UNL A   1      46.746  30.191  30.956  1.00  0.00     0.031 C 
ATOM     61  C   UNL A   1      44.372  30.904  30.890  1.00  0.00     0.037 A 
BRANCH  48  62
ATOM     62  C   UNL A   1      38.741  29.133  29.069  1.00  0.00     0.057 A 
ATOM     63  C   UNL A   1      37.854  29.073  30.152  1.00  0.00     0.134 A 
ATOM     64  C   UNL A   1      38.228  29.566  27.839  1.00  0.00     0.134 A 
ATOM     65  F   UNL A   1      38.277  28.653  31.354  1.00  0.00    -0.206 F 
ATOM     66  C   UNL A   1      36.506  29.408  30.013  1.00  0.00     0.040 A 
ATOM     67  C   UNL A   1      36.889  29.929  27.694  1.00  0.00     0.040 A 
ATOM     68  F   UNL A   1      39.024  29.653  26.762  1.00  0.00    -0.206 F 
ATOM     69  C   UNL A   1      36.022  29.845  28.782  1.00  0.00     0.006 A 
ENDBRANCH  48  62
BRANCH  49  70
ATOM     70  C   UNL A   1      48.378  26.577  29.535  1.00  0.00     0.057 A 
ATOM     71  C   UNL A   1      49.250  26.934  28.500  1.00  0.00     0.134 A 
ATOM     72  C   UNL A   1      48.914  25.863  30.613  1.00  0.00     0.134 A 
ATOM     73  F   UNL A   1      48.791  27.603  27.432  1.00  0.00    -0.206 F 
ATOM     74  C   UNL A   1      50.599  26.576  28.524  1.00  0.00     0.040 A 
ATOM     75  C   UNL A   1      50.265  25.520  30.662  1.00  0.00     0.040 A 
ATOM     76  F   UNL A   1      48.131  25.500  31.640  1.00  0.00    -0.206 F 
ATOM     77  C   UNL A   1      51.111  25.870  29.611  1.00  0.00     0.006 A 
ENDBRANCH  49  70
BRANCH  61  78
ATOM     78  C   UNL A   1      44.789  32.176  31.566  1.00  0.00     0.057 A 
ATOM     79  C   UNL A   1      44.846  32.285  32.963  1.00  0.00     0.134 A 
ATOM     80  C   UNL A   1      45.154  33.299  30.814  1.00  0.00     0.134 A 
ATOM     81  F   UNL A   1      44.495  31.249  33.740  1.00  0.00    -0.206 F 
ATOM     82  C   UNL A   1      45.222  33.475  33.585  1.00  0.00     0.040 A 
ATOM     83  C   UNL A   1      45.557  34.487  31.425  1.00  0.00     0.040 A 
ATOM     84  F   UNL A   1      45.130  33.258  29.473  1.00  0.00    -0.206 F 
ATOM     85  C   UNL A   1      45.584  34.579  32.815  1.00  0.00     0.006 A 
ENDBRANCH  61  78
ENDBRANCH  35  36
ENDBRANCH  27  30
ENDBRANCH  25  26
ENDBRANCH  24  25
ENDBRANCH  23  24
ENDBRANCH  22  23
ENDBRANCH   1  22
TORSDOF 17
ENDMDL
MODEL 2
REMARK VINA RESULT:     -10.8      0.393      6.319
REMARK SMILES C[C@H]([NH2+][C@H](C)c1ccccn1)[C@@H](C)C(=O)NCCCCCCNC(=O)c1ccc(-c2c3nc(c(-c4c(F)cccc4F)c4ccc([nH]4)c(-c4c(F)cccc4F)c4nc(c(-c5c(F)cccc5F)c5ccc2[nH]5)C=C4)C=C3)cc1
REMARK SMILES IDX 18 1 17 2 16 3 14 4 15 5 12 7 13 8 2 9 1 10 3 11 4 14 5 15
REMARK SMILES IDX 6 16 7 17 11 18 8 19 10 20 9 21 19 22 20 23 21 24 22 25
REMARK SMILES IDX 23 26 24 27 25 29 26 30 27 31 79 32 28 33 78 34 29 35 30 36
REMARK SMILES IDX 31 37 72 38 32 39 77 40 71 41 73 42 33 43 76 44 70 45 69 46
REMARK SMILES IDX 34 48 60 49 43 50 59 51 44 52 47 53 58 54 74 55 45 56 46 57
REMARK SMILES IDX 57 59 75 60 48 61 35 62 36 63 41 64 37 65 38 66 40 67 42 68
REMARK SMILES IDX 39 69 61 70 62 71 67 72 63 73 64 74 66 75 68 76 65 77 49 78
REMARK SMILES IDX 50 79 55 80 51 81 52 82 54 83 56 84 53 85
REMARK H PARENT 16 6 3 12 3 13 23 28 73 47 47 58
REMARK Flexibility Score: inf
ROOT
ATOM      1  C   UNL A   1      37.089  22.722  25.023  1.00  0.00     0.021 C 
ENDROOT
BRANCH   1   2
ATOM      2  C   UNL A   1      36.032  23.638  25.625  1.00  0.00     0.116 C 
BRANCH   2   3
ATOM      3  N   UNL A   1      35.305  22.972  26.688  1.00  0.00    -0.356 N 
ATOM      4  C   UNL A   1      33.972  22.732  26.820  1.00  0.00     0.228 C 
ATOM      5  O   UNL A   1      33.597  22.107  27.816  1.00  0.00    -0.275 OA
ATOM      6  H   UNL A   1      35.862  22.643  27.430  1.00  0.00     0.163 HD
BRANCH   4   7
ATOM      7  C   UNL A   1      32.965  23.228  25.787  1.00  0.00     0.133 C 
ATOM      8  C   UNL A   1      32.516  24.655  26.151  1.00  0.00     0.024 C 
BRANCH   7   9
ATOM      9  C   UNL A   1      31.817  22.207  25.542  1.00  0.00     0.192 C 
ATOM     10  C   UNL A   1      30.563  22.519  26.378  1.00  0.00     0.076 C 
BRANCH   9  11
ATOM     11  N   UNL A   1      32.185  20.777  25.650  1.00  0.00    -0.336 N 
ATOM     12  H   UNL A   1      31.319  20.244  25.734  1.00  0.00     0.347 HD
ATOM     13  H   UNL A   1      32.807  20.729  26.457  1.00  0.00     0.347 HD
BRANCH  11  14
ATOM     14  C   UNL A   1      32.965  20.185  24.537  1.00  0.00     0.229 C 
ATOM     15  C   UNL A   1      32.291  20.505  23.194  1.00  0.00     0.082 C 
BRANCH  14  16
ATOM     16  C   UNL A   1      33.122  18.660  24.684  1.00  0.00     0.097 A 
ATOM     17  C   UNL A   1      33.920  17.952  23.784  1.00  0.00     0.030 A 
ATOM     18  N   UNL A   1      32.423  18.025  25.663  1.00  0.00    -0.255 NA
ATOM     19  C   UNL A   1      33.976  16.562  23.880  1.00  0.00     0.004 A 
ATOM     20  C   UNL A   1      32.483  16.680  25.723  1.00  0.00     0.111 A 
ATOM     21  C   UNL A   1      33.236  15.910  24.858  1.00  0.00     0.020 A 
ENDBRANCH  14  16
ENDBRANCH  11  14
ENDBRANCH   9  11
ENDBRANCH   7   9
ENDBRANCH   4   7
ENDBRANCH   2   3
ENDBRANCH   1   2
BRANCH   1  22
ATOM     22  C   UNL A   1      36.505  21.552  24.226  1.00  0.00     0.002 C 
BRANCH  22  23
ATOM     23  C   UNL A   1      36.571  20.193  24.932  1.00  0.00     0.002 C 
BRANCH  23  24
ATOM     24  C   UNL A   1      37.927  19.485  24.856  1.00  0.00     0.021 C 
BRANCH  24  25
ATOM     25  C   UNL A   1      38.963  19.980  25.859  1.00  0.00     0.116 C 
BRANCH  25  26
ATOM     26  N   UNL A   1      40.201  19.221  25.787  1.00  0.00    -0.352 N 
ATOM     27  C   UNL A   1      41.488  19.636  25.988  1.00  0.00     0.251 C 
ATOM     28  H   UNL A   1      40.096  18.269  25.560  1.00  0.00     0.163 HD
ATOM     29  O   UNL A   1      42.424  18.887  25.707  1.00  0.00    -0.269 OA
BRANCH  27  30
ATOM     30  C   UNL A   1      41.762  20.983  26.524  1.00  0.00     0.039 A 
ATOM     31  C   UNL A   1      41.549  21.215  27.884  1.00  0.00     0.014 A 
ATOM     32  C   UNL A   1      42.193  22.021  25.691  1.00  0.00     0.014 A 
ATOM     33  C   UNL A   1      41.807  22.476  28.420  1.00  0.00     0.010 A 
ATOM     34  C   UNL A   1      42.512  23.262  26.238  1.00  0.00     0.010 A 
ATOM     35  C   UNL A   1      42.311  23.503  27.605  1.00  0.00    -0.014 A 
BRANCH  35  36
ATOM     36  C   UNL A   1      42.628  24.832  28.182  1.00  0.00     0.031 A 
ATOM     37  C   UNL A   1      44.035  25.170  28.590  1.00  0.00     0.074 A 
ATOM     38  C   UNL A   1      41.637  25.724  28.366  1.00  0.00     0.049 A 
ATOM     39  N   UNL A   1      44.501  26.282  29.098  1.00  0.00    -0.248 NA
ATOM     40  C   UNL A   1      45.046  24.114  28.428  1.00  0.00     0.031 C 
ATOM     41  C   UNL A   1      40.222  25.488  28.066  1.00  0.00     0.029 A 
ATOM     42  N   UNL A   1      41.666  27.007  28.848  1.00  0.00    -0.354 N 
ATOM     43  C   UNL A   1      45.853  26.058  29.325  1.00  0.00     0.074 A 
ATOM     44  C   UNL A   1      46.122  24.687  28.947  1.00  0.00     0.031 C 
ATOM     45  C   UNL A   1      39.524  26.601  28.344  1.00  0.00     0.029 A 
ATOM     46  C   UNL A   1      40.435  27.617  28.863  1.00  0.00     0.049 A 
ATOM     47  H   UNL A   1      42.491  27.449  29.154  1.00  0.00     0.167 HD
ATOM     48  C   UNL A   1      46.790  26.923  29.782  1.00  0.00     0.037 A 
ATOM     49  C   UNL A   1      40.083  28.857  29.248  1.00  0.00     0.037 A 
ATOM     50  C   UNL A   1      46.523  28.294  30.131  1.00  0.00     0.049 A 
ATOM     51  C   UNL A   1      41.145  29.805  29.728  1.00  0.00     0.074 A 
ATOM     52  C   UNL A   1      47.415  29.269  30.541  1.00  0.00     0.029 A 
ATOM     53  N   UNL A   1      45.267  28.882  30.114  1.00  0.00    -0.354 N 
ATOM     54  N   UNL A   1      42.434  29.604  29.860  1.00  0.00    -0.248 NA
ATOM     55  C   UNL A   1      40.706  31.156  30.100  1.00  0.00     0.031 C 
ATOM     56  C   UNL A   1      46.693  30.438  30.808  1.00  0.00     0.029 A 
ATOM     57  C   UNL A   1      45.358  30.202  30.524  1.00  0.00     0.049 A 
ATOM     58  H   UNL A   1      44.435  28.428  29.849  1.00  0.00     0.167 HD
ATOM     59  C   UNL A   1      42.962  30.807  30.309  1.00  0.00     0.074 A 
ATOM     60  C   UNL A   1      41.856  31.738  30.406  1.00  0.00     0.031 C 
ATOM     61  C   UNL A   1      44.247  31.113  30.616  1.00  0.00     0.037 A 
BRANCH  48  62
ATOM     62  C   UNL A   1      48.194  26.412  29.924  1.00  0.00     0.057 A 
ATOM     63  C   UNL A   1      49.140  26.561  28.901  1.00  0.00     0.134 A 
ATOM     64  C   UNL A   1      48.617  25.798  31.110  1.00  0.00     0.134 A 
ATOM     65  F   UNL A   1      48.796  27.128  27.735  1.00  0.00    -0.206 F 
ATOM     66  C   UNL A   1      50.449  26.098  29.044  1.00  0.00     0.040 A 
ATOM     67  C   UNL A   1      49.930  25.354  31.274  1.00  0.00     0.040 A 
ATOM     68  F   UNL A   1      47.763  25.628  32.131  1.00  0.00    -0.206 F 
ATOM     69  C   UNL A   1      50.849  25.498  30.237  1.00  0.00     0.006 A 
ENDBRANCH  48  62
BRANCH  49  70
ATOM     70  C   UNL A   1      38.665  29.285  29.162  1.00  0.00     0.057 A 
ATOM     71  C   UNL A   1      37.834  29.264  30.287  1.00  0.00     0.134 A 
ATOM     72  C   UNL A   1      38.106  29.720  27.954  1.00  0.00     0.134 A 
ATOM     73  F   UNL A   1      38.308  28.841  31.468  1.00  0.00    -0.206 F 
ATOM     74  C   UNL A   1      36.491  29.640  30.212  1.00  0.00     0.040 A 
ATOM     75  C   UNL A   1      36.773  30.121  27.869  1.00  0.00     0.040 A 
ATOM     76  F   UNL A   1      38.854  29.771  26.841  1.00  0.00    -0.206 F 
ATOM     77  C   UNL A   1      35.959  30.073  29.000  1.00  0.00     0.006 A 
ENDBRANCH  49  70
BRANCH  61  78
ATOM     78  C   UNL A   1      44.520  32.518  31.064  1.00  0.00     0.057 A 
ATOM     79  C   UNL A   1      44.504  32.877  32.419  1.00  0.00     0.134 A 
ATOM     80  C   UNL A   1      44.819  33.520  30.133  1.00  0.00     0.134 A 
ATOM     81  F   UNL A   1      44.211  31.966  33.360  1.00  0.00    -0.206 F 
ATOM     82  C   UNL A   1      44.747  34.188  32.828  1.00  0.00     0.040 A 
ATOM     83  C   UNL A   1      45.090  34.829  30.531  1.00  0.00     0.040 A 
ATOM     84  F   UNL A   1      44.859  33.241  28.821  1.00  0.00    -0.206 F 
ATOM     85  C   UNL A   1      45.045  35.168  31.883  1.00  0.00     0.006 A 
ENDBRANCH  61  78
ENDBRANCH  35  36
ENDBRANCH  27  30
ENDBRANCH  25  26
ENDBRANCH  24  25
ENDBRANCH  23  24
ENDBRANCH  22  23
ENDBRANCH   1  22
TORSDOF 17
ENDMDL
MODEL 3
REMARK VINA RESULT:     -10.6      1.524      2.084
REMARK SMILES C[C@H]([NH2+][C@H](C)c1ccccn1)[C@@H](C)C(=O)NCCCCCCNC(=O)c1ccc(-c2c3nc(c(-c4c(F)cccc4F)c4ccc([nH]4)c(-c4c(F)cccc4F)c4nc(c(-c5c(F)cccc5F)c5ccc2[nH]5)C=C4)C=C3)cc1
REMARK SMILES IDX 18 1 17 2 16 3 14 4 15 5 12 7 13 8 2 9 1 10 3 11 4 14 5 15
REMARK SMILES IDX 6 16 7 17 11 18 8 19 10 20 9 21 19 22 20 23 21 24 22 25
REMARK SMILES IDX 23 26 24 27 25 29 26 30 27 31 79 32 28 33 78 34 29 35 30 36
REMARK SMILES IDX 31 37 72 38 32 39 77 40 71 41 73 42 33 43 76 44 70 45 69 46
REMARK SMILES IDX 34 48 60 49 43 50 59 51 44 52 47 53 58 54 74 55 45 56 46 57
REMARK SMILES IDX 57 59 75 60 48 61 35 62 36 63 41 64 37 65 38 66 40 67 42 68
REMARK SMILES IDX 39 69 61 70 62 71 67 72 63 73 64 74 66 75 68 76 65 77 49 78
REMARK SMILES IDX 50 79 55 80 51 81 52 82 54 83 56 84 53 85
REMARK H PARENT 16 6 3 12 3 13 23 28 73 47 47 58
REMARK Flexibility Score: inf
ROOT
ATOM      1  C   UNL A   1      36.377  23.091  25.233  1.00  0.00     0.021 C 
ENDROOT
BRANCH   1   2
ATOM      2  C   UNL A   1      35.441  24.016  24.467  1.00  0.00     0.116 C 
BRANCH   2   3
ATOM      3  N   UNL A   1      34.508  24.675  25.361  1.00  0.00    -0.356 N 
ATOM      4  C   UNL A   1      33.221  24.360  25.670  1.00  0.00     0.228 C 
ATOM      5  O   UNL A   1      32.640  25.067  26.497  1.00  0.00    -0.275 OA
ATOM      6  H   UNL A   1      34.861  25.474  25.814  1.00  0.00     0.163 HD
BRANCH   4   7
ATOM      7  C   UNL A   1      32.506  23.185  25.009  1.00  0.00     0.133 C 
ATOM      8  C   UNL A   1      31.229  23.688  24.312  1.00  0.00     0.024 C 
BRANCH   7   9
ATOM      9  C   UNL A   1      32.311  21.988  25.983  1.00  0.00     0.192 C 
ATOM     10  C   UNL A   1      33.512  21.792  26.924  1.00  0.00     0.076 C 
BRANCH   9  11
ATOM     11  N   UNL A   1      31.908  20.706  25.363  1.00  0.00    -0.336 N 
ATOM     12  H   UNL A   1      30.989  20.845  24.942  1.00  0.00     0.347 HD
ATOM     13  H   UNL A   1      31.941  20.027  26.124  1.00  0.00     0.347 HD
BRANCH  11  14
ATOM     14  C   UNL A   1      32.794  20.143  24.317  1.00  0.00     0.229 C 
ATOM     15  C   UNL A   1      32.165  20.345  22.930  1.00  0.00     0.082 C 
BRANCH  14  16
ATOM     16  C   UNL A   1      33.079  18.645  24.540  1.00  0.00     0.097 A 
ATOM     17  C   UNL A   1      33.838  17.934  23.610  1.00  0.00     0.030 A 
ATOM     18  N   UNL A   1      32.527  18.032  25.620  1.00  0.00    -0.255 NA
ATOM     19  C   UNL A   1      34.007  16.561  23.783  1.00  0.00     0.004 A 
ATOM     20  C   UNL A   1      32.693  16.701  25.756  1.00  0.00     0.111 A 
ATOM     21  C   UNL A   1      33.415  15.928  24.868  1.00  0.00     0.020 A 
ENDBRANCH  14  16
ENDBRANCH  11  14
ENDBRANCH   9  11
ENDBRANCH   7   9
ENDBRANCH   4   7
ENDBRANCH   2   3
ENDBRANCH   1   2
BRANCH   1  22
ATOM     22  C   UNL A   1      36.957  21.961  24.378  1.00  0.00     0.002 C 
BRANCH  22  23
ATOM     23  C   UNL A   1      36.595  20.547  24.845  1.00  0.00     0.002 C 
BRANCH  23  24
ATOM     24  C   UNL A   1      37.774  19.577  24.962  1.00  0.00     0.021 C 
BRANCH  24  25
ATOM     25  C   UNL A   1      38.955  20.102  25.772  1.00  0.00     0.116 C 
BRANCH  25  26
ATOM     26  N   UNL A   1      40.021  19.122  25.883  1.00  0.00    -0.352 N 
ATOM     27  C   UNL A   1      41.360  19.312  26.085  1.00  0.00     0.251 C 
ATOM     28  H   UNL A   1      39.738  18.183  25.801  1.00  0.00     0.163 HD
ATOM     29  O   UNL A   1      42.138  18.364  25.973  1.00  0.00    -0.269 OA
BRANCH  27  30
ATOM     30  C   UNL A   1      41.880  20.652  26.421  1.00  0.00     0.039 A 
ATOM     31  C   UNL A   1      42.174  21.533  25.379  1.00  0.00     0.014 A 
ATOM     32  C   UNL A   1      42.108  21.030  27.749  1.00  0.00     0.014 A 
ATOM     33  C   UNL A   1      42.660  22.808  25.667  1.00  0.00     0.010 A 
ATOM     34  C   UNL A   1      42.531  22.326  28.039  1.00  0.00     0.010 A 
ATOM     35  C   UNL A   1      42.821  23.221  27.000  1.00  0.00    -0.014 A 
BRANCH  35  36
ATOM     36  C   UNL A   1      43.295  24.592  27.308  1.00  0.00     0.031 A 
ATOM     37  C   UNL A   1      42.326  25.651  27.758  1.00  0.00     0.074 A 
ATOM     38  C   UNL A   1      44.599  24.889  27.153  1.00  0.00     0.049 A 
ATOM     39  N   UNL A   1      42.559  26.896  28.083  1.00  0.00    -0.248 NA
ATOM     40  C   UNL A   1      40.907  25.267  27.827  1.00  0.00     0.031 C 
ATOM     41  C   UNL A   1      45.624  23.963  26.665  1.00  0.00     0.029 A 
ATOM     42  N   UNL A   1      45.286  26.052  27.389  1.00  0.00    -0.354 N 
ATOM     43  C   UNL A   1      41.320  27.446  28.387  1.00  0.00     0.074 A 
ATOM     44  C   UNL A   1      40.333  26.414  28.158  1.00  0.00     0.031 C 
ATOM     45  C   UNL A   1      46.813  24.587  26.666  1.00  0.00     0.029 A 
ATOM     46  C   UNL A   1      46.631  25.958  27.130  1.00  0.00     0.049 A 
ATOM     47  H   UNL A   1      44.854  26.876  27.714  1.00  0.00     0.167 HD
ATOM     48  C   UNL A   1      41.035  28.690  28.840  1.00  0.00     0.037 A 
ATOM     49  C   UNL A   1      47.608  26.875  27.257  1.00  0.00     0.037 A 
ATOM     50  C   UNL A   1      42.023  29.706  29.092  1.00  0.00     0.049 A 
ATOM     51  C   UNL A   1      47.268  28.240  27.786  1.00  0.00     0.074 A 
ATOM     52  C   UNL A   1      41.843  30.975  29.613  1.00  0.00     0.029 A 
ATOM     53  N   UNL A   1      43.380  29.568  28.837  1.00  0.00    -0.354 N 
ATOM     54  N   UNL A   1      46.103  28.720  28.146  1.00  0.00    -0.248 NA
ATOM     55  C   UNL A   1      48.382  29.186  27.937  1.00  0.00     0.031 C 
ATOM     56  C   UNL A   1      43.086  31.618  29.639  1.00  0.00     0.029 A 
ATOM     57  C   UNL A   1      44.046  30.735  29.173  1.00  0.00     0.049 A 
ATOM     58  H   UNL A   1      43.806  28.759  28.472  1.00  0.00     0.167 HD
ATOM     59  C   UNL A   1      46.345  30.014  28.586  1.00  0.00     0.074 A 
ATOM     60  C   UNL A   1      47.772  30.235  28.467  1.00  0.00     0.031 C 
ATOM     61  C   UNL A   1      45.465  30.938  29.046  1.00  0.00     0.037 A 
BRANCH  48  62
ATOM     62  C   UNL A   1      39.594  29.019  29.099  1.00  0.00     0.057 A 
ATOM     63  C   UNL A   1      39.019  28.869  30.368  1.00  0.00     0.134 A 
ATOM     64  C   UNL A   1      38.780  29.529  28.078  1.00  0.00     0.134 A 
ATOM     65  F   UNL A   1      39.739  28.373  31.386  1.00  0.00    -0.206 F 
ATOM     66  C   UNL A   1      37.682  29.191  30.607  1.00  0.00     0.040 A 
ATOM     67  C   UNL A   1      37.449  29.878  28.312  1.00  0.00     0.040 A 
ATOM     68  F   UNL A   1      39.268  29.703  26.841  1.00  0.00    -0.206 F 
ATOM     69  C   UNL A   1      36.895  29.704  29.578  1.00  0.00     0.006 A 
ENDBRANCH  48  62
BRANCH  49  70
ATOM     70  C   UNL A   1      49.006  26.520  26.911  1.00  0.00     0.057 A 
ATOM     71  C   UNL A   1      49.507  26.731  25.621  1.00  0.00     0.134 A 
ATOM     72  C   UNL A   1      49.873  25.959  27.857  1.00  0.00     0.134 A 
ATOM     73  F   UNL A   1      48.719  27.249  24.668  1.00  0.00    -0.206 F 
ATOM     74  C   UNL A   1      50.813  26.377  25.278  1.00  0.00     0.040 A 
ATOM     75  C   UNL A   1      51.187  25.623  27.534  1.00  0.00     0.040 A 
ATOM     76  F   UNL A   1      49.454  25.741  29.113  1.00  0.00    -0.206 F 
ATOM     77  C   UNL A   1      51.658  25.824  26.237  1.00  0.00     0.006 A 
ENDBRANCH  49  70
BRANCH  61  78
ATOM     78  C   UNL A   1      46.030  32.261  29.471  1.00  0.00     0.057 A 
ATOM     79  C   UNL A   1      46.143  33.336  28.579  1.00  0.00     0.134 A 
ATOM     80  C   UNL A   1      46.452  32.467  30.790  1.00  0.00     0.134 A 
ATOM     81  F   UNL A   1      45.769  33.198  27.298  1.00  0.00    -0.206 F 
ATOM     82  C   UNL A   1      46.682  34.559  28.978  1.00  0.00     0.040 A 
ATOM     83  C   UNL A   1      46.968  33.694  31.208  1.00  0.00     0.040 A 
ATOM     84  F   UNL A   1      46.363  31.481  31.696  1.00  0.00    -0.206 F 
ATOM     85  C   UNL A   1      47.092  34.742  30.297  1.00  0.00     0.006 A 
ENDBRANCH  61  78
ENDBRANCH  35  36
ENDBRANCH  27  30
ENDBRANCH  25  26
ENDBRANCH  24  25
ENDBRANCH  23  24
ENDBRANCH  22  23
ENDBRANCH   1  22
TORSDOF 17
ENDMDL
