MODEL 1
REMARK VINA RESULT:     -13.1      0.000      0.000
REMARK SMILES O=C(NCCCCCCNC(=O)[C@H]1CCCCN1c1cc(-c2ccccc2)nc(-c2cccc(Cl)c2)n1)c1ccc(-c2c3nc(c(-c4c(F)cccc4F)c4ccc([nH]4)c(-c4c(F)cccc4F)c4nc(c(-c5c(F)cccc5F)c5ccc2[nH]5)C=C4)C=C3)cc1
REMARK SMILES IDX 6 1 5 2 4 3 3 4 1 5 2 6 38 8 39 9 91 10 40 11 90 12 41 13
REMARK SMILES IDX 42 14 43 15 84 16 44 17 89 18 83 19 85 20 45 21 88 22 82 23
REMARK SMILES IDX 81 24 46 26 72 27 55 28 71 29 56 30 59 31 70 32 86 33 57 34
REMARK SMILES IDX 58 35 69 37 87 38 60 39 47 40 48 41 53 42 49 43 50 44 52 45
REMARK SMILES IDX 54 46 51 47 73 48 74 49 79 50 75 51 76 52 78 53 80 54 77 55
REMARK SMILES IDX 61 56 62 57 67 58 63 59 64 60 66 61 68 62 65 63 7 64 8 65
REMARK SMILES IDX 9 66 10 67 11 68 12 70 13 71 14 72 18 73 15 74 17 75 16 76
REMARK SMILES IDX 19 77 20 78 37 79 21 80 29 81 28 82 22 83 23 84 27 85 24 86
REMARK SMILES IDX 26 87 25 88 30 89 31 90 36 91 32 92 34 93 33 94 35 95
REMARK H PARENT 3 7 85 25 59 36 10 69
REMARK Flexibility Score: inf
ROOT
ATOM      1  C   UNL A   1      31.537  30.602  26.063  1.00  0.00     0.002 C 
ENDROOT
BRANCH   1   2
ATOM      2  C   UNL A   1      31.411  32.049  26.539  1.00  0.00     0.021 C 
BRANCH   2   3
ATOM      3  C   UNL A   1      32.703  32.617  27.109  1.00  0.00     0.116 C 
BRANCH   3   4
ATOM      4  N   UNL A   1      32.514  33.971  27.611  1.00  0.00    -0.352 N 
ATOM      5  O   UNL A   1      32.668  35.627  29.143  1.00  0.00    -0.269 OA
ATOM      6  C   UNL A   1      33.125  34.588  28.673  1.00  0.00     0.251 C 
ATOM      7  H   UNL A   1      31.858  34.519  27.121  1.00  0.00     0.163 HD
BRANCH   6   8
ATOM      8  C   UNL A   1      34.345  33.988  29.245  1.00  0.00     0.039 A 
ATOM      9  C   UNL A   1      34.232  32.906  30.119  1.00  0.00     0.014 A 
ATOM     10  C   UNL A   1      35.602  34.501  28.914  1.00  0.00     0.014 A 
ATOM     11  C   UNL A   1      35.355  32.441  30.783  1.00  0.00     0.010 A 
ATOM     12  C   UNL A   1      36.748  33.949  29.496  1.00  0.00     0.010 A 
ATOM     13  C   UNL A   1      36.630  32.929  30.452  1.00  0.00    -0.014 A 
BRANCH  13  14
ATOM     14  C   UNL A   1      37.811  32.268  31.061  1.00  0.00     0.031 A 
ATOM     15  C   UNL A   1      38.178  32.477  32.501  1.00  0.00     0.074 A 
ATOM     16  C   UNL A   1      38.516  31.412  30.294  1.00  0.00     0.049 A 
ATOM     17  N   UNL A   1      39.144  31.922  33.190  1.00  0.00    -0.248 NA
ATOM     18  C   UNL A   1      37.369  33.435  33.270  1.00  0.00     0.031 C 
ATOM     19  C   UNL A   1      38.259  31.149  28.874  1.00  0.00     0.029 A 
ATOM     20  N   UNL A   1      39.565  30.585  30.596  1.00  0.00    -0.354 N 
ATOM     21  C   UNL A   1      39.062  32.461  34.466  1.00  0.00     0.074 A 
ATOM     22  C   UNL A   1      37.977  33.419  34.448  1.00  0.00     0.031 C 
ATOM     23  C   UNL A   1      39.081  30.182  28.448  1.00  0.00     0.029 A 
ATOM     24  C   UNL A   1      39.975  29.814  29.535  1.00  0.00     0.049 A 
ATOM     25  H   UNL A   1      39.983  30.545  31.487  1.00  0.00     0.167 HD
ATOM     26  C   UNL A   1      39.818  32.170  35.554  1.00  0.00     0.037 A 
ATOM     27  C   UNL A   1      40.980  28.925  29.438  1.00  0.00     0.037 A 
ATOM     28  C   UNL A   1      40.902  31.219  35.556  1.00  0.00     0.049 A 
ATOM     29  C   UNL A   1      41.818  28.653  30.651  1.00  0.00     0.074 A 
ATOM     30  C   UNL A   1      41.728  30.854  36.605  1.00  0.00     0.029 A 
ATOM     31  N   UNL A   1      41.312  30.482  34.453  1.00  0.00    -0.354 N 
ATOM     32  N   UNL A   1      41.712  29.153  31.859  1.00  0.00    -0.248 NA
ATOM     33  C   UNL A   1      42.916  27.692  30.490  1.00  0.00     0.031 C 
ATOM     34  C   UNL A   1      42.665  29.932  36.127  1.00  0.00     0.029 A 
ATOM     35  C   UNL A   1      42.388  29.677  34.794  1.00  0.00     0.049 A 
ATOM     36  H   UNL A   1      40.900  30.525  33.561  1.00  0.00     0.167 HD
ATOM     37  C   UNL A   1      42.719  28.560  32.604  1.00  0.00     0.074 A 
ATOM     38  C   UNL A   1      43.402  27.636  31.720  1.00  0.00     0.031 C 
ATOM     39  C   UNL A   1      43.056  28.766  33.900  1.00  0.00     0.037 A 
BRANCH  26  40
ATOM     40  C   UNL A   1      39.508  32.896  36.833  1.00  0.00     0.057 A 
ATOM     41  C   UNL A   1      40.185  34.067  37.200  1.00  0.00     0.134 A 
ATOM     42  C   UNL A   1      38.484  32.454  37.680  1.00  0.00     0.134 A 
ATOM     43  F   UNL A   1      41.185  34.540  36.440  1.00  0.00    -0.206 F 
ATOM     44  C   UNL A   1      39.868  34.761  38.370  1.00  0.00     0.040 A 
ATOM     45  C   UNL A   1      38.138  33.153  38.838  1.00  0.00     0.040 A 
ATOM     46  F   UNL A   1      37.787  31.344  37.387  1.00  0.00    -0.206 F 
ATOM     47  C   UNL A   1      38.834  34.308  39.188  1.00  0.00     0.006 A 
ENDBRANCH  26  40
BRANCH  27  48
ATOM     48  C   UNL A   1      41.259  28.259  28.141  1.00  0.00     0.057 A 
ATOM     49  C   UNL A   1      40.699  27.018  27.820  1.00  0.00     0.134 A 
ATOM     50  C   UNL A   1      42.104  28.849  27.193  1.00  0.00     0.134 A 
ATOM     51  F   UNL A   1      39.892  26.395  28.691  1.00  0.00    -0.206 F 
ATOM     52  C   UNL A   1      40.992  26.374  26.616  1.00  0.00     0.040 A 
ATOM     53  C   UNL A   1      42.376  28.235  25.970  1.00  0.00     0.040 A 
ATOM     54  F   UNL A   1      42.662  30.045  27.432  1.00  0.00    -0.206 F 
ATOM     55  C   UNL A   1      41.829  26.987  25.685  1.00  0.00     0.006 A 
ENDBRANCH  27  48
BRANCH  39  56
ATOM     56  C   UNL A   1      44.196  27.949  34.438  1.00  0.00     0.057 A 
ATOM     57  C   UNL A   1      44.002  26.667  34.969  1.00  0.00     0.134 A 
ATOM     58  C   UNL A   1      45.502  28.454  34.427  1.00  0.00     0.134 A 
ATOM     59  F   UNL A   1      42.772  26.132  35.025  1.00  0.00    -0.206 F 
ATOM     60  C   UNL A   1      45.061  25.932  35.505  1.00  0.00     0.040 A 
ATOM     61  C   UNL A   1      46.573  27.716  34.930  1.00  0.00     0.040 A 
ATOM     62  F   UNL A   1      45.759  29.672  33.926  1.00  0.00    -0.206 F 
ATOM     63  C   UNL A   1      46.352  26.456  35.481  1.00  0.00     0.006 A 
ENDBRANCH  39  56
ENDBRANCH  13  14
ENDBRANCH   6   8
ENDBRANCH   3   4
ENDBRANCH   2   3
ENDBRANCH   1   2
BRANCH   1  64
ATOM     64  C   UNL A   1      32.328  29.682  27.003  1.00  0.00     0.002 C 
BRANCH  64  65
ATOM     65  C   UNL A   1      32.172  28.189  26.706  1.00  0.00     0.021 C 
BRANCH  65  66
ATOM     66  C   UNL A   1      33.504  27.483  26.453  1.00  0.00     0.116 C 
BRANCH  66  67
ATOM     67  N   UNL A   1      33.715  27.259  25.043  1.00  0.00    -0.354 N 
ATOM     68  C   UNL A   1      33.501  26.190  24.238  1.00  0.00     0.242 C 
ATOM     69  H   UNL A   1      34.091  28.038  24.574  1.00  0.00     0.163 HD
ATOM     70  O   UNL A   1      33.864  26.351  23.061  1.00  0.00    -0.273 OA
BRANCH  68  71
ATOM     71  C   UNL A   1      32.882  24.830  24.654  1.00  0.00     0.173 C 
ATOM     72  C   UNL A   1      31.418  25.025  25.064  1.00  0.00     0.035 C 
ATOM     73  N   UNL A   1      33.066  23.693  23.731  1.00  0.00    -0.344 N 
ATOM     74  C   UNL A   1      30.480  24.947  23.873  1.00  0.00     0.004 C 
ATOM     75  C   UNL A   1      32.021  23.232  22.817  1.00  0.00     0.119 C 
ATOM     76  C   UNL A   1      30.600  23.574  23.239  1.00  0.00     0.022 C 
BRANCH  73  77
ATOM     77  C   UNL A   1      33.879  22.675  24.228  1.00  0.00     0.133 A 
ATOM     78  C   UNL A   1      33.449  21.365  24.169  1.00  0.00     0.076 A 
ATOM     79  N   UNL A   1      35.063  23.006  24.758  1.00  0.00    -0.211 NA
ATOM     80  C   UNL A   1      34.295  20.397  24.673  1.00  0.00     0.076 A 
ATOM     81  C   UNL A   1      35.831  21.999  25.209  1.00  0.00     0.162 A 
ATOM     82  N   UNL A   1      35.499  20.699  25.196  1.00  0.00    -0.228 NA
BRANCH  80  83
ATOM     83  C   UNL A   1      33.928  18.975  24.686  1.00  0.00     0.000 A 
ATOM     84  C   UNL A   1      34.872  17.989  24.350  1.00  0.00     0.010 A 
ATOM     85  C   UNL A   1      32.632  18.558  25.035  1.00  0.00     0.010 A 
ATOM     86  C   UNL A   1      34.537  16.632  24.375  1.00  0.00     0.001 A 
ATOM     87  C   UNL A   1      32.293  17.202  25.048  1.00  0.00     0.001 A 
ATOM     88  C   UNL A   1      33.246  16.239  24.722  1.00  0.00     0.000 A 
ENDBRANCH  80  83
BRANCH  81  89
ATOM     89  C   UNL A   1      37.152  22.359  25.727  1.00  0.00     0.021 A 
ATOM     90  C   UNL A   1      37.420  23.665  26.175  1.00  0.00     0.012 A 
ATOM     91  C   UNL A   1      38.195  21.419  25.756  1.00  0.00     0.032 A 
ATOM     92  C   UNL A   1      38.688  24.024  26.636  1.00  0.00     0.002 A 
ATOM     93  C   UNL A   1      39.465  21.786  26.197  1.00  0.00     0.041 A 
ATOM     94  C   UNL A   1      39.716  23.083  26.639  1.00  0.00     0.020 A 
ATOM     95  Cl  UNL A   1      40.742  20.632  26.177  1.00  0.00    -0.084 Cl
ENDBRANCH  81  89
ENDBRANCH  73  77
ENDBRANCH  68  71
ENDBRANCH  66  67
ENDBRANCH  65  66
ENDBRANCH  64  65
ENDBRANCH   1  64
TORSDOF 16
ENDMDL
MODEL 2
REMARK VINA RESULT:     -12.9      0.676      5.946
REMARK SMILES O=C(NCCCCCCNC(=O)[C@H]1CCCCN1c1cc(-c2ccccc2)nc(-c2cccc(Cl)c2)n1)c1ccc(-c2c3nc(c(-c4c(F)cccc4F)c4ccc([nH]4)c(-c4c(F)cccc4F)c4nc(c(-c5c(F)cccc5F)c5ccc2[nH]5)C=C4)C=C3)cc1
REMARK SMILES IDX 6 1 5 2 4 3 3 4 1 5 2 6 38 8 39 9 91 10 40 11 90 12 41 13
REMARK SMILES IDX 42 14 43 15 84 16 44 17 89 18 83 19 85 20 45 21 88 22 82 23
REMARK SMILES IDX 81 24 46 26 72 27 55 28 71 29 56 30 59 31 70 32 86 33 57 34
REMARK SMILES IDX 58 35 69 37 87 38 60 39 47 40 48 41 53 42 49 43 50 44 52 45
REMARK SMILES IDX 54 46 51 47 73 48 74 49 79 50 75 51 76 52 78 53 80 54 77 55
REMARK SMILES IDX 61 56 62 57 67 58 63 59 64 60 66 61 68 62 65 63 7 64 8 65
REMARK SMILES IDX 9 66 10 67 11 68 12 70 13 71 14 72 18 73 15 74 17 75 16 76
REMARK SMILES IDX 19 77 20 78 37 79 21 80 29 81 28 82 22 83 23 84 27 85 24 86
REMARK SMILES IDX 26 87 25 88 30 89 31 90 36 91 32 92 34 93 33 94 35 95
REMARK H PARENT 3 7 85 25 59 36 10 69
REMARK Flexibility Score: inf
ROOT
ATOM      1  C   UNL A   1      31.052  30.781  25.293  1.00  0.00     0.002 C 
ENDROOT
BRANCH   1   2
ATOM      2  C   UNL A   1      31.115  31.607  26.577  1.00  0.00     0.021 C 
BRANCH   2   3
ATOM      3  C   UNL A   1      32.495  32.179  26.866  1.00  0.00     0.116 C 
BRANCH   3   4
ATOM      4  N   UNL A   1      32.425  33.592  27.215  1.00  0.00    -0.352 N 
ATOM      5  O   UNL A   1      32.741  35.390  28.548  1.00  0.00    -0.269 OA
ATOM      6  C   UNL A   1      33.105  34.272  28.193  1.00  0.00     0.251 C 
ATOM      7  H   UNL A   1      31.803  34.132  26.675  1.00  0.00     0.163 HD
BRANCH   6   8
ATOM      8  C   UNL A   1      34.286  33.643  28.814  1.00  0.00     0.039 A 
ATOM      9  C   UNL A   1      34.119  32.509  29.610  1.00  0.00     0.014 A 
ATOM     10  C   UNL A   1      35.558  34.180  28.607  1.00  0.00     0.014 A 
ATOM     11  C   UNL A   1      35.195  32.009  30.324  1.00  0.00     0.010 A 
ATOM     12  C   UNL A   1      36.664  33.598  29.236  1.00  0.00     0.010 A 
ATOM     13  C   UNL A   1      36.486  32.521  30.116  1.00  0.00    -0.014 A 
BRANCH  13  14
ATOM     14  C   UNL A   1      37.626  31.829  30.767  1.00  0.00     0.031 A 
ATOM     15  C   UNL A   1      38.519  30.892  30.008  1.00  0.00     0.074 A 
ATOM     16  C   UNL A   1      37.882  32.118  32.060  1.00  0.00     0.049 A 
ATOM     17  N   UNL A   1      39.589  30.261  30.423  1.00  0.00    -0.248 NA
ATOM     18  C   UNL A   1      38.169  30.616  28.606  1.00  0.00     0.031 C 
ATOM     19  C   UNL A   1      37.065  33.000  32.900  1.00  0.00     0.029 A 
ATOM     20  N   UNL A   1      38.906  31.735  32.883  1.00  0.00    -0.354 N 
ATOM     21  C   UNL A   1      40.038  29.515  29.342  1.00  0.00     0.074 A 
ATOM     22  C   UNL A   1      39.102  29.739  28.260  1.00  0.00     0.031 C 
ATOM     23  C   UNL A   1      37.653  33.140  34.095  1.00  0.00     0.029 A 
ATOM     24  C   UNL A   1      38.839  32.298  34.135  1.00  0.00     0.049 A 
ATOM     25  H   UNL A   1      39.622  31.118  32.605  1.00  0.00     0.167 HD
ATOM     26  C   UNL A   1      41.138  28.727  29.260  1.00  0.00     0.037 A 
ATOM     27  C   UNL A   1      39.632  32.136  35.209  1.00  0.00     0.037 A 
ATOM     28  C   UNL A   1      42.059  28.507  30.348  1.00  0.00     0.049 A 
ATOM     29  C   UNL A   1      40.821  31.230  35.095  1.00  0.00     0.074 A 
ATOM     30  C   UNL A   1      43.202  27.727  30.366  1.00  0.00     0.029 A 
ATOM     31  N   UNL A   1      41.940  29.066  31.613  1.00  0.00    -0.354 N 
ATOM     32  N   UNL A   1      41.246  30.551  34.057  1.00  0.00    -0.248 NA
ATOM     33  C   UNL A   1      41.643  31.068  36.300  1.00  0.00     0.031 C 
ATOM     34  C   UNL A   1      43.749  27.778  31.652  1.00  0.00     0.029 A 
ATOM     35  C   UNL A   1      42.980  28.636  32.422  1.00  0.00     0.049 A 
ATOM     36  H   UNL A   1      41.222  29.678  31.894  1.00  0.00     0.167 HD
ATOM     37  C   UNL A   1      42.390  29.891  34.479  1.00  0.00     0.074 A 
ATOM     38  C   UNL A   1      42.612  30.281  35.857  1.00  0.00     0.031 C 
ATOM     39  C   UNL A   1      43.183  29.033  33.792  1.00  0.00     0.037 A 
BRANCH  26  40
ATOM     40  C   UNL A   1      41.405  28.036  27.953  1.00  0.00     0.057 A 
ATOM     41  C   UNL A   1      40.909  26.752  27.682  1.00  0.00     0.134 A 
ATOM     42  C   UNL A   1      42.116  28.678  26.931  1.00  0.00     0.134 A 
ATOM     43  F   UNL A   1      40.229  26.075  28.620  1.00  0.00    -0.206 F 
ATOM     44  C   UNL A   1      41.125  26.128  26.452  1.00  0.00     0.040 A 
ATOM     45  C   UNL A   1      42.316  28.075  25.687  1.00  0.00     0.040 A 
ATOM     46  F   UNL A   1      42.613  29.910  27.117  1.00  0.00    -0.206 F 
ATOM     47  C   UNL A   1      41.824  26.794  25.446  1.00  0.00     0.006 A 
ENDBRANCH  26  40
BRANCH  27  48
ATOM     48  C   UNL A   1      39.304  32.823  36.484  1.00  0.00     0.057 A 
ATOM     49  C   UNL A   1      38.418  32.263  37.411  1.00  0.00     0.134 A 
ATOM     50  C   UNL A   1      39.867  34.066  36.800  1.00  0.00     0.134 A 
ATOM     51  F   UNL A   1      37.836  31.081  37.160  1.00  0.00    -0.206 F 
ATOM     52  C   UNL A   1      38.081  32.927  38.591  1.00  0.00     0.040 A 
ATOM     53  C   UNL A   1      39.568  34.724  37.993  1.00  0.00     0.040 A 
ATOM     54  F   UNL A   1      40.735  34.651  35.961  1.00  0.00    -0.206 F 
ATOM     55  C   UNL A   1      38.663  34.159  38.887  1.00  0.00     0.006 A 
ENDBRANCH  27  48
BRANCH  39  56
ATOM     56  C   UNL A   1      44.377  28.488  34.521  1.00  0.00     0.057 A 
ATOM     57  C   UNL A   1      45.608  29.158  34.530  1.00  0.00     0.134 A 
ATOM     58  C   UNL A   1      44.295  27.277  35.220  1.00  0.00     0.134 A 
ATOM     59  F   UNL A   1      45.758  30.315  33.866  1.00  0.00    -0.206 F 
ATOM     60  C   UNL A   1      46.724  28.624  35.176  1.00  0.00     0.040 A 
ATOM     61  C   UNL A   1      45.394  26.750  35.896  1.00  0.00     0.040 A 
ATOM     62  F   UNL A   1      43.144  26.589  35.258  1.00  0.00    -0.206 F 
ATOM     63  C   UNL A   1      46.616  27.418  35.866  1.00  0.00     0.006 A 
ENDBRANCH  39  56
ENDBRANCH  13  14
ENDBRANCH   6   8
ENDBRANCH   3   4
ENDBRANCH   2   3
ENDBRANCH   1   2
BRANCH   1  64
ATOM     64  C   UNL A   1      31.789  29.436  25.357  1.00  0.00     0.002 C 
BRANCH  64  65
ATOM     65  C   UNL A   1      32.800  29.213  24.229  1.00  0.00     0.021 C 
BRANCH  65  66
ATOM     66  C   UNL A   1      33.727  28.024  24.478  1.00  0.00     0.116 C 
BRANCH  66  67
ATOM     67  N   UNL A   1      33.896  27.235  23.282  1.00  0.00    -0.354 N 
ATOM     68  C   UNL A   1      33.651  25.933  22.994  1.00  0.00     0.242 C 
ATOM     69  H   UNL A   1      34.264  27.744  22.524  1.00  0.00     0.163 HD
ATOM     70  O   UNL A   1      33.982  25.589  21.848  1.00  0.00    -0.273 OA
BRANCH  68  71
ATOM     71  C   UNL A   1      33.034  24.878  23.948  1.00  0.00     0.173 C 
ATOM     72  C   UNL A   1      31.777  25.446  24.616  1.00  0.00     0.035 C 
ATOM     73  N   UNL A   1      32.826  23.520  23.409  1.00  0.00    -0.344 N 
ATOM     74  C   UNL A   1      30.536  25.225  23.770  1.00  0.00     0.004 C 
ATOM     75  C   UNL A   1      31.521  23.032  22.963  1.00  0.00     0.119 C 
ATOM     76  C   UNL A   1      30.323  23.734  23.584  1.00  0.00     0.022 C 
BRANCH  73  77
ATOM     77  C   UNL A   1      33.633  22.541  23.988  1.00  0.00     0.133 A 
ATOM     78  C   UNL A   1      33.223  21.223  23.981  1.00  0.00     0.076 A 
ATOM     79  N   UNL A   1      34.791  22.916  24.544  1.00  0.00    -0.211 NA
ATOM     80  C   UNL A   1      34.062  20.295  24.566  1.00  0.00     0.076 A 
ATOM     81  C   UNL A   1      35.555  21.946  25.075  1.00  0.00     0.162 A 
ATOM     82  N   UNL A   1      35.241  20.642  25.116  1.00  0.00    -0.228 NA
BRANCH  80  83
ATOM     83  C   UNL A   1      33.713  18.870  24.639  1.00  0.00     0.000 A 
ATOM     84  C   UNL A   1      32.805  18.404  25.604  1.00  0.00     0.010 A 
ATOM     85  C   UNL A   1      34.271  17.935  23.750  1.00  0.00     0.010 A 
ATOM     86  C   UNL A   1      32.455  17.053  25.672  1.00  0.00     0.001 A 
ATOM     87  C   UNL A   1      33.931  16.581  23.825  1.00  0.00     0.001 A 
ATOM     88  C   UNL A   1      33.020  16.141  24.783  1.00  0.00     0.000 A 
ENDBRANCH  80  83
BRANCH  81  89
ATOM     89  C   UNL A   1      36.850  22.352  25.622  1.00  0.00     0.021 A 
ATOM     90  C   UNL A   1      37.070  23.673  26.051  1.00  0.00     0.012 A 
ATOM     91  C   UNL A   1      37.917  21.441  25.699  1.00  0.00     0.032 A 
ATOM     92  C   UNL A   1      38.315  24.076  26.540  1.00  0.00     0.002 A 
ATOM     93  C   UNL A   1      39.164  21.851  26.168  1.00  0.00     0.041 A 
ATOM     94  C   UNL A   1      39.367  23.163  26.591  1.00  0.00     0.020 A 
ATOM     95  Cl  UNL A   1      40.472  20.733  26.207  1.00  0.00    -0.084 Cl
ENDBRANCH  81  89
ENDBRANCH  73  77
ENDBRANCH  68  71
ENDBRANCH  66  67
ENDBRANCH  65  66
ENDBRANCH  64  65
ENDBRANCH   1  64
TORSDOF 16
ENDMDL
MODEL 3
REMARK VINA RESULT:     -12.8      1.273      6.590
REMARK SMILES O=C(NCCCCCCNC(=O)[C@H]1CCCCN1c1cc(-c2ccccc2)nc(-c2cccc(Cl)c2)n1)c1ccc(-c2c3nc(c(-c4c(F)cccc4F)c4ccc([nH]4)c(-c4c(F)cccc4F)c4nc(c(-c5c(F)cccc5F)c5ccc2[nH]5)C=C4)C=C3)cc1
REMARK SMILES IDX 6 1 5 2 4 3 3 4 1 5 2 6 38 8 39 9 91 10 40 11 90 12 41 13
REMARK SMILES IDX 42 14 43 15 84 16 44 17 89 18 83 19 85 20 45 21 88 22 82 23
REMARK SMILES IDX 81 24 46 26 72 27 55 28 71 29 56 30 59 31 70 32 86 33 57 34
REMARK SMILES IDX 58 35 69 37 87 38 60 39 47 40 48 41 53 42 49 43 50 44 52 45
REMARK SMILES IDX 54 46 51 47 73 48 74 49 79 50 75 51 76 52 78 53 80 54 77 55
REMARK SMILES IDX 61 56 62 57 67 58 63 59 64 60 66 61 68 62 65 63 7 64 8 65
REMARK SMILES IDX 9 66 10 67 11 68 12 70 13 71 14 72 18 73 15 74 17 75 16 76
REMARK SMILES IDX 19 77 20 78 37 79 21 80 29 81 28 82 22 83 23 84 27 85 24 86
REMARK SMILES IDX 26 87 25 88 30 89 31 90 36 91 32 92 34 93 33 94 35 95
REMARK H PARENT 3 7 85 25 59 36 10 69
REMARK Flexibility Score: inf
ROOT
ATOM      1  C   UNL A   1      31.401  30.635  25.923  1.00  0.00     0.002 C 
ENDROOT
BRANCH   1   2
ATOM      2  C   UNL A   1      31.290  32.041  26.513  1.00  0.00     0.021 C 
BRANCH   2   3
ATOM      3  C   UNL A   1      32.611  32.589  27.032  1.00  0.00     0.116 C 
BRANCH   3   4
ATOM      4  N   UNL A   1      32.471  33.960  27.502  1.00  0.00    -0.352 N 
ATOM      5  O   UNL A   1      32.661  35.639  29.005  1.00  0.00    -0.269 OA
ATOM      6  C   UNL A   1      33.082  34.571  28.569  1.00  0.00     0.251 C 
ATOM      7  H   UNL A   1      31.853  34.527  26.985  1.00  0.00     0.163 HD
BRANCH   6   8
ATOM      8  C   UNL A   1      34.259  33.929  29.184  1.00  0.00     0.039 A 
ATOM      9  C   UNL A   1      34.077  32.835  30.032  1.00  0.00     0.014 A 
ATOM     10  C   UNL A   1      35.542  34.413  28.921  1.00  0.00     0.014 A 
ATOM     11  C   UNL A   1      35.155  32.329  30.738  1.00  0.00     0.010 A 
ATOM     12  C   UNL A   1      36.645  33.821  29.544  1.00  0.00     0.010 A 
ATOM     13  C   UNL A   1      36.457  32.788  30.475  1.00  0.00    -0.014 A 
BRANCH  13  14
ATOM     14  C   UNL A   1      37.591  32.085  31.124  1.00  0.00     0.031 A 
ATOM     15  C   UNL A   1      38.497  31.169  30.355  1.00  0.00     0.074 A 
ATOM     16  C   UNL A   1      37.829  32.346  32.426  1.00  0.00     0.049 A 
ATOM     17  N   UNL A   1      39.564  30.533  30.770  1.00  0.00    -0.248 NA
ATOM     18  C   UNL A   1      38.166  30.924  28.943  1.00  0.00     0.031 C 
ATOM     19  C   UNL A   1      36.998  33.205  33.275  1.00  0.00     0.029 A 
ATOM     20  N   UNL A   1      38.844  31.948  33.254  1.00  0.00    -0.354 N 
ATOM     21  C   UNL A   1      40.029  29.813  29.678  1.00  0.00     0.074 A 
ATOM     22  C   UNL A   1      39.106  30.058  28.590  1.00  0.00     0.031 C 
ATOM     23  C   UNL A   1      37.570  33.320  34.481  1.00  0.00     0.029 A 
ATOM     24  C   UNL A   1      38.759  32.482  34.517  1.00  0.00     0.049 A 
ATOM     25  H   UNL A   1      39.566  31.339  32.972  1.00  0.00     0.167 HD
ATOM     26  C   UNL A   1      41.133  29.031  29.592  1.00  0.00     0.037 A 
ATOM     27  C   UNL A   1      39.539  32.298  35.597  1.00  0.00     0.037 A 
ATOM     28  C   UNL A   1      42.041  28.789  30.686  1.00  0.00     0.049 A 
ATOM     29  C   UNL A   1      40.733  31.399  35.478  1.00  0.00     0.074 A 
ATOM     30  C   UNL A   1      43.187  28.013  30.701  1.00  0.00     0.029 A 
ATOM     31  N   UNL A   1      41.904  29.319  31.962  1.00  0.00    -0.354 N 
ATOM     32  N   UNL A   1      41.174  30.746  34.430  1.00  0.00    -0.248 NA
ATOM     33  C   UNL A   1      41.540  31.213  36.690  1.00  0.00     0.031 C 
ATOM     34  C   UNL A   1      43.718  28.037  31.996  1.00  0.00     0.029 A 
ATOM     35  C   UNL A   1      42.936  28.874  32.775  1.00  0.00     0.049 A 
ATOM     36  H   UNL A   1      41.181  29.922  32.248  1.00  0.00     0.167 HD
ATOM     37  C   UNL A   1      42.315  30.081  34.852  1.00  0.00     0.074 A 
ATOM     38  C   UNL A   1      42.517  30.440  36.241  1.00  0.00     0.031 C 
ATOM     39  C   UNL A   1      43.119  29.241  34.156  1.00  0.00     0.037 A 
BRANCH  26  40
ATOM     40  C   UNL A   1      41.420  28.370  28.274  1.00  0.00     0.057 A 
ATOM     41  C   UNL A   1      40.905  27.105  27.955  1.00  0.00     0.134 A 
ATOM     42  C   UNL A   1      42.169  29.026  27.288  1.00  0.00     0.134 A 
ATOM     43  F   UNL A   1      40.189  26.416  28.857  1.00  0.00    -0.206 F 
ATOM     44  C   UNL A   1      41.140  26.511  26.714  1.00  0.00     0.040 A 
ATOM     45  C   UNL A   1      42.388  28.453  26.033  1.00  0.00     0.040 A 
ATOM     46  F   UNL A   1      42.685  30.242  27.521  1.00  0.00    -0.206 F 
ATOM     47  C   UNL A   1      41.877  27.190  25.745  1.00  0.00     0.006 A 
ENDBRANCH  26  40
BRANCH  27  48
ATOM     48  C   UNL A   1      39.192  32.955  36.883  1.00  0.00     0.057 A 
ATOM     49  C   UNL A   1      38.284  32.379  37.778  1.00  0.00     0.134 A 
ATOM     50  C   UNL A   1      39.759  34.184  37.242  1.00  0.00     0.134 A 
ATOM     51  F   UNL A   1      37.697  31.209  37.486  1.00  0.00    -0.206 F 
ATOM     52  C   UNL A   1      37.930  33.015  38.969  1.00  0.00     0.040 A 
ATOM     53  C   UNL A   1      39.443  34.814  38.446  1.00  0.00     0.040 A 
ATOM     54  F   UNL A   1      40.648  34.784  36.435  1.00  0.00    -0.206 F 
ATOM     55  C   UNL A   1      38.516  34.235  39.308  1.00  0.00     0.006 A 
ENDBRANCH  27  48
BRANCH  39  56
ATOM     56  C   UNL A   1      44.306  28.684  34.888  1.00  0.00     0.057 A 
ATOM     57  C   UNL A   1      44.248  27.465  35.576  1.00  0.00     0.134 A 
ATOM     58  C   UNL A   1      45.522  29.379  34.905  1.00  0.00     0.134 A 
ATOM     59  F   UNL A   1      43.107  26.758  35.612  1.00  0.00    -0.206 F 
ATOM     60  C   UNL A   1      45.344  26.976  36.287  1.00  0.00     0.040 A 
ATOM     61  C   UNL A   1      46.635  28.884  35.586  1.00  0.00     0.040 A 
ATOM     62  F   UNL A   1      45.649  30.549  34.260  1.00  0.00    -0.206 F 
ATOM     63  C   UNL A   1      46.544  27.685  36.288  1.00  0.00     0.006 A 
ENDBRANCH  39  56
ENDBRANCH  13  14
ENDBRANCH   6   8
ENDBRANCH   3   4
ENDBRANCH   2   3
ENDBRANCH   1   2
BRANCH   1  64
ATOM     64  C   UNL A   1      32.404  29.717  26.633  1.00  0.00     0.002 C 
BRANCH  64  65
ATOM     65  C   UNL A   1      31.807  28.407  27.153  1.00  0.00     0.021 C 
BRANCH  65  66
ATOM     66  C   UNL A   1      31.606  27.360  26.058  1.00  0.00     0.116 C 
BRANCH  66  67
ATOM     67  N   UNL A   1      30.979  26.171  26.582  1.00  0.00    -0.354 N 
ATOM     68  C   UNL A   1      30.931  24.887  26.149  1.00  0.00     0.242 C 
ATOM     69  H   UNL A   1      30.489  26.323  27.422  1.00  0.00     0.163 HD
ATOM     70  O   UNL A   1      30.233  24.135  26.849  1.00  0.00    -0.273 OA
BRANCH  68  71
ATOM     71  C   UNL A   1      31.631  24.311  24.892  1.00  0.00     0.173 C 
ATOM     72  C   UNL A   1      30.784  24.592  23.646  1.00  0.00     0.035 C 
ATOM     73  N   UNL A   1      33.055  24.646  24.697  1.00  0.00    -0.344 N 
ATOM     74  C   UNL A   1      31.094  25.950  23.043  1.00  0.00     0.004 C 
ATOM     75  C   UNL A   1      33.509  25.680  23.766  1.00  0.00     0.119 C 
ATOM     76  C   UNL A   1      32.551  25.984  22.624  1.00  0.00     0.022 C 
BRANCH  73  77
ATOM     77  C   UNL A   1      33.923  23.562  24.813  1.00  0.00     0.133 A 
ATOM     78  C   UNL A   1      35.205  23.758  25.284  1.00  0.00     0.076 A 
ATOM     79  N   UNL A   1      33.482  22.350  24.453  1.00  0.00    -0.211 NA
ATOM     80  C   UNL A   1      36.022  22.649  25.381  1.00  0.00     0.076 A 
ATOM     81  C   UNL A   1      34.337  21.323  24.596  1.00  0.00     0.162 A 
ATOM     82  N   UNL A   1      35.598  21.416  25.043  1.00  0.00    -0.228 NA
BRANCH  80  83
ATOM     83  C   UNL A   1      37.413  22.746  25.843  1.00  0.00     0.000 A 
ATOM     84  C   UNL A   1      37.903  23.944  26.390  1.00  0.00     0.010 A 
ATOM     85  C   UNL A   1      38.290  21.651  25.757  1.00  0.00     0.010 A 
ATOM     86  C   UNL A   1      39.220  24.042  26.848  1.00  0.00     0.001 A 
ATOM     87  C   UNL A   1      39.611  21.752  26.203  1.00  0.00     0.001 A 
ATOM     88  C   UNL A   1      40.074  22.945  26.752  1.00  0.00     0.000 A 
ENDBRANCH  80  83
BRANCH  81  89
ATOM     89  C   UNL A   1      33.828  19.992  24.265  1.00  0.00     0.021 A 
ATOM     90  C   UNL A   1      32.596  19.834  23.604  1.00  0.00     0.012 A 
ATOM     91  C   UNL A   1      34.540  18.837  24.630  1.00  0.00     0.032 A 
ATOM     92  C   UNL A   1      32.089  18.564  23.317  1.00  0.00     0.002 A 
ATOM     93  C   UNL A   1      34.021  17.572  24.361  1.00  0.00     0.041 A 
ATOM     94  C   UNL A   1      32.800  17.430  23.705  1.00  0.00     0.020 A 
ATOM     95  Cl  UNL A   1      34.884  16.170  24.862  1.00  0.00    -0.084 Cl
ENDBRANCH  81  89
ENDBRANCH  73  77
ENDBRANCH  68  71
ENDBRANCH  66  67
ENDBRANCH  65  66
ENDBRANCH  64  65
ENDBRANCH   1  64
TORSDOF 16
ENDMDL
