MODEL 1
REMARK VINA RESULT:     -11.8      0.000      0.000
REMARK SMILES C[C@H](C(=O)NCCCCCCNC(=O)c1ccc(-c2c3nc(c(-c4c(F)cccc4F)c4ccc([nH]4)c(-c4c(F)cccc4F)c4nc(c(-c5c(F)cccc5F)c5ccc2[nH]5)C=C4)C=C3)cc1)c1cccc(C(=O)c2ccccc2)c1
REMARK SMILES IDX 8 1 7 2 6 3 5 4 3 5 4 6 2 8 1 9 69 10 70 11 82 12 71 13
REMARK SMILES IDX 73 14 72 15 74 16 75 17 76 18 77 19 81 20 78 21 80 22 79 23
REMARK SMILES IDX 9 24 10 25 11 26 12 27 13 28 14 30 15 31 16 32 68 33 17 34
REMARK SMILES IDX 67 35 18 36 19 37 20 38 61 39 21 40 66 41 60 42 62 43 22 44
REMARK SMILES IDX 65 45 59 46 58 47 23 49 49 50 32 51 48 52 33 53 36 54 47 55
REMARK SMILES IDX 63 56 34 57 35 58 46 60 64 61 37 62 24 63 25 64 30 65 26 66
REMARK SMILES IDX 27 67 29 68 31 69 28 70 50 71 51 72 56 73 52 74 53 75 55 76
REMARK SMILES IDX 57 77 54 78 38 79 39 80 44 81 40 82 41 83 43 84 45 85 42 86
REMARK H PARENT 5 7 12 29 62 48 36 59
REMARK Flexibility Score: inf
ROOT
ATOM      1  C   UNL A   1      41.963  21.276  27.530  1.00  0.00     0.002 C 
ENDROOT
BRANCH   1   2
ATOM      2  C   UNL A   1      40.757  22.226  27.627  1.00  0.00     0.021 C 
BRANCH   2   3
ATOM      3  C   UNL A   1      40.076  22.467  26.277  1.00  0.00     0.116 C 
BRANCH   3   4
ATOM      4  N   UNL A   1      38.824  23.182  26.425  1.00  0.00    -0.356 N 
ATOM      5  C   UNL A   1      37.646  23.201  25.758  1.00  0.00     0.227 C 
ATOM      6  O   UNL A   1      36.833  24.019  26.219  1.00  0.00    -0.274 OA
ATOM      7  H   UNL A   1      38.832  23.798  27.192  1.00  0.00     0.163 HD
BRANCH   5   8
ATOM      8  C   UNL A   1      37.205  22.241  24.632  1.00  0.00     0.105 C 
ATOM      9  C   UNL A   1      37.622  20.811  25.041  1.00  0.00     0.023 C 
BRANCH   8  10
ATOM     10  C   UNL A   1      35.761  22.277  24.142  1.00  0.00    -0.035 A 
ATOM     11  C   UNL A   1      35.315  23.097  23.098  1.00  0.00     0.004 A 
ATOM     12  C   UNL A   1      34.798  21.502  24.816  1.00  0.00     0.016 A 
ATOM     13  C   UNL A   1      33.964  23.129  22.738  1.00  0.00     0.001 A 
ATOM     14  C   UNL A   1      33.465  21.438  24.392  1.00  0.00     0.023 A 
ATOM     15  C   UNL A   1      33.045  22.289  23.368  1.00  0.00     0.012 A 
BRANCH  14  16
ATOM     16  C   UNL A   1      32.498  20.419  24.914  1.00  0.00     0.193 C 
ATOM     17  O   UNL A   1      31.418  20.762  25.377  1.00  0.00    -0.289 OA
BRANCH  16  18
ATOM     18  C   UNL A   1      32.747  18.973  24.703  1.00  0.00     0.022 A 
ATOM     19  C   UNL A   1      32.929  18.521  23.392  1.00  0.00     0.012 A 
ATOM     20  C   UNL A   1      32.833  18.080  25.771  1.00  0.00     0.012 A 
ATOM     21  C   UNL A   1      33.277  17.190  23.157  1.00  0.00     0.001 A 
ATOM     22  C   UNL A   1      33.190  16.751  25.533  1.00  0.00     0.001 A 
ATOM     23  C   UNL A   1      33.425  16.311  24.229  1.00  0.00     0.000 A 
ENDBRANCH  16  18
ENDBRANCH  14  16
ENDBRANCH   8  10
ENDBRANCH   5   8
ENDBRANCH   3   4
ENDBRANCH   2   3
ENDBRANCH   1   2
BRANCH   1  24
ATOM     24  C   UNL A   1      41.597  19.791  27.371  1.00  0.00     0.002 C 
BRANCH  24  25
ATOM     25  C   UNL A   1      42.094  19.161  26.067  1.00  0.00     0.021 C 
BRANCH  25  26
ATOM     26  C   UNL A   1      43.496  18.569  26.165  1.00  0.00     0.116 C 
BRANCH  26  27
ATOM     27  N   UNL A   1      44.131  18.464  24.861  1.00  0.00    -0.352 N 
ATOM     28  C   UNL A   1      44.667  19.397  24.009  1.00  0.00     0.251 C 
ATOM     29  H   UNL A   1      44.186  17.541  24.522  1.00  0.00     0.163 HD
ATOM     30  O   UNL A   1      44.922  19.041  22.858  1.00  0.00    -0.269 OA
BRANCH  28  31
ATOM     31  C   UNL A   1      44.946  20.807  24.399  1.00  0.00     0.039 A 
ATOM     32  C   UNL A   1      45.493  21.038  25.670  1.00  0.00     0.014 A 
ATOM     33  C   UNL A   1      44.577  21.908  23.625  1.00  0.00     0.014 A 
ATOM     34  C   UNL A   1      45.673  22.342  26.147  1.00  0.00     0.010 A 
ATOM     35  C   UNL A   1      44.850  23.210  24.058  1.00  0.00     0.010 A 
ATOM     36  C   UNL A   1      45.364  23.448  25.341  1.00  0.00    -0.014 A 
BRANCH  36  37
ATOM     37  C   UNL A   1      45.491  24.842  25.855  1.00  0.00     0.031 A 
ATOM     38  C   UNL A   1      46.824  25.550  25.812  1.00  0.00     0.074 A 
ATOM     39  C   UNL A   1      44.424  25.474  26.382  1.00  0.00     0.049 A 
ATOM     40  N   UNL A   1      47.152  26.733  26.271  1.00  0.00    -0.248 NA
ATOM     41  C   UNL A   1      47.946  24.821  25.197  1.00  0.00     0.031 C 
ATOM     42  C   UNL A   1      43.085  24.900  26.531  1.00  0.00     0.029 A 
ATOM     43  N   UNL A   1      44.299  26.742  26.894  1.00  0.00    -0.354 N 
ATOM     44  C   UNL A   1      48.515  26.872  26.030  1.00  0.00     0.074 A 
ATOM     45  C   UNL A   1      48.964  25.637  25.427  1.00  0.00     0.031 C 
ATOM     46  C   UNL A   1      42.270  25.822  27.070  1.00  0.00     0.029 A 
ATOM     47  C   UNL A   1      43.031  27.039  27.333  1.00  0.00     0.049 A 
ATOM     48  H   UNL A   1      45.049  27.379  26.942  1.00  0.00     0.167 HD
ATOM     49  C   UNL A   1      49.318  27.938  26.264  1.00  0.00     0.037 A 
ATOM     50  C   UNL A   1      42.537  28.163  27.885  1.00  0.00     0.037 A 
ATOM     51  C   UNL A   1      48.871  29.193  26.809  1.00  0.00     0.049 A 
ATOM     52  C   UNL A   1      43.438  29.350  28.086  1.00  0.00     0.074 A 
ATOM     53  C   UNL A   1      49.601  30.346  27.034  1.00  0.00     0.029 A 
ATOM     54  N   UNL A   1      47.568  29.463  27.195  1.00  0.00    -0.354 N 
ATOM     55  N   UNL A   1      44.716  29.473  27.821  1.00  0.00    -0.248 NA
ATOM     56  C   UNL A   1      42.824  30.558  28.656  1.00  0.00     0.031 C 
ATOM     57  C   UNL A   1      48.744  31.310  27.575  1.00  0.00     0.029 A 
ATOM     58  C   UNL A   1      47.474  30.765  27.656  1.00  0.00     0.049 A 
ATOM     59  H   UNL A   1      46.820  28.824  27.149  1.00  0.00     0.167 HD
ATOM     60  C   UNL A   1      45.053  30.772  28.176  1.00  0.00     0.074 A 
ATOM     61  C   UNL A   1      43.842  31.406  28.652  1.00  0.00     0.031 C 
ATOM     62  C   UNL A   1      46.260  31.384  28.119  1.00  0.00     0.037 A 
BRANCH  49  63
ATOM     63  C   UNL A   1      50.770  27.803  25.907  1.00  0.00     0.057 A 
ATOM     64  C   UNL A   1      51.738  27.488  26.870  1.00  0.00     0.134 A 
ATOM     65  C   UNL A   1      51.200  27.946  24.582  1.00  0.00     0.134 A 
ATOM     66  F   UNL A   1      51.393  27.350  28.159  1.00  0.00    -0.206 F 
ATOM     67  C   UNL A   1      53.085  27.341  26.532  1.00  0.00     0.040 A 
ATOM     68  C   UNL A   1      52.541  27.777  24.228  1.00  0.00     0.040 A 
ATOM     69  F   UNL A   1      50.326  28.240  23.609  1.00  0.00    -0.206 F 
ATOM     70  C   UNL A   1      53.488  27.480  25.205  1.00  0.00     0.006 A 
ENDBRANCH  49  63
BRANCH  50  71
ATOM     71  C   UNL A   1      41.105  28.236  28.269  1.00  0.00     0.057 A 
ATOM     72  C   UNL A   1      40.148  28.757  27.391  1.00  0.00     0.134 A 
ATOM     73  C   UNL A   1      40.664  27.807  29.526  1.00  0.00     0.134 A 
ATOM     74  F   UNL A   1      40.516  29.204  26.181  1.00  0.00    -0.206 F 
ATOM     75  C   UNL A   1      38.806  28.870  27.755  1.00  0.00     0.040 A 
ATOM     76  C   UNL A   1      39.320  27.892  29.895  1.00  0.00     0.040 A 
ATOM     77  F   UNL A   1      41.532  27.295  30.410  1.00  0.00    -0.206 F 
ATOM     78  C   UNL A   1      38.388  28.432  29.011  1.00  0.00     0.006 A 
ENDBRANCH  50  71
BRANCH  62  79
ATOM     79  C   UNL A   1      46.322  32.815  28.560  1.00  0.00     0.057 A 
ATOM     80  C   UNL A   1      46.120  33.870  27.662  1.00  0.00     0.134 A 
ATOM     81  C   UNL A   1      46.564  33.140  29.900  1.00  0.00     0.134 A 
ATOM     82  F   UNL A   1      45.897  33.623  26.362  1.00  0.00    -0.206 F 
ATOM     83  C   UNL A   1      46.180  35.201  28.077  1.00  0.00     0.040 A 
ATOM     84  C   UNL A   1      46.605  34.466  30.331  1.00  0.00     0.040 A 
ATOM     85  F   UNL A   1      46.758  32.175  30.811  1.00  0.00    -0.206 F 
ATOM     86  C   UNL A   1      46.419  35.502  29.417  1.00  0.00     0.006 A 
ENDBRANCH  62  79
ENDBRANCH  36  37
ENDBRANCH  28  31
ENDBRANCH  26  27
ENDBRANCH  25  26
ENDBRANCH  24  25
ENDBRANCH   1  24
TORSDOF 16
ENDMDL
MODEL 2
REMARK VINA RESULT:     -11.5      7.113     12.309
REMARK SMILES C[C@H](C(=O)NCCCCCCNC(=O)c1ccc(-c2c3nc(c(-c4c(F)cccc4F)c4ccc([nH]4)c(-c4c(F)cccc4F)c4nc(c(-c5c(F)cccc5F)c5ccc2[nH]5)C=C4)C=C3)cc1)c1cccc(C(=O)c2ccccc2)c1
REMARK SMILES IDX 8 1 7 2 6 3 5 4 3 5 4 6 2 8 1 9 69 10 70 11 82 12 71 13
REMARK SMILES IDX 73 14 72 15 74 16 75 17 76 18 77 19 81 20 78 21 80 22 79 23
REMARK SMILES IDX 9 24 10 25 11 26 12 27 13 28 14 30 15 31 16 32 68 33 17 34
REMARK SMILES IDX 67 35 18 36 19 37 20 38 61 39 21 40 66 41 60 42 62 43 22 44
REMARK SMILES IDX 65 45 59 46 58 47 23 49 49 50 32 51 48 52 33 53 36 54 47 55
REMARK SMILES IDX 63 56 34 57 35 58 46 60 64 61 37 62 24 63 25 64 30 65 26 66
REMARK SMILES IDX 27 67 29 68 31 69 28 70 50 71 51 72 56 73 52 74 53 75 55 76
REMARK SMILES IDX 57 77 54 78 38 79 39 80 44 81 40 82 41 83 43 84 45 85 42 86
REMARK H PARENT 5 7 12 29 62 48 36 59
REMARK Flexibility Score: inf
ROOT
ATOM      1  C   UNL A   1      34.992  33.254  28.989  1.00  0.00     0.002 C 
ENDROOT
BRANCH   1   2
ATOM      2  C   UNL A   1      35.288  32.115  27.999  1.00  0.00     0.021 C 
BRANCH   2   3
ATOM      3  C   UNL A   1      34.081  31.205  27.757  1.00  0.00     0.116 C 
BRANCH   3   4
ATOM      4  N   UNL A   1      34.354  30.206  26.744  1.00  0.00    -0.356 N 
ATOM      5  C   UNL A   1      33.623  29.258  26.110  1.00  0.00     0.227 C 
ATOM      6  O   UNL A   1      34.290  28.573  25.317  1.00  0.00    -0.274 OA
ATOM      7  H   UNL A   1      35.292  30.219  26.446  1.00  0.00     0.163 HD
BRANCH   5   8
ATOM      8  C   UNL A   1      32.094  29.070  26.179  1.00  0.00     0.105 C 
ATOM      9  C   UNL A   1      31.435  30.324  25.563  1.00  0.00     0.023 C 
BRANCH   8  10
ATOM     10  C   UNL A   1      31.471  27.792  25.625  1.00  0.00    -0.035 A 
ATOM     11  C   UNL A   1      30.668  27.754  24.478  1.00  0.00     0.004 A 
ATOM     12  C   UNL A   1      31.644  26.591  26.337  1.00  0.00     0.016 A 
ATOM     13  C   UNL A   1      30.075  26.559  24.057  1.00  0.00     0.001 A 
ATOM     14  C   UNL A   1      31.152  25.367  25.865  1.00  0.00     0.023 A 
ATOM     15  C   UNL A   1      30.331  25.367  24.735  1.00  0.00     0.012 A 
BRANCH  14  16
ATOM     16  C   UNL A   1      31.557  24.051  26.452  1.00  0.00     0.193 C 
ATOM     17  O   UNL A   1      31.214  23.739  27.585  1.00  0.00    -0.289 OA
BRANCH  16  18
ATOM     18  C   UNL A   1      32.215  23.025  25.608  1.00  0.00     0.022 A 
ATOM     19  C   UNL A   1      33.482  23.313  25.090  1.00  0.00     0.012 A 
ATOM     20  C   UNL A   1      31.618  21.790  25.354  1.00  0.00     0.012 A 
ATOM     21  C   UNL A   1      34.185  22.334  24.386  1.00  0.00     0.001 A 
ATOM     22  C   UNL A   1      32.328  20.810  24.657  1.00  0.00     0.001 A 
ATOM     23  C   UNL A   1      33.614  21.078  24.186  1.00  0.00     0.000 A 
ENDBRANCH  16  18
ENDBRANCH  14  16
ENDBRANCH   8  10
ENDBRANCH   5   8
ENDBRANCH   3   4
ENDBRANCH   2   3
ENDBRANCH   1   2
BRANCH   1  24
ATOM     24  C   UNL A   1      34.588  34.584  28.332  1.00  0.00     0.002 C 
BRANCH  24  25
ATOM     25  C   UNL A   1      33.240  35.133  28.809  1.00  0.00     0.021 C 
BRANCH  25  26
ATOM     26  C   UNL A   1      33.350  36.428  29.606  1.00  0.00     0.116 C 
BRANCH  26  27
ATOM     27  N   UNL A   1      32.470  36.425  30.764  1.00  0.00    -0.352 N 
ATOM     28  C   UNL A   1      32.512  35.759  31.964  1.00  0.00     0.251 C 
ATOM     29  H   UNL A   1      31.690  37.018  30.668  1.00  0.00     0.163 HD
ATOM     30  O   UNL A   1      31.498  35.771  32.661  1.00  0.00    -0.269 OA
BRANCH  28  31
ATOM     31  C   UNL A   1      33.708  35.022  32.456  1.00  0.00     0.039 A 
ATOM     32  C   UNL A   1      34.961  35.641  32.320  1.00  0.00     0.014 A 
ATOM     33  C   UNL A   1      33.665  33.709  32.926  1.00  0.00     0.014 A 
ATOM     34  C   UNL A   1      36.137  34.960  32.655  1.00  0.00     0.010 A 
ATOM     35  C   UNL A   1      34.830  33.064  33.357  1.00  0.00     0.010 A 
ATOM     36  C   UNL A   1      36.086  33.664  33.189  1.00  0.00    -0.014 A 
BRANCH  36  37
ATOM     37  C   UNL A   1      37.331  32.901  33.493  1.00  0.00     0.031 A 
ATOM     38  C   UNL A   1      38.079  33.148  34.782  1.00  0.00     0.074 A 
ATOM     39  C   UNL A   1      37.812  32.002  32.613  1.00  0.00     0.049 A 
ATOM     40  N   UNL A   1      39.213  32.638  35.196  1.00  0.00    -0.248 NA
ATOM     41  C   UNL A   1      37.489  34.120  35.719  1.00  0.00     0.031 C 
ATOM     42  C   UNL A   1      37.223  31.692  31.309  1.00  0.00     0.029 A 
ATOM     43  N   UNL A   1      38.913  31.183  32.681  1.00  0.00    -0.354 N 
ATOM     44  C   UNL A   1      39.485  33.248  36.416  1.00  0.00     0.074 A 
ATOM     45  C   UNL A   1      38.422  34.200  36.656  1.00  0.00     0.031 C 
ATOM     46  C   UNL A   1      37.951  30.732  30.715  1.00  0.00     0.029 A 
ATOM     47  C   UNL A   1      39.075  30.380  31.578  1.00  0.00     0.049 A 
ATOM     48  H   UNL A   1      39.529  31.173  33.450  1.00  0.00     0.167 HD
ATOM     49  C   UNL A   1      40.509  33.021  37.274  1.00  0.00     0.037 A 
ATOM     50  C   UNL A   1      40.020  29.466  31.292  1.00  0.00     0.037 A 
ATOM     51  C   UNL A   1      41.537  32.035  37.074  1.00  0.00     0.049 A 
ATOM     52  C   UNL A   1      41.117  29.196  32.285  1.00  0.00     0.074 A 
ATOM     53  C   UNL A   1      42.586  31.699  37.912  1.00  0.00     0.029 A 
ATOM     54  N   UNL A   1      41.634  31.213  35.964  1.00  0.00    -0.354 N 
ATOM     55  N   UNL A   1      41.337  29.759  33.448  1.00  0.00    -0.248 NA
ATOM     56  C   UNL A   1      42.092  28.156  31.928  1.00  0.00     0.031 C 
ATOM     57  C   UNL A   1      43.330  30.685  37.300  1.00  0.00     0.029 A 
ATOM     58  C   UNL A   1      42.724  30.369  36.095  1.00  0.00     0.049 A 
ATOM     59  H   UNL A   1      41.019  31.226  35.194  1.00  0.00     0.167 HD
ATOM     60  C   UNL A   1      42.462  29.133  33.966  1.00  0.00     0.074 A 
ATOM     61  C   UNL A   1      42.866  28.130  33.003  1.00  0.00     0.031 C 
ATOM     62  C   UNL A   1      43.108  29.371  35.133  1.00  0.00     0.037 A 
BRANCH  49  63
ATOM     63  C   UNL A   1      40.555  33.843  38.530  1.00  0.00     0.057 A 
ATOM     64  C   UNL A   1      41.317  35.015  38.614  1.00  0.00     0.134 A 
ATOM     65  C   UNL A   1      39.796  33.484  39.651  1.00  0.00     0.134 A 
ATOM     66  F   UNL A   1      42.075  35.408  37.580  1.00  0.00    -0.206 F 
ATOM     67  C   UNL A   1      41.342  35.789  39.776  1.00  0.00     0.040 A 
ATOM     68  C   UNL A   1      39.793  34.263  40.810  1.00  0.00     0.040 A 
ATOM     69  F   UNL A   1      39.038  32.378  39.636  1.00  0.00    -0.206 F 
ATOM     70  C   UNL A   1      40.572  35.416  40.876  1.00  0.00     0.006 A 
ENDBRANCH  49  63
BRANCH  50  71
ATOM     71  C   UNL A   1      39.964  28.711  30.015  1.00  0.00     0.057 A 
ATOM     72  C   UNL A   1      39.251  27.510  29.918  1.00  0.00     0.134 A 
ATOM     73  C   UNL A   1      40.635  29.159  28.872  1.00  0.00     0.134 A 
ATOM     74  F   UNL A   1      38.607  27.020  30.987  1.00  0.00    -0.206 F 
ATOM     75  C   UNL A   1      39.225  26.770  28.736  1.00  0.00     0.040 A 
ATOM     76  C   UNL A   1      40.598  28.441  27.676  1.00  0.00     0.040 A 
ATOM     77  F   UNL A   1      41.332  30.304  28.902  1.00  0.00    -0.206 F 
ATOM     78  C   UNL A   1      39.897  27.238  27.608  1.00  0.00     0.006 A 
ENDBRANCH  50  71
BRANCH  62  79
ATOM     79  C   UNL A   1      44.302  28.518  35.439  1.00  0.00     0.057 A 
ATOM     80  C   UNL A   1      44.180  27.306  36.129  1.00  0.00     0.134 A 
ATOM     81  C   UNL A   1      45.581  28.901  35.020  1.00  0.00     0.134 A 
ATOM     82  F   UNL A   1      42.982  26.890  36.568  1.00  0.00    -0.206 F 
ATOM     83  C   UNL A   1      45.295  26.515  36.414  1.00  0.00     0.040 A 
ATOM     84  C   UNL A   1      46.700  28.110  35.280  1.00  0.00     0.040 A 
ATOM     85  F   UNL A   1      45.763  30.048  34.348  1.00  0.00    -0.206 F 
ATOM     86  C   UNL A   1      46.559  26.915  35.985  1.00  0.00     0.006 A 
ENDBRANCH  62  79
ENDBRANCH  36  37
ENDBRANCH  28  31
ENDBRANCH  26  27
ENDBRANCH  25  26
ENDBRANCH  24  25
ENDBRANCH   1  24
TORSDOF 16
ENDMDL
MODEL 3
REMARK VINA RESULT:     -11.4      2.716      4.123
REMARK SMILES C[C@H](C(=O)NCCCCCCNC(=O)c1ccc(-c2c3nc(c(-c4c(F)cccc4F)c4ccc([nH]4)c(-c4c(F)cccc4F)c4nc(c(-c5c(F)cccc5F)c5ccc2[nH]5)C=C4)C=C3)cc1)c1cccc(C(=O)c2ccccc2)c1
REMARK SMILES IDX 8 1 7 2 6 3 5 4 3 5 4 6 2 8 1 9 69 10 70 11 82 12 71 13
REMARK SMILES IDX 73 14 72 15 74 16 75 17 76 18 77 19 81 20 78 21 80 22 79 23
REMARK SMILES IDX 9 24 10 25 11 26 12 27 13 28 14 30 15 31 16 32 68 33 17 34
REMARK SMILES IDX 67 35 18 36 19 37 20 38 61 39 21 40 66 41 60 42 62 43 22 44
REMARK SMILES IDX 65 45 59 46 58 47 23 49 49 50 32 51 48 52 33 53 36 54 47 55
REMARK SMILES IDX 63 56 34 57 35 58 46 60 64 61 37 62 24 63 25 64 30 65 26 66
REMARK SMILES IDX 27 67 29 68 31 69 28 70 50 71 51 72 56 73 52 74 53 75 55 76
REMARK SMILES IDX 57 77 54 78 38 79 39 80 44 81 40 82 41 83 43 84 45 85 42 86
REMARK H PARENT 5 7 12 29 62 48 36 59
REMARK Flexibility Score: inf
ROOT
ATOM      1  C   UNL A   1      36.656  21.653  25.210  1.00  0.00     0.002 C 
ENDROOT
BRANCH   1   2
ATOM      2  C   UNL A   1      36.359  22.595  24.032  1.00  0.00     0.021 C 
BRANCH   2   3
ATOM      3  C   UNL A   1      35.861  23.972  24.480  1.00  0.00     0.116 C 
BRANCH   3   4
ATOM      4  N   UNL A   1      35.101  24.635  23.439  1.00  0.00    -0.356 N 
ATOM      5  C   UNL A   1      33.790  24.705  23.105  1.00  0.00     0.227 C 
ATOM      6  O   UNL A   1      33.580  25.376  22.081  1.00  0.00    -0.274 OA
ATOM      7  H   UNL A   1      35.673  25.158  22.832  1.00  0.00     0.163 HD
BRANCH   5   8
ATOM      8  C   UNL A   1      32.597  24.175  23.927  1.00  0.00     0.105 C 
ATOM      9  C   UNL A   1      31.360  24.148  23.002  1.00  0.00     0.023 C 
BRANCH   8  10
ATOM     10  C   UNL A   1      32.741  22.863  24.694  1.00  0.00    -0.035 A 
ATOM     11  C   UNL A   1      32.912  22.791  26.082  1.00  0.00     0.004 A 
ATOM     12  C   UNL A   1      32.781  21.657  23.970  1.00  0.00     0.016 A 
ATOM     13  C   UNL A   1      33.101  21.559  26.718  1.00  0.00     0.001 A 
ATOM     14  C   UNL A   1      32.855  20.411  24.604  1.00  0.00     0.023 A 
ATOM     15  C   UNL A   1      33.053  20.372  25.986  1.00  0.00     0.012 A 
BRANCH  14  16
ATOM     16  C   UNL A   1      32.619  19.120  23.882  1.00  0.00     0.193 C 
ATOM     17  O   UNL A   1      32.144  19.112  22.754  1.00  0.00    -0.289 OA
BRANCH  16  18
ATOM     18  C   UNL A   1      33.132  17.845  24.439  1.00  0.00     0.022 A 
ATOM     19  C   UNL A   1      32.256  17.055  25.190  1.00  0.00     0.012 A 
ATOM     20  C   UNL A   1      34.439  17.415  24.204  1.00  0.00     0.012 A 
ATOM     21  C   UNL A   1      32.663  15.797  25.636  1.00  0.00     0.001 A 
ATOM     22  C   UNL A   1      34.839  16.152  24.645  1.00  0.00     0.001 A 
ATOM     23  C   UNL A   1      33.948  15.340  25.348  1.00  0.00     0.000 A 
ENDBRANCH  16  18
ENDBRANCH  14  16
ENDBRANCH   8  10
ENDBRANCH   5   8
ENDBRANCH   3   4
ENDBRANCH   2   3
ENDBRANCH   1   2
BRANCH   1  24
ATOM     24  C   UNL A   1      36.458  20.160  24.901  1.00  0.00     0.002 C 
BRANCH  24  25
ATOM     25  C   UNL A   1      37.744  19.330  24.976  1.00  0.00     0.021 C 
BRANCH  25  26
ATOM     26  C   UNL A   1      38.965  20.126  25.422  1.00  0.00     0.116 C 
BRANCH  26  27
ATOM     27  N   UNL A   1      40.104  19.263  25.693  1.00  0.00    -0.352 N 
ATOM     28  C   UNL A   1      41.395  19.521  26.082  1.00  0.00     0.251 C 
ATOM     29  H   UNL A   1      39.910  18.306  25.573  1.00  0.00     0.163 HD
ATOM     30  O   UNL A   1      42.210  18.602  26.003  1.00  0.00    -0.269 OA
BRANCH  28  31
ATOM     31  C   UNL A   1      41.857  20.844  26.583  1.00  0.00     0.039 A 
ATOM     32  C   UNL A   1      41.747  21.099  27.959  1.00  0.00     0.014 A 
ATOM     33  C   UNL A   1      42.272  21.883  25.748  1.00  0.00     0.014 A 
ATOM     34  C   UNL A   1      42.054  22.361  28.481  1.00  0.00     0.010 A 
ATOM     35  C   UNL A   1      42.676  23.112  26.281  1.00  0.00     0.010 A 
ATOM     36  C   UNL A   1      42.534  23.383  27.649  1.00  0.00    -0.014 A 
BRANCH  36  37
ATOM     37  C   UNL A   1      42.807  24.750  28.178  1.00  0.00     0.031 A 
ATOM     38  C   UNL A   1      44.213  25.155  28.551  1.00  0.00     0.074 A 
ATOM     39  C   UNL A   1      41.799  25.628  28.350  1.00  0.00     0.049 A 
ATOM     40  N   UNL A   1      44.642  26.270  29.090  1.00  0.00    -0.248 NA
ATOM     41  C   UNL A   1      45.277  24.165  28.312  1.00  0.00     0.031 C 
ATOM     42  C   UNL A   1      40.385  25.362  28.077  1.00  0.00     0.029 A 
ATOM     43  N   UNL A   1      41.811  26.926  28.800  1.00  0.00    -0.354 N 
ATOM     44  C   UNL A   1      46.008  26.101  29.283  1.00  0.00     0.074 A 
ATOM     45  C   UNL A   1      46.332  24.760  28.847  1.00  0.00     0.031 C 
ATOM     46  C   UNL A   1      39.672  26.470  28.338  1.00  0.00     0.029 A 
ATOM     47  C   UNL A   1      40.569  27.514  28.824  1.00  0.00     0.049 A 
ATOM     48  H   UNL A   1      42.633  27.392  29.077  1.00  0.00     0.167 HD
ATOM     49  C   UNL A   1      46.920  26.986  29.754  1.00  0.00     0.037 A 
ATOM     50  C   UNL A   1      40.194  28.751  29.198  1.00  0.00     0.037 A 
ATOM     51  C   UNL A   1      46.620  28.341  30.135  1.00  0.00     0.049 A 
ATOM     52  C   UNL A   1      41.233  29.732  29.668  1.00  0.00     0.074 A 
ATOM     53  C   UNL A   1      47.486  29.326  30.576  1.00  0.00     0.029 A 
ATOM     54  N   UNL A   1      45.356  28.907  30.099  1.00  0.00    -0.354 N 
ATOM     55  N   UNL A   1      42.524  29.563  29.812  1.00  0.00    -0.248 NA
ATOM     56  C   UNL A   1      40.760  31.078  30.021  1.00  0.00     0.031 C 
ATOM     57  C   UNL A   1      46.742  30.485  30.826  1.00  0.00     0.029 A 
ATOM     58  C   UNL A   1      45.419  30.228  30.509  1.00  0.00     0.049 A 
ATOM     59  H   UNL A   1      44.534  28.439  29.824  1.00  0.00     0.167 HD
ATOM     60  C   UNL A   1      43.019  30.783  30.255  1.00  0.00     0.074 A 
ATOM     61  C   UNL A   1      41.894  31.690  30.333  1.00  0.00     0.031 C 
ATOM     62  C   UNL A   1      44.292  31.119  30.574  1.00  0.00     0.037 A 
BRANCH  49  63
ATOM     63  C   UNL A   1      48.344  26.522  29.865  1.00  0.00     0.057 A 
ATOM     64  C   UNL A   1      49.262  26.715  28.824  1.00  0.00     0.134 A 
ATOM     65  C   UNL A   1      48.813  25.917  31.037  1.00  0.00     0.134 A 
ATOM     66  F   UNL A   1      48.874  27.277  27.670  1.00  0.00    -0.206 F 
ATOM     67  C   UNL A   1      50.591  26.301  28.938  1.00  0.00     0.040 A 
ATOM     68  C   UNL A   1      50.146  25.522  31.171  1.00  0.00     0.040 A 
ATOM     69  F   UNL A   1      47.988  25.710  32.075  1.00  0.00    -0.206 F 
ATOM     70  C   UNL A   1      51.037  25.709  30.117  1.00  0.00     0.006 A 
ENDBRANCH  49  63
BRANCH  50  71
ATOM     71  C   UNL A   1      38.767  29.152  29.119  1.00  0.00     0.057 A 
ATOM     72  C   UNL A   1      37.938  29.097  30.246  1.00  0.00     0.134 A 
ATOM     73  C   UNL A   1      38.194  29.579  27.916  1.00  0.00     0.134 A 
ATOM     74  F   UNL A   1      38.427  28.675  31.422  1.00  0.00    -0.206 F 
ATOM     75  C   UNL A   1      36.586  29.432  30.176  1.00  0.00     0.040 A 
ATOM     76  C   UNL A   1      36.848  29.939  27.836  1.00  0.00     0.040 A 
ATOM     77  F   UNL A   1      38.937  29.656  26.802  1.00  0.00    -0.206 F 
ATOM     78  C   UNL A   1      36.038  29.858  28.968  1.00  0.00     0.006 A 
ENDBRANCH  50  71
BRANCH  62  79
ATOM     79  C   UNL A   1      44.534  32.532  31.014  1.00  0.00     0.057 A 
ATOM     80  C   UNL A   1      44.488  32.899  32.364  1.00  0.00     0.134 A 
ATOM     81  C   UNL A   1      44.837  33.529  30.080  1.00  0.00     0.134 A 
ATOM     82  F   UNL A   1      44.189  31.991  33.306  1.00  0.00    -0.206 F 
ATOM     83  C   UNL A   1      44.712  34.216  32.769  1.00  0.00     0.040 A 
ATOM     84  C   UNL A   1      45.084  34.844  30.474  1.00  0.00     0.040 A 
ATOM     85  F   UNL A   1      44.903  33.240  28.772  1.00  0.00    -0.206 F 
ATOM     86  C   UNL A   1      45.015  35.192  31.822  1.00  0.00     0.006 A 
ENDBRANCH  62  79
ENDBRANCH  36  37
ENDBRANCH  28  31
ENDBRANCH  26  27
ENDBRANCH  25  26
ENDBRANCH  24  25
ENDBRANCH   1  24
TORSDOF 16
ENDMDL
