MODEL 1
REMARK VINA RESULT:     -12.1      0.000      0.000
REMARK SMILES CCOC(=O)c1cccc(Nc2c(-c3ccc(C(=O)NCCCCCCNC(=O)c4ccc(-c5c6nc(c(-c7c(F)cccc7F)c7ccc([nH]7)c(-c7c(F)cccc7F)c7nc(c(-c8c(F)cccc8F)c8ccc5[nH]8)C=C7)C=C6)cc4)cc3)nc3cnccn23)c1
REMARK SMILES IDX 21 1 20 2 18 3 19 4 17 6 14 7 15 8 85 9 16 10 84 11 13 12
REMARK SMILES IDX 12 13 92 14 86 15 87 16 91 17 88 18 90 19 89 20 11 21 10 23
REMARK SMILES IDX 6 24 7 25 93 26 8 27 9 28 4 29 5 30 3 31 2 32 1 33 22 34
REMARK SMILES IDX 23 35 24 36 25 37 26 38 27 39 28 40 29 42 30 43 31 44 83 45
REMARK SMILES IDX 32 46 82 47 33 48 34 49 35 50 76 51 36 52 81 53 75 54 77 55
REMARK SMILES IDX 37 56 80 57 74 58 73 59 38 61 64 62 47 63 63 64 48 65 51 66
REMARK SMILES IDX 62 67 78 68 49 69 50 70 61 72 79 73 52 74 39 75 40 76 45 77
REMARK SMILES IDX 41 78 42 79 44 80 46 81 43 82 65 83 66 84 71 85 67 86 68 87
REMARK SMILES IDX 70 88 72 89 69 90 53 91 54 92 59 93 55 94 56 95 58 96 60 97
REMARK SMILES IDX 57 98
REMARK H PARENT 20 5 11 22 27 41 77 60 51 71
REMARK Flexibility Score: inf
ROOT
ATOM      1  C   UNL A   1      32.622  27.229  25.385  1.00  0.00     0.116 C 
ENDROOT
BRANCH   1   2
ATOM      2  N   UNL A   1      31.183  27.065  25.299  1.00  0.00    -0.352 N 
ATOM      3  C   UNL A   1      30.402  25.983  24.989  1.00  0.00     0.251 C 
ATOM      4  O   UNL A   1      29.179  26.124  25.015  1.00  0.00    -0.269 OA
ATOM      5  H   UNL A   1      30.674  27.883  25.502  1.00  0.00     0.163 HD
BRANCH   3   6
ATOM      6  C   UNL A   1      30.967  24.643  24.680  1.00  0.00     0.039 A 
ATOM      7  C   UNL A   1      32.029  22.074  24.279  1.00  0.00     0.004 A 
ATOM      8  C   UNL A   1      31.350  22.371  25.464  1.00  0.00     0.011 A 
ATOM      9  C   UNL A   1      32.143  23.045  23.282  1.00  0.00     0.011 A 
ATOM     10  C   UNL A   1      30.826  23.651  25.662  1.00  0.00     0.014 A 
ATOM     11  C   UNL A   1      31.583  24.313  23.469  1.00  0.00     0.014 A 
BRANCH   7  12
ATOM     12  C   UNL A   1      32.598  20.764  24.068  1.00  0.00     0.114 A 
ATOM     13  C   UNL A   1      33.652  20.231  24.797  1.00  0.00     0.143 A 
ATOM     14  N   UNL A   1      33.804  18.959  24.284  1.00  0.00    -0.283 N 
ATOM     15  N   UNL A   1      32.155  19.904  23.091  1.00  0.00    -0.225 NA
ATOM     16  C   UNL A   1      32.914  18.844  23.242  1.00  0.00     0.157 A 
ATOM     17  C   UNL A   1      34.596  17.875  24.630  1.00  0.00     0.115 A 
ATOM     18  C   UNL A   1      32.886  17.616  22.497  1.00  0.00     0.158 A 
ATOM     19  C   UNL A   1      34.496  16.752  23.898  1.00  0.00     0.129 A 
ATOM     20  N   UNL A   1      33.653  16.603  22.808  1.00  0.00    -0.259 NA
BRANCH  13  21
ATOM     21  N   UNL A   1      34.355  20.733  25.850  1.00  0.00    -0.339 N 
ATOM     22  H   UNL A   1      34.063  20.464  26.751  1.00  0.00     0.168 HD
BRANCH  21  23
ATOM     23  C   UNL A   1      35.470  21.604  25.767  1.00  0.00     0.040 A 
ATOM     24  C   UNL A   1      37.891  21.869  25.731  1.00  0.00     0.062 A 
ATOM     25  C   UNL A   1      37.753  23.258  25.673  1.00  0.00     0.016 A 
ATOM     26  C   UNL A   1      36.758  21.044  25.754  1.00  0.00     0.041 A 
ATOM     27  C   UNL A   1      36.482  23.821  25.628  1.00  0.00     0.003 A 
ATOM     28  C   UNL A   1      35.352  22.999  25.679  1.00  0.00     0.026 A 
BRANCH  24  29
ATOM     29  C   UNL A   1      39.251  21.309  25.856  1.00  0.00     0.338 C 
ATOM     30  O   UNL A   1      39.518  20.148  25.601  1.00  0.00    -0.246 OA
BRANCH  29  31
ATOM     31  O   UNL A   1      40.096  22.254  26.339  1.00  0.00    -0.462 OA
BRANCH  31  32
ATOM     32  C   UNL A   1      40.703  21.938  27.602  1.00  0.00     0.230 C 
ATOM     33  C   UNL A   1      42.117  22.486  27.699  1.00  0.00     0.049 C 
ENDBRANCH  31  32
ENDBRANCH  29  31
ENDBRANCH  24  29
ENDBRANCH  21  23
ENDBRANCH  13  21
ENDBRANCH   7  12
ENDBRANCH   3   6
ENDBRANCH   1   2
BRANCH   1  34
ATOM     34  C   UNL A   1      32.963  28.509  26.152  1.00  0.00     0.021 C 
BRANCH  34  35
ATOM     35  C   UNL A   1      31.726  29.308  26.585  1.00  0.00     0.002 C 
BRANCH  35  36
ATOM     36  C   UNL A   1      31.400  30.519  25.702  1.00  0.00     0.002 C 
BRANCH  36  37
ATOM     37  C   UNL A   1      31.257  31.848  26.448  1.00  0.00     0.021 C 
BRANCH  37  38
ATOM     38  C   UNL A   1      32.577  32.476  26.886  1.00  0.00     0.116 C 
BRANCH  38  39
ATOM     39  N   UNL A   1      32.400  33.844  27.342  1.00  0.00    -0.352 N 
ATOM     40  C   UNL A   1      33.019  34.499  28.377  1.00  0.00     0.251 C 
ATOM     41  H   UNL A   1      31.742  34.376  26.839  1.00  0.00     0.163 HD
ATOM     42  O   UNL A   1      32.602  35.588  28.758  1.00  0.00    -0.269 OA
BRANCH  40  43
ATOM     43  C   UNL A   1      34.190  33.888  29.042  1.00  0.00     0.039 A 
ATOM     44  C   UNL A   1      35.469  34.348  28.714  1.00  0.00     0.014 A 
ATOM     45  C   UNL A   1      34.030  32.843  29.957  1.00  0.00     0.014 A 
ATOM     46  C   UNL A   1      36.587  33.787  29.336  1.00  0.00     0.010 A 
ATOM     47  C   UNL A   1      35.140  32.325  30.618  1.00  0.00     0.010 A 
ATOM     48  C   UNL A   1      36.429  32.783  30.305  1.00  0.00    -0.014 A 
BRANCH  48  49
ATOM     49  C   UNL A   1      37.602  32.180  30.984  1.00  0.00     0.031 A 
ATOM     50  C   UNL A   1      38.365  31.070  30.316  1.00  0.00     0.074 A 
ATOM     51  C   UNL A   1      37.941  32.584  32.221  1.00  0.00     0.049 A 
ATOM     52  N   UNL A   1      39.363  30.358  30.776  1.00  0.00    -0.248 NA
ATOM     53  C   UNL A   1      37.932  30.693  28.960  1.00  0.00     0.031 C 
ATOM     54  C   UNL A   1      37.255  33.623  32.991  1.00  0.00     0.029 A 
ATOM     55  N   UNL A   1      38.944  32.159  33.055  1.00  0.00    -0.354 N 
ATOM     56  C   UNL A   1      39.659  29.437  29.779  1.00  0.00     0.074 A 
ATOM     57  C   UNL A   1      38.712  29.653  28.707  1.00  0.00     0.031 C 
ATOM     58  C   UNL A   1      37.865  33.764  34.179  1.00  0.00     0.029 A 
ATOM     59  C   UNL A   1      38.965  32.809  34.266  1.00  0.00     0.049 A 
ATOM     60  H   UNL A   1      39.588  31.456  32.810  1.00  0.00     0.167 HD
ATOM     61  C   UNL A   1      40.645  28.510  29.751  1.00  0.00     0.037 A 
ATOM     62  C   UNL A   1      39.778  32.647  35.326  1.00  0.00     0.037 A 
ATOM     63  C   UNL A   1      41.611  28.322  30.801  1.00  0.00     0.049 A 
ATOM     64  C   UNL A   1      40.878  31.624  35.262  1.00  0.00     0.074 A 
ATOM     65  C   UNL A   1      42.685  27.449  30.840  1.00  0.00     0.029 A 
ATOM     66  N   UNL A   1      41.620  29.024  31.996  1.00  0.00    -0.354 N 
ATOM     67  N   UNL A   1      41.182  30.798  34.291  1.00  0.00    -0.248 NA
ATOM     68  C   UNL A   1      41.753  31.518  36.439  1.00  0.00     0.031 C 
ATOM     69  C   UNL A   1      43.328  27.604  32.073  1.00  0.00     0.029 A 
ATOM     70  C   UNL A   1      42.676  28.597  32.786  1.00  0.00     0.049 A 
ATOM     71  H   UNL A   1      40.973  29.722  32.248  1.00  0.00     0.167 HD
ATOM     72  C   UNL A   1      42.296  30.093  34.727  1.00  0.00     0.074 A 
ATOM     73  C   UNL A   1      42.621  30.596  36.046  1.00  0.00     0.031 C 
ATOM     74  C   UNL A   1      42.989  29.118  34.092  1.00  0.00     0.037 A 
BRANCH  61  75
ATOM     75  C   UNL A   1      40.730  27.631  28.538  1.00  0.00     0.057 A 
ATOM     76  C   UNL A   1      41.533  27.965  27.440  1.00  0.00     0.134 A 
ATOM     77  C   UNL A   1      40.021  26.425  28.478  1.00  0.00     0.134 A 
ATOM     78  F   UNL A   1      42.228  29.112  27.431  1.00  0.00    -0.206 F 
ATOM     79  C   UNL A   1      41.609  27.143  26.315  1.00  0.00     0.040 A 
ATOM     80  C   UNL A   1      40.106  25.583  27.367  1.00  0.00     0.040 A 
ATOM     81  F   UNL A   1      39.236  26.044  29.497  1.00  0.00    -0.206 F 
ATOM     82  C   UNL A   1      40.898  25.945  26.279  1.00  0.00     0.006 A 
ENDBRANCH  61  75
BRANCH  62  83
ATOM     83  C   UNL A   1      39.602  33.494  36.530  1.00  0.00     0.057 A 
ATOM     84  C   UNL A   1      40.285  34.708  36.661  1.00  0.00     0.134 A 
ATOM     85  C   UNL A   1      38.753  33.113  37.575  1.00  0.00     0.134 A 
ATOM     86  F   UNL A   1      41.125  35.116  35.699  1.00  0.00    -0.206 F 
ATOM     87  C   UNL A   1      40.143  35.508  37.796  1.00  0.00     0.040 A 
ATOM     88  C   UNL A   1      38.585  33.913  38.708  1.00  0.00     0.040 A 
ATOM     89  F   UNL A   1      38.066  31.963  37.506  1.00  0.00    -0.206 F 
ATOM     90  C   UNL A   1      39.286  35.111  38.822  1.00  0.00     0.006 A 
ENDBRANCH  62  83
BRANCH  74  91
ATOM     91  C   UNL A   1      44.186  28.556  34.798  1.00  0.00     0.057 A 
ATOM     92  C   UNL A   1      45.455  29.132  34.670  1.00  0.00     0.134 A 
ATOM     93  C   UNL A   1      44.057  27.448  35.645  1.00  0.00     0.134 A 
ATOM     94  F   UNL A   1      45.645  30.187  33.863  1.00  0.00    -0.206 F 
ATOM     95  C   UNL A   1      46.560  28.615  35.348  1.00  0.00     0.040 A 
ATOM     96  C   UNL A   1      45.148  26.935  36.344  1.00  0.00     0.040 A 
ATOM     97  F   UNL A   1      42.865  26.855  35.814  1.00  0.00    -0.206 F 
ATOM     98  C   UNL A   1      46.406  27.516  36.193  1.00  0.00     0.006 A 
ENDBRANCH  74  91
ENDBRANCH  48  49
ENDBRANCH  40  43
ENDBRANCH  38  39
ENDBRANCH  37  38
ENDBRANCH  36  37
ENDBRANCH  35  36
ENDBRANCH  34  35
ENDBRANCH   1  34
TORSDOF 19
ENDMDL
MODEL 2
REMARK VINA RESULT:     -11.5      6.954     13.101
REMARK SMILES CCOC(=O)c1cccc(Nc2c(-c3ccc(C(=O)NCCCCCCNC(=O)c4ccc(-c5c6nc(c(-c7c(F)cccc7F)c7ccc([nH]7)c(-c7c(F)cccc7F)c7nc(c(-c8c(F)cccc8F)c8ccc5[nH]8)C=C7)C=C6)cc4)cc3)nc3cnccn23)c1
REMARK SMILES IDX 21 1 20 2 18 3 19 4 17 6 14 7 15 8 85 9 16 10 84 11 13 12
REMARK SMILES IDX 12 13 92 14 86 15 87 16 91 17 88 18 90 19 89 20 11 21 10 23
REMARK SMILES IDX 6 24 7 25 93 26 8 27 9 28 4 29 5 30 3 31 2 32 1 33 22 34
REMARK SMILES IDX 23 35 24 36 25 37 26 38 27 39 28 40 29 42 30 43 31 44 83 45
REMARK SMILES IDX 32 46 82 47 33 48 34 49 35 50 76 51 36 52 81 53 75 54 77 55
REMARK SMILES IDX 37 56 80 57 74 58 73 59 38 61 64 62 47 63 63 64 48 65 51 66
REMARK SMILES IDX 62 67 78 68 49 69 50 70 61 72 79 73 52 74 39 75 40 76 45 77
REMARK SMILES IDX 41 78 42 79 44 80 46 81 43 82 65 83 66 84 71 85 67 86 68 87
REMARK SMILES IDX 70 88 72 89 69 90 53 91 54 92 59 93 55 94 56 95 58 96 60 97
REMARK SMILES IDX 57 98
REMARK H PARENT 20 5 11 22 27 41 77 60 51 71
REMARK Flexibility Score: inf
ROOT
ATOM      1  C   UNL A   1      39.316  27.984  30.145  1.00  0.00     0.116 C 
ENDROOT
BRANCH   1   2
ATOM      2  N   UNL A   1      39.603  28.245  31.542  1.00  0.00    -0.352 N 
ATOM      3  C   UNL A   1      39.152  29.210  32.405  1.00  0.00     0.251 C 
ATOM      4  O   UNL A   1      39.554  29.182  33.568  1.00  0.00    -0.269 OA
ATOM      5  H   UNL A   1      40.240  27.612  31.946  1.00  0.00     0.163 HD
BRANCH   3   6
ATOM      6  C   UNL A   1      38.163  30.246  32.008  1.00  0.00     0.039 A 
ATOM      7  C   UNL A   1      36.431  32.329  31.265  1.00  0.00     0.004 A 
ATOM      8  C   UNL A   1      37.812  32.487  31.125  1.00  0.00     0.011 A 
ATOM      9  C   UNL A   1      35.915  31.121  31.738  1.00  0.00     0.011 A 
ATOM     10  C   UNL A   1      38.671  31.451  31.499  1.00  0.00     0.014 A 
ATOM     11  C   UNL A   1      36.777  30.072  32.075  1.00  0.00     0.014 A 
BRANCH   7  12
ATOM     12  C   UNL A   1      35.529  33.398  30.907  1.00  0.00     0.114 A 
ATOM     13  C   UNL A   1      35.184  33.742  29.608  1.00  0.00     0.143 A 
ATOM     14  N   UNL A   1      34.269  34.764  29.765  1.00  0.00    -0.283 N 
ATOM     15  N   UNL A   1      34.924  34.210  31.838  1.00  0.00    -0.225 NA
ATOM     16  C   UNL A   1      34.193  35.024  31.112  1.00  0.00     0.157 A 
ATOM     17  C   UNL A   1      33.468  35.474  28.884  1.00  0.00     0.115 A 
ATOM     18  C   UNL A   1      33.329  36.081  31.558  1.00  0.00     0.158 A 
ATOM     19  C   UNL A   1      32.667  36.434  29.381  1.00  0.00     0.129 A 
ATOM     20  N   UNL A   1      32.593  36.768  30.724  1.00  0.00    -0.259 NA
BRANCH  13  21
ATOM     21  N   UNL A   1      35.536  33.192  28.413  1.00  0.00    -0.339 N 
ATOM     22  H   UNL A   1      35.979  33.782  27.762  1.00  0.00     0.168 HD
BRANCH  21  23
ATOM     23  C   UNL A   1      35.324  31.846  28.022  1.00  0.00     0.040 A 
ATOM     24  C   UNL A   1      33.765  30.126  27.285  1.00  0.00     0.062 A 
ATOM     25  C   UNL A   1      34.787  29.175  27.293  1.00  0.00     0.016 A 
ATOM     26  C   UNL A   1      34.034  31.459  27.625  1.00  0.00     0.041 A 
ATOM     27  C   UNL A   1      36.080  29.558  27.630  1.00  0.00     0.003 A 
ATOM     28  C   UNL A   1      36.343  30.882  27.995  1.00  0.00     0.026 A 
BRANCH  24  29
ATOM     29  C   UNL A   1      32.390  29.669  26.999  1.00  0.00     0.338 C 
ATOM     30  O   UNL A   1      31.839  28.784  27.631  1.00  0.00    -0.246 OA
BRANCH  29  31
ATOM     31  O   UNL A   1      31.897  30.334  25.926  1.00  0.00    -0.462 OA
BRANCH  31  32
ATOM     32  C   UNL A   1      31.458  29.498  24.843  1.00  0.00     0.230 C 
ATOM     33  C   UNL A   1      32.627  28.971  24.028  1.00  0.00     0.049 C 
ENDBRANCH  31  32
ENDBRANCH  29  31
ENDBRANCH  24  29
ENDBRANCH  21  23
ENDBRANCH  13  21
ENDBRANCH   7  12
ENDBRANCH   3   6
ENDBRANCH   1   2
BRANCH   1  34
ATOM     34  C   UNL A   1      40.401  28.599  29.259  1.00  0.00     0.021 C 
BRANCH  34  35
ATOM     35  C   UNL A   1      40.055  28.574  27.763  1.00  0.00     0.002 C 
BRANCH  35  36
ATOM     36  C   UNL A   1      40.727  27.449  26.966  1.00  0.00     0.002 C 
BRANCH  36  37
ATOM     37  C   UNL A   1      39.909  26.160  26.843  1.00  0.00     0.021 C 
BRANCH  37  38
ATOM     38  C   UNL A   1      40.252  25.090  27.875  1.00  0.00     0.116 C 
BRANCH  38  39
ATOM     39  N   UNL A   1      40.741  23.872  27.249  1.00  0.00    -0.352 N 
ATOM     40  C   UNL A   1      41.900  23.666  26.542  1.00  0.00     0.251 C 
ATOM     41  H   UNL A   1      40.158  23.085  27.343  1.00  0.00     0.163 HD
ATOM     42  O   UNL A   1      42.059  22.631  25.905  1.00  0.00    -0.269 OA
BRANCH  40  43
ATOM     43  C   UNL A   1      42.958  24.698  26.544  1.00  0.00     0.039 A 
ATOM     44  C   UNL A   1      43.284  25.334  25.343  1.00  0.00     0.014 A 
ATOM     45  C   UNL A   1      43.650  25.012  27.718  1.00  0.00     0.014 A 
ATOM     46  C   UNL A   1      44.277  26.315  25.325  1.00  0.00     0.010 A 
ATOM     47  C   UNL A   1      44.599  26.031  27.711  1.00  0.00     0.010 A 
ATOM     48  C   UNL A   1      44.930  26.684  26.512  1.00  0.00    -0.014 A 
BRANCH  48  49
ATOM     49  C   UNL A   1      45.981  27.729  26.518  1.00  0.00     0.031 A 
ATOM     50  C   UNL A   1      45.597  29.177  26.650  1.00  0.00     0.074 A 
ATOM     51  C   UNL A   1      47.270  27.385  26.343  1.00  0.00     0.049 A 
ATOM     52  N   UNL A   1      46.355  30.243  26.594  1.00  0.00    -0.248 NA
ATOM     53  C   UNL A   1      44.167  29.466  26.843  1.00  0.00     0.031 C 
ATOM     54  C   UNL A   1      47.765  26.019  26.164  1.00  0.00     0.029 A 
ATOM     55  N   UNL A   1      48.400  28.161  26.275  1.00  0.00    -0.354 N 
ATOM     56  C   UNL A   1      45.494  31.325  26.721  1.00  0.00     0.074 A 
ATOM     57  C   UNL A   1      44.153  30.791  26.817  1.00  0.00     0.031 C 
ATOM     58  C   UNL A   1      49.100  26.052  26.020  1.00  0.00     0.029 A 
ATOM     59  C   UNL A   1      49.551  27.440  26.068  1.00  0.00     0.049 A 
ATOM     60  H   UNL A   1      48.388  29.141  26.366  1.00  0.00     0.167 HD
ATOM     61  C   UNL A   1      45.795  32.644  26.775  1.00  0.00     0.037 A 
ATOM     62  C   UNL A   1      50.824  27.854  25.929  1.00  0.00     0.037 A 
ATOM     63  C   UNL A   1      47.133  33.173  26.718  1.00  0.00     0.049 A 
ATOM     64  C   UNL A   1      51.134  29.322  26.013  1.00  0.00     0.074 A 
ATOM     65  C   UNL A   1      47.545  34.489  26.824  1.00  0.00     0.029 A 
ATOM     66  N   UNL A   1      48.275  32.407  26.544  1.00  0.00    -0.354 N 
ATOM     67  N   UNL A   1      50.316  30.330  26.189  1.00  0.00    -0.248 NA
ATOM     68  C   UNL A   1      52.547  29.708  25.886  1.00  0.00     0.031 C 
ATOM     69  C   UNL A   1      48.937  34.523  26.686  1.00  0.00     0.029 A 
ATOM     70  C   UNL A   1      49.393  33.224  26.529  1.00  0.00     0.049 A 
ATOM     71  H   UNL A   1      48.290  31.427  26.445  1.00  0.00     0.167 HD
ATOM     72  C   UNL A   1      51.115  31.466  26.221  1.00  0.00     0.074 A 
ATOM     73  C   UNL A   1      52.483  31.021  26.056  1.00  0.00     0.031 C 
ATOM     74  C   UNL A   1      50.748  32.761  26.374  1.00  0.00     0.037 A 
BRANCH  61  75
ATOM     75  C   UNL A   1      44.653  33.606  26.908  1.00  0.00     0.057 A 
ATOM     76  C   UNL A   1      44.029  34.171  25.788  1.00  0.00     0.134 A 
ATOM     77  C   UNL A   1      44.153  33.953  28.170  1.00  0.00     0.134 A 
ATOM     78  F   UNL A   1      44.468  33.888  24.552  1.00  0.00    -0.206 F 
ATOM     79  C   UNL A   1      42.966  35.066  25.918  1.00  0.00     0.040 A 
ATOM     80  C   UNL A   1      43.075  34.829  28.312  1.00  0.00     0.040 A 
ATOM     81  F   UNL A   1      44.702  33.446  29.284  1.00  0.00    -0.206 F 
ATOM     82  C   UNL A   1      42.483  35.393  27.183  1.00  0.00     0.006 A 
ENDBRANCH  61  75
BRANCH  62  83
ATOM     83  C   UNL A   1      51.907  26.861  25.725  1.00  0.00     0.057 A 
ATOM     84  C   UNL A   1      52.572  26.289  26.815  1.00  0.00     0.134 A 
ATOM     85  C   UNL A   1      52.302  26.463  24.443  1.00  0.00     0.134 A 
ATOM     86  F   UNL A   1      52.247  26.645  28.066  1.00  0.00    -0.206 F 
ATOM     87  C   UNL A   1      53.605  25.367  26.638  1.00  0.00     0.040 A 
ATOM     88  C   UNL A   1      53.321  25.527  24.252  1.00  0.00     0.040 A 
ATOM     89  F   UNL A   1      51.699  26.971  23.359  1.00  0.00    -0.206 F 
ATOM     90  C   UNL A   1      53.978  24.981  25.352  1.00  0.00     0.006 A 
ENDBRANCH  62  83
BRANCH  74  91
ATOM     91  C   UNL A   1      51.843  33.785  26.406  1.00  0.00     0.057 A 
ATOM     92  C   UNL A   1      52.473  34.152  27.601  1.00  0.00     0.134 A 
ATOM     93  C   UNL A   1      52.295  34.380  25.222  1.00  0.00     0.134 A 
ATOM     94  F   UNL A   1      52.076  33.627  28.769  1.00  0.00    -0.206 F 
ATOM     95  C   UNL A   1      53.506  35.090  27.618  1.00  0.00     0.040 A 
ATOM     96  C   UNL A   1      53.340  35.303  25.223  1.00  0.00     0.040 A 
ATOM     97  F   UNL A   1      51.735  34.064  24.044  1.00  0.00    -0.206 F 
ATOM     98  C   UNL A   1      53.946  35.664  26.425  1.00  0.00     0.006 A 
ENDBRANCH  74  91
ENDBRANCH  48  49
ENDBRANCH  40  43
ENDBRANCH  38  39
ENDBRANCH  37  38
ENDBRANCH  36  37
ENDBRANCH  35  36
ENDBRANCH  34  35
ENDBRANCH   1  34
TORSDOF 19
ENDMDL
MODEL 3
REMARK VINA RESULT:     -11.4      6.863     12.306
REMARK SMILES CCOC(=O)c1cccc(Nc2c(-c3ccc(C(=O)NCCCCCCNC(=O)c4ccc(-c5c6nc(c(-c7c(F)cccc7F)c7ccc([nH]7)c(-c7c(F)cccc7F)c7nc(c(-c8c(F)cccc8F)c8ccc5[nH]8)C=C7)C=C6)cc4)cc3)nc3cnccn23)c1
REMARK SMILES IDX 21 1 20 2 18 3 19 4 17 6 14 7 15 8 85 9 16 10 84 11 13 12
REMARK SMILES IDX 12 13 92 14 86 15 87 16 91 17 88 18 90 19 89 20 11 21 10 23
REMARK SMILES IDX 6 24 7 25 93 26 8 27 9 28 4 29 5 30 3 31 2 32 1 33 22 34
REMARK SMILES IDX 23 35 24 36 25 37 26 38 27 39 28 40 29 42 30 43 31 44 83 45
REMARK SMILES IDX 32 46 82 47 33 48 34 49 35 50 76 51 36 52 81 53 75 54 77 55
REMARK SMILES IDX 37 56 80 57 74 58 73 59 38 61 64 62 47 63 63 64 48 65 51 66
REMARK SMILES IDX 62 67 78 68 49 69 50 70 61 72 79 73 52 74 39 75 40 76 45 77
REMARK SMILES IDX 41 78 42 79 44 80 46 81 43 82 65 83 66 84 71 85 67 86 68 87
REMARK SMILES IDX 70 88 72 89 69 90 53 91 54 92 59 93 55 94 56 95 58 96 60 97
REMARK SMILES IDX 57 98
REMARK H PARENT 20 5 11 22 27 41 77 60 51 71
REMARK Flexibility Score: inf
ROOT
ATOM      1  C   UNL A   1      38.900  27.694  30.330  1.00  0.00     0.116 C 
ENDROOT
BRANCH   1   2
ATOM      2  N   UNL A   1      39.422  28.134  31.611  1.00  0.00    -0.352 N 
ATOM      3  C   UNL A   1      39.160  29.242  32.375  1.00  0.00     0.251 C 
ATOM      4  O   UNL A   1      39.743  29.353  33.453  1.00  0.00    -0.269 OA
ATOM      5  H   UNL A   1      40.086  27.523  32.005  1.00  0.00     0.163 HD
BRANCH   3   6
ATOM      6  C   UNL A   1      38.168  30.276  31.980  1.00  0.00     0.039 A 
ATOM      7  C   UNL A   1      36.433  32.353  31.230  1.00  0.00     0.004 A 
ATOM      8  C   UNL A   1      37.808  32.483  31.021  1.00  0.00     0.011 A 
ATOM      9  C   UNL A   1      35.922  31.174  31.777  1.00  0.00     0.011 A 
ATOM     10  C   UNL A   1      38.669  31.450  31.398  1.00  0.00     0.014 A 
ATOM     11  C   UNL A   1      36.784  30.127  32.118  1.00  0.00     0.014 A 
BRANCH   7  12
ATOM     12  C   UNL A   1      35.531  33.421  30.870  1.00  0.00     0.114 A 
ATOM     13  C   UNL A   1      35.184  33.760  29.569  1.00  0.00     0.143 A 
ATOM     14  N   UNL A   1      34.269  34.782  29.723  1.00  0.00    -0.283 N 
ATOM     15  N   UNL A   1      34.926  34.236  31.798  1.00  0.00    -0.225 NA
ATOM     16  C   UNL A   1      34.195  35.048  31.070  1.00  0.00     0.157 A 
ATOM     17  C   UNL A   1      33.466  35.489  28.841  1.00  0.00     0.115 A 
ATOM     18  C   UNL A   1      33.331  36.106  31.513  1.00  0.00     0.158 A 
ATOM     19  C   UNL A   1      32.667  36.450  29.336  1.00  0.00     0.129 A 
ATOM     20  N   UNL A   1      32.594  36.790  30.677  1.00  0.00    -0.259 NA
BRANCH  13  21
ATOM     21  N   UNL A   1      35.535  33.205  28.376  1.00  0.00    -0.339 N 
ATOM     22  H   UNL A   1      35.978  33.793  27.723  1.00  0.00     0.168 HD
BRANCH  21  23
ATOM     23  C   UNL A   1      35.321  31.858  27.990  1.00  0.00     0.040 A 
ATOM     24  C   UNL A   1      33.767  30.147  27.223  1.00  0.00     0.062 A 
ATOM     25  C   UNL A   1      34.779  29.186  27.267  1.00  0.00     0.016 A 
ATOM     26  C   UNL A   1      34.039  31.480  27.559  1.00  0.00     0.041 A 
ATOM     27  C   UNL A   1      36.066  29.561  27.638  1.00  0.00     0.003 A 
ATOM     28  C   UNL A   1      36.331  30.885  28.000  1.00  0.00     0.026 A 
BRANCH  24  29
ATOM     29  C   UNL A   1      32.397  29.700  26.902  1.00  0.00     0.338 C 
ATOM     30  O   UNL A   1      31.772  28.920  27.598  1.00  0.00    -0.246 OA
BRANCH  29  31
ATOM     31  O   UNL A   1      32.001  30.239  25.723  1.00  0.00    -0.462 OA
BRANCH  31  32
ATOM     32  C   UNL A   1      31.636  29.287  24.711  1.00  0.00     0.230 C 
ATOM     33  C   UNL A   1      32.809  28.952  23.804  1.00  0.00     0.049 C 
ENDBRANCH  31  32
ENDBRANCH  29  31
ENDBRANCH  24  29
ENDBRANCH  21  23
ENDBRANCH  13  21
ENDBRANCH   7  12
ENDBRANCH   3   6
ENDBRANCH   1   2
BRANCH   1  34
ATOM     34  C   UNL A   1      39.466  28.564  29.205  1.00  0.00     0.021 C 
BRANCH  34  35
ATOM     35  C   UNL A   1      40.740  27.988  28.572  1.00  0.00     0.002 C 
BRANCH  35  36
ATOM     36  C   UNL A   1      40.523  27.245  27.248  1.00  0.00     0.002 C 
BRANCH  36  37
ATOM     37  C   UNL A   1      39.817  25.892  27.370  1.00  0.00     0.021 C 
BRANCH  37  38
ATOM     38  C   UNL A   1      39.977  24.980  26.157  1.00  0.00     0.116 C 
BRANCH  38  39
ATOM     39  N   UNL A   1      40.668  23.747  26.496  1.00  0.00    -0.352 N 
ATOM     40  C   UNL A   1      42.016  23.501  26.572  1.00  0.00     0.251 C 
ATOM     41  H   UNL A   1      40.086  22.978  26.697  1.00  0.00     0.163 HD
ATOM     42  O   UNL A   1      42.430  22.351  26.669  1.00  0.00    -0.269 OA
BRANCH  40  43
ATOM     43  C   UNL A   1      42.974  24.626  26.531  1.00  0.00     0.039 A 
ATOM     44  C   UNL A   1      43.484  25.123  27.734  1.00  0.00     0.014 A 
ATOM     45  C   UNL A   1      43.341  25.211  25.316  1.00  0.00     0.014 A 
ATOM     46  C   UNL A   1      44.394  26.182  27.716  1.00  0.00     0.010 A 
ATOM     47  C   UNL A   1      44.292  26.228  25.295  1.00  0.00     0.010 A 
ATOM     48  C   UNL A   1      44.818  26.731  26.495  1.00  0.00    -0.014 A 
BRANCH  48  49
ATOM     49  C   UNL A   1      45.791  27.849  26.452  1.00  0.00     0.031 A 
ATOM     50  C   UNL A   1      47.262  27.559  26.340  1.00  0.00     0.074 A 
ATOM     51  C   UNL A   1      45.359  29.118  26.577  1.00  0.00     0.049 A 
ATOM     52  N   UNL A   1      48.274  28.389  26.370  1.00  0.00    -0.248 NA
ATOM     53  C   UNL A   1      47.647  26.145  26.202  1.00  0.00     0.031 C 
ATOM     54  C   UNL A   1      43.963  29.526  26.733  1.00  0.00     0.029 A 
ATOM     55  N   UNL A   1      46.057  30.299  26.604  1.00  0.00    -0.354 N 
ATOM     56  C   UNL A   1      49.412  27.598  26.279  1.00  0.00     0.074 A 
ATOM     57  C   UNL A   1      48.970  26.221  26.233  1.00  0.00     0.031 C 
ATOM     58  C   UNL A   1      43.905  30.864  26.826  1.00  0.00     0.029 A 
ATOM     59  C   UNL A   1      45.259  31.405  26.765  1.00  0.00     0.049 A 
ATOM     60  H   UNL A   1      47.036  30.349  26.517  1.00  0.00     0.167 HD
ATOM     61  C   UNL A   1      50.708  27.986  26.217  1.00  0.00     0.037 A 
ATOM     62  C   UNL A   1      45.585  32.708  26.857  1.00  0.00     0.037 A 
ATOM     63  C   UNL A   1      51.145  29.357  26.225  1.00  0.00     0.049 A 
ATOM     64  C   UNL A   1      47.030  33.113  26.765  1.00  0.00     0.074 A 
ATOM     65  C   UNL A   1      52.432  29.853  26.107  1.00  0.00     0.029 A 
ATOM     66  N   UNL A   1      50.303  30.450  26.353  1.00  0.00    -0.354 N 
ATOM     67  N   UNL A   1      48.092  32.359  26.624  1.00  0.00    -0.248 NA
ATOM     68  C   UNL A   1      47.319  34.553  26.840  1.00  0.00     0.031 C 
ATOM     69  C   UNL A   1      52.371  31.249  26.192  1.00  0.00     0.029 A 
ATOM     70  C   UNL A   1      51.044  31.621  26.328  1.00  0.00     0.049 A 
ATOM     71  H   UNL A   1      49.324  30.403  26.448  1.00  0.00     0.167 HD
ATOM     72  C   UNL A   1      49.172  33.231  26.565  1.00  0.00     0.074 A 
ATOM     73  C   UNL A   1      48.635  34.571  26.676  1.00  0.00     0.031 C 
ATOM     74  C   UNL A   1      50.489  32.947  26.429  1.00  0.00     0.037 A 
BRANCH  61  75
ATOM     75  C   UNL A   1      51.746  26.907  26.130  1.00  0.00     0.057 A 
ATOM     76  C   UNL A   1      52.112  26.332  24.907  1.00  0.00     0.134 A 
ATOM     77  C   UNL A   1      52.406  26.455  27.280  1.00  0.00     0.134 A 
ATOM     78  F   UNL A   1      51.509  26.712  23.770  1.00  0.00    -0.206 F 
ATOM     79  C   UNL A   1      53.079  25.328  24.832  1.00  0.00     0.040 A 
ATOM     80  C   UNL A   1      53.392  25.468  27.215  1.00  0.00     0.040 A 
ATOM     81  F   UNL A   1      52.106  26.966  28.484  1.00  0.00    -0.206 F 
ATOM     82  C   UNL A   1      53.726  24.898  25.988  1.00  0.00     0.006 A 
ENDBRANCH  61  75
BRANCH  62  83
ATOM     83  C   UNL A   1      44.521  33.728  27.017  1.00  0.00     0.057 A 
ATOM     84  C   UNL A   1      43.931  34.332  25.901  1.00  0.00     0.134 A 
ATOM     85  C   UNL A   1      44.071  34.124  28.281  1.00  0.00     0.134 A 
ATOM     86  F   UNL A   1      44.334  34.004  24.665  1.00  0.00    -0.206 F 
ATOM     87  C   UNL A   1      42.941  35.306  26.036  1.00  0.00     0.040 A 
ATOM     88  C   UNL A   1      43.067  35.084  28.431  1.00  0.00     0.040 A 
ATOM     89  F   UNL A   1      44.594  33.578  29.389  1.00  0.00    -0.206 F 
ATOM     90  C   UNL A   1      42.504  35.681  27.305  1.00  0.00     0.006 A 
ENDBRANCH  62  83
BRANCH  74  91
ATOM     91  C   UNL A   1      51.437  34.106  26.358  1.00  0.00     0.057 A 
ATOM     92  C   UNL A   1      52.036  34.639  27.506  1.00  0.00     0.134 A 
ATOM     93  C   UNL A   1      51.780  34.670  25.124  1.00  0.00     0.134 A 
ATOM     94  F   UNL A   1      51.737  34.150  28.719  1.00  0.00    -0.206 F 
ATOM     95  C   UNL A   1      52.934  35.705  27.428  1.00  0.00     0.040 A 
ATOM     96  C   UNL A   1      52.692  35.721  25.031  1.00  0.00     0.040 A 
ATOM     97  F   UNL A   1      51.244  34.199  23.987  1.00  0.00    -0.206 F 
ATOM     98  C   UNL A   1      53.268  36.244  26.187  1.00  0.00     0.006 A 
ENDBRANCH  74  91
ENDBRANCH  48  49
ENDBRANCH  40  43
ENDBRANCH  38  39
ENDBRANCH  37  38
ENDBRANCH  36  37
ENDBRANCH  35  36
ENDBRANCH  34  35
ENDBRANCH   1  34
TORSDOF 19
ENDMDL
