MODEL 1
REMARK VINA RESULT:     -11.9      0.000      0.000
REMARK SMILES Cc1cc(C(=O)NCCCCCCNC(=O)c2ccc(-c3c4nc(c(-c5c(F)cccc5F)c5ccc([nH]5)c(-c5c(F)cccc5F)c5nc(c(-c6c(F)cccc6F)c6ccc3[nH]6)C=C5)C=C4)cc2)c(C#Cc2ccccc2)s1
REMARK SMILES IDX 10 1 9 2 8 3 7 4 5 5 6 6 4 8 1 9 2 10 3 11 80 12 71 13 72 14
REMARK SMILES IDX 73 15 74 16 75 17 79 18 76 19 78 20 77 21 11 22 12 23 13 24
REMARK SMILES IDX 14 25 15 26 16 28 17 29 18 30 70 31 19 32 69 33 20 34 21 35
REMARK SMILES IDX 22 36 63 37 23 38 68 39 62 40 64 41 24 42 67 43 61 44 60 45
REMARK SMILES IDX 25 47 51 48 34 49 50 50 35 51 38 52 49 53 65 54 36 55 37 56
REMARK SMILES IDX 48 58 66 59 39 60 26 61 27 62 32 63 28 64 29 65 31 66 33 67
REMARK SMILES IDX 30 68 52 69 53 70 58 71 54 72 55 73 57 74 59 75 56 76 40 77
REMARK SMILES IDX 41 78 46 79 42 80 43 81 45 82 47 83 44 84
REMARK H PARENT 7 7 14 27 64 46 38 57
REMARK Flexibility Score: inf
ROOT
ATOM      1  C   UNL A   1      34.817  32.475  27.964  1.00  0.00     0.002 C 
ENDROOT
BRANCH   1   2
ATOM      2  C   UNL A   1      33.483  31.761  27.705  1.00  0.00     0.021 C 
BRANCH   2   3
ATOM      3  C   UNL A   1      33.661  30.347  27.151  1.00  0.00     0.116 C 
BRANCH   3   4
ATOM      4  N   UNL A   1      32.581  29.488  27.585  1.00  0.00    -0.352 N 
ATOM      5  C   UNL A   1      32.078  28.274  27.195  1.00  0.00     0.253 C 
ATOM      6  O   UNL A   1      31.092  27.911  27.843  1.00  0.00    -0.269 OA
ATOM      7  H   UNL A   1      32.087  29.868  28.347  1.00  0.00     0.163 HD
BRANCH   5   8
ATOM      8  C   UNL A   1      32.662  27.447  26.123  1.00  0.00     0.066 A 
ATOM      9  C   UNL A   1      34.875  24.653  24.766  1.00  0.00     0.056 C 
ATOM     10  C   UNL A   1      33.934  25.782  25.005  1.00  0.00     0.004 A 
ATOM     11  C   UNL A   1      33.704  26.453  26.187  1.00  0.00     0.030 A 
ATOM     12  S   UNL A   1      33.003  26.429  23.746  1.00  0.00    -0.131 S 
ATOM     13  C   UNL A   1      32.249  27.560  24.792  1.00  0.00     0.090 A 
BRANCH  13  14
ATOM     14  C   UNL A   1      31.299  28.476  24.250  1.00  0.00    -0.050 C 
ATOM     15  C   UNL A   1      30.529  29.266  23.755  1.00  0.00    -0.061 C 
BRANCH  15  16
ATOM     16  C   UNL A   1      29.636  30.184  23.131  1.00  0.00     0.025 A 
ATOM     17  C   UNL A   1      29.341  30.070  21.770  1.00  0.00     0.017 A 
ATOM     18  C   UNL A   1      29.064  31.215  23.882  1.00  0.00     0.017 A 
ATOM     19  C   UNL A   1      28.485  30.993  21.162  1.00  0.00     0.001 A 
ATOM     20  C   UNL A   1      28.211  32.136  23.273  1.00  0.00     0.001 A 
ATOM     21  C   UNL A   1      27.925  32.027  21.914  1.00  0.00     0.000 A 
ENDBRANCH  15  16
ENDBRANCH  13  14
ENDBRANCH   5   8
ENDBRANCH   3   4
ENDBRANCH   2   3
ENDBRANCH   1   2
BRANCH   1  22
ATOM     22  C   UNL A   1      34.691  33.963  28.326  1.00  0.00     0.002 C 
BRANCH  22  23
ATOM     23  C   UNL A   1      33.254  34.464  28.542  1.00  0.00     0.021 C 
BRANCH  23  24
ATOM     24  C   UNL A   1      33.169  35.760  29.347  1.00  0.00     0.116 C 
BRANCH  24  25
ATOM     25  N   UNL A   1      32.602  35.557  30.663  1.00  0.00    -0.352 N 
ATOM     26  C   UNL A   1      33.045  35.076  31.858  1.00  0.00     0.251 C 
ATOM     27  H   UNL A   1      31.660  35.839  30.705  1.00  0.00     0.163 HD
ATOM     28  O   UNL A   1      32.234  35.133  32.787  1.00  0.00    -0.269 OA
BRANCH  26  29
ATOM     29  C   UNL A   1      34.359  34.428  32.109  1.00  0.00     0.039 A 
ATOM     30  C   UNL A   1      35.548  35.068  32.456  1.00  0.00     0.014 A 
ATOM     31  C   UNL A   1      34.391  33.036  31.878  1.00  0.00     0.014 A 
ATOM     32  C   UNL A   1      36.754  34.372  32.389  1.00  0.00     0.010 A 
ATOM     33  C   UNL A   1      35.583  32.329  31.860  1.00  0.00     0.010 A 
ATOM     34  C   UNL A   1      36.772  33.019  32.012  1.00  0.00    -0.014 A 
BRANCH  34  35
ATOM     35  C   UNL A   1      38.056  32.327  31.899  1.00  0.00     0.031 A 
ATOM     36  C   UNL A   1      38.829  32.334  33.172  1.00  0.00     0.074 A 
ATOM     37  C   UNL A   1      38.485  31.701  30.776  1.00  0.00     0.049 A 
ATOM     38  N   UNL A   1      39.931  32.961  33.417  1.00  0.00    -0.248 NA
ATOM     39  C   UNL A   1      38.209  31.737  34.368  1.00  0.00     0.031 C 
ATOM     40  C   UNL A   1      37.768  31.435  29.525  1.00  0.00     0.029 A 
ATOM     41  N   UNL A   1      39.705  31.128  30.539  1.00  0.00    -0.354 N 
ATOM     42  C   UNL A   1      40.249  32.692  34.746  1.00  0.00     0.074 A 
ATOM     43  C   UNL A   1      39.093  32.054  35.316  1.00  0.00     0.031 C 
ATOM     44  C   UNL A   1      38.481  30.571  28.757  1.00  0.00     0.029 A 
ATOM     45  C   UNL A   1      39.773  30.348  29.378  1.00  0.00     0.049 A 
ATOM     46  H   UNL A   1      40.475  31.255  31.138  1.00  0.00     0.167 HD
ATOM     47  C   UNL A   1      41.520  32.857  35.207  1.00  0.00     0.037 A 
ATOM     48  C   UNL A   1      40.829  29.588  28.974  1.00  0.00     0.037 A 
ATOM     49  C   UNL A   1      42.274  33.718  34.331  1.00  0.00     0.049 A 
ATOM     50  C   UNL A   1      42.034  30.119  29.659  1.00  0.00     0.074 A 
ATOM     51  C   UNL A   1      42.204  35.056  33.993  1.00  0.00     0.029 A 
ATOM     52  N   UNL A   1      43.018  33.121  33.345  1.00  0.00    -0.354 N 
ATOM     53  N   UNL A   1      42.527  31.301  29.408  1.00  0.00    -0.248 NA
ATOM     54  C   UNL A   1      42.342  29.568  30.970  1.00  0.00     0.031 C 
ATOM     55  C   UNL A   1      42.471  35.093  32.592  1.00  0.00     0.029 A 
ATOM     56  C   UNL A   1      42.786  33.800  32.175  1.00  0.00     0.049 A 
ATOM     57  H   UNL A   1      43.614  32.344  33.456  1.00  0.00     0.167 HD
ATOM     58  C   UNL A   1      42.818  31.828  30.657  1.00  0.00     0.074 A 
ATOM     59  C   UNL A   1      42.707  30.699  31.583  1.00  0.00     0.031 C 
ATOM     60  C   UNL A   1      42.825  33.176  30.873  1.00  0.00     0.037 A 
BRANCH  47  61
ATOM     61  C   UNL A   1      42.186  31.950  36.213  1.00  0.00     0.057 A 
ATOM     62  C   UNL A   1      42.592  30.630  35.937  1.00  0.00     0.134 A 
ATOM     63  C   UNL A   1      42.731  32.510  37.385  1.00  0.00     0.134 A 
ATOM     64  F   UNL A   1      42.198  29.970  34.842  1.00  0.00    -0.206 F 
ATOM     65  C   UNL A   1      43.514  29.940  36.728  1.00  0.00     0.040 A 
ATOM     66  C   UNL A   1      43.686  31.842  38.161  1.00  0.00     0.040 A 
ATOM     67  F   UNL A   1      42.415  33.757  37.767  1.00  0.00    -0.206 F 
ATOM     68  C   UNL A   1      44.095  30.558  37.824  1.00  0.00     0.006 A 
ENDBRANCH  47  61
BRANCH  48  69
ATOM     69  C   UNL A   1      40.828  28.237  28.354  1.00  0.00     0.057 A 
ATOM     70  C   UNL A   1      41.198  28.070  27.008  1.00  0.00     0.134 A 
ATOM     71  C   UNL A   1      40.182  27.139  28.947  1.00  0.00     0.134 A 
ATOM     72  F   UNL A   1      41.738  29.084  26.317  1.00  0.00    -0.206 F 
ATOM     73  C   UNL A   1      40.939  26.893  26.293  1.00  0.00     0.040 A 
ATOM     74  C   UNL A   1      39.919  25.950  28.244  1.00  0.00     0.040 A 
ATOM     75  F   UNL A   1      39.728  27.214  30.207  1.00  0.00    -0.206 F 
ATOM     76  C   UNL A   1      40.290  25.829  26.907  1.00  0.00     0.006 A 
ENDBRANCH  48  69
BRANCH  60  77
ATOM     77  C   UNL A   1      42.678  34.074  29.670  1.00  0.00     0.057 A 
ATOM     78  C   UNL A   1      43.824  34.433  28.957  1.00  0.00     0.134 A 
ATOM     79  C   UNL A   1      41.475  34.684  29.276  1.00  0.00     0.134 A 
ATOM     80  F   UNL A   1      45.021  33.943  29.316  1.00  0.00    -0.206 F 
ATOM     81  C   UNL A   1      43.780  35.333  27.890  1.00  0.00     0.040 A 
ATOM     82  C   UNL A   1      41.410  35.564  28.189  1.00  0.00     0.040 A 
ATOM     83  F   UNL A   1      40.342  34.490  29.959  1.00  0.00    -0.206 F 
ATOM     84  C   UNL A   1      42.569  35.891  27.492  1.00  0.00     0.006 A 
ENDBRANCH  60  77
ENDBRANCH  34  35
ENDBRANCH  26  29
ENDBRANCH  24  25
ENDBRANCH  23  24
ENDBRANCH  22  23
ENDBRANCH   1  22
TORSDOF 15
ENDMDL
MODEL 2
REMARK VINA RESULT:     -11.6      3.904      9.238
REMARK SMILES Cc1cc(C(=O)NCCCCCCNC(=O)c2ccc(-c3c4nc(c(-c5c(F)cccc5F)c5ccc([nH]5)c(-c5c(F)cccc5F)c5nc(c(-c6c(F)cccc6F)c6ccc3[nH]6)C=C5)C=C4)cc2)c(C#Cc2ccccc2)s1
REMARK SMILES IDX 10 1 9 2 8 3 7 4 5 5 6 6 4 8 1 9 2 10 3 11 80 12 71 13 72 14
REMARK SMILES IDX 73 15 74 16 75 17 79 18 76 19 78 20 77 21 11 22 12 23 13 24
REMARK SMILES IDX 14 25 15 26 16 28 17 29 18 30 70 31 19 32 69 33 20 34 21 35
REMARK SMILES IDX 22 36 63 37 23 38 68 39 62 40 64 41 24 42 67 43 61 44 60 45
REMARK SMILES IDX 25 47 51 48 34 49 50 50 35 51 38 52 49 53 65 54 36 55 37 56
REMARK SMILES IDX 48 58 66 59 39 60 26 61 27 62 32 63 28 64 29 65 31 66 33 67
REMARK SMILES IDX 30 68 52 69 53 70 58 71 54 72 55 73 57 74 59 75 56 76 40 77
REMARK SMILES IDX 41 78 46 79 42 80 43 81 45 82 47 83 44 84
REMARK H PARENT 7 7 14 27 64 46 38 57
REMARK Flexibility Score: inf
ROOT
ATOM      1  C   UNL A   1      35.384  22.261  26.233  1.00  0.00     0.002 C 
ENDROOT
BRANCH   1   2
ATOM      2  C   UNL A   1      34.204  21.735  27.063  1.00  0.00     0.021 C 
BRANCH   2   3
ATOM      3  C   UNL A   1      33.316  22.852  27.611  1.00  0.00     0.116 C 
BRANCH   3   4
ATOM      4  N   UNL A   1      31.924  22.591  27.316  1.00  0.00    -0.352 N 
ATOM      5  C   UNL A   1      31.116  22.715  26.217  1.00  0.00     0.253 C 
ATOM      6  O   UNL A   1      29.941  22.396  26.422  1.00  0.00    -0.269 OA
ATOM      7  H   UNL A   1      31.439  22.237  28.096  1.00  0.00     0.163 HD
BRANCH   5   8
ATOM      8  C   UNL A   1      31.590  23.157  24.892  1.00  0.00     0.066 A 
ATOM      9  C   UNL A   1      32.318  25.765  22.205  1.00  0.00     0.056 C 
ATOM     10  C   UNL A   1      32.152  24.552  23.054  1.00  0.00     0.004 A 
ATOM     11  C   UNL A   1      31.503  24.454  24.267  1.00  0.00     0.030 A 
ATOM     12  S   UNL A   1      32.761  23.049  22.564  1.00  0.00    -0.131 S 
ATOM     13  C   UNL A   1      32.214  22.283  23.998  1.00  0.00     0.090 A 
BRANCH  13  14
ATOM     14  C   UNL A   1      32.436  20.883  24.162  1.00  0.00    -0.050 C 
ATOM     15  C   UNL A   1      32.672  19.703  24.284  1.00  0.00    -0.061 C 
BRANCH  15  16
ATOM     16  C   UNL A   1      32.991  18.324  24.443  1.00  0.00     0.025 A 
ATOM     17  C   UNL A   1      33.718  17.648  23.461  1.00  0.00     0.017 A 
ATOM     18  C   UNL A   1      32.560  17.640  25.584  1.00  0.00     0.017 A 
ATOM     19  C   UNL A   1      34.002  16.288  23.614  1.00  0.00     0.001 A 
ATOM     20  C   UNL A   1      32.844  16.282  25.735  1.00  0.00     0.001 A 
ATOM     21  C   UNL A   1      33.560  15.607  24.750  1.00  0.00     0.000 A 
ENDBRANCH  15  16
ENDBRANCH  13  14
ENDBRANCH   5   8
ENDBRANCH   3   4
ENDBRANCH   2   3
ENDBRANCH   1   2
BRANCH   1  22
ATOM     22  C   UNL A   1      35.891  21.296  25.150  1.00  0.00     0.002 C 
BRANCH  22  23
ATOM     23  C   UNL A   1      37.410  21.308  24.922  1.00  0.00     0.021 C 
BRANCH  23  24
ATOM     24  C   UNL A   1      38.143  22.391  25.713  1.00  0.00     0.116 C 
BRANCH  24  25
ATOM     25  N   UNL A   1      39.233  21.859  26.501  1.00  0.00    -0.352 N 
ATOM     26  C   UNL A   1      40.173  22.368  27.346  1.00  0.00     0.251 C 
ATOM     27  H   UNL A   1      39.316  20.882  26.403  1.00  0.00     0.163 HD
ATOM     28  O   UNL A   1      40.909  21.537  27.885  1.00  0.00    -0.269 OA
BRANCH  26  29
ATOM     29  C   UNL A   1      40.431  23.810  27.601  1.00  0.00     0.039 A 
ATOM     30  C   UNL A   1      41.630  24.373  28.035  1.00  0.00     0.014 A 
ATOM     31  C   UNL A   1      39.307  24.650  27.465  1.00  0.00     0.014 A 
ATOM     32  C   UNL A   1      41.649  25.690  28.494  1.00  0.00     0.010 A 
ATOM     33  C   UNL A   1      39.335  25.974  27.873  1.00  0.00     0.010 A 
ATOM     34  C   UNL A   1      40.476  26.462  28.484  1.00  0.00    -0.014 A 
BRANCH  34  35
ATOM     35  C   UNL A   1      40.512  27.822  29.020  1.00  0.00     0.031 A 
ATOM     36  C   UNL A   1      41.545  28.673  28.365  1.00  0.00     0.074 A 
ATOM     37  C   UNL A   1      39.670  28.285  29.975  1.00  0.00     0.049 A 
ATOM     38  N   UNL A   1      42.628  29.136  28.893  1.00  0.00    -0.248 NA
ATOM     39  C   UNL A   1      41.464  28.869  26.907  1.00  0.00     0.031 C 
ATOM     40  C   UNL A   1      38.489  27.647  30.567  1.00  0.00     0.029 A 
ATOM     41  N   UNL A   1      39.696  29.495  30.615  1.00  0.00    -0.354 N 
ATOM     42  C   UNL A   1      43.284  29.842  27.886  1.00  0.00     0.074 A 
ATOM     43  C   UNL A   1      42.598  29.530  26.661  1.00  0.00     0.031 C 
ATOM     44  C   UNL A   1      37.795  28.550  31.305  1.00  0.00     0.029 A 
ATOM     45  C   UNL A   1      38.557  29.782  31.378  1.00  0.00     0.049 A 
ATOM     46  H   UNL A   1      40.457  30.114  30.545  1.00  0.00     0.167 HD
ATOM     47  C   UNL A   1      44.229  30.775  28.190  1.00  0.00     0.037 A 
ATOM     48  C   UNL A   1      38.286  30.953  32.019  1.00  0.00     0.037 A 
ATOM     49  C   UNL A   1      44.728  30.580  29.528  1.00  0.00     0.049 A 
ATOM     50  C   UNL A   1      39.582  31.654  32.210  1.00  0.00     0.074 A 
ATOM     51  C   UNL A   1      45.473  29.597  30.150  1.00  0.00     0.029 A 
ATOM     52  N   UNL A   1      44.123  31.287  30.537  1.00  0.00    -0.354 N 
ATOM     53  N   UNL A   1      40.520  31.203  32.997  1.00  0.00    -0.248 NA
ATOM     54  C   UNL A   1      40.022  32.527  31.133  1.00  0.00     0.031 C 
ATOM     55  C   UNL A   1      44.883  29.454  31.441  1.00  0.00     0.029 A 
ATOM     56  C   UNL A   1      43.884  30.418  31.572  1.00  0.00     0.049 A 
ATOM     57  H   UNL A   1      43.901  32.246  30.521  1.00  0.00     0.167 HD
ATOM     58  C   UNL A   1      41.689  31.361  32.270  1.00  0.00     0.074 A 
ATOM     59  C   UNL A   1      41.320  32.211  31.135  1.00  0.00     0.031 C 
ATOM     60  C   UNL A   1      42.769  30.553  32.480  1.00  0.00     0.037 A 
BRANCH  47  61
ATOM     61  C   UNL A   1      44.419  32.071  27.440  1.00  0.00     0.057 A 
ATOM     62  C   UNL A   1      43.885  33.307  27.854  1.00  0.00     0.134 A 
ATOM     63  C   UNL A   1      45.427  32.155  26.460  1.00  0.00     0.134 A 
ATOM     64  F   UNL A   1      42.950  33.403  28.807  1.00  0.00    -0.206 F 
ATOM     65  C   UNL A   1      44.356  34.533  27.379  1.00  0.00     0.040 A 
ATOM     66  C   UNL A   1      45.934  33.380  26.007  1.00  0.00     0.040 A 
ATOM     67  F   UNL A   1      46.010  31.049  25.972  1.00  0.00    -0.206 F 
ATOM     68  C   UNL A   1      45.410  34.575  26.480  1.00  0.00     0.006 A 
ENDBRANCH  47  61
BRANCH  48  69
ATOM     69  C   UNL A   1      36.994  31.677  32.142  1.00  0.00     0.057 A 
ATOM     70  C   UNL A   1      36.341  32.168  30.999  1.00  0.00     0.134 A 
ATOM     71  C   UNL A   1      36.525  32.174  33.371  1.00  0.00     0.134 A 
ATOM     72  F   UNL A   1      36.764  31.833  29.772  1.00  0.00    -0.206 F 
ATOM     73  C   UNL A   1      35.294  33.097  31.067  1.00  0.00     0.040 A 
ATOM     74  C   UNL A   1      35.473  33.103  33.455  1.00  0.00     0.040 A 
ATOM     75  F   UNL A   1      37.120  31.821  34.520  1.00  0.00    -0.206 F 
ATOM     76  C   UNL A   1      34.860  33.575  32.298  1.00  0.00     0.006 A 
ENDBRANCH  48  69
BRANCH  60  77
ATOM     77  C   UNL A   1      42.707  29.599  33.646  1.00  0.00     0.057 A 
ATOM     78  C   UNL A   1      43.217  30.015  34.879  1.00  0.00     0.134 A 
ATOM     79  C   UNL A   1      42.281  28.263  33.560  1.00  0.00     0.134 A 
ATOM     80  F   UNL A   1      43.704  31.257  35.022  1.00  0.00    -0.206 F 
ATOM     81  C   UNL A   1      43.280  29.157  35.981  1.00  0.00     0.040 A 
ATOM     82  C   UNL A   1      42.309  27.401  34.664  1.00  0.00     0.040 A 
ATOM     83  F   UNL A   1      41.877  27.738  32.398  1.00  0.00    -0.206 F 
ATOM     84  C   UNL A   1      42.812  27.851  35.880  1.00  0.00     0.006 A 
ENDBRANCH  60  77
ENDBRANCH  34  35
ENDBRANCH  26  29
ENDBRANCH  24  25
ENDBRANCH  23  24
ENDBRANCH  22  23
ENDBRANCH   1  22
TORSDOF 15
ENDMDL
MODEL 3
REMARK VINA RESULT:     -11.6      3.222      4.722
REMARK SMILES Cc1cc(C(=O)NCCCCCCNC(=O)c2ccc(-c3c4nc(c(-c5c(F)cccc5F)c5ccc([nH]5)c(-c5c(F)cccc5F)c5nc(c(-c6c(F)cccc6F)c6ccc3[nH]6)C=C5)C=C4)cc2)c(C#Cc2ccccc2)s1
REMARK SMILES IDX 10 1 9 2 8 3 7 4 5 5 6 6 4 8 1 9 2 10 3 11 80 12 71 13 72 14
REMARK SMILES IDX 73 15 74 16 75 17 79 18 76 19 78 20 77 21 11 22 12 23 13 24
REMARK SMILES IDX 14 25 15 26 16 28 17 29 18 30 70 31 19 32 69 33 20 34 21 35
REMARK SMILES IDX 22 36 63 37 23 38 68 39 62 40 64 41 24 42 67 43 61 44 60 45
REMARK SMILES IDX 25 47 51 48 34 49 50 50 35 51 38 52 49 53 65 54 36 55 37 56
REMARK SMILES IDX 48 58 66 59 39 60 26 61 27 62 32 63 28 64 29 65 31 66 33 67
REMARK SMILES IDX 30 68 52 69 53 70 58 71 54 72 55 73 57 74 59 75 56 76 40 77
REMARK SMILES IDX 41 78 46 79 42 80 43 81 45 82 47 83 44 84
REMARK H PARENT 7 7 14 27 64 46 38 57
REMARK Flexibility Score: inf
ROOT
ATOM      1  C   UNL A   1      32.255  28.429  25.749  1.00  0.00     0.002 C 
ENDROOT
BRANCH   1   2
ATOM      2  C   UNL A   1      31.787  27.441  26.828  1.00  0.00     0.021 C 
BRANCH   2   3
ATOM      3  C   UNL A   1      32.201  25.999  26.537  1.00  0.00     0.116 C 
BRANCH   3   4
ATOM      4  N   UNL A   1      31.183  25.074  26.985  1.00  0.00    -0.352 N 
ATOM      5  C   UNL A   1      30.715  23.855  26.568  1.00  0.00     0.253 C 
ATOM      6  O   UNL A   1      29.781  23.421  27.247  1.00  0.00    -0.269 OA
ATOM      7  H   UNL A   1      30.712  25.399  27.786  1.00  0.00     0.163 HD
BRANCH   5   8
ATOM      8  C   UNL A   1      31.279  23.101  25.434  1.00  0.00     0.066 A 
ATOM      9  C   UNL A   1      32.841  20.031  23.794  1.00  0.00     0.056 C 
ATOM     10  C   UNL A   1      32.244  21.347  24.155  1.00  0.00     0.004 A 
ATOM     11  C   UNL A   1      31.932  21.815  25.414  1.00  0.00     0.030 A 
ATOM     12  S   UNL A   1      31.891  22.505  22.970  1.00  0.00    -0.131 S 
ATOM     13  C   UNL A   1      31.265  23.603  24.129  1.00  0.00     0.090 A 
BRANCH  13  14
ATOM     14  C   UNL A   1      30.795  24.876  23.692  1.00  0.00    -0.050 C 
ATOM     15  C   UNL A   1      30.384  25.967  23.369  1.00  0.00    -0.061 C 
BRANCH  15  16
ATOM     16  C   UNL A   1      29.919  27.270  23.027  1.00  0.00     0.025 A 
ATOM     17  C   UNL A   1      30.759  28.171  22.367  1.00  0.00     0.017 A 
ATOM     18  C   UNL A   1      28.619  27.653  23.368  1.00  0.00     0.017 A 
ATOM     19  C   UNL A   1      30.301  29.455  22.061  1.00  0.00     0.001 A 
ATOM     20  C   UNL A   1      28.164  28.937  23.063  1.00  0.00     0.001 A 
ATOM     21  C   UNL A   1      29.006  29.837  22.414  1.00  0.00     0.000 A 
ENDBRANCH  15  16
ENDBRANCH  13  14
ENDBRANCH   5   8
ENDBRANCH   3   4
ENDBRANCH   2   3
ENDBRANCH   1   2
BRANCH   1  22
ATOM     22  C   UNL A   1      31.456  29.740  25.686  1.00  0.00     0.002 C 
BRANCH  22  23
ATOM     23  C   UNL A   1      32.038  30.900  26.509  1.00  0.00     0.021 C 
BRANCH  23  24
ATOM     24  C   UNL A   1      33.497  30.695  26.916  1.00  0.00     0.116 C 
BRANCH  24  25
ATOM     25  N   UNL A   1      33.877  31.516  28.045  1.00  0.00    -0.352 N 
ATOM     26  C   UNL A   1      35.013  31.724  28.768  1.00  0.00     0.251 C 
ATOM     27  H   UNL A   1      33.126  32.063  28.371  1.00  0.00     0.163 HD
ATOM     28  O   UNL A   1      34.933  32.588  29.645  1.00  0.00    -0.269 OA
BRANCH  26  29
ATOM     29  C   UNL A   1      36.281  30.957  28.646  1.00  0.00     0.039 A 
ATOM     30  C   UNL A   1      36.422  29.659  28.158  1.00  0.00     0.014 A 
ATOM     31  C   UNL A   1      37.421  31.605  29.167  1.00  0.00     0.014 A 
ATOM     32  C   UNL A   1      37.619  28.972  28.358  1.00  0.00     0.010 A 
ATOM     33  C   UNL A   1      38.627  30.941  29.321  1.00  0.00     0.010 A 
ATOM     34  C   UNL A   1      38.694  29.594  29.013  1.00  0.00    -0.014 A 
BRANCH  34  35
ATOM     35  C   UNL A   1      39.918  28.833  29.257  1.00  0.00     0.031 A 
ATOM     36  C   UNL A   1      40.220  28.675  30.708  1.00  0.00     0.074 A 
ATOM     37  C   UNL A   1      40.679  28.283  28.280  1.00  0.00     0.049 A 
ATOM     38  N   UNL A   1      41.195  29.205  31.367  1.00  0.00    -0.248 NA
ATOM     39  C   UNL A   1      39.216  28.015  31.561  1.00  0.00     0.031 C 
ATOM     40  C   UNL A   1      40.416  28.177  26.841  1.00  0.00     0.029 A 
ATOM     41  N   UNL A   1      41.890  27.655  28.400  1.00  0.00    -0.354 N 
ATOM     42  C   UNL A   1      41.040  28.798  32.691  1.00  0.00     0.074 A 
ATOM     43  C   UNL A   1      39.740  28.187  32.776  1.00  0.00     0.031 C 
ATOM     44  C   UNL A   1      41.317  27.341  26.265  1.00  0.00     0.029 A 
ATOM     45  C   UNL A   1      42.318  26.979  27.251  1.00  0.00     0.049 A 
ATOM     46  H   UNL A   1      42.418  27.678  29.230  1.00  0.00     0.167 HD
ATOM     47  C   UNL A   1      42.088  28.837  33.561  1.00  0.00     0.037 A 
ATOM     48  C   UNL A   1      43.425  26.191  27.140  1.00  0.00     0.037 A 
ATOM     49  C   UNL A   1      43.118  29.723  33.080  1.00  0.00     0.049 A 
ATOM     50  C   UNL A   1      44.346  26.579  28.238  1.00  0.00     0.074 A 
ATOM     51  C   UNL A   1      43.208  31.087  32.882  1.00  0.00     0.029 A 
ATOM     52  N   UNL A   1      44.131  29.169  32.337  1.00  0.00    -0.354 N 
ATOM     53  N   UNL A   1      44.932  27.744  28.291  1.00  0.00    -0.248 NA
ATOM     54  C   UNL A   1      44.178  25.895  29.510  1.00  0.00     0.031 C 
ATOM     55  C   UNL A   1      43.930  31.232  31.660  1.00  0.00     0.029 A 
ATOM     56  C   UNL A   1      44.326  29.963  31.236  1.00  0.00     0.049 A 
ATOM     57  H   UNL A   1      44.630  28.348  32.556  1.00  0.00     0.167 HD
ATOM     58  C   UNL A   1      44.803  28.138  29.614  1.00  0.00     0.074 A 
ATOM     59  C   UNL A   1      44.352  26.939  30.325  1.00  0.00     0.031 C 
ATOM     60  C   UNL A   1      44.780  29.457  29.961  1.00  0.00     0.037 A 
BRANCH  47  61
ATOM     61  C   UNL A   1      42.348  27.803  34.628  1.00  0.00     0.057 A 
ATOM     62  C   UNL A   1      41.829  27.873  35.937  1.00  0.00     0.134 A 
ATOM     63  C   UNL A   1      42.858  26.545  34.255  1.00  0.00     0.134 A 
ATOM     64  F   UNL A   1      41.270  28.983  36.430  1.00  0.00    -0.206 F 
ATOM     65  C   UNL A   1      41.765  26.765  36.785  1.00  0.00     0.040 A 
ATOM     66  C   UNL A   1      42.762  25.419  35.083  1.00  0.00     0.040 A 
ATOM     67  F   UNL A   1      43.392  26.349  33.039  1.00  0.00    -0.206 F 
ATOM     68  C   UNL A   1      42.197  25.523  36.347  1.00  0.00     0.006 A 
ENDBRANCH  47  61
BRANCH  48  69
ATOM     69  C   UNL A   1      43.589  24.904  26.415  1.00  0.00     0.057 A 
ATOM     70  C   UNL A   1      44.463  24.811  25.319  1.00  0.00     0.134 A 
ATOM     71  C   UNL A   1      42.687  23.836  26.566  1.00  0.00     0.134 A 
ATOM     72  F   UNL A   1      45.302  25.814  25.026  1.00  0.00    -0.206 F 
ATOM     73  C   UNL A   1      44.443  23.731  24.425  1.00  0.00     0.040 A 
ATOM     74  C   UNL A   1      42.658  22.745  25.680  1.00  0.00     0.040 A 
ATOM     75  F   UNL A   1      41.766  23.855  27.541  1.00  0.00    -0.206 F 
ATOM     76  C   UNL A   1      43.533  22.695  24.599  1.00  0.00     0.006 A 
ENDBRANCH  48  69
BRANCH  60  77
ATOM     77  C   UNL A   1      45.072  30.467  28.880  1.00  0.00     0.057 A 
ATOM     78  C   UNL A   1      46.368  30.979  28.774  1.00  0.00     0.134 A 
ATOM     79  C   UNL A   1      44.102  31.031  28.035  1.00  0.00     0.134 A 
ATOM     80  F   UNL A   1      47.335  30.537  29.593  1.00  0.00    -0.206 F 
ATOM     81  C   UNL A   1      46.694  31.984  27.860  1.00  0.00     0.040 A 
ATOM     82  C   UNL A   1      44.421  32.017  27.092  1.00  0.00     0.040 A 
ATOM     83  F   UNL A   1      42.814  30.686  28.131  1.00  0.00    -0.206 F 
ATOM     84  C   UNL A   1      45.724  32.496  27.004  1.00  0.00     0.006 A 
ENDBRANCH  60  77
ENDBRANCH  34  35
ENDBRANCH  26  29
ENDBRANCH  24  25
ENDBRANCH  23  24
ENDBRANCH  22  23
ENDBRANCH   1  22
TORSDOF 15
ENDMDL
