MODEL 1
REMARK VINA RESULT:     -11.4      0.000      0.000
REMARK SMILES O=C1NC[C@@H](CSc2ccnc(C(=O)NCCCCCCNC(=O)c3ccc(-c4c5nc(c(-c6c(F)cccc6F)c6ccc([nH]6)c(-c6c(F)cccc6F)c6nc(c(-c7c(F)cccc7F)c7ccc4[nH]7)C=C6)C=C5)cc3)c2)O1
REMARK SMILES IDX 18 1 17 2 16 3 15 4 13 5 14 6 12 8 8 9 9 10 79 11 10 12
REMARK SMILES IDX 11 13 7 14 6 15 5 16 1 17 2 18 3 19 80 20 4 21 19 23 20 24
REMARK SMILES IDX 21 25 22 26 23 27 24 29 25 30 26 31 78 32 27 33 77 34 28 35
REMARK SMILES IDX 29 36 30 37 71 38 31 39 76 40 70 41 72 42 32 43 75 44 69 45
REMARK SMILES IDX 68 46 33 48 59 49 42 50 58 51 43 52 46 53 57 54 73 55 44 56
REMARK SMILES IDX 45 57 56 59 74 60 47 61 34 62 35 63 40 64 36 65 37 66 39 67
REMARK SMILES IDX 41 68 38 69 60 70 61 71 66 72 62 73 63 74 65 75 67 76 64 77
REMARK SMILES IDX 48 78 49 79 54 80 50 81 51 82 53 83 55 84 52 85
REMARK H PARENT 15 7 3 22 22 28 72 47 46 58
REMARK Flexibility Score: inf
ROOT
ATOM      1  C   UNL A   1      32.977  30.067  26.939  1.00  0.00     0.002 C 
ENDROOT
BRANCH   1   2
ATOM      2  C   UNL A   1      32.884  28.566  27.243  1.00  0.00     0.021 C 
BRANCH   2   3
ATOM      3  C   UNL A   1      31.441  28.099  27.444  1.00  0.00     0.116 C 
BRANCH   3   4
ATOM      4  N   UNL A   1      31.381  26.667  27.236  1.00  0.00    -0.351 N 
ATOM      5  C   UNL A   1      31.410  25.879  26.109  1.00  0.00     0.269 C 
ATOM      6  O   UNL A   1      31.181  24.680  26.267  1.00  0.00    -0.268 OA
ATOM      7  H   UNL A   1      31.301  26.152  28.071  1.00  0.00     0.163 HD
BRANCH   5   8
ATOM      8  C   UNL A   1      31.800  26.399  24.755  1.00  0.00     0.129 A 
ATOM      9  C   UNL A   1      31.630  27.923  22.927  1.00  0.00     0.011 A 
ATOM     10  C   UNL A   1      32.944  27.614  22.590  1.00  0.00     0.035 A 
ATOM     11  C   UNL A   1      31.028  27.269  24.000  1.00  0.00     0.049 A 
ATOM     12  C   UNL A   1      33.584  26.616  23.293  1.00  0.00     0.113 A 
ATOM     13  N   UNL A   1      33.046  26.017  24.368  1.00  0.00    -0.251 NA
BRANCH   9  14
ATOM     14  S   UNL A   1      30.815  29.290  22.132  1.00  0.00    -0.122 SA
BRANCH  14  15
ATOM     15  C   UNL A   1      29.613  29.828  23.406  1.00  0.00     0.122 C 
BRANCH  15  16
ATOM     16  C   UNL A   1      28.264  30.378  22.918  1.00  0.00     0.208 C 
ATOM     17  O   UNL A   1      28.099  33.737  22.136  1.00  0.00    -0.225 OA
ATOM     18  C   UNL A   1      28.088  32.516  22.164  1.00  0.00     0.407 C 
ATOM     19  N   UNL A   1      28.075  31.714  21.062  1.00  0.00    -0.318 N 
ATOM     20  O   UNL A   1      28.086  31.756  23.295  1.00  0.00    -0.443 OA
ATOM     21  C   UNL A   1      28.043  30.341  21.419  1.00  0.00     0.165 C 
ATOM     22  H   UNL A   1      28.088  32.045  20.135  1.00  0.00     0.167 HD
ENDBRANCH  15  16
ENDBRANCH  14  15
ENDBRANCH   9  14
ENDBRANCH   5   8
ENDBRANCH   3   4
ENDBRANCH   2   3
ENDBRANCH   1   2
BRANCH   1  23
ATOM     23  C   UNL A   1      31.686  30.677  26.378  1.00  0.00     0.002 C 
BRANCH  23  24
ATOM     24  C   UNL A   1      31.501  32.164  26.691  1.00  0.00     0.021 C 
BRANCH  24  25
ATOM     25  C   UNL A   1      32.744  32.826  27.277  1.00  0.00     0.116 C 
BRANCH  25  26
ATOM     26  N   UNL A   1      32.498  34.223  27.596  1.00  0.00    -0.352 N 
ATOM     27  C   UNL A   1      33.007  34.981  28.619  1.00  0.00     0.251 C 
ATOM     28  H   UNL A   1      31.876  34.692  26.992  1.00  0.00     0.163 HD
ATOM     29  O   UNL A   1      32.487  36.049  28.921  1.00  0.00    -0.269 OA
BRANCH  27  30
ATOM     30  C   UNL A   1      34.188  34.495  29.358  1.00  0.00     0.039 A 
ATOM     31  C   UNL A   1      34.015  33.937  30.625  1.00  0.00     0.014 A 
ATOM     32  C   UNL A   1      35.464  34.601  28.797  1.00  0.00     0.014 A 
ATOM     33  C   UNL A   1      35.120  33.426  31.307  1.00  0.00     0.010 A 
ATOM     34  C   UNL A   1      36.551  34.024  29.443  1.00  0.00     0.010 A 
ATOM     35  C   UNL A   1      36.389  33.432  30.704  1.00  0.00    -0.014 A 
BRANCH  35  36
ATOM     36  C   UNL A   1      37.557  32.805  31.368  1.00  0.00     0.031 A 
ATOM     37  C   UNL A   1      38.212  31.595  30.765  1.00  0.00     0.074 A 
ATOM     38  C   UNL A   1      37.979  33.287  32.553  1.00  0.00     0.049 A 
ATOM     39  N   UNL A   1      39.190  30.864  31.236  1.00  0.00    -0.248 NA
ATOM     40  C   UNL A   1      37.681  31.130  29.474  1.00  0.00     0.031 C 
ATOM     41  C   UNL A   1      37.396  34.430  33.257  1.00  0.00     0.029 A 
ATOM     42  N   UNL A   1      38.988  32.867  33.380  1.00  0.00    -0.354 N 
ATOM     43  C   UNL A   1      39.386  29.852  30.305  1.00  0.00     0.074 A 
ATOM     44  C   UNL A   1      38.387  30.028  29.272  1.00  0.00     0.031 C 
ATOM     45  C   UNL A   1      38.072  34.635  34.397  1.00  0.00     0.029 A 
ATOM     46  C   UNL A   1      39.102  33.611  34.530  1.00  0.00     0.049 A 
ATOM     47  H   UNL A   1      39.576  32.105  33.171  1.00  0.00     0.167 HD
ATOM     48  C   UNL A   1      40.327  28.878  30.302  1.00  0.00     0.037 A 
ATOM     49  C   UNL A   1      39.933  33.473  35.579  1.00  0.00     0.037 A 
ATOM     50  C   UNL A   1      41.321  28.714  31.331  1.00  0.00     0.049 A 
ATOM     51  C   UNL A   1      40.941  32.357  35.572  1.00  0.00     0.074 A 
ATOM     52  C   UNL A   1      42.354  27.795  31.393  1.00  0.00     0.029 A 
ATOM     53  N   UNL A   1      41.399  29.482  32.484  1.00  0.00    -0.354 N 
ATOM     54  N   UNL A   1      41.164  31.449  34.652  1.00  0.00    -0.248 NA
ATOM     55  C   UNL A   1      41.811  32.245  36.751  1.00  0.00     0.031 C 
ATOM     56  C   UNL A   1      43.018  27.967  32.612  1.00  0.00     0.029 A 
ATOM     57  C   UNL A   1      42.438  29.032  33.283  1.00  0.00     0.049 A 
ATOM     58  H   UNL A   1      40.804  30.235  32.703  1.00  0.00     0.167 HD
ATOM     59  C   UNL A   1      42.211  30.673  35.129  1.00  0.00     0.074 A 
ATOM     60  C   UNL A   1      42.593  31.230  36.411  1.00  0.00     0.031 C 
ATOM     61  C   UNL A   1      42.801  29.593  34.560  1.00  0.00     0.037 A 
BRANCH  48  62
ATOM     62  C   UNL A   1      40.316  27.908  29.155  1.00  0.00     0.057 A 
ATOM     63  C   UNL A   1      41.115  28.096  28.019  1.00  0.00     0.134 A 
ATOM     64  C   UNL A   1      39.518  26.758  29.197  1.00  0.00     0.134 A 
ATOM     65  F   UNL A   1      41.897  29.181  27.907  1.00  0.00    -0.206 F 
ATOM     66  C   UNL A   1      41.097  27.192  26.954  1.00  0.00     0.040 A 
ATOM     67  C   UNL A   1      39.515  25.831  28.152  1.00  0.00     0.040 A 
ATOM     68  F   UNL A   1      38.732  26.511  30.256  1.00  0.00    -0.206 F 
ATOM     69  C   UNL A   1      40.300  26.051  27.023  1.00  0.00     0.006 A 
ENDBRANCH  48  62
BRANCH  49  70
ATOM     70  C   UNL A   1      39.851  34.419  36.720  1.00  0.00     0.057 A 
ATOM     71  C   UNL A   1      40.540  35.637  36.698  1.00  0.00     0.134 A 
ATOM     72  C   UNL A   1      39.088  34.131  37.859  1.00  0.00     0.134 A 
ATOM     73  F   UNL A   1      41.302  35.963  35.644  1.00  0.00    -0.206 F 
ATOM     74  C   UNL A   1      40.487  36.528  37.772  1.00  0.00     0.040 A 
ATOM     75  C   UNL A   1      39.003  35.024  38.928  1.00  0.00     0.040 A 
ATOM     76  F   UNL A   1      38.398  32.984  37.939  1.00  0.00    -0.206 F 
ATOM     77  C   UNL A   1      39.711  36.224  38.890  1.00  0.00     0.006 A 
ENDBRANCH  49  70
BRANCH  61  78
ATOM     78  C   UNL A   1      43.932  28.954  35.313  1.00  0.00     0.057 A 
ATOM     79  C   UNL A   1      45.265  29.331  35.103  1.00  0.00     0.134 A 
ATOM     80  C   UNL A   1      43.682  27.977  36.286  1.00  0.00     0.134 A 
ATOM     81  F   UNL A   1      45.575  30.249  34.176  1.00  0.00    -0.206 F 
ATOM     82  C   UNL A   1      46.311  28.743  35.818  1.00  0.00     0.040 A 
ATOM     83  C   UNL A   1      44.716  27.405  37.028  1.00  0.00     0.040 A 
ATOM     84  F   UNL A   1      42.429  27.576  36.544  1.00  0.00    -0.206 F 
ATOM     85  C   UNL A   1      46.036  27.783  36.790  1.00  0.00     0.006 A 
ENDBRANCH  61  78
ENDBRANCH  35  36
ENDBRANCH  27  30
ENDBRANCH  25  26
ENDBRANCH  24  25
ENDBRANCH  23  24
ENDBRANCH   1  23
TORSDOF 16
ENDMDL
MODEL 2
REMARK VINA RESULT:     -11.1      5.311     10.126
REMARK SMILES O=C1NC[C@@H](CSc2ccnc(C(=O)NCCCCCCNC(=O)c3ccc(-c4c5nc(c(-c6c(F)cccc6F)c6ccc([nH]6)c(-c6c(F)cccc6F)c6nc(c(-c7c(F)cccc7F)c7ccc4[nH]7)C=C6)C=C5)cc3)c2)O1
REMARK SMILES IDX 18 1 17 2 16 3 15 4 13 5 14 6 12 8 8 9 9 10 79 11 10 12
REMARK SMILES IDX 11 13 7 14 6 15 5 16 1 17 2 18 3 19 80 20 4 21 19 23 20 24
REMARK SMILES IDX 21 25 22 26 23 27 24 29 25 30 26 31 78 32 27 33 77 34 28 35
REMARK SMILES IDX 29 36 30 37 71 38 31 39 76 40 70 41 72 42 32 43 75 44 69 45
REMARK SMILES IDX 68 46 33 48 59 49 42 50 58 51 43 52 46 53 57 54 73 55 44 56
REMARK SMILES IDX 45 57 56 59 74 60 47 61 34 62 35 63 40 64 36 65 37 66 39 67
REMARK SMILES IDX 41 68 38 69 60 70 61 71 66 72 62 73 63 74 65 75 67 76 64 77
REMARK SMILES IDX 48 78 49 79 54 80 50 81 51 82 53 83 55 84 52 85
REMARK H PARENT 15 7 3 22 22 28 72 47 46 58
REMARK Flexibility Score: inf
ROOT
ATOM      1  C   UNL A   1      37.272  22.549  25.320  1.00  0.00     0.002 C 
ENDROOT
BRANCH   1   2
ATOM      2  C   UNL A   1      36.331  23.697  24.928  1.00  0.00     0.021 C 
BRANCH   2   3
ATOM      3  C   UNL A   1      34.879  23.239  24.783  1.00  0.00     0.116 C 
BRANCH   3   4
ATOM      4  N   UNL A   1      34.498  23.332  23.389  1.00  0.00    -0.351 N 
ATOM      5  C   UNL A   1      33.496  24.008  22.732  1.00  0.00     0.269 C 
ATOM      6  O   UNL A   1      33.347  23.750  21.537  1.00  0.00    -0.268 OA
ATOM      7  H   UNL A   1      35.070  22.801  22.790  1.00  0.00     0.163 HD
BRANCH   5   8
ATOM      8  C   UNL A   1      32.677  25.089  23.378  1.00  0.00     0.129 A 
ATOM      9  C   UNL A   1      31.751  27.285  23.483  1.00  0.00     0.011 A 
ATOM     10  C   UNL A   1      30.732  26.782  24.286  1.00  0.00     0.035 A 
ATOM     11  C   UNL A   1      32.771  26.435  23.059  1.00  0.00     0.049 A 
ATOM     12  C   UNL A   1      30.806  25.466  24.691  1.00  0.00     0.113 A 
ATOM     13  N   UNL A   1      31.744  24.615  24.246  1.00  0.00    -0.251 NA
BRANCH   9  14
ATOM     14  S   UNL A   1      31.625  28.937  22.834  1.00  0.00    -0.122 SA
BRANCH  14  15
ATOM     15  C   UNL A   1      30.294  29.665  23.861  1.00  0.00     0.122 C 
BRANCH  15  16
ATOM     16  C   UNL A   1      29.048  30.193  23.134  1.00  0.00     0.208 C 
ATOM     17  O   UNL A   1      28.621  33.616  22.983  1.00  0.00    -0.225 OA
ATOM     18  C   UNL A   1      28.773  32.423  22.777  1.00  0.00     0.407 C 
ATOM     19  N   UNL A   1      29.150  31.882  21.584  1.00  0.00    -0.318 N 
ATOM     20  O   UNL A   1      28.592  31.436  23.699  1.00  0.00    -0.443 OA
ATOM     21  C   UNL A   1      29.219  30.466  21.653  1.00  0.00     0.165 C 
ATOM     22  H   UNL A   1      29.349  32.408  20.775  1.00  0.00     0.167 HD
ENDBRANCH  15  16
ENDBRANCH  14  15
ENDBRANCH   9  14
ENDBRANCH   5   8
ENDBRANCH   3   4
ENDBRANCH   2   3
ENDBRANCH   1   2
BRANCH   1  23
ATOM     23  C   UNL A   1      37.182  21.321  24.405  1.00  0.00     0.002 C 
BRANCH  23  24
ATOM     24  C   UNL A   1      37.835  20.059  24.974  1.00  0.00     0.021 C 
BRANCH  24  25
ATOM     25  C   UNL A   1      38.918  20.345  26.009  1.00  0.00     0.116 C 
BRANCH  25  26
ATOM     26  N   UNL A   1      39.923  19.293  26.025  1.00  0.00    -0.352 N 
ATOM     27  C   UNL A   1      41.290  19.402  26.042  1.00  0.00     0.251 C 
ATOM     28  H   UNL A   1      39.572  18.372  26.023  1.00  0.00     0.163 HD
ATOM     29  O   UNL A   1      41.995  18.438  25.766  1.00  0.00    -0.269 OA
BRANCH  27  30
ATOM     30  C   UNL A   1      41.907  20.695  26.394  1.00  0.00     0.039 A 
ATOM     31  C   UNL A   1      42.223  21.597  25.377  1.00  0.00     0.014 A 
ATOM     32  C   UNL A   1      42.177  21.008  27.730  1.00  0.00     0.014 A 
ATOM     33  C   UNL A   1      42.756  22.843  25.706  1.00  0.00     0.010 A 
ATOM     34  C   UNL A   1      42.636  22.277  28.061  1.00  0.00     0.010 A 
ATOM     35  C   UNL A   1      42.930  23.206  27.052  1.00  0.00    -0.014 A 
BRANCH  35  36
ATOM     36  C   UNL A   1      43.401  24.561  27.428  1.00  0.00     0.031 A 
ATOM     37  C   UNL A   1      42.418  25.613  27.854  1.00  0.00     0.074 A 
ATOM     38  C   UNL A   1      44.709  24.860  27.312  1.00  0.00     0.049 A 
ATOM     39  N   UNL A   1      42.628  26.872  28.144  1.00  0.00    -0.248 NA
ATOM     40  C   UNL A   1      41.008  25.203  27.944  1.00  0.00     0.031 C 
ATOM     41  C   UNL A   1      45.752  23.933  26.868  1.00  0.00     0.029 A 
ATOM     42  N   UNL A   1      45.382  26.031  27.546  1.00  0.00    -0.354 N 
ATOM     43  C   UNL A   1      41.381  27.404  28.441  1.00  0.00     0.074 A 
ATOM     44  C   UNL A   1      40.412  26.348  28.241  1.00  0.00     0.031 C 
ATOM     45  C   UNL A   1      46.936  24.565  26.885  1.00  0.00     0.029 A 
ATOM     46  C   UNL A   1      46.731  25.950  27.293  1.00  0.00     0.049 A 
ATOM     47  H   UNL A   1      44.943  26.852  27.867  1.00  0.00     0.167 HD
ATOM     48  C   UNL A   1      41.074  28.654  28.864  1.00  0.00     0.037 A 
ATOM     49  C   UNL A   1      47.690  26.891  27.365  1.00  0.00     0.037 A 
ATOM     50  C   UNL A   1      42.046  29.696  29.068  1.00  0.00     0.049 A 
ATOM     51  C   UNL A   1      47.317  28.283  27.795  1.00  0.00     0.074 A 
ATOM     52  C   UNL A   1      41.846  30.979  29.548  1.00  0.00     0.029 A 
ATOM     53  N   UNL A   1      43.401  29.580  28.791  1.00  0.00    -0.354 N 
ATOM     54  N   UNL A   1      46.144  28.755  28.144  1.00  0.00    -0.248 NA
ATOM     55  C   UNL A   1      48.402  29.273  27.841  1.00  0.00     0.031 C 
ATOM     56  C   UNL A   1      43.069  31.657  29.505  1.00  0.00     0.029 A 
ATOM     57  C   UNL A   1      44.043  30.780  29.054  1.00  0.00     0.049 A 
ATOM     58  H   UNL A   1      43.841  28.765  28.459  1.00  0.00     0.167 HD
ATOM     59  C   UNL A   1      46.352  30.088  28.470  1.00  0.00     0.074 A 
ATOM     60  C   UNL A   1      47.768  30.344  28.298  1.00  0.00     0.031 C 
ATOM     61  C   UNL A   1      45.452  31.020  28.871  1.00  0.00     0.037 A 
BRANCH  48  62
ATOM     62  C   UNL A   1      39.627  28.962  29.124  1.00  0.00     0.057 A 
ATOM     63  C   UNL A   1      38.778  29.439  28.115  1.00  0.00     0.134 A 
ATOM     64  C   UNL A   1      39.067  28.756  30.390  1.00  0.00     0.134 A 
ATOM     65  F   UNL A   1      39.251  29.670  26.880  1.00  0.00    -0.206 F 
ATOM     66  C   UNL A   1      37.435  29.728  28.364  1.00  0.00     0.040 A 
ATOM     67  C   UNL A   1      37.718  29.011  30.644  1.00  0.00     0.040 A 
ATOM     68  F   UNL A   1      39.819  28.296  31.402  1.00  0.00    -0.206 F 
ATOM     69  C   UNL A   1      36.899  29.507  29.632  1.00  0.00     0.006 A 
ENDBRANCH  48  62
BRANCH  49  70
ATOM     70  C   UNL A   1      49.094  26.548  27.028  1.00  0.00     0.057 A 
ATOM     71  C   UNL A   1      50.018  26.226  28.028  1.00  0.00     0.134 A 
ATOM     72  C   UNL A   1      49.548  26.534  25.703  1.00  0.00     0.134 A 
ATOM     73  F   UNL A   1      49.649  26.238  29.317  1.00  0.00    -0.206 F 
ATOM     74  C   UNL A   1      51.346  25.919  27.726  1.00  0.00     0.040 A 
ATOM     75  C   UNL A   1      50.865  26.202  25.384  1.00  0.00     0.040 A 
ATOM     76  F   UNL A   1      48.710  26.825  24.697  1.00  0.00    -0.206 F 
ATOM     77  C   UNL A   1      51.771  25.902  26.399  1.00  0.00     0.006 A 
ENDBRANCH  49  70
BRANCH  61  78
ATOM     78  C   UNL A   1      45.975  32.396  29.167  1.00  0.00     0.057 A 
ATOM     79  C   UNL A   1      45.992  33.404  28.193  1.00  0.00     0.134 A 
ATOM     80  C   UNL A   1      46.431  32.728  30.449  1.00  0.00     0.134 A 
ATOM     81  F   UNL A   1      45.583  33.148  26.941  1.00  0.00    -0.206 F 
ATOM     82  C   UNL A   1      46.466  34.686  28.479  1.00  0.00     0.040 A 
ATOM     83  C   UNL A   1      46.878  34.014  30.754  1.00  0.00     0.040 A 
ATOM     84  F   UNL A   1      46.433  31.814  31.430  1.00  0.00    -0.206 F 
ATOM     85  C   UNL A   1      46.903  34.996  29.766  1.00  0.00     0.006 A 
ENDBRANCH  61  78
ENDBRANCH  35  36
ENDBRANCH  27  30
ENDBRANCH  25  26
ENDBRANCH  24  25
ENDBRANCH  23  24
ENDBRANCH   1  23
TORSDOF 16
ENDMDL
MODEL 3
REMARK VINA RESULT:     -11.0      6.118     11.184
REMARK SMILES O=C1NC[C@@H](CSc2ccnc(C(=O)NCCCCCCNC(=O)c3ccc(-c4c5nc(c(-c6c(F)cccc6F)c6ccc([nH]6)c(-c6c(F)cccc6F)c6nc(c(-c7c(F)cccc7F)c7ccc4[nH]7)C=C6)C=C5)cc3)c2)O1
REMARK SMILES IDX 18 1 17 2 16 3 15 4 13 5 14 6 12 8 8 9 9 10 79 11 10 12
REMARK SMILES IDX 11 13 7 14 6 15 5 16 1 17 2 18 3 19 80 20 4 21 19 23 20 24
REMARK SMILES IDX 21 25 22 26 23 27 24 29 25 30 26 31 78 32 27 33 77 34 28 35
REMARK SMILES IDX 29 36 30 37 71 38 31 39 76 40 70 41 72 42 32 43 75 44 69 45
REMARK SMILES IDX 68 46 33 48 59 49 42 50 58 51 43 52 46 53 57 54 73 55 44 56
REMARK SMILES IDX 45 57 56 59 74 60 47 61 34 62 35 63 40 64 36 65 37 66 39 67
REMARK SMILES IDX 41 68 38 69 60 70 61 71 66 72 62 73 63 74 65 75 67 76 64 77
REMARK SMILES IDX 48 78 49 79 54 80 50 81 51 82 53 83 55 84 52 85
REMARK H PARENT 15 7 3 22 22 28 72 47 46 58
REMARK Flexibility Score: inf
ROOT
ATOM      1  C   UNL A   1      36.352  21.984  25.801  1.00  0.00     0.002 C 
ENDROOT
BRANCH   1   2
ATOM      2  C   UNL A   1      36.544  23.250  24.955  1.00  0.00     0.021 C 
BRANCH   2   3
ATOM      3  C   UNL A   1      35.592  24.375  25.363  1.00  0.00     0.116 C 
BRANCH   3   4
ATOM      4  N   UNL A   1      34.917  24.867  24.180  1.00  0.00    -0.351 N 
ATOM      5  C   UNL A   1      33.902  24.365  23.400  1.00  0.00     0.269 C 
ATOM      6  O   UNL A   1      33.657  24.969  22.355  1.00  0.00    -0.268 OA
ATOM      7  H   UNL A   1      35.255  25.738  23.869  1.00  0.00     0.163 HD
BRANCH   5   8
ATOM      8  C   UNL A   1      33.044  23.205  23.818  1.00  0.00     0.129 A 
ATOM      9  C   UNL A   1      32.400  20.909  23.781  1.00  0.00     0.011 A 
ATOM     10  C   UNL A   1      31.845  21.077  25.045  1.00  0.00     0.035 A 
ATOM     11  C   UNL A   1      32.968  22.003  23.132  1.00  0.00     0.049 A 
ATOM     12  C   UNL A   1      31.817  22.345  25.585  1.00  0.00     0.113 A 
ATOM     13  N   UNL A   1      32.412  23.401  25.005  1.00  0.00    -0.251 NA
BRANCH   9  14
ATOM     14  S   UNL A   1      32.573  19.270  23.106  1.00  0.00    -0.122 SA
BRANCH  14  15
ATOM     15  C   UNL A   1      32.157  18.207  24.540  1.00  0.00     0.122 C 
BRANCH  15  16
ATOM     16  C   UNL A   1      33.322  17.571  25.311  1.00  0.00     0.208 C 
ATOM     17  O   UNL A   1      33.387  14.126  25.545  1.00  0.00    -0.225 OA
ATOM     18  C   UNL A   1      33.594  15.312  25.344  1.00  0.00     0.407 C 
ATOM     19  N   UNL A   1      34.529  15.803  24.482  1.00  0.00    -0.318 N 
ATOM     20  O   UNL A   1      32.929  16.339  25.944  1.00  0.00    -0.443 OA
ATOM     21  C   UNL A   1      34.543  17.222  24.483  1.00  0.00     0.165 C 
ATOM     22  H   UNL A   1      35.119  15.243  23.927  1.00  0.00     0.167 HD
ENDBRANCH  15  16
ENDBRANCH  14  15
ENDBRANCH   9  14
ENDBRANCH   5   8
ENDBRANCH   3   4
ENDBRANCH   2   3
ENDBRANCH   1   2
BRANCH   1  23
ATOM     23  C   UNL A   1      36.305  20.684  24.988  1.00  0.00     0.002 C 
BRANCH  23  24
ATOM     24  C   UNL A   1      37.677  20.069  24.699  1.00  0.00     0.021 C 
BRANCH  24  25
ATOM     25  C   UNL A   1      38.730  20.401  25.750  1.00  0.00     0.116 C 
BRANCH  25  26
ATOM     26  N   UNL A   1      39.696  19.323  25.889  1.00  0.00    -0.352 N 
ATOM     27  C   UNL A   1      41.054  19.394  26.065  1.00  0.00     0.251 C 
ATOM     28  H   UNL A   1      39.323  18.412  25.849  1.00  0.00     0.163 HD
ATOM     29  O   UNL A   1      41.759  18.409  25.878  1.00  0.00    -0.269 OA
BRANCH  27  30
ATOM     30  C   UNL A   1      41.662  20.673  26.482  1.00  0.00     0.039 A 
ATOM     31  C   UNL A   1      42.123  21.556  25.504  1.00  0.00     0.014 A 
ATOM     32  C   UNL A   1      41.780  20.990  27.838  1.00  0.00     0.014 A 
ATOM     33  C   UNL A   1      42.649  22.790  25.888  1.00  0.00     0.010 A 
ATOM     34  C   UNL A   1      42.234  22.248  28.215  1.00  0.00     0.010 A 
ATOM     35  C   UNL A   1      42.672  23.160  27.243  1.00  0.00    -0.014 A 
BRANCH  35  36
ATOM     36  C   UNL A   1      43.134  24.504  27.665  1.00  0.00     0.031 A 
ATOM     37  C   UNL A   1      42.138  25.562  28.046  1.00  0.00     0.074 A 
ATOM     38  C   UNL A   1      44.449  24.789  27.632  1.00  0.00     0.049 A 
ATOM     39  N   UNL A   1      42.344  26.814  28.365  1.00  0.00    -0.248 NA
ATOM     40  C   UNL A   1      40.721  25.167  28.045  1.00  0.00     0.031 C 
ATOM     41  C   UNL A   1      45.507  23.857  27.240  1.00  0.00     0.029 A 
ATOM     42  N   UNL A   1      45.120  25.950  27.922  1.00  0.00    -0.354 N 
ATOM     43  C   UNL A   1      41.086  27.357  28.594  1.00  0.00     0.074 A 
ATOM     44  C   UNL A   1      40.120  26.315  28.321  1.00  0.00     0.031 C 
ATOM     45  C   UNL A   1      46.695  24.474  27.336  1.00  0.00     0.029 A 
ATOM     46  C   UNL A   1      46.480  25.856  27.750  1.00  0.00     0.049 A 
ATOM     47  H   UNL A   1      44.670  26.772  28.227  1.00  0.00     0.167 HD
ATOM     48  C   UNL A   1      40.768  28.604  29.014  1.00  0.00     0.037 A 
ATOM     49  C   UNL A   1      47.443  26.786  27.892  1.00  0.00     0.037 A 
ATOM     50  C   UNL A   1      41.737  29.633  29.290  1.00  0.00     0.049 A 
ATOM     51  C   UNL A   1      47.060  28.176  28.318  1.00  0.00     0.074 A 
ATOM     52  C   UNL A   1      41.522  30.912  29.776  1.00  0.00     0.029 A 
ATOM     53  N   UNL A   1      43.105  29.504  29.094  1.00  0.00    -0.354 N 
ATOM     54  N   UNL A   1      45.873  28.657  28.602  1.00  0.00    -0.248 NA
ATOM     55  C   UNL A   1      48.150  29.153  28.443  1.00  0.00     0.031 C 
ATOM     56  C   UNL A   1      42.753  31.575  29.815  1.00  0.00     0.029 A 
ATOM     57  C   UNL A   1      43.742  30.693  29.412  1.00  0.00     0.049 A 
ATOM     58  H   UNL A   1      43.556  28.689  28.778  1.00  0.00     0.167 HD
ATOM     59  C   UNL A   1      46.075  29.983  28.958  1.00  0.00     0.074 A 
ATOM     60  C   UNL A   1      47.502  30.225  28.876  1.00  0.00     0.031 C 
ATOM     61  C   UNL A   1      45.162  30.920  29.317  1.00  0.00     0.037 A 
BRANCH  48  62
ATOM     62  C   UNL A   1      39.311  28.926  29.191  1.00  0.00     0.057 A 
ATOM     63  C   UNL A   1      38.528  29.418  28.137  1.00  0.00     0.134 A 
ATOM     64  C   UNL A   1      38.675  28.716  30.420  1.00  0.00     0.134 A 
ATOM     65  F   UNL A   1      39.075  29.653  26.934  1.00  0.00    -0.206 F 
ATOM     66  C   UNL A   1      37.175  29.720  28.309  1.00  0.00     0.040 A 
ATOM     67  C   UNL A   1      37.316  28.984  30.596  1.00  0.00     0.040 A 
ATOM     68  F   UNL A   1      39.362  28.241  31.471  1.00  0.00    -0.206 F 
ATOM     69  C   UNL A   1      36.564  29.495  29.541  1.00  0.00     0.006 A 
ENDBRANCH  48  62
BRANCH  49  70
ATOM     70  C   UNL A   1      48.861  26.431  27.635  1.00  0.00     0.057 A 
ATOM     71  C   UNL A   1      49.687  25.968  28.666  1.00  0.00     0.134 A 
ATOM     72  C   UNL A   1      49.427  26.545  26.359  1.00  0.00     0.134 A 
ATOM     73  F   UNL A   1      49.209  25.853  29.914  1.00  0.00    -0.206 F 
ATOM     74  C   UNL A   1      51.027  25.648  28.443  1.00  0.00     0.040 A 
ATOM     75  C   UNL A   1      50.757  26.203  26.115  1.00  0.00     0.040 A 
ATOM     76  F   UNL A   1      48.686  26.974  25.327  1.00  0.00    -0.206 F 
ATOM     77  C   UNL A   1      51.564  25.761  27.161  1.00  0.00     0.006 A 
ENDBRANCH  49  70
BRANCH  61  78
ATOM     78  C   UNL A   1      45.681  32.286  29.663  1.00  0.00     0.057 A 
ATOM     79  C   UNL A   1      46.116  32.605  30.956  1.00  0.00     0.134 A 
ATOM     80  C   UNL A   1      45.784  33.281  28.682  1.00  0.00     0.134 A 
ATOM     81  F   UNL A   1      46.032  31.702  31.945  1.00  0.00    -0.206 F 
ATOM     82  C   UNL A   1      46.612  33.873  31.267  1.00  0.00     0.040 A 
ATOM     83  C   UNL A   1      46.306  34.542  28.974  1.00  0.00     0.040 A 
ATOM     84  F   UNL A   1      45.394  33.040  27.422  1.00  0.00    -0.206 F 
ATOM     85  C   UNL A   1      46.715  34.843  30.271  1.00  0.00     0.006 A 
ENDBRANCH  61  78
ENDBRANCH  35  36
ENDBRANCH  27  30
ENDBRANCH  25  26
ENDBRANCH  24  25
ENDBRANCH  23  24
ENDBRANCH   1  23
TORSDOF 16
ENDMDL
