MODEL 1
REMARK VINA RESULT:     -11.6      0.000      0.000
REMARK SMILES Cc1cc(Br)c(C)c([C@@H]2[NH2+][C@H](C(=O)NCCCCCCNC(=O)c3ccc(-c4c5nc(c(-c6c(F)cccc6F)c6ccc([nH]6)c(-c6c(F)cccc6F)c6nc(c(-c7c(F)cccc7F)c7ccc4[nH]7)C=C6)C=C5)cc3)CS2)c1O
REMARK SMILES IDX 17 1 16 2 15 3 14 4 12 5 13 6 11 8 9 9 10 10 79 11 78 14
REMARK SMILES IDX 8 15 1 16 2 17 3 18 80 19 4 20 5 21 6 22 7 23 81 24 18 26
REMARK SMILES IDX 19 27 20 28 21 29 22 30 23 32 24 33 25 34 77 35 26 36 76 37
REMARK SMILES IDX 27 38 28 39 29 40 70 41 30 42 75 43 69 44 71 45 31 46 74 47
REMARK SMILES IDX 68 48 67 49 32 51 58 52 41 53 57 54 42 55 45 56 56 57 72 58
REMARK SMILES IDX 43 59 44 60 55 62 73 63 46 64 33 65 34 66 39 67 35 68 36 69
REMARK SMILES IDX 38 70 40 71 37 72 59 73 60 74 65 75 61 76 62 77 64 78 66 79
REMARK SMILES IDX 63 80 47 81 48 82 53 83 49 84 50 85 52 86 54 87 51 88
REMARK H PARENT 14 7 10 12 10 13 81 25 21 31 71 50 45 61
REMARK Flexibility Score: inf
ROOT
ATOM      1  C   UNL A   1      32.488  28.992  26.840  1.00  0.00     0.002 C 
ENDROOT
BRANCH   1   2
ATOM      2  C   UNL A   1      32.887  27.782  25.983  1.00  0.00     0.021 C 
BRANCH   2   3
ATOM      3  C   UNL A   1      32.936  28.011  24.470  1.00  0.00     0.116 C 
BRANCH   3   4
ATOM      4  N   UNL A   1      33.609  26.986  23.682  1.00  0.00    -0.351 N 
ATOM      5  C   UNL A   1      33.161  26.021  22.826  1.00  0.00     0.279 C 
ATOM      6  O   UNL A   1      34.004  25.684  21.978  1.00  0.00    -0.268 OA
ATOM      7  H   UNL A   1      34.587  26.989  23.789  1.00  0.00     0.163 HD
BRANCH   5   8
ATOM      8  C   UNL A   1      31.814  25.251  22.886  1.00  0.00     0.283 C 
ATOM      9  C   UNL A   1      31.919  22.994  23.820  1.00  0.00     0.278 C 
ATOM     10  N   UNL A   1      31.973  23.801  22.595  1.00  0.00    -0.320 N 
ATOM     11  S   UNL A   1      31.113  24.009  25.107  1.00  0.00    -0.087 SA
ATOM     12  H   UNL A   1      31.224  23.505  21.970  1.00  0.00     0.348 HD
ATOM     13  H   UNL A   1      32.886  23.662  22.161  1.00  0.00     0.348 HD
ATOM     14  C   UNL A   1      30.861  25.438  24.039  1.00  0.00     0.151 C 
BRANCH   9  15
ATOM     15  C   UNL A   1      33.226  22.324  24.281  1.00  0.00     0.066 A 
ATOM     16  C   UNL A   1      36.551  23.369  25.906  1.00  0.00     0.048 C 
ATOM     17  C   UNL A   1      35.501  22.499  25.274  1.00  0.00    -0.008 A 
ATOM     18  C   UNL A   1      35.651  21.122  25.207  1.00  0.00     0.023 A 
ATOM     19  C   UNL A   1      34.312  23.066  24.798  1.00  0.00     0.128 A 
ATOM     20  C   UNL A   1      34.622  20.335  24.682  1.00  0.00     0.021 A 
ATOM     21  Br  UNL A   1      34.947  18.456  24.675  1.00  0.00    -0.051 Br
ATOM     22  C   UNL A   1      33.408  20.905  24.211  1.00  0.00    -0.023 A 
ATOM     23  C   UNL A   1      32.333  19.972  23.696  1.00  0.00     0.046 C 
BRANCH  19  24
ATOM     24  O   UNL A   1      34.278  24.424  24.871  1.00  0.00    -0.507 OA
ATOM     25  H   UNL A   1      33.454  24.870  24.902  1.00  0.00     0.293 HD
ENDBRANCH  19  24
ENDBRANCH   9  15
ENDBRANCH   5   8
ENDBRANCH   3   4
ENDBRANCH   2   3
ENDBRANCH   1   2
BRANCH   1  26
ATOM     26  C   UNL A   1      32.041  30.239  26.059  1.00  0.00     0.002 C 
BRANCH  26  27
ATOM     27  C   UNL A   1      31.715  31.486  26.892  1.00  0.00     0.021 C 
BRANCH  27  28
ATOM     28  C   UNL A   1      32.912  32.349  27.292  1.00  0.00     0.116 C 
BRANCH  28  29
ATOM     29  N   UNL A   1      32.548  33.734  27.566  1.00  0.00    -0.352 N 
ATOM     30  C   UNL A   1      33.069  34.627  28.486  1.00  0.00     0.251 C 
ATOM     31  H   UNL A   1      31.818  34.089  27.009  1.00  0.00     0.163 HD
ATOM     32  O   UNL A   1      32.530  35.700  28.686  1.00  0.00    -0.269 OA
BRANCH  30  33
ATOM     33  C   UNL A   1      34.275  34.249  29.257  1.00  0.00     0.039 A 
ATOM     34  C   UNL A   1      35.545  34.536  28.758  1.00  0.00     0.014 A 
ATOM     35  C   UNL A   1      34.136  33.566  30.470  1.00  0.00     0.014 A 
ATOM     36  C   UNL A   1      36.658  33.952  29.349  1.00  0.00     0.010 A 
ATOM     37  C   UNL A   1      35.271  33.059  31.115  1.00  0.00     0.010 A 
ATOM     38  C   UNL A   1      36.537  33.186  30.522  1.00  0.00    -0.014 A 
BRANCH  38  39
ATOM     39  C   UNL A   1      37.741  32.492  31.059  1.00  0.00     0.031 A 
ATOM     40  C   UNL A   1      38.244  32.781  32.451  1.00  0.00     0.074 A 
ATOM     41  C   UNL A   1      38.321  31.517  30.329  1.00  0.00     0.049 A 
ATOM     42  N   UNL A   1      39.218  32.204  33.113  1.00  0.00    -0.248 NA
ATOM     43  C   UNL A   1      37.575  33.857  33.200  1.00  0.00     0.031 C 
ATOM     44  C   UNL A   1      37.923  31.135  28.974  1.00  0.00     0.029 A 
ATOM     45  N   UNL A   1      39.333  30.643  30.638  1.00  0.00    -0.354 N 
ATOM     46  C   UNL A   1      39.285  32.853  34.341  1.00  0.00     0.074 A 
ATOM     47  C   UNL A   1      38.281  33.893  34.322  1.00  0.00     0.031 C 
ATOM     48  C   UNL A   1      38.627  30.057  28.597  1.00  0.00     0.029 A 
ATOM     49  C   UNL A   1      39.571  29.711  29.655  1.00  0.00     0.049 A 
ATOM     50  H   UNL A   1      39.839  30.678  31.482  1.00  0.00     0.167 HD
ATOM     51  C   UNL A   1      40.094  32.592  35.396  1.00  0.00     0.037 A 
ATOM     52  C   UNL A   1      40.452  28.694  29.604  1.00  0.00     0.037 A 
ATOM     53  C   UNL A   1      41.069  31.534  35.429  1.00  0.00     0.049 A 
ATOM     54  C   UNL A   1      41.372  28.460  30.768  1.00  0.00     0.074 A 
ATOM     55  C   UNL A   1      41.904  31.168  36.471  1.00  0.00     0.029 A 
ATOM     56  N   UNL A   1      41.337  30.672  34.378  1.00  0.00    -0.354 N 
ATOM     57  N   UNL A   1      41.402  29.066  31.929  1.00  0.00    -0.248 NA
ATOM     58  C   UNL A   1      42.391  27.413  30.609  1.00  0.00     0.031 C 
ATOM     59  C   UNL A   1      42.711  30.114  36.033  1.00  0.00     0.029 A 
ATOM     60  C   UNL A   1      42.350  29.797  34.734  1.00  0.00     0.049 A 
ATOM     61  H   UNL A   1      40.876  30.680  33.508  1.00  0.00     0.167 HD
ATOM     62  C   UNL A   1      42.443  28.479  32.637  1.00  0.00     0.074 A 
ATOM     63  C   UNL A   1      42.998  27.447  31.787  1.00  0.00     0.031 C 
ATOM     64  C   UNL A   1      42.901  28.780  33.875  1.00  0.00     0.037 A 
BRANCH  51  65
ATOM     65  C   UNL A   1      39.965  33.463  36.613  1.00  0.00     0.057 A 
ATOM     66  C   UNL A   1      40.717  34.636  36.765  1.00  0.00     0.134 A 
ATOM     67  C   UNL A   1      39.023  33.167  37.608  1.00  0.00     0.134 A 
ATOM     68  F   UNL A   1      41.640  34.973  35.853  1.00  0.00    -0.206 F 
ATOM     69  C   UNL A   1      40.547  35.474  37.869  1.00  0.00     0.040 A 
ATOM     70  C   UNL A   1      38.828  34.009  38.703  1.00  0.00     0.040 A 
ATOM     71  F   UNL A   1      38.262  32.066  37.519  1.00  0.00    -0.206 F 
ATOM     72  C   UNL A   1      39.593  35.166  38.838  1.00  0.00     0.006 A 
ENDBRANCH  51  65
BRANCH  52  73
ATOM     73  C   UNL A   1      40.505  27.827  28.400  1.00  0.00     0.057 A 
ATOM     74  C   UNL A   1      41.259  28.189  27.279  1.00  0.00     0.134 A 
ATOM     75  C   UNL A   1      39.825  26.603  28.352  1.00  0.00     0.134 A 
ATOM     76  F   UNL A   1      41.916  29.359  27.256  1.00  0.00    -0.206 F 
ATOM     77  C   UNL A   1      41.337  27.367  26.154  1.00  0.00     0.040 A 
ATOM     78  C   UNL A   1      39.915  25.758  27.245  1.00  0.00     0.040 A 
ATOM     79  F   UNL A   1      39.086  26.197  29.395  1.00  0.00    -0.206 F 
ATOM     80  C   UNL A   1      40.671  26.142  26.139  1.00  0.00     0.006 A 
ENDBRANCH  52  73
BRANCH  64  81
ATOM     81  C   UNL A   1      44.076  28.002  34.388  1.00  0.00     0.057 A 
ATOM     82  C   UNL A   1      45.378  28.506  34.291  1.00  0.00     0.134 A 
ATOM     83  C   UNL A   1      43.897  26.788  35.064  1.00  0.00     0.134 A 
ATOM     84  F   UNL A   1      45.615  29.658  33.646  1.00  0.00    -0.206 F 
ATOM     85  C   UNL A   1      46.464  27.828  34.845  1.00  0.00     0.040 A 
ATOM     86  C   UNL A   1      44.972  26.112  35.643  1.00  0.00     0.040 A 
ATOM     87  F   UNL A   1      42.673  26.257  35.200  1.00  0.00    -0.206 F 
ATOM     88  C   UNL A   1      46.261  26.632  35.534  1.00  0.00     0.006 A 
ENDBRANCH  64  81
ENDBRANCH  38  39
ENDBRANCH  30  33
ENDBRANCH  28  29
ENDBRANCH  27  28
ENDBRANCH  26  27
ENDBRANCH   1  26
TORSDOF 15
ENDMDL
MODEL 2
REMARK VINA RESULT:     -11.5      0.870      6.353
REMARK SMILES Cc1cc(Br)c(C)c([C@@H]2[NH2+][C@H](C(=O)NCCCCCCNC(=O)c3ccc(-c4c5nc(c(-c6c(F)cccc6F)c6ccc([nH]6)c(-c6c(F)cccc6F)c6nc(c(-c7c(F)cccc7F)c7ccc4[nH]7)C=C6)C=C5)cc3)CS2)c1O
REMARK SMILES IDX 17 1 16 2 15 3 14 4 12 5 13 6 11 8 9 9 10 10 79 11 78 14
REMARK SMILES IDX 8 15 1 16 2 17 3 18 80 19 4 20 5 21 6 22 7 23 81 24 18 26
REMARK SMILES IDX 19 27 20 28 21 29 22 30 23 32 24 33 25 34 77 35 26 36 76 37
REMARK SMILES IDX 27 38 28 39 29 40 70 41 30 42 75 43 69 44 71 45 31 46 74 47
REMARK SMILES IDX 68 48 67 49 32 51 58 52 41 53 57 54 42 55 45 56 56 57 72 58
REMARK SMILES IDX 43 59 44 60 55 62 73 63 46 64 33 65 34 66 39 67 35 68 36 69
REMARK SMILES IDX 38 70 40 71 37 72 59 73 60 74 65 75 61 76 62 77 64 78 66 79
REMARK SMILES IDX 63 80 47 81 48 82 53 83 49 84 50 85 52 86 54 87 51 88
REMARK H PARENT 14 7 10 12 10 13 81 25 21 31 71 50 45 61
REMARK Flexibility Score: inf
ROOT
ATOM      1  C   UNL A   1      33.317  29.905  26.441  1.00  0.00     0.002 C 
ENDROOT
BRANCH   1   2
ATOM      2  C   UNL A   1      33.447  28.559  25.713  1.00  0.00     0.021 C 
BRANCH   2   3
ATOM      3  C   UNL A   1      33.233  28.585  24.198  1.00  0.00     0.116 C 
BRANCH   3   4
ATOM      4  N   UNL A   1      33.775  27.460  23.448  1.00  0.00    -0.351 N 
ATOM      5  C   UNL A   1      33.200  26.441  22.744  1.00  0.00     0.279 C 
ATOM      6  O   UNL A   1      33.932  25.986  21.848  1.00  0.00    -0.268 OA
ATOM      7  H   UNL A   1      34.759  27.426  23.449  1.00  0.00     0.163 HD
BRANCH   5   8
ATOM      8  C   UNL A   1      31.841  25.745  23.022  1.00  0.00     0.283 C 
ATOM      9  C   UNL A   1      31.970  23.528  24.045  1.00  0.00     0.278 C 
ATOM     10  N   UNL A   1      31.893  24.278  22.785  1.00  0.00    -0.320 N 
ATOM     11  S   UNL A   1      31.394  24.638  25.377  1.00  0.00    -0.087 SA
ATOM     12  H   UNL A   1      31.053  23.994  22.282  1.00  0.00     0.348 HD
ATOM     13  H   UNL A   1      32.730  24.072  22.240  1.00  0.00     0.348 HD
ATOM     14  C   UNL A   1      31.064  26.031  24.282  1.00  0.00     0.151 C 
BRANCH   9  15
ATOM     15  C   UNL A   1      33.296  22.811  24.359  1.00  0.00     0.066 A 
ATOM     16  C   UNL A   1      36.846  23.749  25.502  1.00  0.00     0.048 C 
ATOM     17  C   UNL A   1      35.686  22.910  25.044  1.00  0.00    -0.008 A 
ATOM     18  C   UNL A   1      35.767  21.527  25.011  1.00  0.00     0.023 A 
ATOM     19  C   UNL A   1      34.471  23.517  24.704  1.00  0.00     0.128 A 
ATOM     20  C   UNL A   1      34.645  20.773  24.653  1.00  0.00     0.021 A 
ATOM     21  Br  UNL A   1      34.886  18.880  24.676  1.00  0.00    -0.051 Br
ATOM     22  C   UNL A   1      33.406  21.384  24.321  1.00  0.00    -0.023 A 
ATOM     23  C   UNL A   1      32.234  20.487  23.985  1.00  0.00     0.046 C 
BRANCH  19  24
ATOM     24  O   UNL A   1      34.505  24.877  24.728  1.00  0.00    -0.507 OA
ATOM     25  H   UNL A   1      33.773  25.369  24.411  1.00  0.00     0.293 HD
ENDBRANCH  19  24
ENDBRANCH   9  15
ENDBRANCH   5   8
ENDBRANCH   3   4
ENDBRANCH   2   3
ENDBRANCH   1   2
BRANCH   1  26
ATOM     26  C   UNL A   1      31.879  30.360  26.738  1.00  0.00     0.002 C 
BRANCH  26  27
ATOM     27  C   UNL A   1      31.649  31.874  26.842  1.00  0.00     0.021 C 
BRANCH  27  28
ATOM     28  C   UNL A   1      32.823  32.688  27.388  1.00  0.00     0.116 C 
BRANCH  28  29
ATOM     29  N   UNL A   1      32.490  34.091  27.602  1.00  0.00    -0.352 N 
ATOM     30  C   UNL A   1      32.963  34.985  28.547  1.00  0.00     0.251 C 
ATOM     31  H   UNL A   1      31.827  34.461  26.976  1.00  0.00     0.163 HD
ATOM     32  O   UNL A   1      32.450  36.082  28.678  1.00  0.00    -0.269 OA
BRANCH  30  33
ATOM     33  C   UNL A   1      34.081  34.580  29.430  1.00  0.00     0.039 A 
ATOM     34  C   UNL A   1      35.383  34.533  28.935  1.00  0.00     0.014 A 
ATOM     35  C   UNL A   1      33.818  34.204  30.751  1.00  0.00     0.014 A 
ATOM     36  C   UNL A   1      36.374  33.908  29.680  1.00  0.00     0.010 A 
ATOM     37  C   UNL A   1      34.844  33.661  31.535  1.00  0.00     0.010 A 
ATOM     38  C   UNL A   1      36.115  33.440  30.981  1.00  0.00    -0.014 A 
BRANCH  38  39
ATOM     39  C   UNL A   1      37.176  32.681  31.701  1.00  0.00     0.031 A 
ATOM     40  C   UNL A   1      37.890  31.531  31.036  1.00  0.00     0.074 A 
ATOM     41  C   UNL A   1      37.574  33.098  32.920  1.00  0.00     0.049 A 
ATOM     42  N   UNL A   1      38.901  30.821  31.477  1.00  0.00    -0.248 NA
ATOM     43  C   UNL A   1      37.412  31.118  29.707  1.00  0.00     0.031 C 
ATOM     44  C   UNL A   1      36.972  34.202  33.666  1.00  0.00     0.029 A 
ATOM     45  N   UNL A   1      38.603  32.675  33.724  1.00  0.00    -0.354 N 
ATOM     46  C   UNL A   1      39.166  29.876  30.491  1.00  0.00     0.074 A 
ATOM     47  C   UNL A   1      38.188  30.075  29.445  1.00  0.00     0.031 C 
ATOM     48  C   UNL A   1      37.686  34.422  34.780  1.00  0.00     0.029 A 
ATOM     49  C   UNL A   1      38.757  33.433  34.861  1.00  0.00     0.049 A 
ATOM     50  H   UNL A   1      39.177  31.905  33.508  1.00  0.00     0.167 HD
ATOM     51  C   UNL A   1      40.147  28.943  30.452  1.00  0.00     0.037 A 
ATOM     52  C   UNL A   1      39.653  33.343  35.862  1.00  0.00     0.037 A 
ATOM     53  C   UNL A   1      41.143  28.768  31.476  1.00  0.00     0.049 A 
ATOM     54  C   UNL A   1      40.699  32.267  35.817  1.00  0.00     0.074 A 
ATOM     55  C   UNL A   1      42.201  27.876  31.502  1.00  0.00     0.029 A 
ATOM     56  N   UNL A   1      41.205  29.500  32.652  1.00  0.00    -0.354 N 
ATOM     57  N   UNL A   1      40.950  31.401  34.865  1.00  0.00    -0.248 NA
ATOM     58  C   UNL A   1      41.575  32.141  36.991  1.00  0.00     0.031 C 
ATOM     59  C   UNL A   1      42.876  28.036  32.716  1.00  0.00     0.029 A 
ATOM     60  C   UNL A   1      42.264  29.055  33.427  1.00  0.00     0.049 A 
ATOM     61  H   UNL A   1      40.590  30.227  32.899  1.00  0.00     0.167 HD
ATOM     62  C   UNL A   1      42.007  30.627  35.325  1.00  0.00     0.074 A 
ATOM     63  C   UNL A   1      42.371  31.146  36.627  1.00  0.00     0.031 C 
ATOM     64  C   UNL A   1      42.610  29.573  34.725  1.00  0.00     0.037 A 
BRANCH  51  65
ATOM     65  C   UNL A   1      40.202  28.030  29.260  1.00  0.00     0.057 A 
ATOM     66  C   UNL A   1      39.459  26.844  29.204  1.00  0.00     0.134 A 
ATOM     67  C   UNL A   1      40.946  28.380  28.125  1.00  0.00     0.134 A 
ATOM     68  F   UNL A   1      38.732  26.447  30.258  1.00  0.00    -0.206 F 
ATOM     69  C   UNL A   1      39.466  26.032  28.067  1.00  0.00     0.040 A 
ATOM     70  C   UNL A   1      40.941  27.589  26.975  1.00  0.00     0.040 A 
ATOM     71  F   UNL A   1      41.671  29.509  28.107  1.00  0.00    -0.206 F 
ATOM     72  C   UNL A   1      40.202  26.409  26.946  1.00  0.00     0.006 A 
ENDBRANCH  51  65
BRANCH  52  73
ATOM     73  C   UNL A   1      39.591  34.303  36.993  1.00  0.00     0.057 A 
ATOM     74  C   UNL A   1      38.912  33.987  38.174  1.00  0.00     0.134 A 
ATOM     75  C   UNL A   1      40.231  35.547  36.930  1.00  0.00     0.134 A 
ATOM     76  F   UNL A   1      38.262  32.819  38.288  1.00  0.00    -0.206 F 
ATOM     77  C   UNL A   1      38.872  34.872  39.253  1.00  0.00     0.040 A 
ATOM     78  C   UNL A   1      40.223  36.431  38.010  1.00  0.00     0.040 A 
ATOM     79  F   UNL A   1      40.901  35.910  35.826  1.00  0.00    -0.206 F 
ATOM     80  C   UNL A   1      39.537  36.095  39.176  1.00  0.00     0.006 A 
ENDBRANCH  52  73
BRANCH  64  81
ATOM     81  C   UNL A   1      43.717  28.890  35.471  1.00  0.00     0.057 A 
ATOM     82  C   UNL A   1      43.455  27.831  36.349  1.00  0.00     0.134 A 
ATOM     83  C   UNL A   1      45.057  29.229  35.243  1.00  0.00     0.134 A 
ATOM     84  F   UNL A   1      42.191  27.467  36.617  1.00  0.00    -0.206 F 
ATOM     85  C   UNL A   1      44.487  27.134  36.978  1.00  0.00     0.040 A 
ATOM     86  C   UNL A   1      46.099  28.524  35.847  1.00  0.00     0.040 A 
ATOM     87  F   UNL A   1      45.375  30.227  34.405  1.00  0.00    -0.206 F 
ATOM     88  C   UNL A   1      45.815  27.473  36.718  1.00  0.00     0.006 A 
ENDBRANCH  64  81
ENDBRANCH  38  39
ENDBRANCH  30  33
ENDBRANCH  28  29
ENDBRANCH  27  28
ENDBRANCH  26  27
ENDBRANCH   1  26
TORSDOF 15
ENDMDL
MODEL 3
REMARK VINA RESULT:     -11.4      1.243      2.016
REMARK SMILES Cc1cc(Br)c(C)c([C@@H]2[NH2+][C@H](C(=O)NCCCCCCNC(=O)c3ccc(-c4c5nc(c(-c6c(F)cccc6F)c6ccc([nH]6)c(-c6c(F)cccc6F)c6nc(c(-c7c(F)cccc7F)c7ccc4[nH]7)C=C6)C=C5)cc3)CS2)c1O
REMARK SMILES IDX 17 1 16 2 15 3 14 4 12 5 13 6 11 8 9 9 10 10 79 11 78 14
REMARK SMILES IDX 8 15 1 16 2 17 3 18 80 19 4 20 5 21 6 22 7 23 81 24 18 26
REMARK SMILES IDX 19 27 20 28 21 29 22 30 23 32 24 33 25 34 77 35 26 36 76 37
REMARK SMILES IDX 27 38 28 39 29 40 70 41 30 42 75 43 69 44 71 45 31 46 74 47
REMARK SMILES IDX 68 48 67 49 32 51 58 52 41 53 57 54 42 55 45 56 56 57 72 58
REMARK SMILES IDX 43 59 44 60 55 62 73 63 46 64 33 65 34 66 39 67 35 68 36 69
REMARK SMILES IDX 38 70 40 71 37 72 59 73 60 74 65 75 61 76 62 77 64 78 66 79
REMARK SMILES IDX 63 80 47 81 48 82 53 83 49 84 50 85 52 86 54 87 51 88
REMARK H PARENT 14 7 10 12 10 13 81 25 21 31 71 50 45 61
REMARK Flexibility Score: inf
ROOT
ATOM      1  C   UNL A   1      32.632  29.752  27.259  1.00  0.00     0.002 C 
ENDROOT
BRANCH   1   2
ATOM      2  C   UNL A   1      32.698  28.252  26.933  1.00  0.00     0.021 C 
BRANCH   2   3
ATOM      3  C   UNL A   1      31.369  27.494  26.964  1.00  0.00     0.116 C 
BRANCH   3   4
ATOM      4  N   UNL A   1      31.431  26.067  26.670  1.00  0.00    -0.351 N 
ATOM      5  C   UNL A   1      32.208  25.318  25.834  1.00  0.00     0.279 C 
ATOM      6  O   UNL A   1      32.336  24.139  26.205  1.00  0.00    -0.268 OA
ATOM      7  H   UNL A   1      30.778  25.534  27.178  1.00  0.00     0.163 HD
BRANCH   5   8
ATOM      8  C   UNL A   1      32.812  25.740  24.467  1.00  0.00     0.283 C 
ATOM      9  C   UNL A   1      34.166  24.048  23.336  1.00  0.00     0.278 C 
ATOM     10  N   UNL A   1      34.178  25.192  24.255  1.00  0.00    -0.320 N 
ATOM     11  S   UNL A   1      32.605  24.125  22.390  1.00  0.00    -0.087 SA
ATOM     12  H   UNL A   1      34.771  25.924  23.865  1.00  0.00     0.348 HD
ATOM     13  H   UNL A   1      34.538  24.874  25.155  1.00  0.00     0.348 HD
ATOM     14  C   UNL A   1      32.013  25.625  23.195  1.00  0.00     0.151 C 
BRANCH   9  15
ATOM     15  C   UNL A   1      34.468  22.661  23.931  1.00  0.00     0.066 A 
ATOM     16  C   UNL A   1      32.511  19.534  25.018  1.00  0.00     0.048 C 
ATOM     17  C   UNL A   1      33.668  20.463  24.780  1.00  0.00    -0.008 A 
ATOM     18  C   UNL A   1      34.976  20.051  24.983  1.00  0.00     0.023 A 
ATOM     19  C   UNL A   1      33.444  21.752  24.281  1.00  0.00     0.128 A 
ATOM     20  C   UNL A   1      36.033  20.914  24.680  1.00  0.00     0.021 A 
ATOM     21  Br  UNL A   1      37.781  20.210  24.979  1.00  0.00    -0.051 Br
ATOM     22  C   UNL A   1      35.810  22.217  24.160  1.00  0.00    -0.023 A 
ATOM     23  C   UNL A   1      37.016  23.068  23.822  1.00  0.00     0.046 C 
BRANCH  19  24
ATOM     24  O   UNL A   1      32.129  22.076  24.155  1.00  0.00    -0.507 OA
ATOM     25  H   UNL A   1      31.486  21.631  24.672  1.00  0.00     0.293 HD
ENDBRANCH  19  24
ENDBRANCH   9  15
ENDBRANCH   5   8
ENDBRANCH   3   4
ENDBRANCH   2   3
ENDBRANCH   1   2
BRANCH   1  26
ATOM     26  C   UNL A   1      31.707  30.585  26.358  1.00  0.00     0.002 C 
BRANCH  26  27
ATOM     27  C   UNL A   1      31.359  31.995  26.854  1.00  0.00     0.021 C 
BRANCH  27  28
ATOM     28  C   UNL A   1      32.461  33.044  26.697  1.00  0.00     0.116 C 
BRANCH  28  29
ATOM     29  N   UNL A   1      32.338  34.143  27.647  1.00  0.00    -0.352 N 
ATOM     30  C   UNL A   1      33.108  34.454  28.754  1.00  0.00     0.251 C 
ATOM     31  H   UNL A   1      31.591  34.761  27.474  1.00  0.00     0.163 HD
ATOM     32  O   UNL A   1      32.760  35.326  29.530  1.00  0.00    -0.269 OA
BRANCH  30  33
ATOM     33  C   UNL A   1      34.350  33.689  29.009  1.00  0.00     0.039 A 
ATOM     34  C   UNL A   1      34.284  32.408  29.554  1.00  0.00     0.014 A 
ATOM     35  C   UNL A   1      35.591  34.274  28.740  1.00  0.00     0.014 A 
ATOM     36  C   UNL A   1      35.444  31.809  30.031  1.00  0.00     0.010 A 
ATOM     37  C   UNL A   1      36.766  33.623  29.136  1.00  0.00     0.010 A 
ATOM     38  C   UNL A   1      36.699  32.417  29.851  1.00  0.00    -0.014 A 
BRANCH  38  39
ATOM     39  C   UNL A   1      37.900  31.792  30.473  1.00  0.00     0.031 A 
ATOM     40  C   UNL A   1      38.260  32.069  31.911  1.00  0.00     0.074 A 
ATOM     41  C   UNL A   1      38.610  30.885  29.771  1.00  0.00     0.049 A 
ATOM     42  N   UNL A   1      39.213  31.540  32.640  1.00  0.00    -0.248 NA
ATOM     43  C   UNL A   1      37.453  33.070  32.627  1.00  0.00     0.031 C 
ATOM     44  C   UNL A   1      38.358  30.521  28.376  1.00  0.00     0.029 A 
ATOM     45  N   UNL A   1      39.652  30.074  30.143  1.00  0.00    -0.354 N 
ATOM     46  C   UNL A   1      39.127  32.151  33.886  1.00  0.00     0.074 A 
ATOM     47  C   UNL A   1      38.056  33.118  33.807  1.00  0.00     0.031 C 
ATOM     48  C   UNL A   1      39.168  29.508  28.034  1.00  0.00     0.029 A 
ATOM     49  C   UNL A   1      40.041  29.194  29.160  1.00  0.00     0.049 A 
ATOM     50  H   UNL A   1      40.080  30.116  31.029  1.00  0.00     0.167 HD
ATOM     51  C   UNL A   1      39.859  31.913  35.001  1.00  0.00     0.037 A 
ATOM     52  C   UNL A   1      40.994  28.244  29.160  1.00  0.00     0.037 A 
ATOM     53  C   UNL A   1      40.902  30.925  35.091  1.00  0.00     0.049 A 
ATOM     54  C   UNL A   1      41.825  28.036  30.392  1.00  0.00     0.074 A 
ATOM     55  C   UNL A   1      41.669  30.584  36.192  1.00  0.00     0.029 A 
ATOM     56  N   UNL A   1      41.321  30.119  34.044  1.00  0.00    -0.354 N 
ATOM     57  N   UNL A   1      41.712  28.604  31.568  1.00  0.00    -0.248 NA
ATOM     58  C   UNL A   1      42.928  27.068  30.296  1.00  0.00     0.031 C 
ATOM     59  C   UNL A   1      42.586  29.604  35.798  1.00  0.00     0.029 A 
ATOM     60  C   UNL A   1      42.361  29.305  34.464  1.00  0.00     0.049 A 
ATOM     61  H   UNL A   1      40.937  30.123  33.138  1.00  0.00     0.167 HD
ATOM     62  C   UNL A   1      42.728  28.068  32.348  1.00  0.00     0.074 A 
ATOM     63  C   UNL A   1      43.428  27.106  31.523  1.00  0.00     0.031 C 
ATOM     64  C   UNL A   1      43.056  28.359  33.630  1.00  0.00     0.037 A 
BRANCH  51  65
ATOM     65  C   UNL A   1      39.564  32.731  36.225  1.00  0.00     0.057 A 
ATOM     66  C   UNL A   1      40.229  33.937  36.485  1.00  0.00     0.134 A 
ATOM     67  C   UNL A   1      38.550  32.350  37.113  1.00  0.00     0.134 A 
ATOM     68  F   UNL A   1      41.215  34.357  35.679  1.00  0.00    -0.206 F 
ATOM     69  C   UNL A   1      39.905  34.725  37.592  1.00  0.00     0.040 A 
ATOM     70  C   UNL A   1      38.202  33.141  38.209  1.00  0.00     0.040 A 
ATOM     71  F   UNL A   1      37.865  31.213  36.917  1.00  0.00    -0.206 F 
ATOM     72  C   UNL A   1      38.883  34.331  38.453  1.00  0.00     0.006 A 
ENDBRANCH  51  65
BRANCH  52  73
ATOM     73  C   UNL A   1      41.212  27.423  27.942  1.00  0.00     0.057 A 
ATOM     74  C   UNL A   1      40.575  26.188  27.777  1.00  0.00     0.134 A 
ATOM     75  C   UNL A   1      42.041  27.865  26.902  1.00  0.00     0.134 A 
ATOM     76  F   UNL A   1      39.786  25.701  28.745  1.00  0.00    -0.206 F 
ATOM     77  C   UNL A   1      40.753  25.423  26.623  1.00  0.00     0.040 A 
ATOM     78  C   UNL A   1      42.207  27.123  25.732  1.00  0.00     0.040 A 
ATOM     79  F   UNL A   1      42.679  29.041  26.998  1.00  0.00    -0.206 F 
ATOM     80  C   UNL A   1      41.563  25.895  25.592  1.00  0.00     0.006 A 
ENDBRANCH  52  73
BRANCH  64  81
ATOM     81  C   UNL A   1      44.236  27.648  34.222  1.00  0.00     0.057 A 
ATOM     82  C   UNL A   1      45.508  28.232  34.225  1.00  0.00     0.134 A 
ATOM     83  C   UNL A   1      44.083  26.418  34.875  1.00  0.00     0.134 A 
ATOM     84  F   UNL A   1      45.720  29.404  33.607  1.00  0.00    -0.206 F 
ATOM     85  C   UNL A   1      46.590  27.615  34.853  1.00  0.00     0.040 A 
ATOM     86  C   UNL A   1      45.153  25.803  35.527  1.00  0.00     0.040 A 
ATOM     87  F   UNL A   1      42.888  25.812  34.917  1.00  0.00    -0.206 F 
ATOM     88  C   UNL A   1      46.411  26.402  35.517  1.00  0.00     0.006 A 
ENDBRANCH  64  81
ENDBRANCH  38  39
ENDBRANCH  30  33
ENDBRANCH  28  29
ENDBRANCH  27  28
ENDBRANCH  26  27
ENDBRANCH   1  26
TORSDOF 15
ENDMDL
