MODEL 1
REMARK VINA RESULT:     -11.8      0.000      0.000
REMARK SMILES CC(C)CSc1cc2c(cc1Cl)C=C(C(=O)NCCCCCCNC(=O)c1ccc(-c3c4nc(c(-c5c(F)cccc5F)c5ccc([nH]5)c(-c5c(F)cccc5F)c5nc(c(-c6c(F)cccc6F)c6ccc3[nH]6)C=C5)C=C4)cc1)[C@@H](C(F)(F)F)O2
REMARK SMILES IDX 20 1 19 2 18 3 17 4 15 5 16 6 14 8 6 9 7 10 11 11 8 12 10 13
REMARK SMILES IDX 12 14 9 15 86 16 13 17 81 18 5 19 4 20 2 21 1 22 3 23 82 24
REMARK SMILES IDX 83 25 84 26 85 27 21 28 22 29 23 30 24 31 25 32 26 34 27 35
REMARK SMILES IDX 28 36 80 37 29 38 79 39 30 40 31 41 32 42 73 43 33 44 78 45
REMARK SMILES IDX 72 46 74 47 34 48 77 49 71 50 70 51 35 53 61 54 44 55 60 56
REMARK SMILES IDX 45 57 48 58 59 59 75 60 46 61 47 62 58 64 76 65 49 66 36 67
REMARK SMILES IDX 37 68 42 69 38 70 39 71 41 72 43 73 40 74 62 75 63 76 68 77
REMARK SMILES IDX 64 78 65 79 67 80 69 81 66 82 50 83 51 84 56 85 52 86 53 87
REMARK SMILES IDX 55 88 57 89 54 90
REMARK H PARENT 17 7 24 33 74 52 48 63
REMARK Flexibility Score: inf
ROOT
ATOM      1  C   UNL A   1      32.842  29.985  26.922  1.00  0.00     0.002 C 
ENDROOT
BRANCH   1   2
ATOM      2  C   UNL A   1      33.817  29.259  25.992  1.00  0.00     0.021 C 
BRANCH   2   3
ATOM      3  C   UNL A   1      33.282  27.951  25.420  1.00  0.00     0.116 C 
BRANCH   3   4
ATOM      4  N   UNL A   1      32.031  27.556  26.043  1.00  0.00    -0.352 N 
ATOM      5  C   UNL A   1      31.353  26.406  26.267  1.00  0.00     0.251 C 
ATOM      6  O   UNL A   1      30.294  26.537  26.890  1.00  0.00    -0.270 OA
ATOM      7  H   UNL A   1      31.545  28.335  26.398  1.00  0.00     0.163 HD
BRANCH   5   8
ATOM      8  C   UNL A   1      31.782  25.044  25.825  1.00  0.00     0.067 C 
ATOM      9  C   UNL A   1      34.457  20.826  25.027  1.00  0.00     0.030 A 
ATOM     10  C   UNL A   1      33.122  21.199  24.844  1.00  0.00     0.063 A 
ATOM     11  C   UNL A   1      35.364  21.802  25.483  1.00  0.00     0.055 A 
ATOM     12  C   UNL A   1      32.686  22.475  25.189  1.00  0.00     0.129 A 
ATOM     13  C   UNL A   1      34.921  23.093  25.809  1.00  0.00     0.033 A 
ATOM     14  Cl  UNL A   1      37.047  21.473  25.710  1.00  0.00    -0.083 Cl
ATOM     15  C   UNL A   1      33.572  23.427  25.680  1.00  0.00     0.019 A 
ATOM     16  O   UNL A   1      31.347  22.691  25.074  1.00  0.00    -0.475 OA
ATOM     17  C   UNL A   1      33.064  24.730  26.087  1.00  0.00     0.025 C 
ATOM     18  C   UNL A   1      30.894  24.069  25.102  1.00  0.00     0.314 C 
BRANCH   9  19
ATOM     19  S   UNL A   1      34.951  19.135  24.698  1.00  0.00    -0.124 SA
BRANCH  19  20
ATOM     20  C   UNL A   1      33.369  18.211  24.828  1.00  0.00     0.078 C 
BRANCH  20  21
ATOM     21  C   UNL A   1      32.997  17.357  23.600  1.00  0.00    -0.007 C 
ATOM     22  C   UNL A   1      32.377  18.158  22.454  1.00  0.00     0.008 C 
ATOM     23  C   UNL A   1      34.257  16.655  23.080  1.00  0.00     0.008 C 
ENDBRANCH  20  21
ENDBRANCH  19  20
ENDBRANCH   9  19
BRANCH  18  24
ATOM     24  C   UNL A   1      30.572  24.497  23.661  1.00  0.00     0.429 C 
ATOM     25  F   UNL A   1      29.545  25.384  23.651  1.00  0.00    -0.167 F 
ATOM     26  F   UNL A   1      31.610  25.112  23.050  1.00  0.00    -0.167 F 
ATOM     27  F   UNL A   1      30.214  23.451  22.882  1.00  0.00    -0.167 F 
ENDBRANCH  18  24
ENDBRANCH   5   8
ENDBRANCH   3   4
ENDBRANCH   2   3
ENDBRANCH   1   2
BRANCH   1  28
ATOM     28  C   UNL A   1      31.663  30.684  26.230  1.00  0.00     0.002 C 
BRANCH  28  29
ATOM     29  C   UNL A   1      31.459  32.157  26.590  1.00  0.00     0.021 C 
BRANCH  29  30
ATOM     30  C   UNL A   1      32.647  32.824  27.271  1.00  0.00     0.116 C 
BRANCH  30  31
ATOM     31  N   UNL A   1      32.369  34.194  27.668  1.00  0.00    -0.352 N 
ATOM     32  C   UNL A   1      32.995  34.974  28.610  1.00  0.00     0.251 C 
ATOM     33  H   UNL A   1      31.622  34.627  27.193  1.00  0.00     0.163 HD
ATOM     34  O   UNL A   1      32.526  36.064  28.921  1.00  0.00    -0.269 OA
BRANCH  32  35
ATOM     35  C   UNL A   1      34.222  34.481  29.273  1.00  0.00     0.039 A 
ATOM     36  C   UNL A   1      35.474  34.650  28.677  1.00  0.00     0.014 A 
ATOM     37  C   UNL A   1      34.113  33.829  30.505  1.00  0.00     0.014 A 
ATOM     38  C   UNL A   1      36.589  34.028  29.229  1.00  0.00     0.010 A 
ATOM     39  C   UNL A   1      35.250  33.278  31.100  1.00  0.00     0.010 A 
ATOM     40  C   UNL A   1      36.490  33.332  30.445  1.00  0.00    -0.014 A 
BRANCH  40  41
ATOM     41  C   UNL A   1      37.695  32.665  31.003  1.00  0.00     0.031 A 
ATOM     42  C   UNL A   1      38.313  33.144  32.290  1.00  0.00     0.074 A 
ATOM     43  C   UNL A   1      38.204  31.590  30.372  1.00  0.00     0.049 A 
ATOM     44  N   UNL A   1      39.351  32.672  32.933  1.00  0.00    -0.248 NA
ATOM     45  C   UNL A   1      37.688  34.309  32.937  1.00  0.00     0.031 C 
ATOM     46  C   UNL A   1      37.693  31.025  29.121  1.00  0.00     0.029 A 
ATOM     47  N   UNL A   1      39.248  30.766  30.706  1.00  0.00    -0.354 N 
ATOM     48  C   UNL A   1      39.514  33.487  34.047  1.00  0.00     0.074 A 
ATOM     49  C   UNL A   1      38.487  34.505  33.976  1.00  0.00     0.031 C 
ATOM     50  C   UNL A   1      38.392  29.922  28.818  1.00  0.00     0.029 A 
ATOM     51  C   UNL A   1      39.436  29.734  29.819  1.00  0.00     0.049 A 
ATOM     52  H   UNL A   1      39.807  30.900  31.505  1.00  0.00     0.167 HD
ATOM     53  C   UNL A   1      40.426  33.390  35.044  1.00  0.00     0.037 A 
ATOM     54  C   UNL A   1      40.359  28.756  29.803  1.00  0.00     0.037 A 
ATOM     55  C   UNL A   1      41.439  32.369  35.122  1.00  0.00     0.049 A 
ATOM     56  C   UNL A   1      41.386  28.700  30.897  1.00  0.00     0.074 A 
ATOM     57  C   UNL A   1      42.394  32.172  36.105  1.00  0.00     0.029 A 
ATOM     58  N   UNL A   1      41.630  31.372  34.178  1.00  0.00    -0.354 N 
ATOM     59  N   UNL A   1      41.513  29.466  31.953  1.00  0.00    -0.248 NA
ATOM     60  C   UNL A   1      42.405  27.647  30.790  1.00  0.00     0.031 C 
ATOM     61  C   UNL A   1      43.188  31.082  35.734  1.00  0.00     0.029 A 
ATOM     62  C   UNL A   1      42.700  30.572  34.542  1.00  0.00     0.049 A 
ATOM     63  H   UNL A   1      41.085  31.252  33.366  1.00  0.00     0.167 HD
ATOM     64  C   UNL A   1      42.614  28.980  32.643  1.00  0.00     0.074 A 
ATOM     65  C   UNL A   1      43.104  27.837  31.900  1.00  0.00     0.031 C 
ATOM     66  C   UNL A   1      43.176  29.441  33.788  1.00  0.00     0.037 A 
BRANCH  53  67
ATOM     67  C   UNL A   1      40.379  34.429  36.127  1.00  0.00     0.057 A 
ATOM     68  C   UNL A   1      41.149  35.597  36.030  1.00  0.00     0.134 A 
ATOM     69  C   UNL A   1      39.597  34.266  37.278  1.00  0.00     0.134 A 
ATOM     70  F   UNL A   1      41.926  35.813  34.959  1.00  0.00    -0.206 F 
ATOM     71  C   UNL A   1      41.140  36.563  37.039  1.00  0.00     0.040 A 
ATOM     72  C   UNL A   1      39.561  35.237  38.282  1.00  0.00     0.040 A 
ATOM     73  F   UNL A   1      38.826  33.179  37.427  1.00  0.00    -0.206 F 
ATOM     74  C   UNL A   1      40.340  36.388  38.165  1.00  0.00     0.006 A 
ENDBRANCH  53  67
BRANCH  54  75
ATOM     75  C   UNL A   1      40.365  27.753  28.708  1.00  0.00     0.057 A 
ATOM     76  C   UNL A   1      39.642  26.560  28.810  1.00  0.00     0.134 A 
ATOM     77  C   UNL A   1      41.078  27.979  27.526  1.00  0.00     0.134 A 
ATOM     78  F   UNL A   1      38.942  26.284  29.920  1.00  0.00    -0.206 F 
ATOM     79  C   UNL A   1      39.633  25.621  27.777  1.00  0.00     0.040 A 
ATOM     80  C   UNL A   1      41.055  27.061  26.474  1.00  0.00     0.040 A 
ATOM     81  F   UNL A   1      41.774  29.113  27.362  1.00  0.00    -0.206 F 
ATOM     82  C   UNL A   1      40.333  25.876  26.601  1.00  0.00     0.006 A 
ENDBRANCH  54  75
BRANCH  66  83
ATOM     83  C   UNL A   1      44.364  28.687  34.308  1.00  0.00     0.057 A 
ATOM     84  C   UNL A   1      44.197  27.594  35.167  1.00  0.00     0.134 A 
ATOM     85  C   UNL A   1      45.674  29.042  33.960  1.00  0.00     0.134 A 
ATOM     86  F   UNL A   1      42.969  27.205  35.544  1.00  0.00    -0.206 F 
ATOM     87  C   UNL A   1      45.290  26.879  35.658  1.00  0.00     0.040 A 
ATOM     88  C   UNL A   1      46.773  28.319  34.423  1.00  0.00     0.040 A 
ATOM     89  F   UNL A   1      45.900  30.070  33.125  1.00  0.00    -0.206 F 
ATOM     90  C   UNL A   1      46.583  27.236  35.279  1.00  0.00     0.006 A 
ENDBRANCH  66  83
ENDBRANCH  40  41
ENDBRANCH  32  35
ENDBRANCH  30  31
ENDBRANCH  29  30
ENDBRANCH  28  29
ENDBRANCH   1  28
TORSDOF 17
ENDMDL
MODEL 2
REMARK VINA RESULT:     -11.7      1.366      2.075
REMARK SMILES CC(C)CSc1cc2c(cc1Cl)C=C(C(=O)NCCCCCCNC(=O)c1ccc(-c3c4nc(c(-c5c(F)cccc5F)c5ccc([nH]5)c(-c5c(F)cccc5F)c5nc(c(-c6c(F)cccc6F)c6ccc3[nH]6)C=C5)C=C4)cc1)[C@@H](C(F)(F)F)O2
REMARK SMILES IDX 20 1 19 2 18 3 17 4 15 5 16 6 14 8 6 9 7 10 11 11 8 12 10 13
REMARK SMILES IDX 12 14 9 15 86 16 13 17 81 18 5 19 4 20 2 21 1 22 3 23 82 24
REMARK SMILES IDX 83 25 84 26 85 27 21 28 22 29 23 30 24 31 25 32 26 34 27 35
REMARK SMILES IDX 28 36 80 37 29 38 79 39 30 40 31 41 32 42 73 43 33 44 78 45
REMARK SMILES IDX 72 46 74 47 34 48 77 49 71 50 70 51 35 53 61 54 44 55 60 56
REMARK SMILES IDX 45 57 48 58 59 59 75 60 46 61 47 62 58 64 76 65 49 66 36 67
REMARK SMILES IDX 37 68 42 69 38 70 39 71 41 72 43 73 40 74 62 75 63 76 68 77
REMARK SMILES IDX 64 78 65 79 67 80 69 81 66 82 50 83 51 84 56 85 52 86 53 87
REMARK SMILES IDX 55 88 57 89 54 90
REMARK H PARENT 17 7 24 33 74 52 48 63
REMARK Flexibility Score: inf
ROOT
ATOM      1  C   UNL A   1      31.905  29.448  26.851  1.00  0.00     0.002 C 
ENDROOT
BRANCH   1   2
ATOM      2  C   UNL A   1      32.810  28.585  25.967  1.00  0.00     0.021 C 
BRANCH   2   3
ATOM      3  C   UNL A   1      32.424  28.579  24.492  1.00  0.00     0.116 C 
BRANCH   3   4
ATOM      4  N   UNL A   1      31.066  28.108  24.287  1.00  0.00    -0.352 N 
ATOM      5  C   UNL A   1      30.448  26.923  24.078  1.00  0.00     0.251 C 
ATOM      6  O   UNL A   1      29.217  26.984  23.984  1.00  0.00    -0.270 OA
ATOM      7  H   UNL A   1      30.422  28.852  24.304  1.00  0.00     0.163 HD
BRANCH   5   8
ATOM      8  C   UNL A   1      31.129  25.597  23.952  1.00  0.00     0.067 C 
ATOM      9  C   UNL A   1      33.504  21.252  24.984  1.00  0.00     0.030 A 
ATOM     10  C   UNL A   1      32.899  21.802  23.850  1.00  0.00     0.063 A 
ATOM     11  C   UNL A   1      33.570  22.038  26.150  1.00  0.00     0.055 A 
ATOM     12  C   UNL A   1      32.300  23.058  23.901  1.00  0.00     0.129 A 
ATOM     13  C   UNL A   1      32.983  23.312  26.189  1.00  0.00     0.033 A 
ATOM     14  Cl  UNL A   1      34.328  21.483  27.604  1.00  0.00    -0.083 Cl
ATOM     15  C   UNL A   1      32.327  23.818  25.065  1.00  0.00     0.019 A 
ATOM     16  O   UNL A   1      31.645  23.445  22.773  1.00  0.00    -0.475 OA
ATOM     17  C   UNL A   1      31.635  25.099  25.095  1.00  0.00     0.025 C 
ATOM     18  C   UNL A   1      31.295  24.849  22.659  1.00  0.00     0.314 C 
BRANCH   9  19
ATOM     19  S   UNL A   1      34.145  19.580  24.915  1.00  0.00    -0.124 SA
BRANCH  19  20
ATOM     20  C   UNL A   1      32.635  18.571  24.638  1.00  0.00     0.078 C 
BRANCH  20  21
ATOM     21  C   UNL A   1      32.661  17.668  23.389  1.00  0.00    -0.007 C 
ATOM     22  C   UNL A   1      32.356  18.407  22.085  1.00  0.00     0.008 C 
ATOM     23  C   UNL A   1      34.047  17.020  23.270  1.00  0.00     0.008 C 
ENDBRANCH  20  21
ENDBRANCH  19  20
ENDBRANCH   9  19
BRANCH  18  24
ATOM     24  C   UNL A   1      32.293  25.515  21.698  1.00  0.00     0.429 C 
ATOM     25  F   UNL A   1      32.934  24.574  20.959  1.00  0.00    -0.167 F 
ATOM     26  F   UNL A   1      31.698  26.349  20.816  1.00  0.00    -0.167 F 
ATOM     27  F   UNL A   1      33.235  26.232  22.350  1.00  0.00    -0.167 F 
ENDBRANCH  18  24
ENDBRANCH   5   8
ENDBRANCH   3   4
ENDBRANCH   2   3
ENDBRANCH   1   2
BRANCH   1  28
ATOM     28  C   UNL A   1      31.463  30.785  26.240  1.00  0.00     0.002 C 
BRANCH  28  29
ATOM     29  C   UNL A   1      31.482  31.986  27.188  1.00  0.00     0.021 C 
BRANCH  29  30
ATOM     30  C   UNL A   1      32.514  33.055  26.853  1.00  0.00     0.116 C 
BRANCH  30  31
ATOM     31  N   UNL A   1      32.386  34.240  27.685  1.00  0.00    -0.352 N 
ATOM     32  C   UNL A   1      33.113  34.614  28.789  1.00  0.00     0.251 C 
ATOM     33  H   UNL A   1      31.673  34.865  27.419  1.00  0.00     0.163 HD
ATOM     34  O   UNL A   1      32.764  35.579  29.462  1.00  0.00    -0.269 OA
BRANCH  32  35
ATOM     35  C   UNL A   1      34.303  33.830  29.185  1.00  0.00     0.039 A 
ATOM     36  C   UNL A   1      34.169  32.640  29.903  1.00  0.00     0.014 A 
ATOM     37  C   UNL A   1      35.573  34.303  28.841  1.00  0.00     0.014 A 
ATOM     38  C   UNL A   1      35.299  32.013  30.415  1.00  0.00     0.010 A 
ATOM     39  C   UNL A   1      36.710  33.622  29.285  1.00  0.00     0.010 A 
ATOM     40  C   UNL A   1      36.583  32.498  30.115  1.00  0.00    -0.014 A 
BRANCH  40  41
ATOM     41  C   UNL A   1      37.772  31.816  30.688  1.00  0.00     0.031 A 
ATOM     42  C   UNL A   1      38.208  32.087  32.104  1.00  0.00     0.074 A 
ATOM     43  C   UNL A   1      38.432  30.907  29.944  1.00  0.00     0.049 A 
ATOM     44  N   UNL A   1      39.206  31.569  32.774  1.00  0.00    -0.248 NA
ATOM     45  C   UNL A   1      37.424  33.072  32.866  1.00  0.00     0.031 C 
ATOM     46  C   UNL A   1      38.106  30.552  28.561  1.00  0.00     0.029 A 
ATOM     47  N   UNL A   1      39.498  30.102  30.251  1.00  0.00    -0.354 N 
ATOM     48  C   UNL A   1      39.182  32.174  34.025  1.00  0.00     0.074 A 
ATOM     49  C   UNL A   1      38.088  33.123  34.011  1.00  0.00     0.031 C 
ATOM     50  C   UNL A   1      38.921  29.568  28.156  1.00  0.00     0.029 A 
ATOM     51  C   UNL A   1      39.865  29.264  29.226  1.00  0.00     0.049 A 
ATOM     52  H   UNL A   1      39.956  30.121  31.122  1.00  0.00     0.167 HD
ATOM     53  C   UNL A   1      39.986  31.951  35.092  1.00  0.00     0.037 A 
ATOM     54  C   UNL A   1      40.861  28.363  29.150  1.00  0.00     0.037 A 
ATOM     55  C   UNL A   1      41.065  30.998  35.111  1.00  0.00     0.049 A 
ATOM     56  C   UNL A   1      41.766  28.171  30.332  1.00  0.00     0.074 A 
ATOM     57  C   UNL A   1      41.923  30.682  36.152  1.00  0.00     0.029 A 
ATOM     58  N   UNL A   1      41.438  30.204  34.036  1.00  0.00    -0.354 N 
ATOM     59  N   UNL A   1      41.715  28.736  31.514  1.00  0.00    -0.248 NA
ATOM     60  C   UNL A   1      42.873  27.219  30.165  1.00  0.00     0.031 C 
ATOM     61  C   UNL A   1      42.839  29.729  35.692  1.00  0.00     0.029 A 
ATOM     62  C   UNL A   1      42.524  29.418  34.380  1.00  0.00     0.049 A 
ATOM     63  H   UNL A   1      40.994  30.202  33.156  1.00  0.00     0.167 HD
ATOM     64  C   UNL A   1      42.773  28.199  32.235  1.00  0.00     0.074 A 
ATOM     65  C   UNL A   1      43.431  27.244  31.367  1.00  0.00     0.031 C 
ATOM     66  C   UNL A   1      43.169  28.476  33.502  1.00  0.00     0.037 A 
BRANCH  53  67
ATOM     67  C   UNL A   1      39.739  32.770  36.327  1.00  0.00     0.057 A 
ATOM     68  C   UNL A   1      38.756  32.391  37.251  1.00  0.00     0.134 A 
ATOM     69  C   UNL A   1      40.453  33.946  36.591  1.00  0.00     0.134 A 
ATOM     70  F   UNL A   1      38.030  31.280  37.056  1.00  0.00    -0.206 F 
ATOM     71  C   UNL A   1      38.492  33.152  38.391  1.00  0.00     0.040 A 
ATOM     72  C   UNL A   1      40.216  34.703  37.741  1.00  0.00     0.040 A 
ATOM     73  F   UNL A   1      41.418  34.358  35.755  1.00  0.00    -0.206 F 
ATOM     74  C   UNL A   1      39.227  34.308  38.642  1.00  0.00     0.006 A 
ENDBRANCH  53  67
BRANCH  54  75
ATOM     75  C   UNL A   1      41.065  27.581  27.904  1.00  0.00     0.057 A 
ATOM     76  C   UNL A   1      40.481  26.322  27.731  1.00  0.00     0.134 A 
ATOM     77  C   UNL A   1      41.834  28.088  26.851  1.00  0.00     0.134 A 
ATOM     78  F   UNL A   1      39.737  25.780  28.706  1.00  0.00    -0.206 F 
ATOM     79  C   UNL A   1      40.659  25.589  26.557  1.00  0.00     0.040 A 
ATOM     80  C   UNL A   1      41.998  27.378  25.661  1.00  0.00     0.040 A 
ATOM     81  F   UNL A   1      42.404  29.298  26.951  1.00  0.00    -0.206 F 
ATOM     82  C   UNL A   1      41.412  26.122  25.513  1.00  0.00     0.006 A 
ENDBRANCH  54  75
BRANCH  66  83
ATOM     83  C   UNL A   1      44.353  27.714  34.021  1.00  0.00     0.057 A 
ATOM     84  C   UNL A   1      45.650  28.217  33.865  1.00  0.00     0.134 A 
ATOM     85  C   UNL A   1      44.210  26.483  34.675  1.00  0.00     0.134 A 
ATOM     86  F   UNL A   1      45.856  29.389  33.243  1.00  0.00    -0.206 F 
ATOM     87  C   UNL A   1      46.763  27.525  34.343  1.00  0.00     0.040 A 
ATOM     88  C   UNL A   1      45.313  25.795  35.180  1.00  0.00     0.040 A 
ATOM     89  F   UNL A   1      42.991  25.956  34.872  1.00  0.00    -0.206 F 
ATOM     90  C   UNL A   1      46.595  26.314  35.012  1.00  0.00     0.006 A 
ENDBRANCH  66  83
ENDBRANCH  40  41
ENDBRANCH  32  35
ENDBRANCH  30  31
ENDBRANCH  29  30
ENDBRANCH  28  29
ENDBRANCH   1  28
TORSDOF 17
ENDMDL
MODEL 3
REMARK VINA RESULT:     -11.6      1.870      6.412
REMARK SMILES CC(C)CSc1cc2c(cc1Cl)C=C(C(=O)NCCCCCCNC(=O)c1ccc(-c3c4nc(c(-c5c(F)cccc5F)c5ccc([nH]5)c(-c5c(F)cccc5F)c5nc(c(-c6c(F)cccc6F)c6ccc3[nH]6)C=C5)C=C4)cc1)[C@@H](C(F)(F)F)O2
REMARK SMILES IDX 20 1 19 2 18 3 17 4 15 5 16 6 14 8 6 9 7 10 11 11 8 12 10 13
REMARK SMILES IDX 12 14 9 15 86 16 13 17 81 18 5 19 4 20 2 21 1 22 3 23 82 24
REMARK SMILES IDX 83 25 84 26 85 27 21 28 22 29 23 30 24 31 25 32 26 34 27 35
REMARK SMILES IDX 28 36 80 37 29 38 79 39 30 40 31 41 32 42 73 43 33 44 78 45
REMARK SMILES IDX 72 46 74 47 34 48 77 49 71 50 70 51 35 53 61 54 44 55 60 56
REMARK SMILES IDX 45 57 48 58 59 59 75 60 46 61 47 62 58 64 76 65 49 66 36 67
REMARK SMILES IDX 37 68 42 69 38 70 39 71 41 72 43 73 40 74 62 75 63 76 68 77
REMARK SMILES IDX 64 78 65 79 67 80 69 81 66 82 50 83 51 84 56 85 52 86 53 87
REMARK SMILES IDX 55 88 57 89 54 90
REMARK H PARENT 17 7 24 33 74 52 48 63
REMARK Flexibility Score: inf
ROOT
ATOM      1  C   UNL A   1      34.659  31.950  28.808  1.00  0.00     0.002 C 
ENDROOT
BRANCH   1   2
ATOM      2  C   UNL A   1      33.710  31.667  27.641  1.00  0.00     0.021 C 
BRANCH   2   3
ATOM      3  C   UNL A   1      33.674  30.208  27.202  1.00  0.00     0.116 C 
BRANCH   3   4
ATOM      4  N   UNL A   1      33.295  30.069  25.807  1.00  0.00    -0.352 N 
ATOM      5  C   UNL A   1      32.917  29.070  24.975  1.00  0.00     0.251 C 
ATOM      6  O   UNL A   1      32.647  29.423  23.823  1.00  0.00    -0.270 OA
ATOM      7  H   UNL A   1      33.321  30.935  25.340  1.00  0.00     0.163 HD
BRANCH   5   8
ATOM      8  C   UNL A   1      32.814  27.625  25.344  1.00  0.00     0.067 C 
ATOM      9  C   UNL A   1      33.908  22.791  26.360  1.00  0.00     0.030 A 
ATOM     10  C   UNL A   1      32.781  23.604  26.520  1.00  0.00     0.063 A 
ATOM     11  C   UNL A   1      35.037  23.339  25.723  1.00  0.00     0.055 A 
ATOM     12  C   UNL A   1      32.810  24.943  26.140  1.00  0.00     0.129 A 
ATOM     13  C   UNL A   1      35.052  24.684  25.323  1.00  0.00     0.033 A 
ATOM     14  Cl  UNL A   1      36.476  22.421  25.433  1.00  0.00    -0.083 Cl
ATOM     15  C   UNL A   1      33.941  25.496  25.550  1.00  0.00     0.019 A 
ATOM     16  O   UNL A   1      31.698  25.666  26.445  1.00  0.00    -0.475 OA
ATOM     17  C   UNL A   1      33.951  26.916  25.224  1.00  0.00     0.025 C 
ATOM     18  C   UNL A   1      31.545  26.953  25.790  1.00  0.00     0.314 C 
BRANCH   9  19
ATOM     19  S   UNL A   1      33.875  21.112  26.985  1.00  0.00    -0.124 SA
BRANCH  19  20
ATOM     20  C   UNL A   1      32.777  20.249  25.791  1.00  0.00     0.078 C 
BRANCH  20  21
ATOM     21  C   UNL A   1      33.420  19.896  24.436  1.00  0.00    -0.007 C 
ATOM     22  C   UNL A   1      33.864  18.437  24.322  1.00  0.00     0.008 C 
ATOM     23  C   UNL A   1      32.414  20.190  23.315  1.00  0.00     0.008 C 
ENDBRANCH  20  21
ENDBRANCH  19  20
ENDBRANCH   9  19
BRANCH  18  24
ATOM     24  C   UNL A   1      30.513  26.795  24.661  1.00  0.00     0.429 C 
ATOM     25  F   UNL A   1      30.017  28.007  24.305  1.00  0.00    -0.167 F 
ATOM     26  F   UNL A   1      31.041  26.256  23.538  1.00  0.00    -0.167 F 
ATOM     27  F   UNL A   1      29.469  26.017  25.023  1.00  0.00    -0.167 F 
ENDBRANCH  18  24
ENDBRANCH   5   8
ENDBRANCH   3   4
ENDBRANCH   2   3
ENDBRANCH   1   2
BRANCH   1  28
ATOM     28  C   UNL A   1      34.739  33.416  29.257  1.00  0.00     0.002 C 
BRANCH  28  29
ATOM     29  C   UNL A   1      33.481  34.254  29.016  1.00  0.00     0.021 C 
BRANCH  29  30
ATOM     30  C   UNL A   1      33.570  35.700  29.483  1.00  0.00     0.116 C 
BRANCH  30  31
ATOM     31  N   UNL A   1      32.606  36.015  30.525  1.00  0.00    -0.352 N 
ATOM     32  C   UNL A   1      32.622  35.681  31.858  1.00  0.00     0.251 C 
ATOM     33  H   UNL A   1      31.828  36.543  30.233  1.00  0.00     0.163 HD
ATOM     34  O   UNL A   1      31.642  35.903  32.562  1.00  0.00    -0.269 OA
BRANCH  32  35
ATOM     35  C   UNL A   1      33.814  35.023  32.436  1.00  0.00     0.039 A 
ATOM     36  C   UNL A   1      35.046  35.679  32.471  1.00  0.00     0.014 A 
ATOM     37  C   UNL A   1      33.695  33.724  32.939  1.00  0.00     0.014 A 
ATOM     38  C   UNL A   1      36.187  34.982  32.855  1.00  0.00     0.010 A 
ATOM     39  C   UNL A   1      34.830  33.055  33.405  1.00  0.00     0.010 A 
ATOM     40  C   UNL A   1      36.093  33.661  33.324  1.00  0.00    -0.014 A 
BRANCH  40  41
ATOM     41  C   UNL A   1      37.330  32.937  33.714  1.00  0.00     0.031 A 
ATOM     42  C   UNL A   1      37.964  31.938  32.782  1.00  0.00     0.074 A 
ATOM     43  C   UNL A   1      37.914  33.220  34.894  1.00  0.00     0.049 A 
ATOM     44  N   UNL A   1      39.052  31.229  32.948  1.00  0.00    -0.248 NA
ATOM     45  C   UNL A   1      37.284  31.698  31.499  1.00  0.00     0.031 C 
ATOM     46  C   UNL A   1      37.401  34.172  35.883  1.00  0.00     0.029 A 
ATOM     47  N   UNL A   1      39.076  32.755  35.454  1.00  0.00    -0.354 N 
ATOM     48  C   UNL A   1      39.180  30.451  31.804  1.00  0.00     0.074 A 
ATOM     49  C   UNL A   1      38.039  30.750  30.964  1.00  0.00     0.031 C 
ATOM     50  C   UNL A   1      38.267  34.256  36.903  1.00  0.00     0.029 A 
ATOM     51  C   UNL A   1      39.364  33.322  36.671  1.00  0.00     0.049 A 
ATOM     52  H   UNL A   1      39.649  32.080  35.024  1.00  0.00     0.167 HD
ATOM     53  C   UNL A   1      40.162  29.578  31.476  1.00  0.00     0.037 A 
ATOM     54  C   UNL A   1      40.388  33.103  37.515  1.00  0.00     0.037 A 
ATOM     55  C   UNL A   1      41.304  29.291  32.305  1.00  0.00     0.049 A 
ATOM     56  C   UNL A   1      41.437  32.095  37.146  1.00  0.00     0.074 A 
ATOM     57  C   UNL A   1      42.366  28.439  32.050  1.00  0.00     0.029 A 
ATOM     58  N   UNL A   1      41.534  29.848  33.554  1.00  0.00    -0.354 N 
ATOM     59  N   UNL A   1      41.554  31.384  36.052  1.00  0.00    -0.248 NA
ATOM     60  C   UNL A   1      42.496  31.855  38.137  1.00  0.00     0.031 C 
ATOM     61  C   UNL A   1      43.215  28.450  33.163  1.00  0.00     0.029 A 
ATOM     62  C   UNL A   1      42.706  29.342  34.092  1.00  0.00     0.049 A 
ATOM     63  H   UNL A   1      40.948  30.506  33.994  1.00  0.00     0.167 HD
ATOM     64  C   UNL A   1      42.703  30.623  36.215  1.00  0.00     0.074 A 
ATOM     65  C   UNL A   1      43.262  30.979  37.503  1.00  0.00     0.031 C 
ATOM     66  C   UNL A   1      43.245  29.705  35.376  1.00  0.00     0.037 A 
BRANCH  53  67
ATOM     67  C   UNL A   1      40.035  28.854  30.166  1.00  0.00     0.057 A 
ATOM     68  C   UNL A   1      40.625  29.369  29.004  1.00  0.00     0.134 A 
ATOM     69  C   UNL A   1      39.308  27.662  30.046  1.00  0.00     0.134 A 
ATOM     70  F   UNL A   1      41.329  30.510  29.046  1.00  0.00    -0.206 F 
ATOM     71  C   UNL A   1      40.496  28.726  27.772  1.00  0.00     0.040 A 
ATOM     72  C   UNL A   1      39.192  26.996  28.823  1.00  0.00     0.040 A 
ATOM     73  F   UNL A   1      38.730  27.107  31.121  1.00  0.00    -0.206 F 
ATOM     74  C   UNL A   1      39.783  27.532  27.680  1.00  0.00     0.006 A 
ENDBRANCH  53  67
BRANCH  54  75
ATOM     75  C   UNL A   1      40.466  33.842  38.800  1.00  0.00     0.057 A 
ATOM     76  C   UNL A   1      39.768  33.408  39.933  1.00  0.00     0.134 A 
ATOM     77  C   UNL A   1      41.258  34.988  38.928  1.00  0.00     0.134 A 
ATOM     78  F   UNL A   1      38.989  32.319  39.872  1.00  0.00    -0.206 F 
ATOM     79  C   UNL A   1      39.849  34.091  41.146  1.00  0.00     0.040 A 
ATOM     80  C   UNL A   1      41.370  35.666  40.143  1.00  0.00     0.040 A 
ATOM     81  F   UNL A   1      41.965  35.442  37.882  1.00  0.00    -0.206 F 
ATOM     82  C   UNL A   1      40.660  35.219  41.257  1.00  0.00     0.006 A 
ENDBRANCH  54  75
BRANCH  66  83
ATOM     83  C   UNL A   1      44.517  29.049  35.826  1.00  0.00     0.057 A 
ATOM     84  C   UNL A   1      44.484  27.882  36.599  1.00  0.00     0.134 A 
ATOM     85  C   UNL A   1      45.774  29.570  35.494  1.00  0.00     0.134 A 
ATOM     86  F   UNL A   1      43.312  27.334  36.956  1.00  0.00    -0.206 F 
ATOM     87  C   UNL A   1      45.657  27.256  37.024  1.00  0.00     0.040 A 
ATOM     88  C   UNL A   1      46.953  28.938  35.890  1.00  0.00     0.040 A 
ATOM     89  F   UNL A   1      45.874  30.677  34.740  1.00  0.00    -0.206 F 
ATOM     90  C   UNL A   1      46.896  27.779  36.661  1.00  0.00     0.006 A 
ENDBRANCH  66  83
ENDBRANCH  40  41
ENDBRANCH  32  35
ENDBRANCH  30  31
ENDBRANCH  29  30
ENDBRANCH  28  29
ENDBRANCH   1  28
TORSDOF 17
ENDMDL
