MODEL 1
REMARK VINA RESULT:     -13.1      0.000      0.000
REMARK SMILES Cc1c(NCc2ccccn2)cccc1C(=O)N1CCOC[C@@H]1CC(=O)NCCCCCCNC(=O)c1ccc(-c2c3nc(c(-c4c(F)cccc4F)c4ccc([nH]4)c(-c4c(F)cccc4F)c4nc(c(-c5c(F)cccc5F)c5ccc2[nH]5)C=C4)C=C3)cc1
REMARK SMILES IDX 28 1 27 2 25 3 26 4 24 6 23 7 18 8 19 9 20 10 22 11 21 12
REMARK SMILES IDX 16 13 17 14 15 15 1 16 2 17 3 18 12 19 14 20 13 21 4 22 5 24
REMARK SMILES IDX 6 25 7 26 11 27 8 28 10 29 9 30 29 31 30 32 31 33 32 34
REMARK SMILES IDX 33 35 34 36 35 37 36 39 37 40 38 41 90 42 39 43 89 44 40 45
REMARK SMILES IDX 41 46 42 47 83 48 43 49 88 50 82 51 84 52 44 53 87 54 81 55
REMARK SMILES IDX 80 56 45 58 71 59 54 60 70 61 55 62 58 63 69 64 85 65 56 66
REMARK SMILES IDX 57 67 68 69 86 70 59 71 46 72 47 73 52 74 48 75 49 76 51 77
REMARK SMILES IDX 53 78 50 79 72 80 73 81 78 82 74 83 75 84 77 85 79 86 76 87
REMARK SMILES IDX 60 88 61 89 66 90 62 91 63 92 65 93 67 94 64 95
REMARK H PARENT 27 5 4 23 34 38 84 57 58 68
REMARK Flexibility Score: inf
ROOT
ATOM      1  C   UNL A   1      35.575  22.714  25.543  1.00  0.00     0.116 C 
ENDROOT
BRANCH   1   2
ATOM      2  N   UNL A   1      35.576  23.257  24.210  1.00  0.00    -0.356 N 
ATOM      3  C   UNL A   1      34.660  24.139  23.719  1.00  0.00     0.222 C 
ATOM      4  O   UNL A   1      34.420  24.129  22.512  1.00  0.00    -0.275 OA
ATOM      5  H   UNL A   1      36.296  22.967  23.604  1.00  0.00     0.163 HD
BRANCH   3   6
ATOM      6  C   UNL A   1      34.030  25.156  24.649  1.00  0.00     0.127 C 
BRANCH   6   7
ATOM      7  C   UNL A   1      32.526  25.072  24.949  1.00  0.00     0.120 C 
ATOM      8  N   UNL A   1      31.733  26.332  25.110  1.00  0.00    -0.331 N 
ATOM      9  C   UNL A   1      30.294  26.008  25.092  1.00  0.00     0.148 C 
ATOM     10  C   UNL A   1      29.921  24.927  26.127  1.00  0.00     0.181 C 
ATOM     11  C   UNL A   1      32.170  24.137  26.125  1.00  0.00     0.185 C 
ATOM     12  O   UNL A   1      30.775  23.778  26.055  1.00  0.00    -0.377 OA
BRANCH   8  13
ATOM     13  C   UNL A   1      32.111  27.515  24.471  1.00  0.00     0.254 C 
ATOM     14  O   UNL A   1      32.695  27.524  23.392  1.00  0.00    -0.269 OA
BRANCH  13  15
ATOM     15  C   UNL A   1      31.952  28.828  25.193  1.00  0.00     0.045 A 
ATOM     16  C   UNL A   1      34.131  28.560  27.076  1.00  0.00     0.047 C 
ATOM     17  C   UNL A   1      33.030  29.410  26.522  1.00  0.00    -0.015 A 
ATOM     18  C   UNL A   1      32.834  31.083  27.186  1.00  0.00     0.038 A 
ATOM     19  C   UNL A   1      31.561  32.183  26.541  1.00  0.00     0.026 A 
ATOM     20  C   UNL A   1      30.645  29.914  24.561  1.00  0.00     0.014 A 
ATOM     21  C   UNL A   1      30.460  31.597  25.223  1.00  0.00     0.003 A 
BRANCH  18  22
ATOM     22  N   UNL A   1      33.651  31.497  28.226  1.00  0.00    -0.379 N 
ATOM     23  H   UNL A   1      33.532  31.113  29.125  1.00  0.00     0.160 HD
BRANCH  22  24
ATOM     24  C   UNL A   1      34.681  32.493  27.996  1.00  0.00     0.169 C 
BRANCH  24  25
ATOM     25  C   UNL A   1      34.621  33.609  29.035  1.00  0.00     0.059 A 
ATOM     26  C   UNL A   1      33.514  35.056  28.802  1.00  0.00     0.026 A 
ATOM     27  N   UNL A   1      35.176  33.117  30.690  1.00  0.00    -0.259 NA
ATOM     28  C   UNL A   1      32.905  35.969  30.277  1.00  0.00     0.004 A 
ATOM     29  C   UNL A   1      34.600  33.995  32.154  1.00  0.00     0.111 A 
ATOM     30  C   UNL A   1      33.425  35.377  32.000  1.00  0.00     0.020 A 
ENDBRANCH  24  25
ENDBRANCH  22  24
ENDBRANCH  18  22
ENDBRANCH  13  15
ENDBRANCH   8  13
ENDBRANCH   6   7
ENDBRANCH   3   6
ENDBRANCH   1   2
BRANCH   1  31
ATOM     31  C   UNL A   1      36.821  21.843  25.709  1.00  0.00     0.021 C 
BRANCH  31  32
ATOM     32  C   UNL A   1      37.015  20.732  24.670  1.00  0.00     0.002 C 
BRANCH  32  33
ATOM     33  C   UNL A   1      38.267  19.624  25.007  1.00  0.00     0.002 C 
BRANCH  33  34
ATOM     34  C   UNL A   1      40.160  19.633  26.100  1.00  0.00     0.021 C 
BRANCH  34  35
ATOM     35  C   UNL A   1      41.653  20.460  26.013  1.00  0.00     0.116 C 
BRANCH  35  36
ATOM     36  N   UNL A   1      41.802  21.841  25.499  1.00  0.00    -0.352 N 
ATOM     37  C   UNL A   1      42.720  22.840  25.816  1.00  0.00     0.251 C 
ATOM     38  H   UNL A   1      41.139  22.097  24.818  1.00  0.00     0.163 HD
ATOM     39  O   UNL A   1      42.780  23.850  25.118  1.00  0.00    -0.269 OA
BRANCH  37  40
ATOM     40  C   UNL A   1      43.731  22.635  26.895  1.00  0.00     0.039 A 
ATOM     41  C   UNL A   1      43.210  22.453  28.175  1.00  0.00     0.014 A 
ATOM     42  C   UNL A   1      44.959  23.248  26.750  1.00  0.00     0.014 A 
ATOM     43  C   UNL A   1      43.633  23.317  29.173  1.00  0.00     0.010 A 
ATOM     44  C   UNL A   1      45.209  24.282  27.631  1.00  0.00     0.010 A 
ATOM     45  C   UNL A   1      44.435  24.411  28.803  1.00  0.00    -0.014 A 
BRANCH  45  46
ATOM     46  C   UNL A   1      44.588  25.858  29.625  1.00  0.00     0.031 A 
ATOM     47  C   UNL A   1      42.861  26.330  29.154  1.00  0.00     0.074 A 
ATOM     48  C   UNL A   1      45.928  26.811  30.535  1.00  0.00     0.049 A 
ATOM     49  N   UNL A   1      42.291  27.444  29.512  1.00  0.00    -0.248 NA
ATOM     50  C   UNL A   1      41.914  25.625  28.261  1.00  0.00     0.031 C 
ATOM     51  C   UNL A   1      45.982  28.248  31.499  1.00  0.00     0.029 A 
ATOM     52  N   UNL A   1      47.460  26.769  30.671  1.00  0.00    -0.354 N 
ATOM     53  C   UNL A   1      41.093  27.666  28.947  1.00  0.00     0.074 A 
ATOM     54  C   UNL A   1      40.829  26.429  28.264  1.00  0.00     0.031 C 
ATOM     55  C   UNL A   1      47.176  28.853  31.436  1.00  0.00     0.029 A 
ATOM     56  C   UNL A   1      47.974  28.078  30.547  1.00  0.00     0.049 A 
ATOM     57  H   UNL A   1      47.997  25.958  30.822  1.00  0.00     0.167 HD
ATOM     58  C   UNL A   1      40.537  28.873  29.258  1.00  0.00     0.037 A 
ATOM     59  C   UNL A   1      48.507  28.519  29.372  1.00  0.00     0.037 A 
ATOM     60  C   UNL A   1      41.586  29.872  29.643  1.00  0.00     0.049 A 
ATOM     61  C   UNL A   1      47.680  29.709  28.843  1.00  0.00     0.074 A 
ATOM     62  C   UNL A   1      42.116  30.275  30.863  1.00  0.00     0.029 A 
ATOM     63  N   UNL A   1      42.469  30.389  28.676  1.00  0.00    -0.354 N 
ATOM     64  N   UNL A   1      46.380  29.878  28.985  1.00  0.00    -0.248 NA
ATOM     65  C   UNL A   1      48.309  30.873  28.239  1.00  0.00     0.031 C 
ATOM     66  C   UNL A   1      43.369  30.928  30.629  1.00  0.00     0.029 A 
ATOM     67  C   UNL A   1      43.611  30.969  29.262  1.00  0.00     0.049 A 
ATOM     68  H   UNL A   1      42.307  30.349  27.705  1.00  0.00     0.167 HD
ATOM     69  C   UNL A   1      45.985  31.110  28.506  1.00  0.00     0.074 A 
ATOM     70  C   UNL A   1      47.259  31.703  28.101  1.00  0.00     0.031 C 
ATOM     71  C   UNL A   1      44.687  31.592  28.454  1.00  0.00     0.037 A 
BRANCH  58  72
ATOM     72  C   UNL A   1      39.058  29.020  29.551  1.00  0.00     0.057 A 
ATOM     73  C   UNL A   1      38.167  29.412  28.528  1.00  0.00     0.134 A 
ATOM     74  C   UNL A   1      38.467  28.946  30.826  1.00  0.00     0.134 A 
ATOM     75  F   UNL A   1      38.561  29.505  27.251  1.00  0.00    -0.206 F 
ATOM     76  C   UNL A   1      36.828  29.762  28.767  1.00  0.00     0.040 A 
ATOM     77  C   UNL A   1      37.135  29.310  31.082  1.00  0.00     0.040 A 
ATOM     78  F   UNL A   1      39.140  28.510  31.894  1.00  0.00    -0.206 F 
ATOM     79  C   UNL A   1      36.311  29.731  30.052  1.00  0.00     0.006 A 
ENDBRANCH  58  72
BRANCH  59  80
ATOM     80  C   UNL A   1      49.194  27.392  28.624  1.00  0.00     0.057 A 
ATOM     81  C   UNL A   1      48.520  26.840  27.499  1.00  0.00     0.134 A 
ATOM     82  C   UNL A   1      50.560  27.110  28.693  1.00  0.00     0.134 A 
ATOM     83  F   UNL A   1      47.189  26.984  27.374  1.00  0.00    -0.206 F 
ATOM     84  C   UNL A   1      49.194  26.282  26.405  1.00  0.00     0.040 A 
ATOM     85  C   UNL A   1      51.250  26.535  27.604  1.00  0.00     0.040 A 
ATOM     86  F   UNL A   1      51.280  27.490  29.758  1.00  0.00    -0.206 F 
ATOM     87  C   UNL A   1      50.577  26.178  26.435  1.00  0.00     0.006 A 
ENDBRANCH  59  80
BRANCH  71  88
ATOM     88  C   UNL A   1      44.302  32.837  27.669  1.00  0.00     0.057 A 
ATOM     89  C   UNL A   1      44.169  32.878  26.272  1.00  0.00     0.134 A 
ATOM     90  C   UNL A   1      43.909  34.020  28.335  1.00  0.00     0.134 A 
ATOM     91  F   UNL A   1      44.343  31.787  25.515  1.00  0.00    -0.206 F 
ATOM     92  C   UNL A   1      43.784  34.034  25.586  1.00  0.00     0.040 A 
ATOM     93  C   UNL A   1      43.441  35.153  27.665  1.00  0.00     0.040 A 
ATOM     94  F   UNL A   1      43.930  34.126  29.671  1.00  0.00    -0.206 F 
ATOM     95  C   UNL A   1      43.405  35.174  26.281  1.00  0.00     0.006 A 
ENDBRANCH  71  88
ENDBRANCH  45  46
ENDBRANCH  37  40
ENDBRANCH  35  36
ENDBRANCH  34  35
ENDBRANCH  33  34
ENDBRANCH  32  33
ENDBRANCH  31  32
ENDBRANCH   1  31
TORSDOF 19
ENDMDL
MODEL 2
REMARK VINA RESULT:     -12.7      3.427      7.724
REMARK SMILES Cc1c(NCc2ccccn2)cccc1C(=O)N1CCOC[C@@H]1CC(=O)NCCCCCCNC(=O)c1ccc(-c2c3nc(c(-c4c(F)cccc4F)c4ccc([nH]4)c(-c4c(F)cccc4F)c4nc(c(-c5c(F)cccc5F)c5ccc2[nH]5)C=C4)C=C3)cc1
REMARK SMILES IDX 28 1 27 2 25 3 26 4 24 6 23 7 18 8 19 9 20 10 22 11 21 12
REMARK SMILES IDX 16 13 17 14 15 15 1 16 2 17 3 18 12 19 14 20 13 21 4 22 5 24
REMARK SMILES IDX 6 25 7 26 11 27 8 28 10 29 9 30 29 31 30 32 31 33 32 34
REMARK SMILES IDX 33 35 34 36 35 37 36 39 37 40 38 41 90 42 39 43 89 44 40 45
REMARK SMILES IDX 41 46 42 47 83 48 43 49 88 50 82 51 84 52 44 53 87 54 81 55
REMARK SMILES IDX 80 56 45 58 71 59 54 60 70 61 55 62 58 63 69 64 85 65 56 66
REMARK SMILES IDX 57 67 68 69 86 70 59 71 46 72 47 73 52 74 48 75 49 76 51 77
REMARK SMILES IDX 53 78 50 79 72 80 73 81 78 82 74 83 75 84 77 85 79 86 76 87
REMARK SMILES IDX 60 88 61 89 66 90 62 91 63 92 65 93 67 94 64 95
REMARK H PARENT 27 5 4 23 34 38 84 57 58 68
REMARK Flexibility Score: inf
ROOT
ATOM      1  C   UNL A   1      37.844  24.079  26.245  1.00  0.00     0.116 C 
ENDROOT
BRANCH   1   2
ATOM      2  N   UNL A   1      37.799  23.689  24.859  1.00  0.00    -0.356 N 
ATOM      3  C   UNL A   1      36.674  23.330  24.180  1.00  0.00     0.222 C 
ATOM      4  O   UNL A   1      36.778  22.542  23.241  1.00  0.00    -0.275 OA
ATOM      5  H   UNL A   1      38.649  23.683  24.362  1.00  0.00     0.163 HD
BRANCH   3   6
ATOM      6  C   UNL A   1      35.347  23.966  24.543  1.00  0.00     0.127 C 
BRANCH   6   7
ATOM      7  C   UNL A   1      34.050  23.164  24.356  1.00  0.00     0.120 C 
ATOM      8  N   UNL A   1      32.817  23.857  23.862  1.00  0.00    -0.331 N 
ATOM      9  C   UNL A   1      31.810  22.848  23.484  1.00  0.00     0.148 C 
ATOM     10  C   UNL A   1      31.522  21.849  24.624  1.00  0.00     0.181 C 
ATOM     11  C   UNL A   1      33.654  22.314  25.583  1.00  0.00     0.185 C 
ATOM     12  O   UNL A   1      32.718  21.292  25.184  1.00  0.00    -0.377 OA
BRANCH   8  13
ATOM     13  C   UNL A   1      32.897  24.990  23.048  1.00  0.00     0.254 C 
ATOM     14  O   UNL A   1      33.635  25.047  22.070  1.00  0.00    -0.269 OA
BRANCH  13  15
ATOM     15  C   UNL A   1      32.184  26.250  23.465  1.00  0.00     0.045 A 
ATOM     16  C   UNL A   1      33.532  26.704  25.984  1.00  0.00     0.047 C 
ATOM     17  C   UNL A   1      32.540  27.185  24.971  1.00  0.00    -0.015 A 
ATOM     18  C   UNL A   1      31.730  28.777  25.266  1.00  0.00     0.038 A 
ATOM     19  C   UNL A   1      30.557  29.445  24.073  1.00  0.00     0.026 A 
ATOM     20  C   UNL A   1      30.979  26.896  22.275  1.00  0.00     0.014 A 
ATOM     21  C   UNL A   1      30.177  28.500  22.571  1.00  0.00     0.003 A 
BRANCH  18  22
ATOM     22  N   UNL A   1      31.994  29.460  26.442  1.00  0.00    -0.379 N 
ATOM     23  H   UNL A   1      31.629  29.129  27.295  1.00  0.00     0.160 HD
BRANCH  22  24
ATOM     24  C   UNL A   1      32.806  30.663  26.423  1.00  0.00     0.169 C 
BRANCH  24  25
ATOM     25  C   UNL A   1      33.922  30.601  27.463  1.00  0.00     0.059 A 
ATOM     26  C   UNL A   1      35.299  29.398  27.298  1.00  0.00     0.026 A 
ATOM     27  N   UNL A   1      34.124  32.123  28.429  1.00  0.00    -0.259 NA
ATOM     28  C   UNL A   1      36.924  29.781  28.065  1.00  0.00     0.004 A 
ATOM     29  C   UNL A   1      35.703  32.524  29.198  1.00  0.00     0.111 A 
ATOM     30  C   UNL A   1      37.137  31.420  28.991  1.00  0.00     0.020 A 
ENDBRANCH  24  25
ENDBRANCH  22  24
ENDBRANCH  18  22
ENDBRANCH  13  15
ENDBRANCH   8  13
ENDBRANCH   6   7
ENDBRANCH   3   6
ENDBRANCH   1   2
BRANCH   1  31
ATOM     31  C   UNL A   1      39.301  24.028  26.710  1.00  0.00     0.021 C 
BRANCH  31  32
ATOM     32  C   UNL A   1      39.760  22.719  27.363  1.00  0.00     0.002 C 
BRANCH  32  33
ATOM     33  C   UNL A   1      40.128  21.451  26.284  1.00  0.00     0.002 C 
BRANCH  33  34
ATOM     34  C   UNL A   1      41.562  19.805  26.180  1.00  0.00     0.021 C 
BRANCH  34  35
ATOM     35  C   UNL A   1      43.206  19.599  25.761  1.00  0.00     0.116 C 
BRANCH  35  36
ATOM     36  N   UNL A   1      44.005  20.615  25.038  1.00  0.00    -0.352 N 
ATOM     37  C   UNL A   1      44.153  21.984  25.252  1.00  0.00     0.251 C 
ATOM     38  H   UNL A   1      44.520  20.262  24.276  1.00  0.00     0.163 HD
ATOM     39  O   UNL A   1      45.027  22.600  24.646  1.00  0.00    -0.269 OA
BRANCH  37  40
ATOM     40  C   UNL A   1      43.366  22.681  26.312  1.00  0.00     0.039 A 
ATOM     41  C   UNL A   1      42.879  23.940  25.964  1.00  0.00     0.014 A 
ATOM     42  C   UNL A   1      43.696  22.428  27.627  1.00  0.00     0.014 A 
ATOM     43  C   UNL A   1      43.228  25.012  26.770  1.00  0.00     0.010 A 
ATOM     44  C   UNL A   1      44.278  23.482  28.302  1.00  0.00     0.010 A 
ATOM     45  C   UNL A   1      44.170  24.791  27.791  1.00  0.00    -0.014 A 
BRANCH  45  46
ATOM     46  C   UNL A   1      45.172  25.934  28.487  1.00  0.00     0.031 A 
ATOM     47  C   UNL A   1      46.512  25.523  27.278  1.00  0.00     0.074 A 
ATOM     48  C   UNL A   1      45.152  27.091  29.967  1.00  0.00     0.049 A 
ATOM     49  N   UNL A   1      47.674  26.109  27.256  1.00  0.00    -0.248 NA
ATOM     50  C   UNL A   1      46.545  24.454  26.253  1.00  0.00     0.031 C 
ATOM     51  C   UNL A   1      46.168  28.365  30.552  1.00  0.00     0.029 A 
ATOM     52  N   UNL A   1      44.335  27.272  31.259  1.00  0.00    -0.354 N 
ATOM     53  C   UNL A   1      48.559  25.567  26.403  1.00  0.00     0.074 A 
ATOM     54  C   UNL A   1      47.763  24.605  25.690  1.00  0.00     0.031 C 
ATOM     55  C   UNL A   1      46.105  28.491  31.884  1.00  0.00     0.029 A 
ATOM     56  C   UNL A   1      45.217  27.476  32.342  1.00  0.00     0.049 A 
ATOM     57  H   UNL A   1      43.353  27.248  31.321  1.00  0.00     0.167 HD
ATOM     58  C   UNL A   1      49.801  26.130  26.444  1.00  0.00     0.037 A 
ATOM     59  C   UNL A   1      45.547  26.458  33.187  1.00  0.00     0.037 A 
ATOM     60  C   UNL A   1      50.060  26.778  27.771  1.00  0.00     0.049 A 
ATOM     61  C   UNL A   1      47.064  26.190  33.108  1.00  0.00     0.074 A 
ATOM     62  C   UNL A   1      49.916  28.076  28.242  1.00  0.00     0.029 A 
ATOM     63  N   UNL A   1      50.244  25.991  28.925  1.00  0.00    -0.354 N 
ATOM     64  N   UNL A   1      47.823  26.319  32.037  1.00  0.00    -0.248 NA
ATOM     65  C   UNL A   1      47.855  25.899  34.293  1.00  0.00     0.031 C 
ATOM     66  C   UNL A   1      49.896  28.049  29.674  1.00  0.00     0.029 A 
ATOM     67  C   UNL A   1      50.065  26.739  30.105  1.00  0.00     0.049 A 
ATOM     68  H   UNL A   1      50.470  25.033  28.908  1.00  0.00     0.167 HD
ATOM     69  C   UNL A   1      49.153  26.127  32.346  1.00  0.00     0.074 A 
ATOM     70  C   UNL A   1      49.104  25.919  33.793  1.00  0.00     0.031 C 
ATOM     71  C   UNL A   1      50.213  26.140  31.454  1.00  0.00     0.037 A 
BRANCH  58  72
ATOM     72  C   UNL A   1      50.601  26.394  25.185  1.00  0.00     0.057 A 
ATOM     73  C   UNL A   1      51.947  25.976  25.099  1.00  0.00     0.134 A 
ATOM     74  C   UNL A   1      50.174  27.175  24.095  1.00  0.00     0.134 A 
ATOM     75  F   UNL A   1      52.504  25.203  26.040  1.00  0.00    -0.206 F 
ATOM     76  C   UNL A   1      52.805  26.359  24.056  1.00  0.00     0.040 A 
ATOM     77  C   UNL A   1      51.026  27.579  23.054  1.00  0.00     0.040 A 
ATOM     78  F   UNL A   1      48.908  27.584  23.969  1.00  0.00    -0.206 F 
ATOM     79  C   UNL A   1      52.351  27.180  23.036  1.00  0.00     0.006 A 
ENDBRANCH  58  72
BRANCH  59  80
ATOM     80  C   UNL A   1      44.388  25.492  33.361  1.00  0.00     0.057 A 
ATOM     81  C   UNL A   1      44.436  24.267  32.640  1.00  0.00     0.134 A 
ATOM     82  C   UNL A   1      43.490  25.516  34.430  1.00  0.00     0.134 A 
ATOM     83  F   UNL A   1      45.210  24.160  31.545  1.00  0.00    -0.206 F 
ATOM     84  C   UNL A   1      43.839  23.087  33.102  1.00  0.00     0.040 A 
ATOM     85  C   UNL A   1      42.870  24.338  34.897  1.00  0.00     0.040 A 
ATOM     86  F   UNL A   1      43.283  26.647  35.119  1.00  0.00    -0.206 F 
ATOM     87  C   UNL A   1      43.094  23.111  34.271  1.00  0.00     0.006 A 
ENDBRANCH  59  80
BRANCH  71  88
ATOM     88  C   UNL A   1      51.606  25.653  31.823  1.00  0.00     0.057 A 
ATOM     89  C   UNL A   1      52.734  26.484  31.911  1.00  0.00     0.134 A 
ATOM     90  C   UNL A   1      51.819  24.321  32.247  1.00  0.00     0.134 A 
ATOM     91  F   UNL A   1      52.654  27.805  31.704  1.00  0.00    -0.206 F 
ATOM     92  C   UNL A   1      53.995  26.006  32.283  1.00  0.00     0.040 A 
ATOM     93  C   UNL A   1      53.054  23.854  32.702  1.00  0.00     0.040 A 
ATOM     94  F   UNL A   1      50.832  23.414  32.270  1.00  0.00    -0.206 F 
ATOM     95  C   UNL A   1      54.157  24.690  32.693  1.00  0.00     0.006 A 
ENDBRANCH  71  88
ENDBRANCH  45  46
ENDBRANCH  37  40
ENDBRANCH  35  36
ENDBRANCH  34  35
ENDBRANCH  33  34
ENDBRANCH  32  33
ENDBRANCH  31  32
ENDBRANCH   1  31
TORSDOF 19
ENDMDL
MODEL 3
REMARK VINA RESULT:     -12.1      7.652     13.221
REMARK SMILES Cc1c(NCc2ccccn2)cccc1C(=O)N1CCOC[C@@H]1CC(=O)NCCCCCCNC(=O)c1ccc(-c2c3nc(c(-c4c(F)cccc4F)c4ccc([nH]4)c(-c4c(F)cccc4F)c4nc(c(-c5c(F)cccc5F)c5ccc2[nH]5)C=C4)C=C3)cc1
REMARK SMILES IDX 28 1 27 2 25 3 26 4 24 6 23 7 18 8 19 9 20 10 22 11 21 12
REMARK SMILES IDX 16 13 17 14 15 15 1 16 2 17 3 18 12 19 14 20 13 21 4 22 5 24
REMARK SMILES IDX 6 25 7 26 11 27 8 28 10 29 9 30 29 31 30 32 31 33 32 34
REMARK SMILES IDX 33 35 34 36 35 37 36 39 37 40 38 41 90 42 39 43 89 44 40 45
REMARK SMILES IDX 41 46 42 47 83 48 43 49 88 50 82 51 84 52 44 53 87 54 81 55
REMARK SMILES IDX 80 56 45 58 71 59 54 60 70 61 55 62 58 63 69 64 85 65 56 66
REMARK SMILES IDX 57 67 68 69 86 70 59 71 46 72 47 73 52 74 48 75 49 76 51 77
REMARK SMILES IDX 53 78 50 79 72 80 73 81 78 82 74 83 75 84 77 85 79 86 76 87
REMARK SMILES IDX 60 88 61 89 66 90 62 91 63 92 65 93 67 94 64 95
REMARK H PARENT 27 5 4 23 34 38 84 57 58 68
REMARK Flexibility Score: inf
ROOT
ATOM      1  C   UNL A   1      46.444  23.525  34.179  1.00  0.00     0.116 C 
ENDROOT
BRANCH   1   2
ATOM      2  N   UNL A   1      46.576  23.771  35.591  1.00  0.00    -0.356 N 
ATOM      3  C   UNL A   1      46.174  22.921  36.578  1.00  0.00     0.222 C 
ATOM      4  O   UNL A   1      45.836  23.393  37.662  1.00  0.00    -0.275 OA
ATOM      5  H   UNL A   1      46.989  24.621  35.867  1.00  0.00     0.163 HD
BRANCH   3   6
ATOM      6  C   UNL A   1      46.233  21.425  36.344  1.00  0.00     0.127 C 
BRANCH   6   7
ATOM      7  C   UNL A   1      47.457  20.634  36.829  1.00  0.00     0.120 C 
ATOM      8  N   UNL A   1      47.614  20.337  38.289  1.00  0.00    -0.331 N 
ATOM      9  C   UNL A   1      48.680  19.333  38.469  1.00  0.00     0.148 C 
ATOM     10  C   UNL A   1      50.003  19.752  37.796  1.00  0.00     0.181 C 
ATOM     11  C   UNL A   1      48.805  21.181  36.311  1.00  0.00     0.185 C 
ATOM     12  O   UNL A   1      49.822  20.166  36.435  1.00  0.00    -0.377 OA
BRANCH   8  13
ATOM     13  C   UNL A   1      46.505  20.223  39.130  1.00  0.00     0.254 C 
ATOM     14  O   UNL A   1      46.068  21.169  39.777  1.00  0.00    -0.269 OA
BRANCH  13  15
ATOM     15  C   UNL A   1      45.913  18.862  39.391  1.00  0.00     0.045 A 
ATOM     16  C   UNL A   1      46.441  18.689  42.229  1.00  0.00     0.047 C 
ATOM     17  C   UNL A   1      45.827  18.069  41.013  1.00  0.00    -0.015 A 
ATOM     18  C   UNL A   1      44.933  16.507  41.216  1.00  0.00     0.038 A 
ATOM     19  C   UNL A   1      44.130  15.720  39.808  1.00  0.00     0.026 A 
ATOM     20  C   UNL A   1      45.138  18.061  37.961  1.00  0.00     0.014 A 
ATOM     21  C   UNL A   1      44.233  16.499  38.172  1.00  0.00     0.003 A 
BRANCH  18  22
ATOM     22  N   UNL A   1      44.907  15.902  42.462  1.00  0.00    -0.379 N 
ATOM     23  H   UNL A   1      45.692  15.399  42.779  1.00  0.00     0.160 HD
BRANCH  22  24
ATOM     24  C   UNL A   1      43.727  16.006  43.301  1.00  0.00     0.169 C 
BRANCH  24  25
ATOM     25  C   UNL A   1      43.030  14.657  43.455  1.00  0.00     0.059 A 
ATOM     26  C   UNL A   1      41.744  14.118  42.260  1.00  0.00     0.026 A 
ATOM     27  N   UNL A   1      43.961  13.445  44.433  1.00  0.00    -0.259 NA
ATOM     28  C   UNL A   1      41.452  12.322  42.003  1.00  0.00     0.004 A 
ATOM     29  C   UNL A   1      43.693  11.678  44.207  1.00  0.00     0.111 A 
ATOM     30  C   UNL A   1      42.502  11.075  42.969  1.00  0.00     0.020 A 
ENDBRANCH  24  25
ENDBRANCH  22  24
ENDBRANCH  18  22
ENDBRANCH  13  15
ENDBRANCH   8  13
ENDBRANCH   6   7
ENDBRANCH   3   6
ENDBRANCH   1   2
BRANCH   1  31
ATOM     31  C   UNL A   1      45.168  24.213  33.689  1.00  0.00     0.021 C 
BRANCH  31  32
ATOM     32  C   UNL A   1      44.131  23.312  33.007  1.00  0.00     0.002 C 
BRANCH  32  33
ATOM     33  C   UNL A   1      44.088  23.403  31.304  1.00  0.00     0.002 C 
BRANCH  33  34
ATOM     34  C   UNL A   1      43.654  24.922  29.794  1.00  0.00     0.021 C 
BRANCH  34  35
ATOM     35  C   UNL A   1      42.989  24.971  28.220  1.00  0.00     0.116 C 
BRANCH  35  36
ATOM     36  N   UNL A   1      42.261  23.841  27.598  1.00  0.00    -0.352 N 
ATOM     37  C   UNL A   1      41.014  23.789  26.978  1.00  0.00     0.251 C 
ATOM     38  H   UNL A   1      42.739  22.981  27.628  1.00  0.00     0.163 HD
ATOM     39  O   UNL A   1      40.691  22.781  26.354  1.00  0.00    -0.269 OA
BRANCH  37  40
ATOM     40  C   UNL A   1      40.130  24.992  26.935  1.00  0.00     0.039 A 
ATOM     41  C   UNL A   1      40.602  26.053  26.164  1.00  0.00     0.014 A 
ATOM     42  C   UNL A   1      39.355  25.259  28.045  1.00  0.00     0.014 A 
ATOM     43  C   UNL A   1      40.746  27.285  26.783  1.00  0.00     0.010 A 
ATOM     44  C   UNL A   1      39.722  26.380  28.763  1.00  0.00     0.010 A 
ATOM     45  C   UNL A   1      40.556  27.351  28.174  1.00  0.00    -0.014 A 
BRANCH  45  46
ATOM     46  C   UNL A   1      41.206  28.486  29.216  1.00  0.00     0.031 A 
ATOM     47  C   UNL A   1      39.688  29.534  29.049  1.00  0.00     0.074 A 
ATOM     48  C   UNL A   1      42.829  28.793  30.111  1.00  0.00     0.049 A 
ATOM     49  N   UNL A   1      39.519  30.668  29.665  1.00  0.00    -0.248 NA
ATOM     50  C   UNL A   1      38.515  29.340  28.166  1.00  0.00     0.031 C 
ATOM     51  C   UNL A   1      43.389  29.918  31.301  1.00  0.00     0.029 A 
ATOM     52  N   UNL A   1      44.276  28.273  30.051  1.00  0.00    -0.354 N 
ATOM     53  C   UNL A   1      38.418  31.346  29.298  1.00  0.00     0.074 A 
ATOM     54  C   UNL A   1      37.740  30.410  28.444  1.00  0.00     0.031 C 
ATOM     55  C   UNL A   1      44.706  30.142  31.202  1.00  0.00     0.029 A 
ATOM     56  C   UNL A   1      45.166  29.368  30.100  1.00  0.00     0.049 A 
ATOM     57  H   UNL A   1      44.540  27.326  29.989  1.00  0.00     0.167 HD
ATOM     58  C   UNL A   1      38.289  32.571  29.883  1.00  0.00     0.037 A 
ATOM     59  C   UNL A   1      45.738  29.864  28.966  1.00  0.00     0.037 A 
ATOM     60  C   UNL A   1      39.620  33.114  30.310  1.00  0.00     0.049 A 
ATOM     61  C   UNL A   1      45.295  31.326  28.760  1.00  0.00     0.074 A 
ATOM     62  C   UNL A   1      40.322  33.082  31.508  1.00  0.00     0.029 A 
ATOM     63  N   UNL A   1      40.560  33.535  29.349  1.00  0.00    -0.354 N 
ATOM     64  N   UNL A   1      44.125  31.839  29.087  1.00  0.00    -0.248 NA
ATOM     65  C   UNL A   1      46.219  32.352  28.300  1.00  0.00     0.031 C 
ATOM     66  C   UNL A   1      41.700  33.369  31.244  1.00  0.00     0.029 A 
ATOM     67  C   UNL A   1      41.859  33.618  29.886  1.00  0.00     0.049 A 
ATOM     68  H   UNL A   1      40.335  33.746  28.414  1.00  0.00     0.167 HD
ATOM     69  C   UNL A   1      44.108  33.203  28.886  1.00  0.00     0.074 A 
ATOM     70  C   UNL A   1      45.476  33.464  28.441  1.00  0.00     0.031 C 
ATOM     71  C   UNL A   1      43.026  34.048  29.077  1.00  0.00     0.037 A 
BRANCH  58  72
ATOM     72  C   UNL A   1      36.951  33.085  30.375  1.00  0.00     0.057 A 
ATOM     73  C   UNL A   1      36.026  33.641  29.465  1.00  0.00     0.134 A 
ATOM     74  C   UNL A   1      36.569  33.208  31.724  1.00  0.00     0.134 A 
ATOM     75  F   UNL A   1      36.223  33.586  28.141  1.00  0.00    -0.206 F 
ATOM     76  C   UNL A   1      34.862  34.316  29.866  1.00  0.00     0.040 A 
ATOM     77  C   UNL A   1      35.418  33.894  32.141  1.00  0.00     0.040 A 
ATOM     78  F   UNL A   1      37.282  32.663  32.714  1.00  0.00    -0.206 F 
ATOM     79  C   UNL A   1      34.563  34.462  31.212  1.00  0.00     0.006 A 
ENDBRANCH  58  72
BRANCH  59  80
ATOM     80  C   UNL A   1      45.990  28.763  27.951  1.00  0.00     0.057 A 
ATOM     81  C   UNL A   1      45.097  28.665  26.849  1.00  0.00     0.134 A 
ATOM     82  C   UNL A   1      47.207  28.097  27.789  1.00  0.00     0.134 A 
ATOM     83  F   UNL A   1      43.867  29.204  26.929  1.00  0.00    -0.206 F 
ATOM     84  C   UNL A   1      45.483  28.171  25.596  1.00  0.00     0.040 A 
ATOM     85  C   UNL A   1      47.604  27.582  26.537  1.00  0.00     0.040 A 
ATOM     86  F   UNL A   1      48.087  28.033  28.799  1.00  0.00    -0.206 F 
ATOM     87  C   UNL A   1      46.767  27.676  25.423  1.00  0.00     0.006 A 
ENDBRANCH  59  80
BRANCH  71  88
ATOM     88  C   UNL A   1      43.004  35.484  28.578  1.00  0.00     0.057 A 
ATOM     89  C   UNL A   1      42.680  35.858  27.265  1.00  0.00     0.134 A 
ATOM     90  C   UNL A   1      43.176  36.565  29.473  1.00  0.00     0.134 A 
ATOM     91  F   UNL A   1      42.325  34.954  26.342  1.00  0.00    -0.206 F 
ATOM     92  C   UNL A   1      42.640  37.193  26.848  1.00  0.00     0.040 A 
ATOM     93  C   UNL A   1      43.055  37.902  29.088  1.00  0.00     0.040 A 
ATOM     94  F   UNL A   1      43.442  36.377  30.774  1.00  0.00    -0.206 F 
ATOM     95  C   UNL A   1      42.815  38.222  27.763  1.00  0.00     0.006 A 
ENDBRANCH  71  88
ENDBRANCH  45  46
ENDBRANCH  37  40
ENDBRANCH  35  36
ENDBRANCH  34  35
ENDBRANCH  33  34
ENDBRANCH  32  33
ENDBRANCH  31  32
ENDBRANCH   1  31
TORSDOF 19
ENDMDL
