MODEL 1
REMARK VINA RESULT:     -12.4      0.000      0.000
REMARK SMILES Cc1cc2n(n1)[C@H](C(F)(F)F)CCN2C(=O)c1cnn([C@@H](C)C(=O)NCCCCCCNC(=O)c2ccc(-c3c4nc(c(-c5c(F)cccc5F)c5ccc([nH]5)c(-c5c(F)cccc5F)c5nc(c(-c6c(F)cccc6F)c6ccc3[nH]6)C=C5)C=C4)cc2)c1
REMARK SMILES IDX 27 1 26 2 25 3 23 4 24 5 21 7 22 8 20 9 17 10 18 11 89 12
REMARK SMILES IDX 19 13 15 14 16 15 14 16 1 17 2 18 3 19 6 20 4 21 5 22 7 23
REMARK SMILES IDX 13 24 12 25 8 26 9 27 10 28 11 29 28 30 29 31 30 32 31 33
REMARK SMILES IDX 32 34 33 35 34 37 35 38 36 39 88 40 37 41 87 42 38 43 39 44
REMARK SMILES IDX 40 45 81 46 41 47 86 48 80 49 82 50 42 51 85 52 79 53 78 54
REMARK SMILES IDX 43 56 69 57 52 58 68 59 53 60 56 61 67 62 83 63 54 64 55 65
REMARK SMILES IDX 66 67 84 68 57 69 44 70 45 71 50 72 46 73 47 74 49 75 51 76
REMARK SMILES IDX 48 77 70 78 71 79 76 80 72 81 73 82 75 83 77 84 74 85 58 86
REMARK SMILES IDX 59 87 64 88 60 89 61 90 63 91 65 92 62 93
REMARK H PARENT 25 6 32 36 82 55 56 66
REMARK Flexibility Score: inf
ROOT
ATOM      1  C   UNL A   1      41.155  21.080  26.049  1.00  0.00     0.021 C 
ENDROOT
BRANCH   1   2
ATOM      2  C   UNL A   1      39.633  21.023  26.214  1.00  0.00     0.116 C 
BRANCH   2   3
ATOM      3  N   UNL A   1      39.001  22.263  25.804  1.00  0.00    -0.354 N 
ATOM      4  C   UNL A   1      37.706  22.540  25.488  1.00  0.00     0.244 C 
ATOM      5  O   UNL A   1      37.475  23.667  25.032  1.00  0.00    -0.273 OA
ATOM      6  H   UNL A   1      39.611  23.033  25.745  1.00  0.00     0.163 HD
BRANCH   4   7
ATOM      7  C   UNL A   1      36.551  21.567  25.703  1.00  0.00     0.193 C 
ATOM      8  C   UNL A   1      36.696  20.238  24.968  1.00  0.00     0.044 C 
BRANCH   7   9
ATOM      9  N   UNL A   1      35.245  22.202  25.557  1.00  0.00    -0.260 N 
ATOM     10  C   UNL A   1      33.436  23.429  25.884  1.00  0.00     0.078 A 
ATOM     11  C   UNL A   1      33.436  22.788  24.632  1.00  0.00     0.149 A 
ATOM     12  C   UNL A   1      34.650  23.064  26.439  1.00  0.00     0.123 A 
ATOM     13  N   UNL A   1      34.446  21.935  24.504  1.00  0.00    -0.180 NA
BRANCH  10  14
ATOM     14  C   UNL A   1      32.490  24.356  26.439  1.00  0.00     0.262 C 
ATOM     15  O   UNL A   1      31.642  24.032  27.265  1.00  0.00    -0.269 OA
BRANCH  14  16
ATOM     16  N   UNL A   1      32.567  25.710  25.899  1.00  0.00    -0.293 N 
ATOM     17  C   UNL A   1      28.122  26.727  23.777  1.00  0.00     0.069 C 
ATOM     18  C   UNL A   1      29.498  26.772  24.324  1.00  0.00     0.062 A 
ATOM     19  C   UNL A   1      30.180  25.766  25.053  1.00  0.00     0.072 A 
ATOM     20  N   UNL A   1      30.269  27.851  24.138  1.00  0.00    -0.176 NA
ATOM     21  C   UNL A   1      31.449  26.257  25.255  1.00  0.00     0.134 A 
ATOM     22  N   UNL A   1      31.451  27.484  24.648  1.00  0.00    -0.237 N 
ATOM     23  C   UNL A   1      32.594  28.367  24.595  1.00  0.00     0.216 C 
ATOM     24  C   UNL A   1      33.846  26.467  25.791  1.00  0.00     0.130 C 
ATOM     25  C   UNL A   1      33.604  27.979  25.684  1.00  0.00     0.059 C 
BRANCH  23  26
ATOM     26  C   UNL A   1      33.219  28.352  23.217  1.00  0.00     0.410 C 
ATOM     27  F   UNL A   1      33.108  27.133  22.641  1.00  0.00    -0.169 F 
ATOM     28  F   UNL A   1      32.695  29.260  22.376  1.00  0.00    -0.169 F 
ATOM     29  F   UNL A   1      34.545  28.619  23.319  1.00  0.00    -0.169 F 
ENDBRANCH  23  26
ENDBRANCH  14  16
ENDBRANCH  10  14
ENDBRANCH   7   9
ENDBRANCH   4   7
ENDBRANCH   2   3
ENDBRANCH   1   2
BRANCH   1  30
ATOM     30  C   UNL A   1      41.944  20.696  27.303  1.00  0.00     0.002 C 
BRANCH  30  31
ATOM     31  C   UNL A   1      42.260  19.202  27.465  1.00  0.00     0.002 C 
BRANCH  31  32
ATOM     32  C   UNL A   1      42.769  18.466  26.215  1.00  0.00     0.021 C 
BRANCH  32  33
ATOM     33  C   UNL A   1      44.277  18.523  26.032  1.00  0.00     0.116 C 
BRANCH  33  34
ATOM     34  N   UNL A   1      44.669  18.601  24.626  1.00  0.00    -0.352 N 
ATOM     35  C   UNL A   1      44.698  19.709  23.802  1.00  0.00     0.251 C 
ATOM     36  H   UNL A   1      44.948  17.754  24.212  1.00  0.00     0.163 HD
ATOM     37  O   UNL A   1      44.719  19.594  22.583  1.00  0.00    -0.269 OA
BRANCH  35  38
ATOM     38  C   UNL A   1      44.695  21.044  24.423  1.00  0.00     0.039 A 
ATOM     39  C   UNL A   1      43.863  22.063  23.956  1.00  0.00     0.014 A 
ATOM     40  C   UNL A   1      45.511  21.241  25.531  1.00  0.00     0.014 A 
ATOM     41  C   UNL A   1      43.797  23.258  24.671  1.00  0.00     0.010 A 
ATOM     42  C   UNL A   1      45.311  22.340  26.325  1.00  0.00     0.010 A 
ATOM     43  C   UNL A   1      44.510  23.385  25.874  1.00  0.00    -0.014 A 
BRANCH  43  44
ATOM     44  C   UNL A   1      44.400  24.593  26.690  1.00  0.00     0.031 A 
ATOM     45  C   UNL A   1      45.519  25.578  26.596  1.00  0.00     0.074 A 
ATOM     46  C   UNL A   1      43.262  24.924  27.341  1.00  0.00     0.049 A 
ATOM     47  N   UNL A   1      46.279  26.016  27.546  1.00  0.00    -0.248 NA
ATOM     48  C   UNL A   1      45.865  26.108  25.268  1.00  0.00     0.031 C 
ATOM     49  C   UNL A   1      41.951  24.259  27.316  1.00  0.00     0.029 A 
ATOM     50  N   UNL A   1      43.021  26.024  28.101  1.00  0.00    -0.354 N 
ATOM     51  C   UNL A   1      47.110  26.982  26.978  1.00  0.00     0.074 A 
ATOM     52  C   UNL A   1      46.882  26.923  25.557  1.00  0.00     0.031 C 
ATOM     53  C   UNL A   1      41.012  25.089  27.818  1.00  0.00     0.029 A 
ATOM     54  C   UNL A   1      41.682  26.243  28.382  1.00  0.00     0.049 A 
ATOM     55  H   UNL A   1      43.738  26.617  28.426  1.00  0.00     0.167 HD
ATOM     56  C   UNL A   1      47.813  27.872  27.736  1.00  0.00     0.037 A 
ATOM     57  C   UNL A   1      41.153  27.307  29.027  1.00  0.00     0.037 A 
ATOM     58  C   UNL A   1      47.909  27.436  29.104  1.00  0.00     0.049 A 
ATOM     59  C   UNL A   1      42.245  27.939  29.805  1.00  0.00     0.074 A 
ATOM     60  C   UNL A   1      48.464  26.340  29.735  1.00  0.00     0.029 A 
ATOM     61  N   UNL A   1      47.074  28.005  30.033  1.00  0.00    -0.354 N 
ATOM     62  N   UNL A   1      42.829  27.378  30.826  1.00  0.00    -0.248 NA
ATOM     63  C   UNL A   1      42.990  29.015  29.172  1.00  0.00     0.031 C 
ATOM     64  C   UNL A   1      47.550  26.021  30.784  1.00  0.00     0.029 A 
ATOM     65  C   UNL A   1      46.529  26.973  30.754  1.00  0.00     0.049 A 
ATOM     66  H   UNL A   1      46.899  28.966  30.157  1.00  0.00     0.167 HD
ATOM     67  C   UNL A   1      44.165  27.734  30.715  1.00  0.00     0.074 A 
ATOM     68  C   UNL A   1      44.185  28.818  29.734  1.00  0.00     0.031 C 
ATOM     69  C   UNL A   1      45.159  26.941  31.213  1.00  0.00     0.037 A 
BRANCH  56  70
ATOM     70  C   UNL A   1      48.178  29.273  27.315  1.00  0.00     0.057 A 
ATOM     71  C   UNL A   1      49.523  29.687  27.346  1.00  0.00     0.134 A 
ATOM     72  C   UNL A   1      47.239  30.309  27.145  1.00  0.00     0.134 A 
ATOM     73  F   UNL A   1      50.515  28.799  27.523  1.00  0.00    -0.206 F 
ATOM     74  C   UNL A   1      49.900  31.035  27.274  1.00  0.00     0.040 A 
ATOM     75  C   UNL A   1      47.607  31.653  27.020  1.00  0.00     0.040 A 
ATOM     76  F   UNL A   1      45.919  30.089  27.190  1.00  0.00    -0.206 F 
ATOM     77  C   UNL A   1      48.938  32.024  27.115  1.00  0.00     0.006 A 
ENDBRANCH  56  70
BRANCH  57  78
ATOM     78  C   UNL A   1      39.848  27.953  28.787  1.00  0.00     0.057 A 
ATOM     79  C   UNL A   1      38.863  27.985  29.779  1.00  0.00     0.134 A 
ATOM     80  C   UNL A   1      39.636  28.783  27.670  1.00  0.00     0.134 A 
ATOM     81  F   UNL A   1      38.999  27.255  30.895  1.00  0.00    -0.206 F 
ATOM     82  C   UNL A   1      37.741  28.817  29.682  1.00  0.00     0.040 A 
ATOM     83  C   UNL A   1      38.516  29.612  27.556  1.00  0.00     0.040 A 
ATOM     84  F   UNL A   1      40.554  28.888  26.697  1.00  0.00    -0.206 F 
ATOM     85  C   UNL A   1      37.570  29.643  28.573  1.00  0.00     0.006 A 
ENDBRANCH  57  78
BRANCH  69  86
ATOM     86  C   UNL A   1      44.770  25.781  32.091  1.00  0.00     0.057 A 
ATOM     87  C   UNL A   1      44.554  24.478  31.615  1.00  0.00     0.134 A 
ATOM     88  C   UNL A   1      44.778  25.948  33.480  1.00  0.00     0.134 A 
ATOM     89  F   UNL A   1      44.630  24.195  30.310  1.00  0.00    -0.206 F 
ATOM     90  C   UNL A   1      44.315  23.403  32.477  1.00  0.00     0.040 A 
ATOM     91  C   UNL A   1      44.573  24.878  34.354  1.00  0.00     0.040 A 
ATOM     92  F   UNL A   1      45.038  27.152  34.014  1.00  0.00    -0.206 F 
ATOM     93  C   UNL A   1      44.331  23.600  33.854  1.00  0.00     0.006 A 
ENDBRANCH  69  86
ENDBRANCH  43  44
ENDBRANCH  35  38
ENDBRANCH  33  34
ENDBRANCH  32  33
ENDBRANCH  31  32
ENDBRANCH  30  31
ENDBRANCH   1  30
TORSDOF 17
ENDMDL
MODEL 2
REMARK VINA RESULT:     -12.0      4.996     10.609
REMARK SMILES Cc1cc2n(n1)[C@H](C(F)(F)F)CCN2C(=O)c1cnn([C@@H](C)C(=O)NCCCCCCNC(=O)c2ccc(-c3c4nc(c(-c5c(F)cccc5F)c5ccc([nH]5)c(-c5c(F)cccc5F)c5nc(c(-c6c(F)cccc6F)c6ccc3[nH]6)C=C5)C=C4)cc2)c1
REMARK SMILES IDX 27 1 26 2 25 3 23 4 24 5 21 7 22 8 20 9 17 10 18 11 89 12
REMARK SMILES IDX 19 13 15 14 16 15 14 16 1 17 2 18 3 19 6 20 4 21 5 22 7 23
REMARK SMILES IDX 13 24 12 25 8 26 9 27 10 28 11 29 28 30 29 31 30 32 31 33
REMARK SMILES IDX 32 34 33 35 34 37 35 38 36 39 88 40 37 41 87 42 38 43 39 44
REMARK SMILES IDX 40 45 81 46 41 47 86 48 80 49 82 50 42 51 85 52 79 53 78 54
REMARK SMILES IDX 43 56 69 57 52 58 68 59 53 60 56 61 67 62 83 63 54 64 55 65
REMARK SMILES IDX 66 67 84 68 57 69 44 70 45 71 50 72 46 73 47 74 49 75 51 76
REMARK SMILES IDX 48 77 70 78 71 79 76 80 72 81 73 82 75 83 77 84 74 85 58 86
REMARK SMILES IDX 59 87 64 88 60 89 61 90 63 91 65 92 62 93
REMARK H PARENT 25 6 32 36 82 55 56 66
REMARK Flexibility Score: inf
ROOT
ATOM      1  C   UNL A   1      33.955  32.215  28.075  1.00  0.00     0.021 C 
ENDROOT
BRANCH   1   2
ATOM      2  C   UNL A   1      34.313  30.897  27.382  1.00  0.00     0.116 C 
BRANCH   2   3
ATOM      3  N   UNL A   1      33.297  29.883  27.594  1.00  0.00    -0.354 N 
ATOM      4  C   UNL A   1      32.304  29.434  26.779  1.00  0.00     0.244 C 
ATOM      5  O   UNL A   1      31.486  28.652  27.281  1.00  0.00    -0.273 OA
ATOM      6  H   UNL A   1      33.331  29.448  28.477  1.00  0.00     0.163 HD
BRANCH   4   7
ATOM      7  C   UNL A   1      32.179  29.807  25.305  1.00  0.00     0.193 C 
ATOM      8  C   UNL A   1      30.788  30.269  24.883  1.00  0.00     0.044 C 
BRANCH   7   9
ATOM      9  N   UNL A   1      32.783  28.815  24.421  1.00  0.00    -0.260 N 
ATOM     10  C   UNL A   1      33.298  26.930  23.388  1.00  0.00     0.078 A 
ATOM     11  C   UNL A   1      33.947  28.046  22.831  1.00  0.00     0.149 A 
ATOM     12  C   UNL A   1      32.512  27.473  24.390  1.00  0.00     0.123 A 
ATOM     13  N   UNL A   1      33.755  29.148  23.548  1.00  0.00    -0.180 NA
BRANCH  10  14
ATOM     14  C   UNL A   1      33.312  25.557  22.967  1.00  0.00     0.262 C 
ATOM     15  O   UNL A   1      33.442  25.220  21.794  1.00  0.00    -0.269 OA
BRANCH  14  16
ATOM     16  N   UNL A   1      33.091  24.584  24.032  1.00  0.00    -0.293 N 
ATOM     17  C   UNL A   1      37.572  23.560  26.074  1.00  0.00     0.069 C 
ATOM     18  C   UNL A   1      36.131  23.654  25.741  1.00  0.00     0.062 A 
ATOM     19  C   UNL A   1      35.516  24.467  24.755  1.00  0.00     0.072 A 
ATOM     20  N   UNL A   1      35.232  22.903  26.388  1.00  0.00    -0.176 NA
ATOM     21  C   UNL A   1      34.183  24.127  24.783  1.00  0.00     0.134 A 
ATOM     22  N   UNL A   1      34.087  23.160  25.745  1.00  0.00    -0.237 N 
ATOM     23  C   UNL A   1      32.859  22.492  26.112  1.00  0.00     0.216 C 
ATOM     24  C   UNL A   1      31.796  23.873  24.223  1.00  0.00     0.130 C 
ATOM     25  C   UNL A   1      31.654  23.323  25.649  1.00  0.00     0.059 C 
BRANCH  23  26
ATOM     26  C   UNL A   1      32.824  21.088  25.548  1.00  0.00     0.410 C 
ATOM     27  F   UNL A   1      33.524  21.005  24.393  1.00  0.00    -0.169 F 
ATOM     28  F   UNL A   1      33.298  20.154  26.391  1.00  0.00    -0.169 F 
ATOM     29  F   UNL A   1      31.543  20.749  25.256  1.00  0.00    -0.169 F 
ENDBRANCH  23  26
ENDBRANCH  14  16
ENDBRANCH  10  14
ENDBRANCH   7   9
ENDBRANCH   4   7
ENDBRANCH   2   3
ENDBRANCH   1   2
BRANCH   1  30
ATOM     30  C   UNL A   1      35.045  33.287  28.000  1.00  0.00     0.002 C 
BRANCH  30  31
ATOM     31  C   UNL A   1      34.566  34.741  28.123  1.00  0.00     0.002 C 
BRANCH  31  32
ATOM     32  C   UNL A   1      33.325  34.986  28.997  1.00  0.00     0.021 C 
BRANCH  32  33
ATOM     33  C   UNL A   1      33.392  36.258  29.828  1.00  0.00     0.116 C 
BRANCH  33  34
ATOM     34  N   UNL A   1      32.644  36.151  31.078  1.00  0.00    -0.352 N 
ATOM     35  C   UNL A   1      32.795  35.230  32.095  1.00  0.00     0.251 C 
ATOM     36  H   UNL A   1      31.939  36.825  31.214  1.00  0.00     0.163 HD
ATOM     37  O   UNL A   1      31.907  35.039  32.917  1.00  0.00    -0.269 OA
BRANCH  35  38
ATOM     38  C   UNL A   1      34.052  34.467  32.167  1.00  0.00     0.039 A 
ATOM     39  C   UNL A   1      34.084  33.091  31.927  1.00  0.00     0.014 A 
ATOM     40  C   UNL A   1      35.220  35.173  32.428  1.00  0.00     0.014 A 
ATOM     41  C   UNL A   1      35.320  32.448  31.867  1.00  0.00     0.010 A 
ATOM     42  C   UNL A   1      36.432  34.577  32.192  1.00  0.00     0.010 A 
ATOM     43  C   UNL A   1      36.499  33.203  31.980  1.00  0.00    -0.014 A 
BRANCH  43  44
ATOM     44  C   UNL A   1      37.811  32.574  31.840  1.00  0.00     0.031 A 
ATOM     45  C   UNL A   1      38.651  32.479  33.072  1.00  0.00     0.074 A 
ATOM     46  C   UNL A   1      38.183  31.918  30.718  1.00  0.00     0.049 A 
ATOM     47  N   UNL A   1      39.834  32.961  33.272  1.00  0.00    -0.248 NA
ATOM     48  C   UNL A   1      38.083  31.800  34.246  1.00  0.00     0.031 C 
ATOM     49  C   UNL A   1      37.397  31.625  29.510  1.00  0.00     0.029 A 
ATOM     50  N   UNL A   1      39.352  31.269  30.474  1.00  0.00    -0.354 N 
ATOM     51  C   UNL A   1      40.230  32.535  34.540  1.00  0.00     0.074 A 
ATOM     52  C   UNL A   1      39.075  31.911  35.132  1.00  0.00     0.031 C 
ATOM     53  C   UNL A   1      38.017  30.669  28.786  1.00  0.00     0.029 A 
ATOM     54  C   UNL A   1      39.325  30.438  29.366  1.00  0.00     0.049 A 
ATOM     55  H   UNL A   1      40.152  31.381  31.037  1.00  0.00     0.167 HD
ATOM     56  C   UNL A   1      41.529  32.586  34.949  1.00  0.00     0.037 A 
ATOM     57  C   UNL A   1      40.306  29.605  28.954  1.00  0.00     0.037 A 
ATOM     58  C   UNL A   1      42.308  33.471  34.123  1.00  0.00     0.049 A 
ATOM     59  C   UNL A   1      41.571  30.076  29.566  1.00  0.00     0.074 A 
ATOM     60  C   UNL A   1      42.262  34.821  33.837  1.00  0.00     0.029 A 
ATOM     61  N   UNL A   1      43.113  32.923  33.156  1.00  0.00    -0.354 N 
ATOM     62  N   UNL A   1      42.149  31.204  29.263  1.00  0.00    -0.248 NA
ATOM     63  C   UNL A   1      41.962  29.496  30.840  1.00  0.00     0.031 C 
ATOM     64  C   UNL A   1      42.594  34.913  32.452  1.00  0.00     0.029 A 
ATOM     65  C   UNL A   1      42.870  33.622  32.001  1.00  0.00     0.049 A 
ATOM     66  H   UNL A   1      43.743  32.174  33.269  1.00  0.00     0.167 HD
ATOM     67  C   UNL A   1      42.652  31.683  30.463  1.00  0.00     0.074 A 
ATOM     68  C   UNL A   1      42.589  30.544  31.378  1.00  0.00     0.031 C 
ATOM     69  C   UNL A   1      42.813  33.020  30.688  1.00  0.00     0.037 A 
BRANCH  56  70
ATOM     70  C   UNL A   1      42.172  31.630  35.923  1.00  0.00     0.057 A 
ATOM     71  C   UNL A   1      42.821  32.126  37.069  1.00  0.00     0.134 A 
ATOM     72  C   UNL A   1      42.415  30.271  35.640  1.00  0.00     0.134 A 
ATOM     73  F   UNL A   1      42.687  33.410  37.437  1.00  0.00    -0.206 F 
ATOM     74  C   UNL A   1      43.692  31.345  37.840  1.00  0.00     0.040 A 
ATOM     75  C   UNL A   1      43.243  29.469  36.432  1.00  0.00     0.040 A 
ATOM     76  F   UNL A   1      41.947  29.679  34.534  1.00  0.00    -0.206 F 
ATOM     77  C   UNL A   1      43.909  30.011  37.518  1.00  0.00     0.006 A 
ENDBRANCH  56  70
BRANCH  57  78
ATOM     78  C   UNL A   1      40.160  28.289  28.300  1.00  0.00     0.057 A 
ATOM     79  C   UNL A   1      40.666  28.058  27.017  1.00  0.00     0.134 A 
ATOM     80  C   UNL A   1      39.756  27.153  29.025  1.00  0.00     0.134 A 
ATOM     81  F   UNL A   1      41.110  29.079  26.269  1.00  0.00    -0.206 F 
ATOM     82  C   UNL A   1      40.789  26.767  26.490  1.00  0.00     0.040 A 
ATOM     83  C   UNL A   1      39.865  25.858  28.507  1.00  0.00     0.040 A 
ATOM     84  F   UNL A   1      39.329  27.251  30.293  1.00  0.00    -0.206 F 
ATOM     85  C   UNL A   1      40.399  25.661  27.241  1.00  0.00     0.006 A 
ENDBRANCH  57  78
BRANCH  69  86
ATOM     86  C   UNL A   1      42.651  33.960  29.523  1.00  0.00     0.057 A 
ATOM     87  C   UNL A   1      41.465  34.653  29.236  1.00  0.00     0.134 A 
ATOM     88  C   UNL A   1      43.777  34.304  28.766  1.00  0.00     0.134 A 
ATOM     89  F   UNL A   1      40.361  34.472  29.970  1.00  0.00    -0.206 F 
ATOM     90  C   UNL A   1      41.391  35.610  28.220  1.00  0.00     0.040 A 
ATOM     91  C   UNL A   1      43.726  35.282  27.770  1.00  0.00     0.040 A 
ATOM     92  F   UNL A   1      44.963  33.730  29.022  1.00  0.00    -0.206 F 
ATOM     93  C   UNL A   1      42.528  35.933  27.486  1.00  0.00     0.006 A 
ENDBRANCH  69  86
ENDBRANCH  43  44
ENDBRANCH  35  38
ENDBRANCH  33  34
ENDBRANCH  32  33
ENDBRANCH  31  32
ENDBRANCH  30  31
ENDBRANCH   1  30
TORSDOF 17
ENDMDL
MODEL 3
REMARK VINA RESULT:     -11.9      3.407      8.855
REMARK SMILES Cc1cc2n(n1)[C@H](C(F)(F)F)CCN2C(=O)c1cnn([C@@H](C)C(=O)NCCCCCCNC(=O)c2ccc(-c3c4nc(c(-c5c(F)cccc5F)c5ccc([nH]5)c(-c5c(F)cccc5F)c5nc(c(-c6c(F)cccc6F)c6ccc3[nH]6)C=C5)C=C4)cc2)c1
REMARK SMILES IDX 27 1 26 2 25 3 23 4 24 5 21 7 22 8 20 9 17 10 18 11 89 12
REMARK SMILES IDX 19 13 15 14 16 15 14 16 1 17 2 18 3 19 6 20 4 21 5 22 7 23
REMARK SMILES IDX 13 24 12 25 8 26 9 27 10 28 11 29 28 30 29 31 30 32 31 33
REMARK SMILES IDX 32 34 33 35 34 37 35 38 36 39 88 40 37 41 87 42 38 43 39 44
REMARK SMILES IDX 40 45 81 46 41 47 86 48 80 49 82 50 42 51 85 52 79 53 78 54
REMARK SMILES IDX 43 56 69 57 52 58 68 59 53 60 56 61 67 62 83 63 54 64 55 65
REMARK SMILES IDX 66 67 84 68 57 69 44 70 45 71 50 72 46 73 47 74 49 75 51 76
REMARK SMILES IDX 48 77 70 78 71 79 76 80 72 81 73 82 75 83 77 84 74 85 58 86
REMARK SMILES IDX 59 87 64 88 60 89 61 90 63 91 65 92 62 93
REMARK H PARENT 25 6 32 36 82 55 56 66
REMARK Flexibility Score: inf
ROOT
ATOM      1  C   UNL A   1      33.234  29.292  25.017  1.00  0.00     0.021 C 
ENDROOT
BRANCH   1   2
ATOM      2  C   UNL A   1      31.707  29.170  25.014  1.00  0.00     0.116 C 
BRANCH   2   3
ATOM      3  N   UNL A   1      31.130  29.670  23.781  1.00  0.00    -0.354 N 
ATOM      4  C   UNL A   1      30.561  29.012  22.733  1.00  0.00     0.244 C 
ATOM      5  O   UNL A   1      30.278  29.693  21.739  1.00  0.00    -0.273 OA
ATOM      6  H   UNL A   1      31.154  30.649  23.685  1.00  0.00     0.163 HD
BRANCH   4   7
ATOM      7  C   UNL A   1      30.227  27.523  22.744  1.00  0.00     0.193 C 
ATOM      8  C   UNL A   1      29.344  27.080  23.906  1.00  0.00     0.044 C 
BRANCH   7   9
ATOM      9  N   UNL A   1      31.399  26.683  22.517  1.00  0.00    -0.260 N 
ATOM     10  C   UNL A   1      32.741  24.952  22.222  1.00  0.00     0.078 A 
ATOM     11  C   UNL A   1      33.396  26.182  22.036  1.00  0.00     0.149 A 
ATOM     12  C   UNL A   1      31.431  25.314  22.487  1.00  0.00     0.123 A 
ATOM     13  N   UNL A   1      32.628  27.215  22.364  1.00  0.00    -0.180 NA
BRANCH  10  14
ATOM     14  C   UNL A   1      33.236  23.615  22.055  1.00  0.00     0.262 C 
ATOM     15  O   UNL A   1      33.682  23.196  20.990  1.00  0.00    -0.269 OA
BRANCH  14  16
ATOM     16  N   UNL A   1      33.110  22.760  23.231  1.00  0.00    -0.293 N 
ATOM     17  C   UNL A   1      37.740  22.036  25.057  1.00  0.00     0.069 C 
ATOM     18  C   UNL A   1      36.279  22.071  24.816  1.00  0.00     0.062 A 
ATOM     19  C   UNL A   1      35.580  22.762  23.794  1.00  0.00     0.072 A 
ATOM     20  N   UNL A   1      35.443  21.380  25.600  1.00  0.00    -0.176 NA
ATOM     21  C   UNL A   1      34.260  22.405  23.949  1.00  0.00     0.134 A 
ATOM     22  N   UNL A   1      34.252  21.547  25.015  1.00  0.00    -0.237 N 
ATOM     23  C   UNL A   1      33.067  20.902  25.535  1.00  0.00     0.216 C 
ATOM     24  C   UNL A   1      31.848  22.053  23.586  1.00  0.00     0.130 C 
ATOM     25  C   UNL A   1      31.814  21.659  25.069  1.00  0.00     0.059 C 
BRANCH  23  26
ATOM     26  C   UNL A   1      33.027  19.445  25.129  1.00  0.00     0.410 C 
ATOM     27  F   UNL A   1      32.944  18.637  26.210  1.00  0.00    -0.169 F 
ATOM     28  F   UNL A   1      32.012  19.142  24.301  1.00  0.00    -0.169 F 
ATOM     29  F   UNL A   1      34.177  19.123  24.486  1.00  0.00    -0.169 F 
ENDBRANCH  23  26
ENDBRANCH  14  16
ENDBRANCH  10  14
ENDBRANCH   7   9
ENDBRANCH   4   7
ENDBRANCH   2   3
ENDBRANCH   1   2
BRANCH   1  30
ATOM     30  C   UNL A   1      33.933  28.475  26.106  1.00  0.00     0.002 C 
BRANCH  30  31
ATOM     31  C   UNL A   1      34.593  29.283  27.233  1.00  0.00     0.002 C 
BRANCH  31  32
ATOM     32  C   UNL A   1      33.972  30.653  27.552  1.00  0.00     0.021 C 
BRANCH  32  33
ATOM     33  C   UNL A   1      34.989  31.731  27.891  1.00  0.00     0.116 C 
BRANCH  33  34
ATOM     34  N   UNL A   1      34.680  32.421  29.142  1.00  0.00    -0.352 N 
ATOM     35  C   UNL A   1      35.149  32.150  30.412  1.00  0.00     0.251 C 
ATOM     36  H   UNL A   1      34.055  33.177  29.070  1.00  0.00     0.163 HD
ATOM     37  O   UNL A   1      34.571  32.571  31.406  1.00  0.00    -0.269 OA
BRANCH  35  38
ATOM     38  C   UNL A   1      36.364  31.331  30.549  1.00  0.00     0.039 A 
ATOM     39  C   UNL A   1      36.297  29.940  30.667  1.00  0.00     0.014 A 
ATOM     40  C   UNL A   1      37.590  31.983  30.501  1.00  0.00     0.014 A 
ATOM     41  C   UNL A   1      37.481  29.206  30.648  1.00  0.00     0.010 A 
ATOM     42  C   UNL A   1      38.733  31.252  30.304  1.00  0.00     0.010 A 
ATOM     43  C   UNL A   1      38.703  29.867  30.444  1.00  0.00    -0.014 A 
BRANCH  43  44
ATOM     44  C   UNL A   1      39.955  29.120  30.337  1.00  0.00     0.031 A 
ATOM     45  C   UNL A   1      40.721  28.898  31.601  1.00  0.00     0.074 A 
ATOM     46  C   UNL A   1      40.317  28.473  29.208  1.00  0.00     0.049 A 
ATOM     47  N   UNL A   1      41.933  29.257  31.874  1.00  0.00    -0.248 NA
ATOM     48  C   UNL A   1      40.034  28.234  32.720  1.00  0.00     0.031 C 
ATOM     49  C   UNL A   1      39.567  28.302  27.954  1.00  0.00     0.029 A 
ATOM     50  N   UNL A   1      41.430  27.724  28.990  1.00  0.00    -0.354 N 
ATOM     51  C   UNL A   1      42.224  28.747  33.140  1.00  0.00     0.074 A 
ATOM     52  C   UNL A   1      40.987  28.216  33.654  1.00  0.00     0.031 C 
ATOM     53  C   UNL A   1      40.128  27.318  27.220  1.00  0.00     0.029 A 
ATOM     54  C   UNL A   1      41.378  26.940  27.848  1.00  0.00     0.049 A 
ATOM     55  H   UNL A   1      42.208  27.736  29.593  1.00  0.00     0.167 HD
ATOM     56  C   UNL A   1      43.501  28.657  33.610  1.00  0.00     0.037 A 
ATOM     57  C   UNL A   1      42.294  26.033  27.446  1.00  0.00     0.037 A 
ATOM     58  C   UNL A   1      44.399  29.492  32.856  1.00  0.00     0.049 A 
ATOM     59  C   UNL A   1      43.567  26.356  28.134  1.00  0.00     0.074 A 
ATOM     60  C   UNL A   1      44.496  30.850  32.625  1.00  0.00     0.029 A 
ATOM     61  N   UNL A   1      45.196  28.905  31.905  1.00  0.00    -0.354 N 
ATOM     62  N   UNL A   1      44.264  27.434  27.904  1.00  0.00    -0.248 NA
ATOM     63  C   UNL A   1      43.839  25.693  29.399  1.00  0.00     0.031 C 
ATOM     64  C   UNL A   1      44.903  30.961  31.262  1.00  0.00     0.029 A 
ATOM     65  C   UNL A   1      45.077  29.667  30.770  1.00  0.00     0.049 A 
ATOM     66  H   UNL A   1      45.745  28.095  32.015  1.00  0.00     0.167 HD
ATOM     67  C   UNL A   1      44.751  27.816  29.145  1.00  0.00     0.074 A 
ATOM     68  C   UNL A   1      44.536  26.656  30.008  1.00  0.00     0.031 C 
ATOM     69  C   UNL A   1      45.027  29.122  29.432  1.00  0.00     0.037 A 
BRANCH  56  70
ATOM     70  C   UNL A   1      44.001  27.608  34.570  1.00  0.00     0.057 A 
ATOM     71  C   UNL A   1      44.610  27.996  35.779  1.00  0.00     0.134 A 
ATOM     72  C   UNL A   1      44.157  26.249  34.233  1.00  0.00     0.134 A 
ATOM     73  F   UNL A   1      44.552  29.267  36.204  1.00  0.00    -0.206 F 
ATOM     74  C   UNL A   1      45.365  27.112  36.561  1.00  0.00     0.040 A 
ATOM     75  C   UNL A   1      44.866  25.346  35.033  1.00  0.00     0.040 A 
ATOM     76  F   UNL A   1      43.718  25.748  33.071  1.00  0.00    -0.206 F 
ATOM     77  C   UNL A   1      45.499  25.781  36.185  1.00  0.00     0.006 A 
ENDBRANCH  56  70
BRANCH  57  78
ATOM     78  C   UNL A   1      42.057  24.762  26.732  1.00  0.00     0.057 A 
ATOM     79  C   UNL A   1      42.908  24.338  25.707  1.00  0.00     0.134 A 
ATOM     80  C   UNL A   1      41.143  23.809  27.219  1.00  0.00     0.134 A 
ATOM     81  F   UNL A   1      43.836  25.167  25.208  1.00  0.00    -0.206 F 
ATOM     82  C   UNL A   1      42.873  23.030  25.209  1.00  0.00     0.040 A 
ATOM     83  C   UNL A   1      41.091  22.502  26.724  1.00  0.00     0.040 A 
ATOM     84  F   UNL A   1      40.334  24.085  28.253  1.00  0.00    -0.206 F 
ATOM     85  C   UNL A   1      41.970  22.104  25.726  1.00  0.00     0.006 A 
ENDBRANCH  57  78
BRANCH  69  86
ATOM     86  C   UNL A   1      45.012  30.116  28.301  1.00  0.00     0.057 A 
ATOM     87  C   UNL A   1      43.873  30.834  27.905  1.00  0.00     0.134 A 
ATOM     88  C   UNL A   1      46.223  30.483  27.703  1.00  0.00     0.134 A 
ATOM     89  F   UNL A   1      42.687  30.630  28.491  1.00  0.00    -0.206 F 
ATOM     90  C   UNL A   1      43.927  31.837  26.933  1.00  0.00     0.040 A 
ATOM     91  C   UNL A   1      46.298  31.506  26.754  1.00  0.00     0.040 A 
ATOM     92  F   UNL A   1      47.367  29.886  28.073  1.00  0.00    -0.206 F 
ATOM     93  C   UNL A   1      45.146  32.181  26.358  1.00  0.00     0.006 A 
ENDBRANCH  69  86
ENDBRANCH  43  44
ENDBRANCH  35  38
ENDBRANCH  33  34
ENDBRANCH  32  33
ENDBRANCH  31  32
ENDBRANCH  30  31
ENDBRANCH   1  30
TORSDOF 17
ENDMDL
