MODEL 1
REMARK VINA RESULT:     -12.8      0.000      0.000
REMARK SMILES COc1ccc(NC2=[NH+]C(=O)/C(=C\c3ccccc3C(=O)NCCCCCCNC(=O)c3ccc(-c4c5nc(c(-c6c(F)cccc6F)c6ccc([nH]6)c(-c6c(F)cccc6F)c6nc(c(-c7c(F)cccc7F)c7ccc4[nH]7)C=C6)C=C5)cc3)S2)cc1
REMARK SMILES IDX 25 1 24 2 23 3 22 4 20 5 21 6 19 8 14 9 15 10 16 11 18 12
REMARK SMILES IDX 17 13 13 14 7 15 8 16 9 18 86 19 10 20 12 22 11 23 6 24 3 25
REMARK SMILES IDX 4 26 88 27 5 28 87 29 2 30 1 31 26 32 27 33 28 34 29 35
REMARK SMILES IDX 30 36 31 38 32 39 33 40 85 41 34 42 84 43 35 44 36 45 37 46
REMARK SMILES IDX 78 47 38 48 83 49 77 50 79 51 39 52 82 53 76 54 75 55 40 57
REMARK SMILES IDX 66 58 49 59 65 60 50 61 53 62 64 63 80 64 51 65 52 66 63 68
REMARK SMILES IDX 81 69 54 70 41 71 42 72 47 73 43 74 44 75 46 76 48 77 45 78
REMARK SMILES IDX 67 79 68 80 73 81 69 82 70 83 72 84 74 85 71 86 55 87 56 88
REMARK SMILES IDX 61 89 57 90 58 91 60 92 62 93 59 94
REMARK H PARENT 22 7 7 17 9 21 29 37 79 56 53 67
REMARK Flexibility Score: inf
ROOT
ATOM      1  C   UNL A   1      33.093  29.870  26.573  1.00  0.00     0.002 C 
ENDROOT
BRANCH   1   2
ATOM      2  C   UNL A   1      32.823  28.577  27.349  1.00  0.00     0.021 C 
BRANCH   2   3
ATOM      3  C   UNL A   1      31.353  28.218  27.562  1.00  0.00     0.116 C 
BRANCH   3   4
ATOM      4  N   UNL A   1      31.013  26.880  27.127  1.00  0.00    -0.352 N 
ATOM      5  C   UNL A   1      31.073  26.328  25.870  1.00  0.00     0.251 C 
ATOM      6  O   UNL A   1      30.566  25.224  25.693  1.00  0.00    -0.269 OA
ATOM      7  H   UNL A   1      30.690  26.277  27.836  1.00  0.00     0.163 HD
BRANCH   5   8
ATOM      8  C   UNL A   1      31.646  27.075  24.718  1.00  0.00     0.047 A 
ATOM      9  C   UNL A   1      32.987  27.023  24.281  1.00  0.00    -0.011 A 
ATOM     10  C   UNL A   1      33.386  27.912  23.263  1.00  0.00     0.009 A 
ATOM     11  C   UNL A   1      32.470  28.750  22.626  1.00  0.00     0.001 A 
ATOM     12  C   UNL A   1      30.721  27.880  24.027  1.00  0.00     0.014 A 
ATOM     13  C   UNL A   1      31.130  28.711  22.985  1.00  0.00     0.001 A 
BRANCH   9  14
ATOM     14  C   UNL A   1      34.054  26.152  24.806  1.00  0.00     0.032 C 
ATOM     15  N   UNL A   1      35.513  21.415  24.622  1.00  0.00    -0.235 N 
ATOM     16  C   UNL A   1      35.079  22.625  24.171  1.00  0.00     0.322 C 
ATOM     17  H   UNL A   1      36.483  21.319  24.759  1.00  0.00     0.313 HD
ATOM     18  N   UNL A   1      34.295  22.916  23.193  1.00  0.00    -0.199 N 
ATOM     19  S   UNL A   1      35.658  23.997  25.115  1.00  0.00     0.006 SA
ATOM     20  C   UNL A   1      34.085  24.276  23.062  1.00  0.00     0.346 C 
ATOM     21  H   UNL A   1      33.889  22.243  22.600  1.00  0.00     0.316 HD
ATOM     22  C   UNL A   1      34.506  24.995  24.303  1.00  0.00     0.110 C 
ATOM     23  O   UNL A   1      33.683  24.841  22.064  1.00  0.00    -0.240 OA
BRANCH  15  24
ATOM     24  C   UNL A   1      34.724  20.286  24.914  1.00  0.00     0.125 A 
ATOM     25  C   UNL A   1      32.882  18.168  25.220  1.00  0.00     0.119 A 
ATOM     26  C   UNL A   1      34.173  17.923  24.753  1.00  0.00     0.051 A 
ATOM     27  C   UNL A   1      32.552  19.447  25.655  1.00  0.00     0.051 A 
ATOM     28  C   UNL A   1      35.094  18.972  24.617  1.00  0.00     0.055 A 
ATOM     29  C   UNL A   1      33.469  20.493  25.508  1.00  0.00     0.055 A 
BRANCH  25  30
ATOM     30  O   UNL A   1      32.032  17.097  25.217  1.00  0.00    -0.497 OA
ATOM     31  C   UNL A   1      32.661  15.818  25.124  1.00  0.00     0.278 C 
ENDBRANCH  25  30
ENDBRANCH  15  24
ENDBRANCH   9  14
ENDBRANCH   5   8
ENDBRANCH   3   4
ENDBRANCH   2   3
ENDBRANCH   1   2
BRANCH   1  32
ATOM     32  C   UNL A   1      31.869  30.629  26.066  1.00  0.00     0.002 C 
BRANCH  32  33
ATOM     33  C   UNL A   1      31.528  31.946  26.753  1.00  0.00     0.021 C 
BRANCH  33  34
ATOM     34  C   UNL A   1      32.723  32.728  27.277  1.00  0.00     0.116 C 
BRANCH  34  35
ATOM     35  N   UNL A   1      32.405  34.103  27.635  1.00  0.00    -0.352 N 
ATOM     36  C   UNL A   1      32.982  34.933  28.567  1.00  0.00     0.251 C 
ATOM     37  H   UNL A   1      31.660  34.502  27.130  1.00  0.00     0.163 HD
ATOM     38  O   UNL A   1      32.491  36.034  28.795  1.00  0.00    -0.269 OA
BRANCH  36  39
ATOM     39  C   UNL A   1      34.168  34.484  29.333  1.00  0.00     0.039 A 
ATOM     40  C   UNL A   1      33.979  33.942  30.608  1.00  0.00     0.014 A 
ATOM     41  C   UNL A   1      35.456  34.578  28.804  1.00  0.00     0.014 A 
ATOM     42  C   UNL A   1      35.068  33.420  31.312  1.00  0.00     0.010 A 
ATOM     43  C   UNL A   1      36.522  33.972  29.460  1.00  0.00     0.010 A 
ATOM     44  C   UNL A   1      36.342  33.390  30.723  1.00  0.00    -0.014 A 
BRANCH  44  45
ATOM     45  C   UNL A   1      37.503  32.770  31.410  1.00  0.00     0.031 A 
ATOM     46  C   UNL A   1      38.185  31.576  30.800  1.00  0.00     0.074 A 
ATOM     47  C   UNL A   1      37.889  33.224  32.619  1.00  0.00     0.049 A 
ATOM     48  N   UNL A   1      39.141  30.827  31.291  1.00  0.00    -0.248 NA
ATOM     49  C   UNL A   1      37.705  31.144  29.477  1.00  0.00     0.031 C 
ATOM     50  C   UNL A   1      37.275  34.339  33.342  1.00  0.00     0.029 A 
ATOM     51  N   UNL A   1      38.888  32.796  33.457  1.00  0.00    -0.354 N 
ATOM     52  C   UNL A   1      39.354  29.825  30.351  1.00  0.00     0.074 A 
ATOM     53  C   UNL A   1      38.392  30.027  29.291  1.00  0.00     0.031 C 
ATOM     54  C   UNL A   1      37.928  34.525  34.502  1.00  0.00     0.029 A 
ATOM     55  C   UNL A   1      38.980  33.521  34.620  1.00  0.00     0.049 A 
ATOM     56  H   UNL A   1      39.484  32.040  33.245  1.00  0.00     0.167 HD
ATOM     57  C   UNL A   1      40.284  28.842  30.357  1.00  0.00     0.037 A 
ATOM     58  C   UNL A   1      39.817  33.388  35.667  1.00  0.00     0.037 A 
ATOM     59  C   UNL A   1      41.268  28.669  31.392  1.00  0.00     0.049 A 
ATOM     60  C   UNL A   1      40.855  32.301  35.642  1.00  0.00     0.074 A 
ATOM     61  C   UNL A   1      42.296  27.745  31.461  1.00  0.00     0.029 A 
ATOM     62  N   UNL A   1      41.350  29.446  32.539  1.00  0.00    -0.354 N 
ATOM     63  N   UNL A   1      41.083  31.396  34.720  1.00  0.00    -0.248 NA
ATOM     64  C   UNL A   1      41.757  32.219  36.800  1.00  0.00     0.031 C 
ATOM     65  C   UNL A   1      42.980  27.942  32.665  1.00  0.00     0.029 A 
ATOM     66  C   UNL A   1      42.403  29.015  33.327  1.00  0.00     0.049 A 
ATOM     67  H   UNL A   1      40.748  30.193  32.759  1.00  0.00     0.167 HD
ATOM     68  C   UNL A   1      42.167  30.657  35.172  1.00  0.00     0.074 A 
ATOM     69  C   UNL A   1      42.561  31.226  36.445  1.00  0.00     0.031 C 
ATOM     70  C   UNL A   1      42.784  29.602  34.586  1.00  0.00     0.037 A 
BRANCH  57  71
ATOM     71  C   UNL A   1      40.284  27.887  29.199  1.00  0.00     0.057 A 
ATOM     72  C   UNL A   1      41.058  28.116  28.053  1.00  0.00     0.134 A 
ATOM     73  C   UNL A   1      39.515  26.716  29.234  1.00  0.00     0.134 A 
ATOM     74  F   UNL A   1      41.805  29.226  27.949  1.00  0.00    -0.206 F 
ATOM     75  C   UNL A   1      41.040  27.235  26.971  1.00  0.00     0.040 A 
ATOM     76  C   UNL A   1      39.512  25.813  28.170  1.00  0.00     0.040 A 
ATOM     77  F   UNL A   1      38.756  26.432  30.304  1.00  0.00    -0.206 F 
ATOM     78  C   UNL A   1      40.269  26.076  27.030  1.00  0.00     0.006 A 
ENDBRANCH  57  71
BRANCH  58  79
ATOM     79  C   UNL A   1      39.734  34.331  36.810  1.00  0.00     0.057 A 
ATOM     80  C   UNL A   1      40.370  35.577  36.760  1.00  0.00     0.134 A 
ATOM     81  C   UNL A   1      39.026  34.015  37.975  1.00  0.00     0.134 A 
ATOM     82  F   UNL A   1      41.079  35.929  35.677  1.00  0.00    -0.206 F 
ATOM     83  C   UNL A   1      40.321  36.469  37.833  1.00  0.00     0.040 A 
ATOM     84  C   UNL A   1      38.949  34.906  39.047  1.00  0.00     0.040 A 
ATOM     85  F   UNL A   1      38.388  32.841  38.082  1.00  0.00    -0.206 F 
ATOM     86  C   UNL A   1      39.603  36.134  38.980  1.00  0.00     0.006 A 
ENDBRANCH  58  79
BRANCH  70  87
ATOM     87  C   UNL A   1      43.968  29.020  35.297  1.00  0.00     0.057 A 
ATOM     88  C   UNL A   1      45.270  29.479  35.061  1.00  0.00     0.134 A 
ATOM     89  C   UNL A   1      43.798  28.018  36.261  1.00  0.00     0.134 A 
ATOM     90  F   UNL A   1      45.499  30.428  34.141  1.00  0.00    -0.206 F 
ATOM     91  C   UNL A   1      46.364  28.947  35.746  1.00  0.00     0.040 A 
ATOM     92  C   UNL A   1      44.881  27.496  36.969  1.00  0.00     0.040 A 
ATOM     93  F   UNL A   1      42.575  27.541  36.540  1.00  0.00    -0.206 F 
ATOM     94  C   UNL A   1      46.170  27.958  36.708  1.00  0.00     0.006 A 
ENDBRANCH  70  87
ENDBRANCH  44  45
ENDBRANCH  36  39
ENDBRANCH  34  35
ENDBRANCH  33  34
ENDBRANCH  32  33
ENDBRANCH   1  32
TORSDOF 16
ENDMDL
MODEL 2
REMARK VINA RESULT:     -12.6      0.918      6.058
REMARK SMILES COc1ccc(NC2=[NH+]C(=O)/C(=C\c3ccccc3C(=O)NCCCCCCNC(=O)c3ccc(-c4c5nc(c(-c6c(F)cccc6F)c6ccc([nH]6)c(-c6c(F)cccc6F)c6nc(c(-c7c(F)cccc7F)c7ccc4[nH]7)C=C6)C=C5)cc3)S2)cc1
REMARK SMILES IDX 25 1 24 2 23 3 22 4 20 5 21 6 19 8 14 9 15 10 16 11 18 12
REMARK SMILES IDX 17 13 13 14 7 15 8 16 9 18 86 19 10 20 12 22 11 23 6 24 3 25
REMARK SMILES IDX 4 26 88 27 5 28 87 29 2 30 1 31 26 32 27 33 28 34 29 35
REMARK SMILES IDX 30 36 31 38 32 39 33 40 85 41 34 42 84 43 35 44 36 45 37 46
REMARK SMILES IDX 78 47 38 48 83 49 77 50 79 51 39 52 82 53 76 54 75 55 40 57
REMARK SMILES IDX 66 58 49 59 65 60 50 61 53 62 64 63 80 64 51 65 52 66 63 68
REMARK SMILES IDX 81 69 54 70 41 71 42 72 47 73 43 74 44 75 46 76 48 77 45 78
REMARK SMILES IDX 67 79 68 80 73 81 69 82 70 83 72 84 74 85 71 86 55 87 56 88
REMARK SMILES IDX 61 89 57 90 58 91 60 92 62 93 59 94
REMARK H PARENT 22 7 7 17 9 21 29 37 79 56 53 67
REMARK Flexibility Score: inf
ROOT
ATOM      1  C   UNL A   1      32.984  30.025  26.589  1.00  0.00     0.002 C 
ENDROOT
BRANCH   1   2
ATOM      2  C   UNL A   1      32.860  28.648  27.252  1.00  0.00     0.021 C 
BRANCH   2   3
ATOM      3  C   UNL A   1      31.442  28.195  27.597  1.00  0.00     0.116 C 
BRANCH   3   4
ATOM      4  N   UNL A   1      31.138  26.851  27.157  1.00  0.00    -0.352 N 
ATOM      5  C   UNL A   1      31.207  26.307  25.898  1.00  0.00     0.251 C 
ATOM      6  O   UNL A   1      30.731  25.189  25.718  1.00  0.00    -0.269 OA
ATOM      7  H   UNL A   1      30.836  26.235  27.865  1.00  0.00     0.163 HD
BRANCH   5   8
ATOM      8  C   UNL A   1      31.753  27.075  24.746  1.00  0.00     0.047 A 
ATOM      9  C   UNL A   1      33.083  27.033  24.277  1.00  0.00    -0.011 A 
ATOM     10  C   UNL A   1      33.458  27.940  23.266  1.00  0.00     0.009 A 
ATOM     11  C   UNL A   1      32.527  28.789  22.666  1.00  0.00     0.001 A 
ATOM     12  C   UNL A   1      30.811  27.892  24.091  1.00  0.00     0.014 A 
ATOM     13  C   UNL A   1      31.195  28.742  23.055  1.00  0.00     0.001 A 
BRANCH   9  14
ATOM     14  C   UNL A   1      34.163  26.154  24.762  1.00  0.00     0.032 C 
ATOM     15  N   UNL A   1      35.579  21.406  24.522  1.00  0.00    -0.235 N 
ATOM     16  C   UNL A   1      35.137  22.620  24.088  1.00  0.00     0.322 C 
ATOM     17  H   UNL A   1      36.552  21.302  24.622  1.00  0.00     0.313 HD
ATOM     18  N   UNL A   1      34.318  22.917  23.140  1.00  0.00    -0.199 N 
ATOM     19  S   UNL A   1      35.761  23.987  25.010  1.00  0.00     0.006 SA
ATOM     20  C   UNL A   1      34.114  24.278  23.018  1.00  0.00     0.346 C 
ATOM     21  H   UNL A   1      33.885  22.246  22.563  1.00  0.00     0.316 HD
ATOM     22  C   UNL A   1      34.587  24.993  24.241  1.00  0.00     0.110 C 
ATOM     23  O   UNL A   1      33.678  24.846  22.035  1.00  0.00    -0.240 OA
BRANCH  15  24
ATOM     24  C   UNL A   1      34.792  20.283  24.844  1.00  0.00     0.125 A 
ATOM     25  C   UNL A   1      32.949  18.177  25.216  1.00  0.00     0.119 A 
ATOM     26  C   UNL A   1      34.224  17.922  24.712  1.00  0.00     0.051 A 
ATOM     27  C   UNL A   1      32.640  19.460  25.655  1.00  0.00     0.051 A 
ATOM     28  C   UNL A   1      35.146  18.965  24.543  1.00  0.00     0.055 A 
ATOM     29  C   UNL A   1      33.557  20.500  25.474  1.00  0.00     0.055 A 
BRANCH  25  30
ATOM     30  O   UNL A   1      32.094  17.110  25.246  1.00  0.00    -0.497 OA
ATOM     31  C   UNL A   1      32.696  15.852  25.552  1.00  0.00     0.278 C 
ENDBRANCH  25  30
ENDBRANCH  15  24
ENDBRANCH   9  14
ENDBRANCH   5   8
ENDBRANCH   3   4
ENDBRANCH   2   3
ENDBRANCH   1   2
BRANCH   1  32
ATOM     32  C   UNL A   1      31.678  30.711  26.195  1.00  0.00     0.002 C 
BRANCH  32  33
ATOM     33  C   UNL A   1      31.471  32.145  26.668  1.00  0.00     0.021 C 
BRANCH  33  34
ATOM     34  C   UNL A   1      32.727  32.852  27.153  1.00  0.00     0.116 C 
BRANCH  34  35
ATOM     35  N   UNL A   1      32.473  34.174  27.707  1.00  0.00    -0.352 N 
ATOM     36  C   UNL A   1      33.127  34.858  28.703  1.00  0.00     0.251 C 
ATOM     37  H   UNL A   1      31.713  34.653  27.304  1.00  0.00     0.163 HD
ATOM     38  O   UNL A   1      32.684  35.931  29.104  1.00  0.00    -0.269 OA
BRANCH  36  39
ATOM     39  C   UNL A   1      34.340  34.284  29.332  1.00  0.00     0.039 A 
ATOM     40  C   UNL A   1      34.196  33.503  30.483  1.00  0.00     0.014 A 
ATOM     41  C   UNL A   1      35.610  34.495  28.792  1.00  0.00     0.014 A 
ATOM     42  C   UNL A   1      35.309  32.868  31.038  1.00  0.00     0.010 A 
ATOM     43  C   UNL A   1      36.700  33.786  29.285  1.00  0.00     0.010 A 
ATOM     44  C   UNL A   1      36.564  32.968  30.416  1.00  0.00    -0.014 A 
BRANCH  44  45
ATOM     45  C   UNL A   1      37.750  32.241  30.934  1.00  0.00     0.031 A 
ATOM     46  C   UNL A   1      38.433  32.716  32.187  1.00  0.00     0.074 A 
ATOM     47  C   UNL A   1      38.263  31.208  30.235  1.00  0.00     0.049 A 
ATOM     48  N   UNL A   1      39.539  32.288  32.742  1.00  0.00    -0.248 NA
ATOM     49  C   UNL A   1      37.808  33.847  32.892  1.00  0.00     0.031 C 
ATOM     50  C   UNL A   1      37.727  30.685  28.977  1.00  0.00     0.029 A 
ATOM     51  N   UNL A   1      39.358  30.419  30.482  1.00  0.00    -0.354 N 
ATOM     52  C   UNL A   1      39.753  33.113  33.839  1.00  0.00     0.074 A 
ATOM     53  C   UNL A   1      38.698  34.101  33.840  1.00  0.00     0.031 C 
ATOM     54  C   UNL A   1      38.477  29.645  28.577  1.00  0.00     0.029 A 
ATOM     55  C   UNL A   1      39.567  29.451  29.529  1.00  0.00     0.049 A 
ATOM     56  H   UNL A   1      39.940  30.534  31.268  1.00  0.00     0.167 HD
ATOM     57  C   UNL A   1      40.726  33.039  34.778  1.00  0.00     0.037 A 
ATOM     58  C   UNL A   1      40.531  28.516  29.431  1.00  0.00     0.037 A 
ATOM     59  C   UNL A   1      41.750  32.029  34.800  1.00  0.00     0.049 A 
ATOM     60  C   UNL A   1      41.589  28.441  30.497  1.00  0.00     0.074 A 
ATOM     61  C   UNL A   1      42.743  31.827  35.742  1.00  0.00     0.029 A 
ATOM     62  N   UNL A   1      41.907  31.045  33.834  1.00  0.00    -0.354 N 
ATOM     63  N   UNL A   1      41.746  29.192  31.560  1.00  0.00    -0.248 NA
ATOM     64  C   UNL A   1      42.601  27.385  30.351  1.00  0.00     0.031 C 
ATOM     65  C   UNL A   1      43.521  30.740  35.330  1.00  0.00     0.029 A 
ATOM     66  C   UNL A   1      42.988  30.241  34.151  1.00  0.00     0.049 A 
ATOM     67  H   UNL A   1      41.334  30.937  33.041  1.00  0.00     0.167 HD
ATOM     68  C   UNL A   1      42.854  28.684  32.224  1.00  0.00     0.074 A 
ATOM     69  C   UNL A   1      43.324  27.553  31.450  1.00  0.00     0.031 C 
ATOM     70  C   UNL A   1      43.432  29.114  33.372  1.00  0.00     0.037 A 
BRANCH  57  71
ATOM     71  C   UNL A   1      40.716  34.075  35.865  1.00  0.00     0.057 A 
ATOM     72  C   UNL A   1      41.458  35.259  35.763  1.00  0.00     0.134 A 
ATOM     73  C   UNL A   1      39.944  33.895  37.020  1.00  0.00     0.134 A 
ATOM     74  F   UNL A   1      42.230  35.487  34.689  1.00  0.00    -0.206 F 
ATOM     75  C   UNL A   1      41.460  36.211  36.784  1.00  0.00     0.040 A 
ATOM     76  C   UNL A   1      39.915  34.852  38.035  1.00  0.00     0.040 A 
ATOM     77  F   UNL A   1      39.205  32.786  37.179  1.00  0.00    -0.206 F 
ATOM     78  C   UNL A   1      40.682  36.011  37.922  1.00  0.00     0.006 A 
ENDBRANCH  57  71
BRANCH  58  79
ATOM     79  C   UNL A   1      40.520  27.551  28.304  1.00  0.00     0.057 A 
ATOM     80  C   UNL A   1      39.851  26.326  28.414  1.00  0.00     0.134 A 
ATOM     81  C   UNL A   1      41.173  27.822  27.097  1.00  0.00     0.134 A 
ATOM     82  F   UNL A   1      39.221  26.002  29.553  1.00  0.00    -0.206 F 
ATOM     83  C   UNL A   1      39.846  25.397  27.372  1.00  0.00     0.040 A 
ATOM     84  C   UNL A   1      41.158  26.912  26.037  1.00  0.00     0.040 A 
ATOM     85  F   UNL A   1      41.824  28.982  26.925  1.00  0.00    -0.206 F 
ATOM     86  C   UNL A   1      40.499  25.693  26.177  1.00  0.00     0.006 A 
ENDBRANCH  58  79
BRANCH  70  87
ATOM     87  C   UNL A   1      44.611  28.337  33.878  1.00  0.00     0.057 A 
ATOM     88  C   UNL A   1      44.458  27.221  34.708  1.00  0.00     0.134 A 
ATOM     89  C   UNL A   1      45.911  28.687  33.493  1.00  0.00     0.134 A 
ATOM     90  F   UNL A   1      43.239  26.843  35.122  1.00  0.00    -0.206 F 
ATOM     91  C   UNL A   1      45.560  26.489  35.155  1.00  0.00     0.040 A 
ATOM     92  C   UNL A   1      47.019  27.949  33.913  1.00  0.00     0.040 A 
ATOM     93  F   UNL A   1      46.125  29.742  32.692  1.00  0.00    -0.206 F 
ATOM     94  C   UNL A   1      46.844  26.850  34.751  1.00  0.00     0.006 A 
ENDBRANCH  70  87
ENDBRANCH  44  45
ENDBRANCH  36  39
ENDBRANCH  34  35
ENDBRANCH  33  34
ENDBRANCH  32  33
ENDBRANCH   1  32
TORSDOF 16
ENDMDL
MODEL 3
REMARK VINA RESULT:     -12.4      4.909     10.105
REMARK SMILES COc1ccc(NC2=[NH+]C(=O)/C(=C\c3ccccc3C(=O)NCCCCCCNC(=O)c3ccc(-c4c5nc(c(-c6c(F)cccc6F)c6ccc([nH]6)c(-c6c(F)cccc6F)c6nc(c(-c7c(F)cccc7F)c7ccc4[nH]7)C=C6)C=C5)cc3)S2)cc1
REMARK SMILES IDX 25 1 24 2 23 3 22 4 20 5 21 6 19 8 14 9 15 10 16 11 18 12
REMARK SMILES IDX 17 13 13 14 7 15 8 16 9 18 86 19 10 20 12 22 11 23 6 24 3 25
REMARK SMILES IDX 4 26 88 27 5 28 87 29 2 30 1 31 26 32 27 33 28 34 29 35
REMARK SMILES IDX 30 36 31 38 32 39 33 40 85 41 34 42 84 43 35 44 36 45 37 46
REMARK SMILES IDX 78 47 38 48 83 49 77 50 79 51 39 52 82 53 76 54 75 55 40 57
REMARK SMILES IDX 66 58 49 59 65 60 50 61 53 62 64 63 80 64 51 65 52 66 63 68
REMARK SMILES IDX 81 69 54 70 41 71 42 72 47 73 43 74 44 75 46 76 48 77 45 78
REMARK SMILES IDX 67 79 68 80 73 81 69 82 70 83 72 84 74 85 71 86 55 87 56 88
REMARK SMILES IDX 61 89 57 90 58 91 60 92 62 93 59 94
REMARK H PARENT 22 7 7 17 9 21 29 37 79 56 53 67
REMARK Flexibility Score: inf
ROOT
ATOM      1  C   UNL A   1      38.084  22.381  25.622  1.00  0.00     0.002 C 
ENDROOT
BRANCH   1   2
ATOM      2  C   UNL A   1      37.322  23.703  25.474  1.00  0.00     0.021 C 
BRANCH   2   3
ATOM      3  C   UNL A   1      35.799  23.597  25.423  1.00  0.00     0.116 C 
BRANCH   3   4
ATOM      4  N   UNL A   1      35.200  23.221  26.686  1.00  0.00    -0.352 N 
ATOM      5  C   UNL A   1      34.255  22.260  26.953  1.00  0.00     0.251 C 
ATOM      6  O   UNL A   1      33.756  22.229  28.075  1.00  0.00    -0.269 OA
ATOM      7  H   UNL A   1      35.517  23.728  27.468  1.00  0.00     0.163 HD
BRANCH   5   8
ATOM      8  C   UNL A   1      33.763  21.335  25.896  1.00  0.00     0.047 A 
ATOM      9  C   UNL A   1      32.508  21.405  25.254  1.00  0.00    -0.011 A 
ATOM     10  C   UNL A   1      32.152  20.356  24.383  1.00  0.00     0.009 A 
ATOM     11  C   UNL A   1      33.044  19.327  24.076  1.00  0.00     0.001 A 
ATOM     12  C   UNL A   1      34.675  20.327  25.533  1.00  0.00     0.014 A 
ATOM     13  C   UNL A   1      34.319  19.330  24.626  1.00  0.00     0.001 A 
BRANCH   9  14
ATOM     14  C   UNL A   1      31.486  22.454  25.422  1.00  0.00     0.032 C 
ATOM     15  N   UNL A   1      31.039  27.387  25.155  1.00  0.00    -0.235 N 
ATOM     16  C   UNL A   1      31.401  26.125  24.787  1.00  0.00     0.322 C 
ATOM     17  H   UNL A   1      30.123  27.665  24.927  1.00  0.00     0.313 HD
ATOM     18  N   UNL A   1      32.439  25.710  24.149  1.00  0.00    -0.199 N 
ATOM     19  S   UNL A   1      30.279  24.871  25.312  1.00  0.00     0.006 SA
ATOM     20  C   UNL A   1      32.449  24.339  23.979  1.00  0.00     0.346 C 
ATOM     21  H   UNL A   1      33.150  26.305  23.817  1.00  0.00     0.316 HD
ATOM     22  C   UNL A   1      31.467  23.687  24.898  1.00  0.00     0.110 C 
ATOM     23  O   UNL A   1      33.102  23.729  23.154  1.00  0.00    -0.240 OA
BRANCH  15  24
ATOM     24  C   UNL A   1      31.835  28.334  25.827  1.00  0.00     0.125 A 
ATOM     25  C   UNL A   1      33.741  30.087  26.953  1.00  0.00     0.119 A 
ATOM     26  C   UNL A   1      32.678  30.585  26.201  1.00  0.00     0.051 A 
ATOM     27  C   UNL A   1      33.781  28.728  27.249  1.00  0.00     0.051 A 
ATOM     28  C   UNL A   1      31.720  29.717  25.656  1.00  0.00     0.055 A 
ATOM     29  C   UNL A   1      32.832  27.864  26.695  1.00  0.00     0.055 A 
BRANCH  25  30
ATOM     30  O   UNL A   1      34.673  31.005  27.352  1.00  0.00    -0.497 OA
ATOM     31  C   UNL A   1      34.221  31.952  28.320  1.00  0.00     0.278 C 
ENDBRANCH  25  30
ENDBRANCH  15  24
ENDBRANCH   9  14
ENDBRANCH   5   8
ENDBRANCH   3   4
ENDBRANCH   2   3
ENDBRANCH   1   2
BRANCH   1  32
ATOM     32  C   UNL A   1      37.700  21.262  24.657  1.00  0.00     0.002 C 
BRANCH  32  33
ATOM     33  C   UNL A   1      38.319  19.890  24.895  1.00  0.00     0.021 C 
BRANCH  33  34
ATOM     34  C   UNL A   1      39.206  19.787  26.127  1.00  0.00     0.116 C 
BRANCH  34  35
ATOM     35  N   UNL A   1      40.311  18.852  25.971  1.00  0.00    -0.352 N 
ATOM     36  C   UNL A   1      41.667  19.067  26.022  1.00  0.00     0.251 C 
ATOM     37  H   UNL A   1      40.044  17.919  25.803  1.00  0.00     0.163 HD
ATOM     38  O   UNL A   1      42.443  18.154  25.753  1.00  0.00    -0.269 OA
BRANCH  36  39
ATOM     39  C   UNL A   1      42.199  20.410  26.353  1.00  0.00     0.039 A 
ATOM     40  C   UNL A   1      42.577  21.260  25.309  1.00  0.00     0.014 A 
ATOM     41  C   UNL A   1      42.313  20.843  27.675  1.00  0.00     0.014 A 
ATOM     42  C   UNL A   1      42.988  22.566  25.588  1.00  0.00     0.010 A 
ATOM     43  C   UNL A   1      42.626  22.170  27.947  1.00  0.00     0.010 A 
ATOM     44  C   UNL A   1      42.972  23.046  26.907  1.00  0.00    -0.014 A 
BRANCH  44  45
ATOM     45  C   UNL A   1      43.324  24.452  27.228  1.00  0.00     0.031 A 
ATOM     46  C   UNL A   1      44.754  24.908  27.132  1.00  0.00     0.074 A 
ATOM     47  C   UNL A   1      42.375  25.295  27.685  1.00  0.00     0.049 A 
ATOM     48  N   UNL A   1      45.283  26.057  27.471  1.00  0.00    -0.248 NA
ATOM     49  C   UNL A   1      45.727  23.928  26.622  1.00  0.00     0.031 C 
ATOM     50  C   UNL A   1      40.963  24.960  27.875  1.00  0.00     0.029 A 
ATOM     51  N   UNL A   1      42.461  26.605  28.081  1.00  0.00    -0.354 N 
ATOM     52  C   UNL A   1      46.646  25.927  27.240  1.00  0.00     0.074 A 
ATOM     53  C   UNL A   1      46.872  24.572  26.789  1.00  0.00     0.031 C 
ATOM     54  C   UNL A   1      40.310  26.045  28.324  1.00  0.00     0.029 A 
ATOM     55  C   UNL A   1      41.262  27.138  28.489  1.00  0.00     0.049 A 
ATOM     56  H   UNL A   1      43.303  27.118  28.075  1.00  0.00     0.167 HD
ATOM     57  C   UNL A   1      47.620  26.859  27.366  1.00  0.00     0.037 A 
ATOM     58  C   UNL A   1      40.965  28.369  28.948  1.00  0.00     0.037 A 
ATOM     59  C   UNL A   1      47.387  28.219  27.773  1.00  0.00     0.049 A 
ATOM     60  C   UNL A   1      42.060  29.393  29.060  1.00  0.00     0.074 A 
ATOM     61  C   UNL A   1      48.294  29.259  27.870  1.00  0.00     0.029 A 
ATOM     62  N   UNL A   1      46.151  28.728  28.145  1.00  0.00    -0.354 N 
ATOM     63  N   UNL A   1      43.336  29.273  28.784  1.00  0.00    -0.248 NA
ATOM     64  C   UNL A   1      41.672  30.726  29.544  1.00  0.00     0.031 C 
ATOM     65  C   UNL A   1      47.614  30.390  28.332  1.00  0.00     0.029 A 
ATOM     66  C   UNL A   1      46.275  30.064  28.484  1.00  0.00     0.049 A 
ATOM     67  H   UNL A   1      45.311  28.215  28.165  1.00  0.00     0.167 HD
ATOM     68  C   UNL A   1      43.897  30.517  29.032  1.00  0.00     0.074 A 
ATOM     69  C   UNL A   1      42.821  31.383  29.471  1.00  0.00     0.031 C 
ATOM     70  C   UNL A   1      45.189  30.910  28.908  1.00  0.00     0.037 A 
BRANCH  57  71
ATOM     71  C   UNL A   1      49.025  26.436  27.045  1.00  0.00     0.057 A 
ATOM     72  C   UNL A   1      49.894  25.953  28.033  1.00  0.00     0.134 A 
ATOM     73  C   UNL A   1      49.511  26.497  25.733  1.00  0.00     0.134 A 
ATOM     74  F   UNL A   1      49.496  25.883  29.312  1.00  0.00    -0.206 F 
ATOM     75  C   UNL A   1      51.205  25.579  27.734  1.00  0.00     0.040 A 
ATOM     76  C   UNL A   1      50.810  26.099  25.417  1.00  0.00     0.040 A 
ATOM     77  F   UNL A   1      48.729  26.945  24.738  1.00  0.00    -0.206 F 
ATOM     78  C   UNL A   1      51.664  25.646  26.420  1.00  0.00     0.006 A 
ENDBRANCH  57  71
BRANCH  58  79
ATOM     79  C   UNL A   1      39.565  28.713  29.300  1.00  0.00     0.057 A 
ATOM     80  C   UNL A   1      39.080  28.505  30.597  1.00  0.00     0.134 A 
ATOM     81  C   UNL A   1      38.680  29.252  28.360  1.00  0.00     0.134 A 
ATOM     82  F   UNL A   1      39.875  27.975  31.538  1.00  0.00    -0.206 F 
ATOM     83  C   UNL A   1      37.760  28.803  30.943  1.00  0.00     0.040 A 
ATOM     84  C   UNL A   1      37.364  29.577  28.697  1.00  0.00     0.040 A 
ATOM     85  F   UNL A   1      39.087  29.484  27.103  1.00  0.00    -0.206 F 
ATOM     86  C   UNL A   1      36.900  29.345  29.990  1.00  0.00     0.006 A 
ENDBRANCH  58  79
BRANCH  70  87
ATOM     87  C   UNL A   1      45.500  32.345  29.215  1.00  0.00     0.057 A 
ATOM     88  C   UNL A   1      45.912  32.755  30.488  1.00  0.00     0.134 A 
ATOM     89  C   UNL A   1      45.428  33.318  28.210  1.00  0.00     0.134 A 
ATOM     90  F   UNL A   1      45.989  31.871  31.495  1.00  0.00    -0.206 F 
ATOM     91  C   UNL A   1      46.223  34.089  30.758  1.00  0.00     0.040 A 
ATOM     92  C   UNL A   1      45.759  34.650  28.462  1.00  0.00     0.040 A 
ATOM     93  F   UNL A   1      45.048  32.989  26.967  1.00  0.00    -0.206 F 
ATOM     94  C   UNL A   1      46.153  35.039  29.741  1.00  0.00     0.006 A 
ENDBRANCH  70  87
ENDBRANCH  44  45
ENDBRANCH  36  39
ENDBRANCH  34  35
ENDBRANCH  33  34
ENDBRANCH  32  33
ENDBRANCH   1  32
TORSDOF 16
ENDMDL
