MODEL 1
REMARK VINA RESULT:     -12.0      0.000      0.000
REMARK SMILES C[C@H]1[C@H](C(=O)NCCCCCCNC(=O)c2ccc(-c3c4nc(c(-c5c(F)cccc5F)c5ccc([nH]5)c(-c5c(F)cccc5F)c5nc(c(-c6c(F)cccc6F)c6ccc3[nH]6)C=C5)C=C4)cc2)CCN1c1ccc(C(N)=O)c(Cl)c1
REMARK SMILES IDX 9 1 8 2 7 3 6 4 4 5 5 6 3 8 1 9 2 10 72 11 70 12 71 13 73 14
REMARK SMILES IDX 74 15 82 16 75 17 80 18 76 19 81 20 77 21 78 22 79 23 10 26
REMARK SMILES IDX 11 27 12 28 13 29 14 30 15 32 16 33 17 34 69 35 18 36 68 37
REMARK SMILES IDX 19 38 20 39 21 40 62 41 22 42 67 43 61 44 63 45 23 46 66 47
REMARK SMILES IDX 60 48 59 49 24 51 50 52 33 53 49 54 34 55 37 56 48 57 64 58
REMARK SMILES IDX 35 59 36 60 47 62 65 63 38 64 25 65 26 66 31 67 27 68 28 69
REMARK SMILES IDX 30 70 32 71 29 72 51 73 52 74 57 75 53 76 54 77 56 78 58 79
REMARK SMILES IDX 55 80 39 81 40 82 45 83 41 84 42 85 44 86 46 87 43 88
REMARK H PARENT 6 7 78 24 78 25 13 31 63 50 37 61
REMARK Flexibility Score: inf
ROOT
ATOM      1  C   UNL A   1      35.034  20.149  25.045  1.00  0.00     0.002 C 
ENDROOT
BRANCH   1   2
ATOM      2  C   UNL A   1      34.157  21.091  25.873  1.00  0.00     0.021 C 
BRANCH   2   3
ATOM      3  C   UNL A   1      32.706  21.164  25.402  1.00  0.00     0.116 C 
BRANCH   3   4
ATOM      4  N   UNL A   1      31.921  22.041  26.253  1.00  0.00    -0.356 N 
ATOM      5  C   UNL A   1      31.898  23.396  26.355  1.00  0.00     0.225 C 
ATOM      6  O   UNL A   1      31.170  23.888  27.223  1.00  0.00    -0.275 OA
ATOM      7  H   UNL A   1      31.302  21.574  26.859  1.00  0.00     0.163 HD
BRANCH   5   8
ATOM      8  C   UNL A   1      32.703  24.300  25.437  1.00  0.00     0.102 C 
ATOM      9  C   UNL A   1      32.371  24.235  22.929  1.00  0.00     0.032 C 
ATOM     10  C   UNL A   1      31.884  24.835  24.249  1.00  0.00     0.091 C 
ATOM     11  N   UNL A   1      32.130  26.282  24.260  1.00  0.00    -0.368 N 
ATOM     12  C   UNL A   1      33.291  25.515  26.155  1.00  0.00     0.037 C 
ATOM     13  C   UNL A   1      33.229  26.649  25.142  1.00  0.00     0.118 C 
BRANCH  11  14
ATOM     14  C   UNL A   1      31.385  27.224  23.601  1.00  0.00     0.038 A 
ATOM     15  C   UNL A   1      31.990  28.248  22.872  1.00  0.00     0.027 A 
ATOM     16  C   UNL A   1      29.988  27.237  23.659  1.00  0.00     0.047 A 
ATOM     17  C   UNL A   1      31.238  29.247  22.236  1.00  0.00     0.017 A 
ATOM     18  C   UNL A   1      29.218  28.254  23.064  1.00  0.00     0.055 A 
ATOM     19  C   UNL A   1      29.837  29.275  22.329  1.00  0.00     0.058 A 
ATOM     20  Cl  UNL A   1      27.512  28.136  23.347  1.00  0.00    -0.083 Cl
BRANCH  19  21
ATOM     21  C   UNL A   1      29.059  30.380  21.680  1.00  0.00     0.250 C 
ATOM     22  N   UNL A   1      29.384  31.677  21.975  1.00  0.00    -0.366 N 
ATOM     23  O   UNL A   1      28.137  30.188  20.895  1.00  0.00    -0.269 OA
ATOM     24  H   UNL A   1      30.120  31.870  22.600  1.00  0.00     0.159 HD
ATOM     25  H   UNL A   1      28.884  32.416  21.561  1.00  0.00     0.159 HD
ENDBRANCH  19  21
ENDBRANCH  11  14
ENDBRANCH   5   8
ENDBRANCH   3   4
ENDBRANCH   2   3
ENDBRANCH   1   2
BRANCH   1  26
ATOM     26  C   UNL A   1      36.427  20.695  24.716  1.00  0.00     0.002 C 
BRANCH  26  27
ATOM     27  C   UNL A   1      37.579  19.713  24.951  1.00  0.00     0.021 C 
BRANCH  27  28
ATOM     28  C   UNL A   1      38.820  20.335  25.583  1.00  0.00     0.116 C 
BRANCH  28  29
ATOM     29  N   UNL A   1      39.892  19.365  25.737  1.00  0.00    -0.352 N 
ATOM     30  C   UNL A   1      41.201  19.564  26.097  1.00  0.00     0.251 C 
ATOM     31  H   UNL A   1      39.644  18.430  25.557  1.00  0.00     0.163 HD
ATOM     32  O   UNL A   1      42.021  18.661  25.966  1.00  0.00    -0.269 OA
BRANCH  30  33
ATOM     33  C   UNL A   1      41.627  20.877  26.626  1.00  0.00     0.039 A 
ATOM     34  C   UNL A   1      42.063  21.855  25.730  1.00  0.00     0.014 A 
ATOM     35  C   UNL A   1      41.604  21.138  27.999  1.00  0.00     0.014 A 
ATOM     36  C   UNL A   1      42.422  23.117  26.208  1.00  0.00     0.010 A 
ATOM     37  C   UNL A   1      41.888  22.419  28.465  1.00  0.00     0.010 A 
ATOM     38  C   UNL A   1      42.306  23.418  27.574  1.00  0.00    -0.014 A 
BRANCH  38  39
ATOM     39  C   UNL A   1      42.614  24.777  28.086  1.00  0.00     0.031 A 
ATOM     40  C   UNL A   1      44.020  25.138  28.479  1.00  0.00     0.074 A 
ATOM     41  C   UNL A   1      41.618  25.669  28.248  1.00  0.00     0.049 A 
ATOM     42  N   UNL A   1      44.476  26.257  28.985  1.00  0.00    -0.248 NA
ATOM     43  C   UNL A   1      45.046  24.099  28.301  1.00  0.00     0.031 C 
ATOM     44  C   UNL A   1      40.207  25.424  27.945  1.00  0.00     0.029 A 
ATOM     45  N   UNL A   1      41.638  26.959  28.715  1.00  0.00    -0.354 N 
ATOM     46  C   UNL A   1      45.834  26.051  29.194  1.00  0.00     0.074 A 
ATOM     47  C   UNL A   1      46.117  24.685  28.812  1.00  0.00     0.031 C 
ATOM     48  C   UNL A   1      39.501  26.536  28.209  1.00  0.00     0.029 A 
ATOM     49  C   UNL A   1      40.401  27.555  28.739  1.00  0.00     0.049 A 
ATOM     50  H   UNL A   1      42.461  27.414  29.005  1.00  0.00     0.167 HD
ATOM     51  C   UNL A   1      46.764  26.928  29.641  1.00  0.00     0.037 A 
ATOM     52  C   UNL A   1      40.031  28.782  29.152  1.00  0.00     0.037 A 
ATOM     53  C   UNL A   1      46.479  28.290  30.013  1.00  0.00     0.049 A 
ATOM     54  C   UNL A   1      41.078  29.727  29.672  1.00  0.00     0.074 A 
ATOM     55  C   UNL A   1      47.359  29.273  30.427  1.00  0.00     0.029 A 
ATOM     56  N   UNL A   1      45.212  28.856  30.026  1.00  0.00    -0.354 N 
ATOM     57  N   UNL A   1      42.371  29.546  29.793  1.00  0.00    -0.248 NA
ATOM     58  C   UNL A   1      40.615  31.052  30.109  1.00  0.00     0.031 C 
ATOM     59  C   UNL A   1      46.620  30.417  30.742  1.00  0.00     0.029 A 
ATOM     60  C   UNL A   1      45.285  30.166  30.468  1.00  0.00     0.049 A 
ATOM     61  H   UNL A   1      44.384  28.394  29.761  1.00  0.00     0.167 HD
ATOM     62  C   UNL A   1      42.879  30.738  30.293  1.00  0.00     0.074 A 
ATOM     63  C   UNL A   1      41.756  31.642  30.436  1.00  0.00     0.031 C 
ATOM     64  C   UNL A   1      44.159  31.056  30.604  1.00  0.00     0.037 A 
BRANCH  51  65
ATOM     65  C   UNL A   1      48.179  26.436  29.757  1.00  0.00     0.057 A 
ATOM     66  C   UNL A   1      48.661  25.838  30.929  1.00  0.00     0.134 A 
ATOM     67  C   UNL A   1      49.062  26.532  28.673  1.00  0.00     0.134 A 
ATOM     68  F   UNL A   1      47.872  25.722  32.008  1.00  0.00    -0.206 F 
ATOM     69  C   UNL A   1      49.978  25.383  31.030  1.00  0.00     0.040 A 
ATOM     70  C   UNL A   1      50.371  26.054  28.752  1.00  0.00     0.040 A 
ATOM     71  F   UNL A   1      48.665  27.084  27.517  1.00  0.00    -0.206 F 
ATOM     72  C   UNL A   1      50.835  25.484  29.936  1.00  0.00     0.006 A 
ENDBRANCH  51  65
BRANCH  52  73
ATOM     73  C   UNL A   1      38.606  29.195  29.075  1.00  0.00     0.057 A 
ATOM     74  C   UNL A   1      38.069  29.717  27.892  1.00  0.00     0.134 A 
ATOM     75  C   UNL A   1      37.751  29.087  30.178  1.00  0.00     0.134 A 
ATOM     76  F   UNL A   1      38.842  29.862  26.807  1.00  0.00    -0.206 F 
ATOM     77  C   UNL A   1      36.741  30.138  27.815  1.00  0.00     0.040 A 
ATOM     78  C   UNL A   1      36.413  29.478  30.107  1.00  0.00     0.040 A 
ATOM     79  F   UNL A   1      38.201  28.588  31.338  1.00  0.00    -0.206 F 
ATOM     80  C   UNL A   1      35.907  30.013  28.925  1.00  0.00     0.006 A 
ENDBRANCH  52  73
BRANCH  64  81
ATOM     81  C   UNL A   1      44.420  32.449  31.100  1.00  0.00     0.057 A 
ATOM     82  C   UNL A   1      44.684  33.511  30.226  1.00  0.00     0.134 A 
ATOM     83  C   UNL A   1      44.369  32.738  32.471  1.00  0.00     0.134 A 
ATOM     84  F   UNL A   1      44.761  33.299  28.903  1.00  0.00    -0.206 F 
ATOM     85  C   UNL A   1      44.912  34.805  30.698  1.00  0.00     0.040 A 
ATOM     86  C   UNL A   1      44.566  34.033  32.951  1.00  0.00     0.040 A 
ATOM     87  F   UNL A   1      44.113  31.770  33.363  1.00  0.00    -0.206 F 
ATOM     88  C   UNL A   1      44.845  35.070  32.064  1.00  0.00     0.006 A 
ENDBRANCH  64  81
ENDBRANCH  38  39
ENDBRANCH  30  33
ENDBRANCH  28  29
ENDBRANCH  27  28
ENDBRANCH  26  27
ENDBRANCH   1  26
TORSDOF 15
ENDMDL
MODEL 2
REMARK VINA RESULT:     -12.0      4.470      9.437
REMARK SMILES C[C@H]1[C@H](C(=O)NCCCCCCNC(=O)c2ccc(-c3c4nc(c(-c5c(F)cccc5F)c5ccc([nH]5)c(-c5c(F)cccc5F)c5nc(c(-c6c(F)cccc6F)c6ccc3[nH]6)C=C5)C=C4)cc2)CCN1c1ccc(C(N)=O)c(Cl)c1
REMARK SMILES IDX 9 1 8 2 7 3 6 4 4 5 5 6 3 8 1 9 2 10 72 11 70 12 71 13 73 14
REMARK SMILES IDX 74 15 82 16 75 17 80 18 76 19 81 20 77 21 78 22 79 23 10 26
REMARK SMILES IDX 11 27 12 28 13 29 14 30 15 32 16 33 17 34 69 35 18 36 68 37
REMARK SMILES IDX 19 38 20 39 21 40 62 41 22 42 67 43 61 44 63 45 23 46 66 47
REMARK SMILES IDX 60 48 59 49 24 51 50 52 33 53 49 54 34 55 37 56 48 57 64 58
REMARK SMILES IDX 35 59 36 60 47 62 65 63 38 64 25 65 26 66 31 67 27 68 28 69
REMARK SMILES IDX 30 70 32 71 29 72 51 73 52 74 57 75 53 76 54 77 56 78 58 79
REMARK SMILES IDX 55 80 39 81 40 82 45 83 41 84 42 85 44 86 46 87 43 88
REMARK H PARENT 6 7 78 24 78 25 13 31 63 50 37 61
REMARK Flexibility Score: inf
ROOT
ATOM      1  C   UNL A   1      32.131  29.485  26.994  1.00  0.00     0.002 C 
ENDROOT
BRANCH   1   2
ATOM      2  C   UNL A   1      32.342  28.071  26.446  1.00  0.00     0.021 C 
BRANCH   2   3
ATOM      3  C   UNL A   1      31.107  27.475  25.773  1.00  0.00     0.116 C 
BRANCH   3   4
ATOM      4  N   UNL A   1      30.623  26.315  26.501  1.00  0.00    -0.356 N 
ATOM      5  C   UNL A   1      30.831  24.986  26.298  1.00  0.00     0.225 C 
ATOM      6  O   UNL A   1      30.236  24.199  27.041  1.00  0.00    -0.275 OA
ATOM      7  H   UNL A   1      30.047  26.526  27.270  1.00  0.00     0.163 HD
BRANCH   5   8
ATOM      8  C   UNL A   1      31.770  24.458  25.228  1.00  0.00     0.102 C 
ATOM      9  C   UNL A   1      33.953  23.340  25.849  1.00  0.00     0.032 C 
ATOM     10  C   UNL A   1      32.454  23.138  25.624  1.00  0.00     0.091 C 
ATOM     11  N   UNL A   1      32.236  22.256  24.472  1.00  0.00    -0.368 N 
ATOM     12  C   UNL A   1      31.076  24.215  23.888  1.00  0.00     0.037 C 
ATOM     13  C   UNL A   1      31.748  22.979  23.306  1.00  0.00     0.118 C 
BRANCH  11  14
ATOM     14  C   UNL A   1      32.381  20.893  24.470  1.00  0.00     0.038 A 
ATOM     15  C   UNL A   1      32.739  20.200  25.627  1.00  0.00     0.027 A 
ATOM     16  C   UNL A   1      32.224  20.133  23.307  1.00  0.00     0.047 A 
ATOM     17  C   UNL A   1      32.940  18.811  25.624  1.00  0.00     0.017 A 
ATOM     18  C   UNL A   1      32.463  18.747  23.274  1.00  0.00     0.055 A 
ATOM     19  C   UNL A   1      32.817  18.059  24.444  1.00  0.00     0.058 A 
ATOM     20  Cl  UNL A   1      32.312  18.018  21.708  1.00  0.00    -0.083 Cl
BRANCH  19  21
ATOM     21  C   UNL A   1      33.083  16.584  24.458  1.00  0.00     0.250 C 
ATOM     22  N   UNL A   1      32.233  15.767  25.152  1.00  0.00    -0.366 N 
ATOM     23  O   UNL A   1      34.031  16.063  23.881  1.00  0.00    -0.269 OA
ATOM     24  H   UNL A   1      31.460  16.150  25.627  1.00  0.00     0.159 HD
ATOM     25  H   UNL A   1      32.392  14.796  25.176  1.00  0.00     0.159 HD
ENDBRANCH  19  21
ENDBRANCH  11  14
ENDBRANCH   5   8
ENDBRANCH   3   4
ENDBRANCH   2   3
ENDBRANCH   1   2
BRANCH   1  26
ATOM     26  C   UNL A   1      31.598  30.495  25.972  1.00  0.00     0.002 C 
BRANCH  26  27
ATOM     27  C   UNL A   1      31.433  31.923  26.499  1.00  0.00     0.021 C 
BRANCH  27  28
ATOM     28  C   UNL A   1      32.669  32.487  27.193  1.00  0.00     0.116 C 
BRANCH  28  29
ATOM     29  N   UNL A   1      32.495  33.884  27.555  1.00  0.00    -0.352 N 
ATOM     30  C   UNL A   1      33.121  34.615  28.533  1.00  0.00     0.251 C 
ATOM     31  H   UNL A   1      31.832  34.378  27.021  1.00  0.00     0.163 HD
ATOM     32  O   UNL A   1      32.696  35.724  28.842  1.00  0.00    -0.269 OA
BRANCH  30  33
ATOM     33  C   UNL A   1      34.299  34.055  29.228  1.00  0.00     0.039 A 
ATOM     34  C   UNL A   1      34.096  33.218  30.327  1.00  0.00     0.014 A 
ATOM     35  C   UNL A   1      35.594  34.361  28.804  1.00  0.00     0.014 A 
ATOM     36  C   UNL A   1      35.196  32.642  30.967  1.00  0.00     0.010 A 
ATOM     37  C   UNL A   1      36.684  33.726  29.392  1.00  0.00     0.010 A 
ATOM     38  C   UNL A   1      36.495  32.864  30.483  1.00  0.00    -0.014 A 
BRANCH  38  39
ATOM     39  C   UNL A   1      37.667  32.200  31.107  1.00  0.00     0.031 A 
ATOM     40  C   UNL A   1      38.392  31.101  30.379  1.00  0.00     0.074 A 
ATOM     41  C   UNL A   1      38.045  32.548  32.352  1.00  0.00     0.049 A 
ATOM     42  N   UNL A   1      39.407  30.375  30.778  1.00  0.00    -0.248 NA
ATOM     43  C   UNL A   1      37.899  30.758  29.037  1.00  0.00     0.031 C 
ATOM     44  C   UNL A   1      37.395  33.568  33.178  1.00  0.00     0.029 A 
ATOM     45  N   UNL A   1      39.062  32.079  33.143  1.00  0.00    -0.354 N 
ATOM     46  C   UNL A   1      39.664  29.486  29.742  1.00  0.00     0.074 A 
ATOM     47  C   UNL A   1      38.666  29.726  28.722  1.00  0.00     0.031 C 
ATOM     48  C   UNL A   1      38.046  33.665  34.349  1.00  0.00     0.029 A 
ATOM     49  C   UNL A   1      39.129  32.687  34.374  1.00  0.00     0.049 A 
ATOM     50  H   UNL A   1      39.686  31.373  32.857  1.00  0.00     0.167 HD
ATOM     51  C   UNL A   1      40.656  28.569  29.640  1.00  0.00     0.037 A 
ATOM     52  C   UNL A   1      39.962  32.474  35.409  1.00  0.00     0.037 A 
ATOM     53  C   UNL A   1      41.651  28.339  30.654  1.00  0.00     0.049 A 
ATOM     54  C   UNL A   1      41.037  31.430  35.282  1.00  0.00     0.074 A 
ATOM     55  C   UNL A   1      42.728  27.471  30.624  1.00  0.00     0.029 A 
ATOM     56  N   UNL A   1      41.683  28.974  31.887  1.00  0.00    -0.354 N 
ATOM     57  N   UNL A   1      41.316  30.649  34.267  1.00  0.00    -0.248 NA
ATOM     58  C   UNL A   1      41.916  31.241  36.445  1.00  0.00     0.031 C 
ATOM     59  C   UNL A   1      43.380  27.541  31.859  1.00  0.00     0.029 A 
ATOM     60  C   UNL A   1      42.745  28.495  32.637  1.00  0.00     0.049 A 
ATOM     61  H   UNL A   1      41.045  29.662  32.186  1.00  0.00     0.167 HD
ATOM     62  C   UNL A   1      42.417  29.896  34.656  1.00  0.00     0.074 A 
ATOM     63  C   UNL A   1      42.765  30.328  35.995  1.00  0.00     0.031 C 
ATOM     64  C   UNL A   1      43.081  28.936  33.968  1.00  0.00     0.037 A 
BRANCH  51  65
ATOM     65  C   UNL A   1      40.707  27.743  28.386  1.00  0.00     0.057 A 
ATOM     66  C   UNL A   1      41.443  28.148  27.263  1.00  0.00     0.134 A 
ATOM     67  C   UNL A   1      40.040  26.514  28.309  1.00  0.00     0.134 A 
ATOM     68  F   UNL A   1      42.099  29.318  27.265  1.00  0.00    -0.206 F 
ATOM     69  C   UNL A   1      41.486  27.376  26.100  1.00  0.00     0.040 A 
ATOM     70  C   UNL A   1      40.100  25.719  27.163  1.00  0.00     0.040 A 
ATOM     71  F   UNL A   1      39.325  26.060  29.349  1.00  0.00    -0.206 F 
ATOM     72  C   UNL A   1      40.819  26.154  26.050  1.00  0.00     0.006 A 
ENDBRANCH  51  65
BRANCH  52  73
ATOM     73  C   UNL A   1      39.827  33.277  36.652  1.00  0.00     0.057 A 
ATOM     74  C   UNL A   1      40.569  34.449  36.838  1.00  0.00     0.134 A 
ATOM     75  C   UNL A   1      38.962  32.891  37.682  1.00  0.00     0.134 A 
ATOM     76  F   UNL A   1      41.428  34.860  35.895  1.00  0.00    -0.206 F 
ATOM     77  C   UNL A   1      40.475  35.196  38.013  1.00  0.00     0.040 A 
ATOM     78  C   UNL A   1      38.836  33.644  38.851  1.00  0.00     0.040 A 
ATOM     79  F   UNL A   1      38.216  31.783  37.563  1.00  0.00    -0.206 F 
ATOM     80  C   UNL A   1      39.601  34.796  39.022  1.00  0.00     0.006 A 
ENDBRANCH  52  73
BRANCH  64  81
ATOM     81  C   UNL A   1      44.270  28.308  34.637  1.00  0.00     0.057 A 
ATOM     82  C   UNL A   1      45.553  28.862  34.542  1.00  0.00     0.134 A 
ATOM     83  C   UNL A   1      44.121  27.153  35.418  1.00  0.00     0.134 A 
ATOM     84  F   UNL A   1      45.767  29.957  33.798  1.00  0.00    -0.206 F 
ATOM     85  C   UNL A   1      46.649  28.276  35.179  1.00  0.00     0.040 A 
ATOM     86  C   UNL A   1      45.203  26.577  36.083  1.00  0.00     0.040 A 
ATOM     87  F   UNL A   1      42.918  26.576  35.559  1.00  0.00    -0.206 F 
ATOM     88  C   UNL A   1      46.473  27.135  35.959  1.00  0.00     0.006 A 
ENDBRANCH  64  81
ENDBRANCH  38  39
ENDBRANCH  30  33
ENDBRANCH  28  29
ENDBRANCH  27  28
ENDBRANCH  26  27
ENDBRANCH   1  26
TORSDOF 15
ENDMDL
MODEL 3
REMARK VINA RESULT:     -12.0      0.454      6.143
REMARK SMILES C[C@H]1[C@H](C(=O)NCCCCCCNC(=O)c2ccc(-c3c4nc(c(-c5c(F)cccc5F)c5ccc([nH]5)c(-c5c(F)cccc5F)c5nc(c(-c6c(F)cccc6F)c6ccc3[nH]6)C=C5)C=C4)cc2)CCN1c1ccc(C(N)=O)c(Cl)c1
REMARK SMILES IDX 9 1 8 2 7 3 6 4 4 5 5 6 3 8 1 9 2 10 72 11 70 12 71 13 73 14
REMARK SMILES IDX 74 15 82 16 75 17 80 18 76 19 81 20 77 21 78 22 79 23 10 26
REMARK SMILES IDX 11 27 12 28 13 29 14 30 15 32 16 33 17 34 69 35 18 36 68 37
REMARK SMILES IDX 19 38 20 39 21 40 62 41 22 42 67 43 61 44 63 45 23 46 66 47
REMARK SMILES IDX 60 48 59 49 24 51 50 52 33 53 49 54 34 55 37 56 48 57 64 58
REMARK SMILES IDX 35 59 36 60 47 62 65 63 38 64 25 65 26 66 31 67 27 68 28 69
REMARK SMILES IDX 30 70 32 71 29 72 51 73 52 74 57 75 53 76 54 77 56 78 58 79
REMARK SMILES IDX 55 80 39 81 40 82 45 83 41 84 42 85 44 86 46 87 43 88
REMARK H PARENT 6 7 78 24 78 25 13 31 63 50 37 61
REMARK Flexibility Score: inf
ROOT
ATOM      1  C   UNL A   1      34.949  20.340  24.972  1.00  0.00     0.002 C 
ENDROOT
BRANCH   1   2
ATOM      2  C   UNL A   1      34.002  21.001  25.978  1.00  0.00     0.021 C 
BRANCH   2   3
ATOM      3  C   UNL A   1      32.590  21.231  25.443  1.00  0.00     0.116 C 
BRANCH   3   4
ATOM      4  N   UNL A   1      31.835  22.111  26.318  1.00  0.00    -0.356 N 
ATOM      5  C   UNL A   1      31.751  23.467  26.359  1.00  0.00     0.225 C 
ATOM      6  O   UNL A   1      31.073  23.967  27.263  1.00  0.00    -0.275 OA
ATOM      7  H   UNL A   1      31.293  21.646  26.995  1.00  0.00     0.163 HD
BRANCH   5   8
ATOM      8  C   UNL A   1      32.429  24.361  25.335  1.00  0.00     0.102 C 
ATOM      9  C   UNL A   1      31.816  24.229  22.884  1.00  0.00     0.032 C 
ATOM     10  C   UNL A   1      31.471  24.853  24.236  1.00  0.00     0.091 C 
ATOM     11  N   UNL A   1      31.689  26.304  24.188  1.00  0.00    -0.368 N 
ATOM     12  C   UNL A   1      33.072  25.602  25.954  1.00  0.00     0.037 C 
ATOM     13  C   UNL A   1      32.874  26.710  24.929  1.00  0.00     0.118 C 
BRANCH  11  14
ATOM     14  C   UNL A   1      30.856  27.217  23.596  1.00  0.00     0.038 A 
ATOM     15  C   UNL A   1      31.360  28.277  22.840  1.00  0.00     0.027 A 
ATOM     16  C   UNL A   1      29.468  27.165  23.754  1.00  0.00     0.047 A 
ATOM     17  C   UNL A   1      30.519  29.247  22.274  1.00  0.00     0.017 A 
ATOM     18  C   UNL A   1      28.611  28.151  23.230  1.00  0.00     0.055 A 
ATOM     19  C   UNL A   1      29.128  29.208  22.467  1.00  0.00     0.058 A 
ATOM     20  Cl  UNL A   1      26.937  27.950  23.631  1.00  0.00    -0.083 Cl
BRANCH  19  21
ATOM     21  C   UNL A   1      28.256  30.282  21.891  1.00  0.00     0.250 C 
ATOM     22  N   UNL A   1      27.736  31.230  22.730  1.00  0.00    -0.366 N 
ATOM     23  O   UNL A   1      27.976  30.360  20.699  1.00  0.00    -0.269 OA
ATOM     24  H   UNL A   1      27.939  31.200  23.693  1.00  0.00     0.159 HD
ATOM     25  H   UNL A   1      27.159  31.942  22.372  1.00  0.00     0.159 HD
ENDBRANCH  19  21
ENDBRANCH  11  14
ENDBRANCH   5   8
ENDBRANCH   3   4
ENDBRANCH   2   3
ENDBRANCH   1   2
BRANCH   1  26
ATOM     26  C   UNL A   1      36.338  20.979  24.885  1.00  0.00     0.002 C 
BRANCH  26  27
ATOM     27  C   UNL A   1      37.508  19.993  24.927  1.00  0.00     0.021 C 
BRANCH  27  28
ATOM     28  C   UNL A   1      38.740  20.504  25.667  1.00  0.00     0.116 C 
BRANCH  28  29
ATOM     29  N   UNL A   1      39.780  19.493  25.750  1.00  0.00    -0.352 N 
ATOM     30  C   UNL A   1      41.109  19.633  26.061  1.00  0.00     0.251 C 
ATOM     31  H   UNL A   1      39.490  18.573  25.553  1.00  0.00     0.163 HD
ATOM     32  O   UNL A   1      41.889  18.705  25.871  1.00  0.00    -0.269 OA
BRANCH  30  33
ATOM     33  C   UNL A   1      41.604  20.914  26.609  1.00  0.00     0.039 A 
ATOM     34  C   UNL A   1      42.083  21.884  25.727  1.00  0.00     0.014 A 
ATOM     35  C   UNL A   1      41.604  21.151  27.987  1.00  0.00     0.014 A 
ATOM     36  C   UNL A   1      42.509  23.117  26.223  1.00  0.00     0.010 A 
ATOM     37  C   UNL A   1      41.955  22.408  28.472  1.00  0.00     0.010 A 
ATOM     38  C   UNL A   1      42.417  23.400  27.596  1.00  0.00    -0.014 A 
BRANCH  38  39
ATOM     39  C   UNL A   1      42.797  24.733  28.128  1.00  0.00     0.031 A 
ATOM     40  C   UNL A   1      41.749  25.790  28.345  1.00  0.00     0.074 A 
ATOM     41  C   UNL A   1      44.094  25.009  28.365  1.00  0.00     0.049 A 
ATOM     42  N   UNL A   1      41.893  27.023  28.761  1.00  0.00    -0.248 NA
ATOM     43  C   UNL A   1      40.360  25.420  28.034  1.00  0.00     0.031 C 
ATOM     44  C   UNL A   1      45.208  24.084  28.153  1.00  0.00     0.029 A 
ATOM     45  N   UNL A   1      44.695  26.151  28.830  1.00  0.00    -0.354 N 
ATOM     46  C   UNL A   1      40.618  27.576  28.749  1.00  0.00     0.074 A 
ATOM     47  C   UNL A   1      39.723  26.563  28.234  1.00  0.00     0.031 C 
ATOM     48  C   UNL A   1      46.354  24.685  28.510  1.00  0.00     0.029 A 
ATOM     49  C   UNL A   1      46.062  26.051  28.936  1.00  0.00     0.049 A 
ATOM     50  H   UNL A   1      44.196  26.966  29.065  1.00  0.00     0.167 HD
ATOM     51  C   UNL A   1      40.227  28.808  29.153  1.00  0.00     0.037 A 
ATOM     52  C   UNL A   1      46.977  26.959  29.321  1.00  0.00     0.037 A 
ATOM     53  C   UNL A   1      41.120  29.811  29.672  1.00  0.00     0.049 A 
ATOM     54  C   UNL A   1      46.519  28.330  29.737  1.00  0.00     0.074 A 
ATOM     55  C   UNL A   1      40.814  31.070  30.158  1.00  0.00     0.029 A 
ATOM     56  N   UNL A   1      42.497  29.672  29.761  1.00  0.00    -0.354 N 
ATOM     57  N   UNL A   1      45.302  28.814  29.794  1.00  0.00    -0.248 NA
ATOM     58  C   UNL A   1      47.563  29.279  30.148  1.00  0.00     0.031 C 
ATOM     59  C   UNL A   1      42.011  31.712  30.490  1.00  0.00     0.029 A 
ATOM     60  C   UNL A   1      43.057  30.833  30.268  1.00  0.00     0.049 A 
ATOM     61  H   UNL A   1      43.002  28.867  29.503  1.00  0.00     0.167 HD
ATOM     62  C   UNL A   1      45.430  30.113  30.272  1.00  0.00     0.074 A 
ATOM     63  C   UNL A   1      46.843  30.334  30.505  1.00  0.00     0.031 C 
ATOM     64  C   UNL A   1      44.466  31.038  30.497  1.00  0.00     0.037 A 
BRANCH  51  65
ATOM     65  C   UNL A   1      38.765  29.139  29.044  1.00  0.00     0.057 A 
ATOM     66  C   UNL A   1      37.900  29.038  30.143  1.00  0.00     0.134 A 
ATOM     67  C   UNL A   1      38.221  29.594  27.836  1.00  0.00     0.134 A 
ATOM     68  F   UNL A   1      38.352  28.600  31.327  1.00  0.00    -0.206 F 
ATOM     69  C   UNL A   1      36.542  29.345  30.035  1.00  0.00     0.040 A 
ATOM     70  C   UNL A   1      36.871  29.934  27.724  1.00  0.00     0.040 A 
ATOM     71  F   UNL A   1      38.993  29.725  26.747  1.00  0.00    -0.206 F 
ATOM     72  C   UNL A   1      36.026  29.802  28.824  1.00  0.00     0.006 A 
ENDBRANCH  51  65
BRANCH  52  73
ATOM     73  C   UNL A   1      48.418  26.599  29.350  1.00  0.00     0.057 A 
ATOM     74  C   UNL A   1      49.005  26.063  30.503  1.00  0.00     0.134 A 
ATOM     75  C   UNL A   1      49.242  26.787  28.235  1.00  0.00     0.134 A 
ATOM     76  F   UNL A   1      48.271  25.877  31.609  1.00  0.00    -0.206 F 
ATOM     77  C   UNL A   1      50.363  25.749  30.554  1.00  0.00     0.040 A 
ATOM     78  C   UNL A   1      50.597  26.450  28.263  1.00  0.00     0.040 A 
ATOM     79  F   UNL A   1      48.741  27.288  27.097  1.00  0.00    -0.206 F 
ATOM     80  C   UNL A   1      51.163  25.938  29.428  1.00  0.00     0.006 A 
ENDBRANCH  52  73
BRANCH  64  81
ATOM     81  C   UNL A   1      44.901  32.363  31.053  1.00  0.00     0.057 A 
ATOM     82  C   UNL A   1      45.219  33.448  30.225  1.00  0.00     0.134 A 
ATOM     83  C   UNL A   1      44.967  32.567  32.439  1.00  0.00     0.134 A 
ATOM     84  F   UNL A   1      45.190  33.316  28.891  1.00  0.00    -0.206 F 
ATOM     85  C   UNL A   1      45.609  34.679  30.754  1.00  0.00     0.040 A 
ATOM     86  C   UNL A   1      45.327  33.802  32.978  1.00  0.00     0.040 A 
ATOM     87  F   UNL A   1      44.667  31.574  33.289  1.00  0.00    -0.206 F 
ATOM     88  C   UNL A   1      45.656  34.861  32.136  1.00  0.00     0.006 A 
ENDBRANCH  64  81
ENDBRANCH  38  39
ENDBRANCH  30  33
ENDBRANCH  28  29
ENDBRANCH  27  28
ENDBRANCH  26  27
ENDBRANCH   1  26
TORSDOF 15
ENDMDL
