MODEL 1
REMARK VINA RESULT:     -11.9      0.000      0.000
REMARK SMILES COc1cc(/C=C2/SC(=O)N(c3ccc(C)c(C)c3)C2=O)ccc1OCCC(=O)NCCCCCCNC(=O)c1ccc(-c2c3nc(c(-c4c(F)cccc4F)c4ccc([nH]4)c(-c4c(F)cccc4F)c4nc(c(-c5c(F)cccc5F)c5ccc2[nH]5)C=C4)C=C3)cc1
REMARK SMILES IDX 32 1 31 2 30 3 28 4 29 5 27 7 26 8 25 9 24 10 3 11 4 12 5 13
REMARK SMILES IDX 23 14 22 15 2 16 1 17 6 18 7 19 8 20 20 21 9 22 11 23 21 24
REMARK SMILES IDX 10 25 12 26 13 27 19 28 14 29 17 30 15 31 18 32 16 33 33 34
REMARK SMILES IDX 34 35 35 36 36 37 37 38 38 39 39 41 40 42 41 43 93 44 42 45
REMARK SMILES IDX 92 46 43 47 44 48 45 49 86 50 46 51 91 52 85 53 87 54 47 55
REMARK SMILES IDX 90 56 84 57 83 58 48 60 74 61 57 62 73 63 58 64 61 65 72 66
REMARK SMILES IDX 88 67 59 68 60 69 71 71 89 72 62 73 49 74 50 75 55 76 51 77
REMARK SMILES IDX 52 78 54 79 56 80 53 81 75 82 76 83 81 84 77 85 78 86 80 87
REMARK SMILES IDX 82 88 79 89 63 90 64 91 69 92 65 93 66 94 68 95 70 96 67 97
REMARK H PARENT 30 6 37 40 87 59 61 70
REMARK Flexibility Score: inf
ROOT
ATOM      1  C   UNL A   1      31.744  29.122  24.928  1.00  0.00     0.021 C 
ENDROOT
BRANCH   1   2
ATOM      2  C   UNL A   1      32.517  29.203  23.617  1.00  0.00     0.116 C 
BRANCH   2   3
ATOM      3  N   UNL A   1      31.668  29.405  22.458  1.00  0.00    -0.356 N 
ATOM      4  C   UNL A   1      30.308  29.347  22.368  1.00  0.00     0.223 C 
ATOM      5  O   UNL A   1      29.763  29.807  21.364  1.00  0.00    -0.275 OA
ATOM      6  H   UNL A   1      32.140  29.613  21.619  1.00  0.00     0.163 HD
BRANCH   4   7
ATOM      7  C   UNL A   1      29.503  28.808  23.527  1.00  0.00     0.141 C 
BRANCH   7   8
ATOM      8  C   UNL A   1      28.835  27.453  23.313  1.00  0.00     0.239 C 
BRANCH   8   9
ATOM      9  O   UNL A   1      29.300  26.350  24.080  1.00  0.00    -0.489 OA
BRANCH   9  10
ATOM     10  C   UNL A   1      30.567  25.848  24.025  1.00  0.00     0.161 A 
ATOM     11  C   UNL A   1      31.503  25.848  22.989  1.00  0.00     0.161 A 
ATOM     12  C   UNL A   1      32.864  25.594  23.264  1.00  0.00     0.058 A 
ATOM     13  C   UNL A   1      33.282  25.226  24.543  1.00  0.00    -0.020 A 
ATOM     14  C   UNL A   1      30.970  25.338  25.267  1.00  0.00     0.051 A 
ATOM     15  C   UNL A   1      32.307  25.031  25.529  1.00  0.00     0.012 A 
BRANCH  11  16
ATOM     16  O   UNL A   1      31.244  26.207  21.700  1.00  0.00    -0.493 OA
ATOM     17  C   UNL A   1      32.197  25.724  20.758  1.00  0.00     0.278 C 
ENDBRANCH  11  16
BRANCH  13  18
ATOM     18  C   UNL A   1      34.710  25.175  24.914  1.00  0.00     0.029 C 
ATOM     19  C   UNL A   1      35.467  24.084  24.744  1.00  0.00     0.083 C 
ATOM     20  S   UNL A   1      36.871  23.684  25.637  1.00  0.00    -0.022 SA
ATOM     21  C   UNL A   1      35.011  22.884  24.010  1.00  0.00     0.272 C 
ATOM     22  C   UNL A   1      36.441  21.959  25.571  1.00  0.00     0.298 C 
ATOM     23  N   UNL A   1      35.325  21.775  24.780  1.00  0.00    -0.236 N 
ATOM     24  O   UNL A   1      34.499  22.959  22.917  1.00  0.00    -0.268 OA
ATOM     25  O   UNL A   1      37.127  21.124  26.152  1.00  0.00    -0.260 OA
BRANCH  23  26
ATOM     26  C   UNL A   1      34.549  20.572  24.720  1.00  0.00     0.053 A 
ATOM     27  C   UNL A   1      33.157  20.592  24.891  1.00  0.00     0.027 A 
ATOM     28  C   UNL A   1      35.156  19.310  24.628  1.00  0.00     0.030 A 
ATOM     29  C   UNL A   1      32.403  19.419  24.934  1.00  0.00     0.006 A 
ATOM     30  C   UNL A   1      34.412  18.110  24.706  1.00  0.00    -0.046 A 
ATOM     31  C   UNL A   1      33.014  18.169  24.831  1.00  0.00    -0.048 A 
ATOM     32  C   UNL A   1      35.146  16.798  24.657  1.00  0.00     0.044 C 
ATOM     33  C   UNL A   1      32.126  16.958  24.877  1.00  0.00     0.044 C 
ENDBRANCH  23  26
ENDBRANCH  13  18
ENDBRANCH   9  10
ENDBRANCH   8   9
ENDBRANCH   7   8
ENDBRANCH   4   7
ENDBRANCH   2   3
ENDBRANCH   1   2
BRANCH   1  34
ATOM     34  C   UNL A   1      31.808  30.414  25.745  1.00  0.00     0.002 C 
BRANCH  34  35
ATOM     35  C   UNL A   1      32.500  30.309  27.101  1.00  0.00     0.002 C 
BRANCH  35  36
ATOM     36  C   UNL A   1      33.417  29.090  27.235  1.00  0.00     0.021 C 
BRANCH  36  37
ATOM     37  C   UNL A   1      34.865  29.406  27.612  1.00  0.00     0.116 C 
BRANCH  37  38
ATOM     38  N   UNL A   1      34.965  30.337  28.727  1.00  0.00    -0.352 N 
ATOM     39  C   UNL A   1      36.038  30.565  29.557  1.00  0.00     0.251 C 
ATOM     40  H   UNL A   1      34.160  30.873  28.911  1.00  0.00     0.163 HD
ATOM     41  O   UNL A   1      35.920  31.263  30.557  1.00  0.00    -0.269 OA
BRANCH  39  42
ATOM     42  C   UNL A   1      37.334  29.925  29.248  1.00  0.00     0.039 A 
ATOM     43  C   UNL A   1      37.817  29.972  27.939  1.00  0.00     0.014 A 
ATOM     44  C   UNL A   1      38.093  29.338  30.264  1.00  0.00     0.014 A 
ATOM     45  C   UNL A   1      39.100  29.495  27.662  1.00  0.00     0.010 A 
ATOM     46  C   UNL A   1      39.397  28.928  29.998  1.00  0.00     0.010 A 
ATOM     47  C   UNL A   1      39.917  29.010  28.696  1.00  0.00    -0.014 A 
BRANCH  47  48
ATOM     48  C   UNL A   1      41.324  28.607  28.438  1.00  0.00     0.031 A 
ATOM     49  C   UNL A   1      41.658  27.187  28.080  1.00  0.00     0.074 A 
ATOM     50  C   UNL A   1      42.316  29.505  28.600  1.00  0.00     0.049 A 
ATOM     51  N   UNL A   1      42.828  26.639  27.868  1.00  0.00    -0.248 NA
ATOM     52  C   UNL A   1      40.527  26.252  27.976  1.00  0.00     0.031 C 
ATOM     53  C   UNL A   1      42.134  30.899  29.008  1.00  0.00     0.029 A 
ATOM     54  N   UNL A   1      43.675  29.374  28.457  1.00  0.00    -0.354 N 
ATOM     55  C   UNL A   1      42.575  25.297  27.617  1.00  0.00     0.074 A 
ATOM     56  C   UNL A   1      41.149  25.102  27.764  1.00  0.00     0.031 C 
ATOM     57  C   UNL A   1      43.334  31.497  29.070  1.00  0.00     0.029 A 
ATOM     58  C   UNL A   1      44.371  30.523  28.740  1.00  0.00     0.049 A 
ATOM     59  H   UNL A   1      44.109  28.535  28.177  1.00  0.00     0.167 HD
ATOM     60  C   UNL A   1      43.448  24.319  27.273  1.00  0.00     0.037 A 
ATOM     61  C   UNL A   1      45.696  30.767  28.743  1.00  0.00     0.037 A 
ATOM     62  C   UNL A   1      44.867  24.516  27.120  1.00  0.00     0.049 A 
ATOM     63  C   UNL A   1      46.650  29.672  28.357  1.00  0.00     0.074 A 
ATOM     64  C   UNL A   1      45.825  23.606  26.707  1.00  0.00     0.029 A 
ATOM     65  N   UNL A   1      45.533  25.703  27.388  1.00  0.00    -0.354 N 
ATOM     66  N   UNL A   1      46.391  28.428  28.034  1.00  0.00    -0.248 NA
ATOM     67  C   UNL A   1      48.078  30.016  28.325  1.00  0.00     0.031 C 
ATOM     68  C   UNL A   1      47.078  24.227  26.779  1.00  0.00     0.029 A 
ATOM     69  C   UNL A   1      46.895  25.540  27.181  1.00  0.00     0.049 A 
ATOM     70  H   UNL A   1      45.104  26.538  27.683  1.00  0.00     0.167 HD
ATOM     71  C   UNL A   1      47.618  27.846  27.741  1.00  0.00     0.074 A 
ATOM     72  C   UNL A   1      48.619  28.879  27.910  1.00  0.00     0.031 C 
ATOM     73  C   UNL A   1      47.887  26.571  27.363  1.00  0.00     0.037 A 
BRANCH  60  74
ATOM     74  C   UNL A   1      42.882  22.944  27.051  1.00  0.00     0.057 A 
ATOM     75  C   UNL A   1      42.545  22.099  28.119  1.00  0.00     0.134 A 
ATOM     76  C   UNL A   1      42.677  22.455  25.756  1.00  0.00     0.134 A 
ATOM     77  F   UNL A   1      42.726  22.500  29.387  1.00  0.00    -0.206 F 
ATOM     78  C   UNL A   1      42.072  20.803  27.905  1.00  0.00     0.040 A 
ATOM     79  C   UNL A   1      42.172  21.174  25.529  1.00  0.00     0.040 A 
ATOM     80  F   UNL A   1      42.968  23.212  24.687  1.00  0.00    -0.206 F 
ATOM     81  C   UNL A   1      41.880  20.338  26.606  1.00  0.00     0.006 A 
ENDBRANCH  60  74
BRANCH  61  82
ATOM     82  C   UNL A   1      46.188  32.119  29.109  1.00  0.00     0.057 A 
ATOM     83  C   UNL A   1      46.285  33.139  28.157  1.00  0.00     0.134 A 
ATOM     84  C   UNL A   1      46.540  32.431  30.428  1.00  0.00     0.134 A 
ATOM     85  F   UNL A   1      45.978  32.896  26.874  1.00  0.00    -0.206 F 
ATOM     86  C   UNL A   1      46.719  34.420  28.500  1.00  0.00     0.040 A 
ATOM     87  C   UNL A   1      46.953  33.714  30.791  1.00  0.00     0.040 A 
ATOM     88  F   UNL A   1      46.460  31.499  31.390  1.00  0.00    -0.206 F 
ATOM     89  C   UNL A   1      47.047  34.712  29.824  1.00  0.00     0.006 A 
ENDBRANCH  61  82
BRANCH  73  90
ATOM     90  C   UNL A   1      49.322  26.223  27.088  1.00  0.00     0.057 A 
ATOM     91  C   UNL A   1      50.198  25.828  28.108  1.00  0.00     0.134 A 
ATOM     92  C   UNL A   1      49.822  26.244  25.780  1.00  0.00     0.134 A 
ATOM     93  F   UNL A   1      49.787  25.801  29.384  1.00  0.00    -0.206 F 
ATOM     94  C   UNL A   1      51.525  25.488  27.839  1.00  0.00     0.040 A 
ATOM     95  C   UNL A   1      51.139  25.878  25.495  1.00  0.00     0.040 A 
ATOM     96  F   UNL A   1      49.036  26.605  24.754  1.00  0.00    -0.206 F 
ATOM     97  C   UNL A   1      51.996  25.504  26.527  1.00  0.00     0.006 A 
ENDBRANCH  73  90
ENDBRANCH  47  48
ENDBRANCH  39  42
ENDBRANCH  37  38
ENDBRANCH  36  37
ENDBRANCH  35  36
ENDBRANCH  34  35
ENDBRANCH   1  34
TORSDOF 19
ENDMDL
MODEL 2
REMARK VINA RESULT:     -11.8      0.349      5.812
REMARK SMILES COc1cc(/C=C2/SC(=O)N(c3ccc(C)c(C)c3)C2=O)ccc1OCCC(=O)NCCCCCCNC(=O)c1ccc(-c2c3nc(c(-c4c(F)cccc4F)c4ccc([nH]4)c(-c4c(F)cccc4F)c4nc(c(-c5c(F)cccc5F)c5ccc2[nH]5)C=C4)C=C3)cc1
REMARK SMILES IDX 32 1 31 2 30 3 28 4 29 5 27 7 26 8 25 9 24 10 3 11 4 12 5 13
REMARK SMILES IDX 23 14 22 15 2 16 1 17 6 18 7 19 8 20 20 21 9 22 11 23 21 24
REMARK SMILES IDX 10 25 12 26 13 27 19 28 14 29 17 30 15 31 18 32 16 33 33 34
REMARK SMILES IDX 34 35 35 36 36 37 37 38 38 39 39 41 40 42 41 43 93 44 42 45
REMARK SMILES IDX 92 46 43 47 44 48 45 49 86 50 46 51 91 52 85 53 87 54 47 55
REMARK SMILES IDX 90 56 84 57 83 58 48 60 74 61 57 62 73 63 58 64 61 65 72 66
REMARK SMILES IDX 88 67 59 68 60 69 71 71 89 72 62 73 49 74 50 75 55 76 51 77
REMARK SMILES IDX 52 78 54 79 56 80 53 81 75 82 76 83 81 84 77 85 78 86 80 87
REMARK SMILES IDX 82 88 79 89 63 90 64 91 69 92 65 93 66 94 68 95 70 96 67 97
REMARK H PARENT 30 6 37 40 87 59 61 70
REMARK Flexibility Score: inf
ROOT
ATOM      1  C   UNL A   1      31.608  29.127  24.946  1.00  0.00     0.021 C 
ENDROOT
BRANCH   1   2
ATOM      2  C   UNL A   1      32.347  29.057  23.614  1.00  0.00     0.116 C 
BRANCH   2   3
ATOM      3  N   UNL A   1      31.503  29.349  22.470  1.00  0.00    -0.356 N 
ATOM      4  C   UNL A   1      30.141  29.347  22.383  1.00  0.00     0.223 C 
ATOM      5  O   UNL A   1      29.611  29.876  21.406  1.00  0.00    -0.275 OA
ATOM      6  H   UNL A   1      31.980  29.580  21.641  1.00  0.00     0.163 HD
BRANCH   4   7
ATOM      7  C   UNL A   1      29.319  28.782  23.519  1.00  0.00     0.141 C 
BRANCH   7   8
ATOM      8  C   UNL A   1      28.796  27.361  23.332  1.00  0.00     0.239 C 
BRANCH   8   9
ATOM      9  O   UNL A   1      29.304  26.344  24.185  1.00  0.00    -0.489 OA
BRANCH   9  10
ATOM     10  C   UNL A   1      30.566  25.833  24.116  1.00  0.00     0.161 A 
ATOM     11  C   UNL A   1      31.478  25.797  23.059  1.00  0.00     0.161 A 
ATOM     12  C   UNL A   1      32.843  25.543  23.309  1.00  0.00     0.058 A 
ATOM     13  C   UNL A   1      33.290  25.210  24.588  1.00  0.00    -0.020 A 
ATOM     14  C   UNL A   1      30.996  25.358  25.363  1.00  0.00     0.051 A 
ATOM     15  C   UNL A   1      32.337  25.050  25.602  1.00  0.00     0.012 A 
BRANCH  11  16
ATOM     16  O   UNL A   1      31.190  26.120  21.766  1.00  0.00    -0.493 OA
ATOM     17  C   UNL A   1      32.263  25.895  20.857  1.00  0.00     0.278 C 
ENDBRANCH  11  16
BRANCH  13  18
ATOM     18  C   UNL A   1      34.725  25.161  24.926  1.00  0.00     0.029 C 
ATOM     19  C   UNL A   1      35.480  24.070  24.743  1.00  0.00     0.083 C 
ATOM     20  S   UNL A   1      36.904  23.674  25.605  1.00  0.00    -0.022 SA
ATOM     21  C   UNL A   1      35.007  22.867  24.023  1.00  0.00     0.272 C 
ATOM     22  C   UNL A   1      36.473  21.948  25.554  1.00  0.00     0.298 C 
ATOM     23  N   UNL A   1      35.340  21.761  24.788  1.00  0.00    -0.236 N 
ATOM     24  O   UNL A   1      34.470  22.939  22.942  1.00  0.00    -0.268 OA
ATOM     25  O   UNL A   1      37.173  21.116  26.122  1.00  0.00    -0.260 OA
BRANCH  23  26
ATOM     26  C   UNL A   1      34.563  20.558  24.750  1.00  0.00     0.053 A 
ATOM     27  C   UNL A   1      33.179  20.574  24.976  1.00  0.00     0.027 A 
ATOM     28  C   UNL A   1      35.168  19.297  24.624  1.00  0.00     0.030 A 
ATOM     29  C   UNL A   1      32.430  19.400  25.039  1.00  0.00     0.006 A 
ATOM     30  C   UNL A   1      34.429  18.095  24.721  1.00  0.00    -0.046 A 
ATOM     31  C   UNL A   1      33.038  18.151  24.902  1.00  0.00    -0.048 A 
ATOM     32  C   UNL A   1      35.163  16.785  24.633  1.00  0.00     0.044 C 
ATOM     33  C   UNL A   1      32.153  16.938  24.973  1.00  0.00     0.044 C 
ENDBRANCH  23  26
ENDBRANCH  13  18
ENDBRANCH   9  10
ENDBRANCH   8   9
ENDBRANCH   7   8
ENDBRANCH   4   7
ENDBRANCH   2   3
ENDBRANCH   1   2
BRANCH   1  34
ATOM     34  C   UNL A   1      31.770  30.473  25.654  1.00  0.00     0.002 C 
BRANCH  34  35
ATOM     35  C   UNL A   1      32.451  30.428  27.019  1.00  0.00     0.002 C 
BRANCH  35  36
ATOM     36  C   UNL A   1      33.340  29.199  27.227  1.00  0.00     0.021 C 
BRANCH  36  37
ATOM     37  C   UNL A   1      34.785  29.505  27.622  1.00  0.00     0.116 C 
BRANCH  37  38
ATOM     38  N   UNL A   1      34.878  30.427  28.744  1.00  0.00    -0.352 N 
ATOM     39  C   UNL A   1      35.937  30.633  29.598  1.00  0.00     0.251 C 
ATOM     40  H   UNL A   1      34.079  30.976  28.914  1.00  0.00     0.163 HD
ATOM     41  O   UNL A   1      35.810  31.329  30.599  1.00  0.00    -0.269 OA
BRANCH  39  42
ATOM     42  C   UNL A   1      37.228  29.973  29.312  1.00  0.00     0.039 A 
ATOM     43  C   UNL A   1      37.694  29.936  27.996  1.00  0.00     0.014 A 
ATOM     44  C   UNL A   1      38.000  29.450  30.353  1.00  0.00     0.014 A 
ATOM     45  C   UNL A   1      38.973  29.441  27.733  1.00  0.00     0.010 A 
ATOM     46  C   UNL A   1      39.301  29.023  30.096  1.00  0.00     0.010 A 
ATOM     47  C   UNL A   1      39.803  29.021  28.784  1.00  0.00    -0.014 A 
BRANCH  47  48
ATOM     48  C   UNL A   1      41.206  28.601  28.533  1.00  0.00     0.031 A 
ATOM     49  C   UNL A   1      42.319  29.609  28.543  1.00  0.00     0.074 A 
ATOM     50  C   UNL A   1      41.473  27.317  28.221  1.00  0.00     0.049 A 
ATOM     51  N   UNL A   1      43.594  29.440  28.299  1.00  0.00    -0.248 NA
ATOM     52  C   UNL A   1      41.942  31.000  28.838  1.00  0.00     0.031 C 
ATOM     53  C   UNL A   1      40.476  26.250  28.112  1.00  0.00     0.029 A 
ATOM     54  N   UNL A   1      42.659  26.696  27.919  1.00  0.00    -0.354 N 
ATOM     55  C   UNL A   1      44.168  30.700  28.400  1.00  0.00     0.074 A 
ATOM     56  C   UNL A   1      43.093  31.632  28.667  1.00  0.00     0.031 C 
ATOM     57  C   UNL A   1      41.094  25.105  27.782  1.00  0.00     0.029 A 
ATOM     58  C   UNL A   1      42.523  25.362  27.622  1.00  0.00     0.049 A 
ATOM     59  H   UNL A   1      43.526  27.163  27.917  1.00  0.00     0.167 HD
ATOM     60  C   UNL A   1      45.474  31.048  28.302  1.00  0.00     0.037 A 
ATOM     61  C   UNL A   1      43.440  24.448  27.253  1.00  0.00     0.037 A 
ATOM     62  C   UNL A   1      46.543  30.118  28.043  1.00  0.00     0.049 A 
ATOM     63  C   UNL A   1      44.885  24.851  27.151  1.00  0.00     0.074 A 
ATOM     64  C   UNL A   1      47.905  30.360  27.994  1.00  0.00     0.029 A 
ATOM     65  N   UNL A   1      46.368  28.768  27.775  1.00  0.00    -0.354 N 
ATOM     66  N   UNL A   1      45.428  26.029  27.338  1.00  0.00    -0.248 NA
ATOM     67  C   UNL A   1      45.845  23.795  26.800  1.00  0.00     0.031 C 
ATOM     68  C   UNL A   1      48.549  29.169  27.642  1.00  0.00     0.029 A 
ATOM     69  C   UNL A   1      47.595  28.171  27.528  1.00  0.00     0.049 A 
ATOM     70  H   UNL A   1      45.502  28.302  27.761  1.00  0.00     0.167 HD
ATOM     71  C   UNL A   1      46.793  25.855  27.146  1.00  0.00     0.074 A 
ATOM     72  C   UNL A   1      46.995  24.452  26.845  1.00  0.00     0.031 C 
ATOM     73  C   UNL A   1      47.787  26.775  27.217  1.00  0.00     0.037 A 
BRANCH  60  74
ATOM     74  C   UNL A   1      45.808  32.505  28.466  1.00  0.00     0.057 A 
ATOM     75  C   UNL A   1      45.891  33.375  27.369  1.00  0.00     0.134 A 
ATOM     76  C   UNL A   1      46.055  33.043  29.733  1.00  0.00     0.134 A 
ATOM     77  F   UNL A   1      45.675  32.923  26.124  1.00  0.00    -0.206 F 
ATOM     78  C   UNL A   1      46.255  34.714  27.523  1.00  0.00     0.040 A 
ATOM     79  C   UNL A   1      46.387  34.388  29.904  1.00  0.00     0.040 A 
ATOM     80  F   UNL A   1      45.984  32.272  30.829  1.00  0.00    -0.206 F 
ATOM     81  C   UNL A   1      46.501  35.225  28.796  1.00  0.00     0.006 A 
ENDBRANCH  60  74
BRANCH  61  82
ATOM     82  C   UNL A   1      43.010  23.055  26.972  1.00  0.00     0.057 A 
ATOM     83  C   UNL A   1      42.702  22.168  28.008  1.00  0.00     0.134 A 
ATOM     84  C   UNL A   1      42.866  22.590  25.660  1.00  0.00     0.134 A 
ATOM     85  F   UNL A   1      42.836  22.550  29.287  1.00  0.00    -0.206 F 
ATOM     86  C   UNL A   1      42.269  20.866  27.751  1.00  0.00     0.040 A 
ATOM     87  C   UNL A   1      42.412  21.299  25.386  1.00  0.00     0.040 A 
ATOM     88  F   UNL A   1      43.139  23.395  24.621  1.00  0.00    -0.206 F 
ATOM     89  C   UNL A   1      42.116  20.431  26.435  1.00  0.00     0.006 A 
ENDBRANCH  61  82
BRANCH  73  90
ATOM     90  C   UNL A   1      49.190  26.293  26.982  1.00  0.00     0.057 A 
ATOM     91  C   UNL A   1      49.984  25.790  28.020  1.00  0.00     0.134 A 
ATOM     92  C   UNL A   1      49.738  26.295  25.693  1.00  0.00     0.134 A 
ATOM     93  F   UNL A   1      49.526  25.773  29.281  1.00  0.00    -0.206 F 
ATOM     94  C   UNL A   1      51.281  25.326  27.788  1.00  0.00     0.040 A 
ATOM     95  C   UNL A   1      51.022  25.808  25.444  1.00  0.00     0.040 A 
ATOM     96  F   UNL A   1      49.029  26.756  24.651  1.00  0.00    -0.206 F 
ATOM     97  C   UNL A   1      51.800  25.327  26.495  1.00  0.00     0.006 A 
ENDBRANCH  73  90
ENDBRANCH  47  48
ENDBRANCH  39  42
ENDBRANCH  37  38
ENDBRANCH  36  37
ENDBRANCH  35  36
ENDBRANCH  34  35
ENDBRANCH   1  34
TORSDOF 19
ENDMDL
MODEL 3
REMARK VINA RESULT:     -11.2      1.800      6.595
REMARK SMILES COc1cc(/C=C2/SC(=O)N(c3ccc(C)c(C)c3)C2=O)ccc1OCCC(=O)NCCCCCCNC(=O)c1ccc(-c2c3nc(c(-c4c(F)cccc4F)c4ccc([nH]4)c(-c4c(F)cccc4F)c4nc(c(-c5c(F)cccc5F)c5ccc2[nH]5)C=C4)C=C3)cc1
REMARK SMILES IDX 32 1 31 2 30 3 28 4 29 5 27 7 26 8 25 9 24 10 3 11 4 12 5 13
REMARK SMILES IDX 23 14 22 15 2 16 1 17 6 18 7 19 8 20 20 21 9 22 11 23 21 24
REMARK SMILES IDX 10 25 12 26 13 27 19 28 14 29 17 30 15 31 18 32 16 33 33 34
REMARK SMILES IDX 34 35 35 36 36 37 37 38 38 39 39 41 40 42 41 43 93 44 42 45
REMARK SMILES IDX 92 46 43 47 44 48 45 49 86 50 46 51 91 52 85 53 87 54 47 55
REMARK SMILES IDX 90 56 84 57 83 58 48 60 74 61 57 62 73 63 58 64 61 65 72 66
REMARK SMILES IDX 88 67 59 68 60 69 71 71 89 72 62 73 49 74 50 75 55 76 51 77
REMARK SMILES IDX 52 78 54 79 56 80 53 81 75 82 76 83 81 84 77 85 78 86 80 87
REMARK SMILES IDX 82 88 79 89 63 90 64 91 69 92 65 93 66 94 68 95 70 96 67 97
REMARK H PARENT 30 6 37 40 87 59 61 70
REMARK Flexibility Score: inf
ROOT
ATOM      1  C   UNL A   1      35.772  30.745  27.725  1.00  0.00     0.021 C 
ENDROOT
BRANCH   1   2
ATOM      2  C   UNL A   1      34.483  29.953  27.541  1.00  0.00     0.116 C 
BRANCH   2   3
ATOM      3  N   UNL A   1      33.289  30.778  27.576  1.00  0.00    -0.356 N 
ATOM      4  C   UNL A   1      32.246  30.819  26.696  1.00  0.00     0.223 C 
ATOM      5  O   UNL A   1      31.209  31.389  27.037  1.00  0.00    -0.275 OA
ATOM      6  H   UNL A   1      33.222  31.394  28.341  1.00  0.00     0.163 HD
BRANCH   4   7
ATOM      7  C   UNL A   1      32.353  30.095  25.374  1.00  0.00     0.141 C 
BRANCH   7   8
ATOM      8  C   UNL A   1      31.426  28.900  25.181  1.00  0.00     0.239 C 
BRANCH   8   9
ATOM      9  O   UNL A   1      31.868  27.629  25.640  1.00  0.00    -0.489 OA
BRANCH   9  10
ATOM     10  C   UNL A   1      31.556  26.441  25.049  1.00  0.00     0.161 A 
ATOM     11  C   UNL A   1      32.019  25.862  23.865  1.00  0.00     0.161 A 
ATOM     12  C   UNL A   1      31.831  24.483  23.630  1.00  0.00     0.058 A 
ATOM     13  C   UNL A   1      31.086  23.699  24.511  1.00  0.00    -0.020 A 
ATOM     14  C   UNL A   1      30.689  25.683  25.849  1.00  0.00     0.051 A 
ATOM     15  C   UNL A   1      30.455  24.331  25.590  1.00  0.00     0.012 A 
BRANCH  11  16
ATOM     16  O   UNL A   1      32.776  26.497  22.927  1.00  0.00    -0.493 OA
ATOM     17  C   UNL A   1      33.564  25.624  22.124  1.00  0.00     0.278 C 
ENDBRANCH  11  16
BRANCH  13  18
ATOM     18  C   UNL A   1      31.060  22.226  24.416  1.00  0.00     0.029 C 
ATOM     19  C   UNL A   1      31.978  21.443  24.996  1.00  0.00     0.083 C 
ATOM     20  S   UNL A   1      32.420  19.868  24.494  1.00  0.00    -0.022 SA
ATOM     21  C   UNL A   1      33.004  21.951  25.933  1.00  0.00     0.272 C 
ATOM     22  C   UNL A   1      34.112  20.183  24.942  1.00  0.00     0.298 C 
ATOM     23  N   UNL A   1      34.224  21.416  25.551  1.00  0.00    -0.236 N 
ATOM     24  O   UNL A   1      32.721  22.671  26.863  1.00  0.00    -0.268 OA
ATOM     25  O   UNL A   1      34.979  19.341  24.729  1.00  0.00    -0.260 OA
BRANCH  23  26
ATOM     26  C   UNL A   1      35.457  22.105  25.794  1.00  0.00     0.053 A 
ATOM     27  C   UNL A   1      35.498  23.499  25.941  1.00  0.00     0.027 A 
ATOM     28  C   UNL A   1      36.691  21.436  25.758  1.00  0.00     0.030 A 
ATOM     29  C   UNL A   1      36.702  24.190  26.078  1.00  0.00     0.006 A 
ATOM     30  C   UNL A   1      37.922  22.125  25.860  1.00  0.00    -0.046 A 
ATOM     31  C   UNL A   1      37.924  23.515  26.052  1.00  0.00    -0.048 A 
ATOM     32  C   UNL A   1      39.201  21.340  25.754  1.00  0.00     0.044 C 
ATOM     33  C   UNL A   1      39.172  24.336  26.218  1.00  0.00     0.044 C 
ENDBRANCH  23  26
ENDBRANCH  13  18
ENDBRANCH   9  10
ENDBRANCH   8   9
ENDBRANCH   7   8
ENDBRANCH   4   7
ENDBRANCH   2   3
ENDBRANCH   1   2
BRANCH   1  34
ATOM     34  C   UNL A   1      35.546  32.257  27.787  1.00  0.00     0.002 C 
BRANCH  34  35
ATOM     35  C   UNL A   1      36.677  33.073  28.405  1.00  0.00     0.002 C 
BRANCH  35  36
ATOM     36  C   UNL A   1      36.371  33.586  29.815  1.00  0.00     0.021 C 
BRANCH  36  37
ATOM     37  C   UNL A   1      37.088  32.844  30.944  1.00  0.00     0.116 C 
BRANCH  37  38
ATOM     38  N   UNL A   1      36.454  31.577  31.276  1.00  0.00    -0.352 N 
ATOM     39  C   UNL A   1      36.930  30.302  31.074  1.00  0.00     0.251 C 
ATOM     40  H   UNL A   1      35.568  31.640  31.702  1.00  0.00     0.163 HD
ATOM     41  O   UNL A   1      36.211  29.327  31.258  1.00  0.00    -0.269 OA
BRANCH  39  42
ATOM     42  C   UNL A   1      38.316  30.122  30.595  1.00  0.00     0.039 A 
ATOM     43  C   UNL A   1      39.318  29.814  31.517  1.00  0.00     0.014 A 
ATOM     44  C   UNL A   1      38.608  30.197  29.230  1.00  0.00     0.014 A 
ATOM     45  C   UNL A   1      40.601  29.504  31.062  1.00  0.00     0.010 A 
ATOM     46  C   UNL A   1      39.869  29.819  28.774  1.00  0.00     0.010 A 
ATOM     47  C   UNL A   1      40.876  29.462  29.685  1.00  0.00    -0.014 A 
BRANCH  47  48
ATOM     48  C   UNL A   1      42.203  29.023  29.181  1.00  0.00     0.031 A 
ATOM     49  C   UNL A   1      43.333  30.004  29.052  1.00  0.00     0.074 A 
ATOM     50  C   UNL A   1      42.373  27.752  28.767  1.00  0.00     0.049 A 
ATOM     51  N   UNL A   1      44.543  29.817  28.587  1.00  0.00    -0.248 NA
ATOM     52  C   UNL A   1      43.056  31.385  29.472  1.00  0.00     0.031 C 
ATOM     53  C   UNL A   1      41.339  26.715  28.778  1.00  0.00     0.029 A 
ATOM     54  N   UNL A   1      43.472  27.120  28.240  1.00  0.00    -0.354 N 
ATOM     55  C   UNL A   1      45.166  31.057  28.650  1.00  0.00     0.074 A 
ATOM     56  C   UNL A   1      44.181  31.998  29.139  1.00  0.00     0.031 C 
ATOM     57  C   UNL A   1      41.856  25.575  28.294  1.00  0.00     0.029 A 
ATOM     58  C   UNL A   1      43.245  25.807  27.908  1.00  0.00     0.049 A 
ATOM     59  H   UNL A   1      44.341  27.566  28.114  1.00  0.00     0.167 HD
ATOM     60  C   UNL A   1      46.448  31.379  28.350  1.00  0.00     0.037 A 
ATOM     61  C   UNL A   1      44.058  24.892  27.346  1.00  0.00     0.037 A 
ATOM     62  C   UNL A   1      47.428  30.439  27.870  1.00  0.00     0.049 A 
ATOM     63  C   UNL A   1      45.478  25.266  27.021  1.00  0.00     0.074 A 
ATOM     64  C   UNL A   1      48.770  30.652  27.604  1.00  0.00     0.029 A 
ATOM     65  N   UNL A   1      47.168  29.109  27.571  1.00  0.00    -0.354 N 
ATOM     66  N   UNL A   1      46.082  26.420  27.168  1.00  0.00    -0.248 NA
ATOM     67  C   UNL A   1      46.331  24.208  26.462  1.00  0.00     0.031 C 
ATOM     68  C   UNL A   1      49.308  29.466  27.091  1.00  0.00     0.029 A 
ATOM     69  C   UNL A   1      48.317  28.498  27.092  1.00  0.00     0.049 A 
ATOM     70  H   UNL A   1      46.297  28.665  27.682  1.00  0.00     0.167 HD
ATOM     71  C   UNL A   1      47.389  26.224  26.741  1.00  0.00     0.074 A 
ATOM     72  C   UNL A   1      47.493  24.835  26.343  1.00  0.00     0.031 C 
ATOM     73  C   UNL A   1      48.409  27.116  26.687  1.00  0.00     0.037 A 
BRANCH  60  74
ATOM     74  C   UNL A   1      46.850  32.817  28.524  1.00  0.00     0.057 A 
ATOM     75  C   UNL A   1      46.732  33.752  27.485  1.00  0.00     0.134 A 
ATOM     76  C   UNL A   1      47.368  33.272  29.742  1.00  0.00     0.134 A 
ATOM     77  F   UNL A   1      46.252  33.382  26.288  1.00  0.00    -0.206 F 
ATOM     78  C   UNL A   1      47.158  35.073  27.637  1.00  0.00     0.040 A 
ATOM     79  C   UNL A   1      47.767  34.598  29.917  1.00  0.00     0.040 A 
ATOM     80  F   UNL A   1      47.501  32.435  30.783  1.00  0.00    -0.206 F 
ATOM     81  C   UNL A   1      47.675  35.500  28.859  1.00  0.00     0.006 A 
ENDBRANCH  60  74
BRANCH  61  82
ATOM     82  C   UNL A   1      43.544  23.526  27.076  1.00  0.00     0.057 A 
ATOM     83  C   UNL A   1      43.300  22.623  28.115  1.00  0.00     0.134 A 
ATOM     84  C   UNL A   1      43.252  23.105  25.773  1.00  0.00     0.134 A 
ATOM     85  F   UNL A   1      43.577  22.963  29.383  1.00  0.00    -0.206 F 
ATOM     86  C   UNL A   1      42.789  21.347  27.871  1.00  0.00     0.040 A 
ATOM     87  C   UNL A   1      42.718  21.841  25.515  1.00  0.00     0.040 A 
ATOM     88  F   UNL A   1      43.455  23.927  24.732  1.00  0.00    -0.206 F 
ATOM     89  C   UNL A   1      42.489  20.957  26.567  1.00  0.00     0.006 A 
ENDBRANCH  61  82
BRANCH  73  90
ATOM     90  C   UNL A   1      49.737  26.615  26.196  1.00  0.00     0.057 A 
ATOM     91  C   UNL A   1      50.161  26.811  24.876  1.00  0.00     0.134 A 
ATOM     92  C   UNL A   1      50.620  25.963  27.067  1.00  0.00     0.134 A 
ATOM     93  F   UNL A   1      49.359  27.415  23.986  1.00  0.00    -0.206 F 
ATOM     94  C   UNL A   1      51.406  26.358  24.434  1.00  0.00     0.040 A 
ATOM     95  C   UNL A   1      51.878  25.531  26.645  1.00  0.00     0.040 A 
ATOM     96  F   UNL A   1      50.280  25.749  28.348  1.00  0.00    -0.206 F 
ATOM     97  C   UNL A   1      52.272  25.723  25.322  1.00  0.00     0.006 A 
ENDBRANCH  73  90
ENDBRANCH  47  48
ENDBRANCH  39  42
ENDBRANCH  37  38
ENDBRANCH  36  37
ENDBRANCH  35  36
ENDBRANCH  34  35
ENDBRANCH   1  34
TORSDOF 19
ENDMDL
