MODEL 1
REMARK VINA RESULT:     -11.2      0.000      0.000
REMARK SMILES CCc1cccc(NC(=O)N2CCO[C@@H](CC(=O)NCCCCCCNC(=O)c3ccc(-c4c5nc(c(-c6c(F)cccc6F)c6ccc([nH]6)c(-c6c(F)cccc6F)c6nc(c(-c7c(F)cccc7F)c7ccc4[nH]7)C=C6)C=C5)cc3)C2)c1
REMARK SMILES IDX 21 1 20 2 19 3 17 4 18 5 16 7 15 8 11 9 12 10 83 11 13 12
REMARK SMILES IDX 14 13 9 14 8 15 10 17 7 18 3 19 4 20 84 21 5 22 6 23 2 24
REMARK SMILES IDX 1 25 22 26 23 27 24 28 25 29 26 30 27 31 28 33 29 34 30 35
REMARK SMILES IDX 82 36 31 37 81 38 32 39 33 40 34 41 75 42 35 43 80 44 74 45
REMARK SMILES IDX 76 46 36 47 79 48 73 49 72 50 37 52 63 53 46 54 62 55 47 56
REMARK SMILES IDX 50 57 61 58 77 59 48 60 49 61 60 63 78 64 51 65 38 66 39 67
REMARK SMILES IDX 44 68 40 69 41 70 43 71 45 72 42 73 64 74 65 75 70 76 66 77
REMARK SMILES IDX 67 78 69 79 71 80 68 81 52 82 53 83 58 84 54 85 55 86 57 87
REMARK SMILES IDX 59 88 56 89
REMARK H PARENT 19 6 8 16 26 32 76 51 50 62
REMARK Flexibility Score: inf
ROOT
ATOM      1  C   UNL A   1      34.703  32.633  29.489  1.00  0.00     0.021 C 
ENDROOT
BRANCH   1   2
ATOM      2  C   UNL A   1      34.807  31.430  28.544  1.00  0.00     0.116 C 
BRANCH   2   3
ATOM      3  N   UNL A   1      33.556  31.233  27.825  1.00  0.00    -0.356 N 
ATOM      4  C   UNL A   1      33.216  30.320  26.871  1.00  0.00     0.222 C 
ATOM      5  O   UNL A   1      32.138  30.452  26.290  1.00  0.00    -0.275 OA
ATOM      6  H   UNL A   1      32.839  31.863  28.067  1.00  0.00     0.163 HD
BRANCH   4   7
ATOM      7  C   UNL A   1      34.151  29.181  26.524  1.00  0.00     0.133 C 
BRANCH   7   8
ATOM      8  C   UNL A   1      33.443  28.026  25.816  1.00  0.00     0.147 C 
ATOM      9  N   UNL A   1      33.205  26.831  23.668  1.00  0.00    -0.320 N 
ATOM     10  C   UNL A   1      33.508  25.563  24.329  1.00  0.00     0.150 C 
ATOM     11  C   UNL A   1      33.775  27.987  24.323  1.00  0.00     0.154 C 
ATOM     12  C   UNL A   1      33.234  25.649  25.837  1.00  0.00     0.182 C 
ATOM     13  O   UNL A   1      33.877  26.790  26.435  1.00  0.00    -0.374 OA
BRANCH   9  14
ATOM     14  C   UNL A   1      33.032  26.901  22.312  1.00  0.00     0.322 C 
ATOM     15  N   UNL A   1      31.789  27.143  21.814  1.00  0.00    -0.308 N 
ATOM     16  H   UNL A   1      31.699  26.949  20.853  1.00  0.00     0.171 HD
ATOM     17  O   UNL A   1      33.981  26.802  21.532  1.00  0.00    -0.248 OA
BRANCH  15  18
ATOM     18  C   UNL A   1      30.607  27.619  22.415  1.00  0.00     0.043 A 
ATOM     19  C   UNL A   1      29.211  29.561  22.927  1.00  0.00    -0.046 A 
ATOM     20  C   UNL A   1      28.260  28.704  23.498  1.00  0.00     0.004 A 
ATOM     21  C   UNL A   1      30.377  29.002  22.376  1.00  0.00     0.029 A 
ATOM     22  C   UNL A   1      28.500  27.340  23.587  1.00  0.00     0.002 A 
ATOM     23  C   UNL A   1      29.689  26.814  23.088  1.00  0.00     0.026 A 
BRANCH  19  24
ATOM     24  C   UNL A   1      28.969  31.048  23.028  1.00  0.00     0.032 C 
ATOM     25  C   UNL A   1      27.564  31.492  23.406  1.00  0.00     0.009 C 
ENDBRANCH  19  24
ENDBRANCH  15  18
ENDBRANCH   9  14
ENDBRANCH   7   8
ENDBRANCH   4   7
ENDBRANCH   2   3
ENDBRANCH   1   2
BRANCH   1  26
ATOM     26  C   UNL A   1      35.393  33.897  28.980  1.00  0.00     0.002 C 
BRANCH  26  27
ATOM     27  C   UNL A   1      34.510  34.807  28.123  1.00  0.00     0.002 C 
BRANCH  27  28
ATOM     28  C   UNL A   1      33.231  35.315  28.797  1.00  0.00     0.021 C 
BRANCH  28  29
ATOM     29  C   UNL A   1      33.429  36.448  29.802  1.00  0.00     0.116 C 
BRANCH  29  30
ATOM     30  N   UNL A   1      32.468  36.381  30.893  1.00  0.00    -0.352 N 
ATOM     31  C   UNL A   1      32.491  35.636  32.044  1.00  0.00     0.251 C 
ATOM     32  H   UNL A   1      31.679  36.961  30.788  1.00  0.00     0.163 HD
ATOM     33  O   UNL A   1      31.483  35.543  32.737  1.00  0.00    -0.269 OA
BRANCH  31  34
ATOM     34  C   UNL A   1      33.725  34.931  32.452  1.00  0.00     0.039 A 
ATOM     35  C   UNL A   1      33.630  33.613  32.908  1.00  0.00     0.014 A 
ATOM     36  C   UNL A   1      34.965  35.576  32.428  1.00  0.00     0.014 A 
ATOM     37  C   UNL A   1      34.785  32.925  33.288  1.00  0.00     0.010 A 
ATOM     38  C   UNL A   1      36.122  34.870  32.747  1.00  0.00     0.010 A 
ATOM     39  C   UNL A   1      36.044  33.539  33.184  1.00  0.00    -0.014 A 
BRANCH  39  40
ATOM     40  C   UNL A   1      37.288  32.805  33.530  1.00  0.00     0.031 A 
ATOM     41  C   UNL A   1      38.022  33.117  34.806  1.00  0.00     0.074 A 
ATOM     42  C   UNL A   1      37.792  31.903  32.664  1.00  0.00     0.049 A 
ATOM     43  N   UNL A   1      39.161  32.641  35.242  1.00  0.00    -0.248 NA
ATOM     44  C   UNL A   1      37.406  34.112  35.698  1.00  0.00     0.031 C 
ATOM     45  C   UNL A   1      37.199  31.543  31.375  1.00  0.00     0.029 A 
ATOM     46  N   UNL A   1      38.928  31.135  32.733  1.00  0.00    -0.354 N 
ATOM     47  C   UNL A   1      39.406  33.291  36.445  1.00  0.00     0.074 A 
ATOM     48  C   UNL A   1      38.319  34.222  36.653  1.00  0.00     0.031 C 
ATOM     49  C   UNL A   1      37.968  30.617  30.781  1.00  0.00     0.029 A 
ATOM     50  C   UNL A   1      39.124  30.342  31.628  1.00  0.00     0.049 A 
ATOM     51  H   UNL A   1      39.544  31.152  33.500  1.00  0.00     0.167 HD
ATOM     52  C   UNL A   1      40.437  33.114  37.306  1.00  0.00     0.037 A 
ATOM     53  C   UNL A   1      40.128  29.497  31.328  1.00  0.00     0.037 A 
ATOM     54  C   UNL A   1      41.498  32.160  37.117  1.00  0.00     0.049 A 
ATOM     55  C   UNL A   1      41.255  29.315  32.308  1.00  0.00     0.074 A 
ATOM     56  C   UNL A   1      42.545  31.856  37.969  1.00  0.00     0.029 A 
ATOM     57  N   UNL A   1      41.644  31.353  35.999  1.00  0.00    -0.354 N 
ATOM     58  N   UNL A   1      41.437  29.885  33.475  1.00  0.00    -0.248 NA
ATOM     59  C   UNL A   1      42.315  28.368  31.932  1.00  0.00     0.031 C 
ATOM     60  C   UNL A   1      43.349  30.894  37.350  1.00  0.00     0.029 A 
ATOM     61  C   UNL A   1      42.777  30.566  36.132  1.00  0.00     0.049 A 
ATOM     62  H   UNL A   1      41.035  31.340  35.226  1.00  0.00     0.167 HD
ATOM     63  C   UNL A   1      42.609  29.344  33.984  1.00  0.00     0.074 A 
ATOM     64  C   UNL A   1      43.092  28.391  33.005  1.00  0.00     0.031 C 
ATOM     65  C   UNL A   1      43.233  29.612  35.156  1.00  0.00     0.037 A 
BRANCH  52  66
ATOM     66  C   UNL A   1      40.468  33.962  38.543  1.00  0.00     0.057 A 
ATOM     67  C   UNL A   1      41.152  35.182  38.583  1.00  0.00     0.134 A 
ATOM     68  C   UNL A   1      39.748  33.585  39.684  1.00  0.00     0.134 A 
ATOM     69  F   UNL A   1      41.867  35.595  37.526  1.00  0.00    -0.206 F 
ATOM     70  C   UNL A   1      41.134  35.992  39.720  1.00  0.00     0.040 A 
ATOM     71  C   UNL A   1      39.703  34.397  40.818  1.00  0.00     0.040 A 
ATOM     72  F   UNL A   1      39.064  32.431  39.709  1.00  0.00    -0.206 F 
ATOM     73  C   UNL A   1      40.399  35.604  40.839  1.00  0.00     0.006 A 
ENDBRANCH  52  66
BRANCH  53  74
ATOM     74  C   UNL A   1      40.117  28.742  30.050  1.00  0.00     0.057 A 
ATOM     75  C   UNL A   1      40.794  29.220  28.923  1.00  0.00     0.134 A 
ATOM     76  C   UNL A   1      39.403  27.545  29.914  1.00  0.00     0.134 A 
ATOM     77  F   UNL A   1      41.480  30.372  28.987  1.00  0.00    -0.206 F 
ATOM     78  C   UNL A   1      40.741  28.552  27.699  1.00  0.00     0.040 A 
ATOM     79  C   UNL A   1      39.361  26.854  28.702  1.00  0.00     0.040 A 
ATOM     80  F   UNL A   1      38.736  27.031  30.957  1.00  0.00    -0.206 F 
ATOM     81  C   UNL A   1      40.025  27.363  27.587  1.00  0.00     0.006 A 
ENDBRANCH  53  74
BRANCH  65  82
ATOM     82  C   UNL A   1      44.479  28.835  35.464  1.00  0.00     0.057 A 
ATOM     83  C   UNL A   1      44.439  27.619  36.158  1.00  0.00     0.134 A 
ATOM     84  C   UNL A   1      45.728  29.292  35.028  1.00  0.00     0.134 A 
ATOM     85  F   UNL A   1      43.274  27.135  36.614  1.00  0.00    -0.206 F 
ATOM     86  C   UNL A   1      45.601  26.895  36.425  1.00  0.00     0.040 A 
ATOM     87  C   UNL A   1      46.895  28.564  35.266  1.00  0.00     0.040 A 
ATOM     88  F   UNL A   1      45.834  30.445  34.351  1.00  0.00    -0.206 F 
ATOM     89  C   UNL A   1      46.833  27.364  35.973  1.00  0.00     0.006 A 
ENDBRANCH  65  82
ENDBRANCH  39  40
ENDBRANCH  31  34
ENDBRANCH  29  30
ENDBRANCH  28  29
ENDBRANCH  27  28
ENDBRANCH  26  27
ENDBRANCH   1  26
TORSDOF 17
ENDMDL
MODEL 2
REMARK VINA RESULT:     -11.0      4.637      7.193
REMARK SMILES CCc1cccc(NC(=O)N2CCO[C@@H](CC(=O)NCCCCCCNC(=O)c3ccc(-c4c5nc(c(-c6c(F)cccc6F)c6ccc([nH]6)c(-c6c(F)cccc6F)c6nc(c(-c7c(F)cccc7F)c7ccc4[nH]7)C=C6)C=C5)cc3)C2)c1
REMARK SMILES IDX 21 1 20 2 19 3 17 4 18 5 16 7 15 8 11 9 12 10 83 11 13 12
REMARK SMILES IDX 14 13 9 14 8 15 10 17 7 18 3 19 4 20 84 21 5 22 6 23 2 24
REMARK SMILES IDX 1 25 22 26 23 27 24 28 25 29 26 30 27 31 28 33 29 34 30 35
REMARK SMILES IDX 82 36 31 37 81 38 32 39 33 40 34 41 75 42 35 43 80 44 74 45
REMARK SMILES IDX 76 46 36 47 79 48 73 49 72 50 37 52 63 53 46 54 62 55 47 56
REMARK SMILES IDX 50 57 61 58 77 59 48 60 49 61 60 63 78 64 51 65 38 66 39 67
REMARK SMILES IDX 44 68 40 69 41 70 43 71 45 72 42 73 64 74 65 75 70 76 66 77
REMARK SMILES IDX 67 78 69 79 71 80 68 81 52 82 53 83 58 84 54 85 55 86 57 87
REMARK SMILES IDX 59 88 56 89
REMARK H PARENT 19 6 8 16 26 32 76 51 50 62
REMARK Flexibility Score: inf
ROOT
ATOM      1  C   UNL A   1      35.911  31.818  27.971  1.00  0.00     0.021 C 
ENDROOT
BRANCH   1   2
ATOM      2  C   UNL A   1      35.002  30.629  27.639  1.00  0.00     0.116 C 
BRANCH   2   3
ATOM      3  N   UNL A   1      33.657  31.087  27.317  1.00  0.00    -0.356 N 
ATOM      4  C   UNL A   1      32.502  30.385  27.132  1.00  0.00     0.222 C 
ATOM      5  O   UNL A   1      31.514  30.984  26.706  1.00  0.00    -0.275 OA
ATOM      6  H   UNL A   1      33.567  32.063  27.216  1.00  0.00     0.163 HD
BRANCH   4   7
ATOM      7  C   UNL A   1      32.445  28.901  27.425  1.00  0.00     0.133 C 
BRANCH   7   8
ATOM      8  C   UNL A   1      31.638  28.121  26.388  1.00  0.00     0.147 C 
ATOM      9  N   UNL A   1      31.657  27.228  24.085  1.00  0.00    -0.320 N 
ATOM     10  C   UNL A   1      31.328  25.896  24.589  1.00  0.00     0.150 C 
ATOM     11  C   UNL A   1      32.356  28.061  25.038  1.00  0.00     0.154 C 
ATOM     12  C   UNL A   1      30.672  25.978  25.975  1.00  0.00     0.182 C 
ATOM     13  O   UNL A   1      31.448  26.776  26.889  1.00  0.00    -0.374 OA
BRANCH   9  14
ATOM     14  C   UNL A   1      31.917  27.441  22.758  1.00  0.00     0.322 C 
ATOM     15  N   UNL A   1      30.960  28.014  21.979  1.00  0.00    -0.308 N 
ATOM     16  H   UNL A   1      31.123  27.922  21.013  1.00  0.00     0.171 HD
ATOM     17  O   UNL A   1      33.013  27.175  22.262  1.00  0.00    -0.248 OA
BRANCH  15  18
ATOM     18  C   UNL A   1      29.778  28.714  22.295  1.00  0.00     0.043 A 
ATOM     19  C   UNL A   1      28.570  30.839  22.191  1.00  0.00    -0.046 A 
ATOM     20  C   UNL A   1      27.464  30.218  22.788  1.00  0.00     0.004 A 
ATOM     21  C   UNL A   1      29.719  30.069  21.939  1.00  0.00     0.029 A 
ATOM     22  C   UNL A   1      27.529  28.891  23.190  1.00  0.00     0.002 A 
ATOM     23  C   UNL A   1      28.699  28.163  22.984  1.00  0.00     0.026 A 
BRANCH  19  24
ATOM     24  C   UNL A   1      28.495  32.327  21.948  1.00  0.00     0.032 C 
ATOM     25  C   UNL A   1      28.996  33.232  23.061  1.00  0.00     0.009 C 
ENDBRANCH  19  24
ENDBRANCH  15  18
ENDBRANCH   9  14
ENDBRANCH   7   8
ENDBRANCH   4   7
ENDBRANCH   2   3
ENDBRANCH   1   2
BRANCH   1  26
ATOM     26  C   UNL A   1      35.189  33.162  28.048  1.00  0.00     0.002 C 
BRANCH  26  27
ATOM     27  C   UNL A   1      35.440  33.950  29.336  1.00  0.00     0.002 C 
BRANCH  27  28
ATOM     28  C   UNL A   1      34.513  33.614  30.510  1.00  0.00     0.021 C 
BRANCH  28  29
ATOM     29  C   UNL A   1      34.857  32.332  31.267  1.00  0.00     0.116 C 
BRANCH  29  30
ATOM     30  N   UNL A   1      35.326  32.607  32.617  1.00  0.00    -0.352 N 
ATOM     31  C   UNL A   1      36.497  32.249  33.234  1.00  0.00     0.251 C 
ATOM     32  H   UNL A   1      34.705  33.131  33.174  1.00  0.00     0.163 HD
ATOM     33  O   UNL A   1      36.618  32.378  34.448  1.00  0.00    -0.269 OA
BRANCH  31  34
ATOM     34  C   UNL A   1      37.618  31.696  32.444  1.00  0.00     0.039 A 
ATOM     35  C   UNL A   1      37.764  32.092  31.111  1.00  0.00     0.014 A 
ATOM     36  C   UNL A   1      38.495  30.757  32.996  1.00  0.00     0.014 A 
ATOM     37  C   UNL A   1      38.822  31.590  30.350  1.00  0.00     0.010 A 
ATOM     38  C   UNL A   1      39.584  30.305  32.255  1.00  0.00     0.010 A 
ATOM     39  C   UNL A   1      39.757  30.714  30.924  1.00  0.00    -0.014 A 
BRANCH  39  40
ATOM     40  C   UNL A   1      40.919  30.213  30.146  1.00  0.00     0.031 A 
ATOM     41  C   UNL A   1      42.066  31.132  29.822  1.00  0.00     0.074 A 
ATOM     42  C   UNL A   1      40.913  28.949  29.677  1.00  0.00     0.049 A 
ATOM     43  N   UNL A   1      43.128  30.902  29.091  1.00  0.00    -0.248 NA
ATOM     44  C   UNL A   1      41.999  32.495  30.372  1.00  0.00     0.031 C 
ATOM     45  C   UNL A   1      39.841  27.974  29.885  1.00  0.00     0.029 A 
ATOM     46  N   UNL A   1      41.833  28.274  28.914  1.00  0.00    -0.354 N 
ATOM     47  C   UNL A   1      43.842  32.093  29.078  1.00  0.00     0.074 A 
ATOM     48  C   UNL A   1      43.077  33.055  29.841  1.00  0.00     0.031 C 
ATOM     49  C   UNL A   1      40.170  26.824  29.277  1.00  0.00     0.029 A 
ATOM     50  C   UNL A   1      41.456  26.989  28.608  1.00  0.00     0.049 A 
ATOM     51  H   UNL A   1      42.681  28.673  28.614  1.00  0.00     0.167 HD
ATOM     52  C   UNL A   1      45.037  32.356  28.497  1.00  0.00     0.037 A 
ATOM     53  C   UNL A   1      42.074  26.052  27.863  1.00  0.00     0.037 A 
ATOM     54  C   UNL A   1      45.816  31.388  27.771  1.00  0.00     0.049 A 
ATOM     55  C   UNL A   1      43.404  26.370  27.237  1.00  0.00     0.074 A 
ATOM     56  C   UNL A   1      47.073  31.539  27.209  1.00  0.00     0.029 A 
ATOM     57  N   UNL A   1      45.415  30.087  27.509  1.00  0.00    -0.354 N 
ATOM     58  N   UNL A   1      44.101  27.480  27.293  1.00  0.00    -0.248 NA
ATOM     59  C   UNL A   1      44.037  25.304  26.448  1.00  0.00     0.031 C 
ATOM     60  C   UNL A   1      47.414  30.342  26.572  1.00  0.00     0.029 A 
ATOM     61  C   UNL A   1      46.391  29.432  26.775  1.00  0.00     0.049 A 
ATOM     62  H   UNL A   1      44.563  29.688  27.799  1.00  0.00     0.167 HD
ATOM     63  C   UNL A   1      45.264  27.234  26.576  1.00  0.00     0.074 A 
ATOM     64  C   UNL A   1      45.186  25.867  26.104  1.00  0.00     0.031 C 
ATOM     65  C   UNL A   1      46.305  28.066  26.328  1.00  0.00     0.037 A 
BRANCH  52  66
ATOM     66  C   UNL A   1      45.588  33.745  28.628  1.00  0.00     0.057 A 
ATOM     67  C   UNL A   1      46.438  34.104  29.680  1.00  0.00     0.134 A 
ATOM     68  C   UNL A   1      45.319  34.713  27.652  1.00  0.00     0.134 A 
ATOM     69  F   UNL A   1      46.726  33.225  30.651  1.00  0.00    -0.206 F 
ATOM     70  C   UNL A   1      46.989  35.384  29.768  1.00  0.00     0.040 A 
ATOM     71  C   UNL A   1      45.883  35.988  27.716  1.00  0.00     0.040 A 
ATOM     72  F   UNL A   1      44.519  34.431  26.613  1.00  0.00    -0.206 F 
ATOM     73  C   UNL A   1      46.719  36.328  28.778  1.00  0.00     0.006 A 
ENDBRANCH  52  66
BRANCH  53  74
ATOM     74  C   UNL A   1      41.456  24.716  27.674  1.00  0.00     0.057 A 
ATOM     75  C   UNL A   1      40.424  24.523  26.749  1.00  0.00     0.134 A 
ATOM     76  C   UNL A   1      41.857  23.611  28.433  1.00  0.00     0.134 A 
ATOM     77  F   UNL A   1      39.983  25.550  26.007  1.00  0.00    -0.206 F 
ATOM     78  C   UNL A   1      39.792  23.287  26.604  1.00  0.00     0.040 A 
ATOM     79  C   UNL A   1      41.252  22.362  28.281  1.00  0.00     0.040 A 
ATOM     80  F   UNL A   1      42.844  23.728  29.333  1.00  0.00    -0.206 F 
ATOM     81  C   UNL A   1      40.208  22.201  27.371  1.00  0.00     0.006 A 
ENDBRANCH  53  74
BRANCH  65  82
ATOM     82  C   UNL A   1      47.459  27.509  25.550  1.00  0.00     0.057 A 
ATOM     83  C   UNL A   1      47.524  27.605  24.155  1.00  0.00     0.134 A 
ATOM     84  C   UNL A   1      48.536  26.905  26.210  1.00  0.00     0.134 A 
ATOM     85  F   UNL A   1      46.518  28.161  23.464  1.00  0.00    -0.206 F 
ATOM     86  C   UNL A   1      48.611  27.099  23.441  1.00  0.00     0.040 A 
ATOM     87  C   UNL A   1      49.640  26.418  25.509  1.00  0.00     0.040 A 
ATOM     88  F   UNL A   1      48.539  26.791  27.546  1.00  0.00    -0.206 F 
ATOM     89  C   UNL A   1      49.677  26.510  24.119  1.00  0.00     0.006 A 
ENDBRANCH  65  82
ENDBRANCH  39  40
ENDBRANCH  31  34
ENDBRANCH  29  30
ENDBRANCH  28  29
ENDBRANCH  27  28
ENDBRANCH  26  27
ENDBRANCH   1  26
TORSDOF 17
ENDMDL
MODEL 3
REMARK VINA RESULT:     -11.0      5.357     10.140
REMARK SMILES CCc1cccc(NC(=O)N2CCO[C@@H](CC(=O)NCCCCCCNC(=O)c3ccc(-c4c5nc(c(-c6c(F)cccc6F)c6ccc([nH]6)c(-c6c(F)cccc6F)c6nc(c(-c7c(F)cccc7F)c7ccc4[nH]7)C=C6)C=C5)cc3)C2)c1
REMARK SMILES IDX 21 1 20 2 19 3 17 4 18 5 16 7 15 8 11 9 12 10 83 11 13 12
REMARK SMILES IDX 14 13 9 14 8 15 10 17 7 18 3 19 4 20 84 21 5 22 6 23 2 24
REMARK SMILES IDX 1 25 22 26 23 27 24 28 25 29 26 30 27 31 28 33 29 34 30 35
REMARK SMILES IDX 82 36 31 37 81 38 32 39 33 40 34 41 75 42 35 43 80 44 74 45
REMARK SMILES IDX 76 46 36 47 79 48 73 49 72 50 37 52 63 53 46 54 62 55 47 56
REMARK SMILES IDX 50 57 61 58 77 59 48 60 49 61 60 63 78 64 51 65 38 66 39 67
REMARK SMILES IDX 44 68 40 69 41 70 43 71 45 72 42 73 64 74 65 75 70 76 66 77
REMARK SMILES IDX 67 78 69 79 71 80 68 81 52 82 53 83 58 84 54 85 55 86 57 87
REMARK SMILES IDX 59 88 56 89
REMARK H PARENT 19 6 8 16 26 32 76 51 50 62
REMARK Flexibility Score: inf
ROOT
ATOM      1  C   UNL A   1      35.141  21.824  26.008  1.00  0.00     0.021 C 
ENDROOT
BRANCH   1   2
ATOM      2  C   UNL A   1      33.918  21.000  26.428  1.00  0.00     0.116 C 
BRANCH   2   3
ATOM      3  N   UNL A   1      32.981  21.821  27.182  1.00  0.00    -0.356 N 
ATOM      4  C   UNL A   1      32.031  22.701  26.755  1.00  0.00     0.222 C 
ATOM      5  O   UNL A   1      31.464  23.404  27.593  1.00  0.00    -0.275 OA
ATOM      6  H   UNL A   1      33.045  21.725  28.160  1.00  0.00     0.163 HD
BRANCH   4   7
ATOM      7  C   UNL A   1      31.697  22.823  25.284  1.00  0.00     0.133 C 
BRANCH   7   8
ATOM      8  C   UNL A   1      31.492  24.271  24.839  1.00  0.00     0.147 C 
ATOM      9  N   UNL A   1      32.350  26.061  23.370  1.00  0.00    -0.320 N 
ATOM     10  C   UNL A   1      31.020  26.234  22.788  1.00  0.00     0.150 C 
ATOM     11  C   UNL A   1      32.598  24.734  23.888  1.00  0.00     0.154 C 
ATOM     12  C   UNL A   1      29.934  25.698  23.731  1.00  0.00     0.182 C 
ATOM     13  O   UNL A   1      30.214  24.354  24.163  1.00  0.00    -0.374 OA
BRANCH   9  14
ATOM     14  C   UNL A   1      33.428  26.759  22.897  1.00  0.00     0.322 C 
ATOM     15  N   UNL A   1      33.789  27.918  23.513  1.00  0.00    -0.308 N 
ATOM     16  H   UNL A   1      34.410  28.473  22.988  1.00  0.00     0.171 HD
ATOM     17  O   UNL A   1      34.112  26.341  21.960  1.00  0.00    -0.248 OA
BRANCH  15  18
ATOM     18  C   UNL A   1      33.442  28.472  24.761  1.00  0.00     0.043 A 
ATOM     19  C   UNL A   1      32.065  30.096  25.966  1.00  0.00    -0.046 A 
ATOM     20  C   UNL A   1      32.592  29.620  27.174  1.00  0.00     0.004 A 
ATOM     21  C   UNL A   1      32.490  29.502  24.765  1.00  0.00     0.029 A 
ATOM     22  C   UNL A   1      33.571  28.635  27.179  1.00  0.00     0.002 A 
ATOM     23  C   UNL A   1      34.022  28.103  25.973  1.00  0.00     0.026 A 
BRANCH  19  24
ATOM     24  C   UNL A   1      31.142  31.290  26.023  1.00  0.00     0.032 C 
ATOM     25  C   UNL A   1      31.645  32.511  26.777  1.00  0.00     0.009 C 
ENDBRANCH  19  24
ENDBRANCH  15  18
ENDBRANCH   9  14
ENDBRANCH   7   8
ENDBRANCH   4   7
ENDBRANCH   2   3
ENDBRANCH   1   2
BRANCH   1  26
ATOM     26  C   UNL A   1      35.718  21.445  24.645  1.00  0.00     0.002 C 
BRANCH  26  27
ATOM     27  C   UNL A   1      37.243  21.526  24.551  1.00  0.00     0.002 C 
BRANCH  27  28
ATOM     28  C   UNL A   1      37.991  20.206  24.763  1.00  0.00     0.021 C 
BRANCH  28  29
ATOM     29  C   UNL A   1      38.809  20.118  26.051  1.00  0.00     0.116 C 
BRANCH  29  30
ATOM     30  N   UNL A   1      39.955  19.234  25.909  1.00  0.00    -0.352 N 
ATOM     31  C   UNL A   1      41.297  19.510  25.979  1.00  0.00     0.251 C 
ATOM     32  H   UNL A   1      39.733  18.291  25.735  1.00  0.00     0.163 HD
ATOM     33  O   UNL A   1      42.117  18.677  25.609  1.00  0.00    -0.269 OA
BRANCH  31  34
ATOM     34  C   UNL A   1      41.763  20.817  26.491  1.00  0.00     0.039 A 
ATOM     35  C   UNL A   1      42.084  21.824  25.577  1.00  0.00     0.014 A 
ATOM     36  C   UNL A   1      41.927  21.037  27.862  1.00  0.00     0.014 A 
ATOM     37  C   UNL A   1      42.516  23.070  26.040  1.00  0.00     0.010 A 
ATOM     38  C   UNL A   1      42.298  22.297  28.324  1.00  0.00     0.010 A 
ATOM     39  C   UNL A   1      42.600  23.325  27.418  1.00  0.00    -0.014 A 
BRANCH  39  40
ATOM     40  C   UNL A   1      43.004  24.660  27.929  1.00  0.00     0.031 A 
ATOM     41  C   UNL A   1      41.960  25.694  28.255  1.00  0.00     0.074 A 
ATOM     42  C   UNL A   1      44.312  24.964  28.038  1.00  0.00     0.049 A 
ATOM     43  N   UNL A   1      42.118  26.936  28.637  1.00  0.00    -0.248 NA
ATOM     44  C   UNL A   1      40.554  25.284  28.111  1.00  0.00     0.031 C 
ATOM     45  C   UNL A   1      45.421  24.065  27.712  1.00  0.00     0.029 A 
ATOM     46  N   UNL A   1      44.931  26.122  28.440  1.00  0.00    -0.354 N 
ATOM     47  C   UNL A   1      40.837  27.460  28.758  1.00  0.00     0.074 A 
ATOM     48  C   UNL A   1      39.913  26.414  28.375  1.00  0.00     0.031 C 
ATOM     49  C   UNL A   1      46.582  24.699  27.939  1.00  0.00     0.029 A 
ATOM     50  C   UNL A   1      46.303  26.058  28.393  1.00  0.00     0.049 A 
ATOM     51  H   UNL A   1      44.439  26.921  28.735  1.00  0.00     0.167 HD
ATOM     52  C   UNL A   1      40.465  28.695  29.170  1.00  0.00     0.037 A 
ATOM     53  C   UNL A   1      47.230  26.993  28.674  1.00  0.00     0.037 A 
ATOM     54  C   UNL A   1      41.383  29.722  29.588  1.00  0.00     0.049 A 
ATOM     55  C   UNL A   1      46.786  28.353  29.137  1.00  0.00     0.074 A 
ATOM     56  C   UNL A   1      41.097  30.980  30.091  1.00  0.00     0.029 A 
ATOM     57  N   UNL A   1      42.764  29.608  29.555  1.00  0.00    -0.354 N 
ATOM     58  N   UNL A   1      45.571  28.811  29.315  1.00  0.00    -0.248 NA
ATOM     59  C   UNL A   1      47.844  29.328  29.442  1.00  0.00     0.031 C 
ATOM     60  C   UNL A   1      42.307  31.642  30.325  1.00  0.00     0.029 A 
ATOM     61  C   UNL A   1      43.344  30.781  30.009  1.00  0.00     0.049 A 
ATOM     62  H   UNL A   1      43.259  28.813  29.253  1.00  0.00     0.167 HD
ATOM     63  C   UNL A   1      45.718  30.110  29.783  1.00  0.00     0.074 A 
ATOM     64  C   UNL A   1      47.141  30.365  29.872  1.00  0.00     0.031 C 
ATOM     65  C   UNL A   1      44.761  31.013  30.108  1.00  0.00     0.037 A 
BRANCH  52  66
ATOM     66  C   UNL A   1      38.998  29.010  29.201  1.00  0.00     0.057 A 
ATOM     67  C   UNL A   1      38.238  28.865  30.367  1.00  0.00     0.134 A 
ATOM     68  C   UNL A   1      38.356  29.526  28.068  1.00  0.00     0.134 A 
ATOM     69  F   UNL A   1      38.792  28.367  31.482  1.00  0.00    -0.206 F 
ATOM     70  C   UNL A   1      36.885  29.209  30.404  1.00  0.00     0.040 A 
ATOM     71  C   UNL A   1      37.010  29.895  28.099  1.00  0.00     0.040 A 
ATOM     72  F   UNL A   1      39.029  29.697  26.920  1.00  0.00    -0.206 F 
ATOM     73  C   UNL A   1      36.270  29.735  29.269  1.00  0.00     0.006 A 
ENDBRANCH  52  66
BRANCH  53  74
ATOM     74  C   UNL A   1      48.675  26.680  28.542  1.00  0.00     0.057 A 
ATOM     75  C   UNL A   1      49.359  26.922  27.346  1.00  0.00     0.134 A 
ATOM     76  C   UNL A   1      49.397  26.102  29.592  1.00  0.00     0.134 A 
ATOM     77  F   UNL A   1      48.715  27.455  26.296  1.00  0.00    -0.206 F 
ATOM     78  C   UNL A   1      50.702  26.576  27.187  1.00  0.00     0.040 A 
ATOM     79  C   UNL A   1      50.747  25.774  29.457  1.00  0.00     0.040 A 
ATOM     80  F   UNL A   1      48.801  25.849  30.767  1.00  0.00    -0.206 F 
ATOM     81  C   UNL A   1      51.401  26.002  28.247  1.00  0.00     0.006 A 
ENDBRANCH  53  74
BRANCH  65  82
ATOM     82  C   UNL A   1      45.220  32.341  30.631  1.00  0.00     0.057 A 
ATOM     83  C   UNL A   1      45.409  33.442  29.787  1.00  0.00     0.134 A 
ATOM     84  C   UNL A   1      45.438  32.529  32.001  1.00  0.00     0.134 A 
ATOM     85  F   UNL A   1      45.228  33.323  28.463  1.00  0.00    -0.206 F 
ATOM     86  C   UNL A   1      45.819  34.679  30.285  1.00  0.00     0.040 A 
ATOM     87  C   UNL A   1      45.824  33.768  32.515  1.00  0.00     0.040 A 
ATOM     88  F   UNL A   1      45.267  31.516  32.864  1.00  0.00    -0.206 F 
ATOM     89  C   UNL A   1      46.021  34.846  31.654  1.00  0.00     0.006 A 
ENDBRANCH  65  82
ENDBRANCH  39  40
ENDBRANCH  31  34
ENDBRANCH  29  30
ENDBRANCH  28  29
ENDBRANCH  27  28
ENDBRANCH  26  27
ENDBRANCH   1  26
TORSDOF 17
ENDMDL
