MODEL 1
REMARK VINA RESULT:     -12.2      0.000      0.000
REMARK SMILES C[C@@H]1CN(S(=O)(=O)c2ccc(Cl)c(C(=O)NCCCCCCNC(=O)c3ccc(-c4c5nc(c(-c6c(F)cccc6F)c6ccc([nH]6)c(-c6c(F)cccc6F)c6nc(c(-c7c(F)cccc7F)c7ccc4[nH]7)C=C6)C=C5)cc3)c2Cl)C[C@H]1C
REMARK SMILES IDX 19 1 18 2 17 3 16 4 14 5 15 6 13 8 8 9 9 10 80 11 10 12
REMARK SMILES IDX 81 13 11 14 12 15 5 16 6 17 7 18 4 19 1 20 2 21 3 22 83 23
REMARK SMILES IDX 82 24 84 25 20 26 21 27 22 28 23 29 24 30 25 32 26 33 27 34
REMARK SMILES IDX 79 35 28 36 78 37 29 38 30 39 31 40 72 41 32 42 77 43 71 44
REMARK SMILES IDX 73 45 33 46 76 47 70 48 69 49 34 51 60 52 43 53 59 54 44 55
REMARK SMILES IDX 47 56 58 57 74 58 45 59 46 60 57 62 75 63 48 64 35 65 36 66
REMARK SMILES IDX 41 67 37 68 38 69 40 70 42 71 39 72 61 73 62 74 67 75 63 76
REMARK SMILES IDX 64 77 66 78 68 79 65 80 49 81 50 82 55 83 51 84 52 85 54 86
REMARK SMILES IDX 56 87 53 88
REMARK H PARENT 16 7 23 31 73 50 47 61
REMARK Flexibility Score: inf
ROOT
ATOM      1  C   UNL A   1      32.048  29.618  27.054  1.00  0.00     0.002 C 
ENDROOT
BRANCH   1   2
ATOM      2  C   UNL A   1      33.553  29.448  27.271  1.00  0.00     0.021 C 
BRANCH   2   3
ATOM      3  C   UNL A   1      34.212  28.316  26.465  1.00  0.00     0.116 C 
BRANCH   3   4
ATOM      4  N   UNL A   1      34.162  28.649  25.054  1.00  0.00    -0.352 N 
ATOM      5  C   UNL A   1      33.521  28.061  23.993  1.00  0.00     0.254 C 
ATOM      6  O   UNL A   1      34.020  28.229  22.879  1.00  0.00    -0.269 OA
ATOM      7  H   UNL A   1      34.686  29.446  24.813  1.00  0.00     0.163 HD
BRANCH   5   8
ATOM      8  C   UNL A   1      32.241  27.304  24.070  1.00  0.00     0.078 A 
ATOM      9  C   UNL A   1      31.055  25.465  25.184  1.00  0.00     0.102 A 
ATOM     10  C   UNL A   1      29.838  26.013  24.761  1.00  0.00     0.025 A 
ATOM     11  C   UNL A   1      32.262  26.064  24.783  1.00  0.00     0.075 A 
ATOM     12  C   UNL A   1      29.812  27.154  23.978  1.00  0.00     0.023 A 
ATOM     13  Cl  UNL A   1      33.777  25.249  25.045  1.00  0.00    -0.082 Cl
ATOM     14  C   UNL A   1      30.995  27.846  23.710  1.00  0.00     0.055 A 
ATOM     15  Cl  UNL A   1      30.715  29.427  23.095  1.00  0.00    -0.083 Cl
BRANCH   9  16
ATOM     16  S   UNL A   1      30.923  24.211  26.451  1.00  0.00     0.244 S 
ATOM     17  O   UNL A   1      29.538  24.199  26.881  1.00  0.00    -0.207 OA
ATOM     18  O   UNL A   1      31.968  24.381  27.435  1.00  0.00    -0.207 OA
BRANCH  16  19
ATOM     19  N   UNL A   1      31.189  22.733  25.642  1.00  0.00    -0.197 NA
ATOM     20  C   UNL A   1      34.253  20.784  24.730  1.00  0.00     0.009 C 
ATOM     21  C   UNL A   1      33.276  21.949  24.735  1.00  0.00     0.005 C 
ATOM     22  C   UNL A   1      32.416  21.968  25.994  1.00  0.00     0.106 C 
ATOM     23  C   UNL A   1      32.227  21.901  23.630  1.00  0.00     0.005 C 
ATOM     24  C   UNL A   1      31.170  22.881  24.148  1.00  0.00     0.106 C 
ATOM     25  C   UNL A   1      32.776  22.291  22.266  1.00  0.00     0.009 C 
ENDBRANCH  16  19
ENDBRANCH   9  16
ENDBRANCH   5   8
ENDBRANCH   3   4
ENDBRANCH   2   3
ENDBRANCH   1   2
BRANCH   1  26
ATOM     26  C   UNL A   1      31.658  30.766  26.123  1.00  0.00     0.002 C 
BRANCH  26  27
ATOM     27  C   UNL A   1      31.398  32.105  26.819  1.00  0.00     0.021 C 
BRANCH  27  28
ATOM     28  C   UNL A   1      32.654  32.816  27.314  1.00  0.00     0.116 C 
BRANCH  28  29
ATOM     29  N   UNL A   1      32.402  34.223  27.588  1.00  0.00    -0.352 N 
ATOM     30  C   UNL A   1      32.957  35.024  28.556  1.00  0.00     0.251 C 
ATOM     31  H   UNL A   1      31.744  34.660  27.000  1.00  0.00     0.163 HD
ATOM     32  O   UNL A   1      32.472  36.118  28.822  1.00  0.00    -0.269 OA
BRANCH  30  33
ATOM     33  C   UNL A   1      34.151  34.548  29.282  1.00  0.00     0.039 A 
ATOM     34  C   UNL A   1      34.002  33.954  30.537  1.00  0.00     0.014 A 
ATOM     35  C   UNL A   1      35.416  34.684  28.706  1.00  0.00     0.014 A 
ATOM     36  C   UNL A   1      35.123  33.437  31.191  1.00  0.00     0.010 A 
ATOM     37  C   UNL A   1      36.519  34.112  29.327  1.00  0.00     0.010 A 
ATOM     38  C   UNL A   1      36.384  33.484  30.576  1.00  0.00    -0.014 A 
BRANCH  38  39
ATOM     39  C   UNL A   1      37.593  32.905  31.210  1.00  0.00     0.031 A 
ATOM     40  C   UNL A   1      38.253  31.709  30.586  1.00  0.00     0.074 A 
ATOM     41  C   UNL A   1      38.027  33.381  32.393  1.00  0.00     0.049 A 
ATOM     42  N   UNL A   1      39.195  30.939  31.063  1.00  0.00    -0.248 NA
ATOM     43  C   UNL A   1      37.760  31.306  29.257  1.00  0.00     0.031 C 
ATOM     44  C   UNL A   1      37.454  34.522  33.111  1.00  0.00     0.029 A 
ATOM     45  N   UNL A   1      39.035  32.943  33.215  1.00  0.00    -0.354 N 
ATOM     46  C   UNL A   1      39.389  29.947  30.109  1.00  0.00     0.074 A 
ATOM     47  C   UNL A   1      38.437  30.188  29.047  1.00  0.00     0.031 C 
ATOM     48  C   UNL A   1      38.123  34.696  34.262  1.00  0.00     0.029 A 
ATOM     49  C   UNL A   1      39.136  33.652  34.388  1.00  0.00     0.049 A 
ATOM     50  H   UNL A   1      39.630  32.194  32.986  1.00  0.00     0.167 HD
ATOM     51  C   UNL A   1      40.289  28.936  30.114  1.00  0.00     0.037 A 
ATOM     52  C   UNL A   1      39.938  33.466  35.454  1.00  0.00     0.037 A 
ATOM     53  C   UNL A   1      41.252  28.721  31.160  1.00  0.00     0.049 A 
ATOM     54  C   UNL A   1      40.918  32.323  35.444  1.00  0.00     0.074 A 
ATOM     55  C   UNL A   1      42.242  27.759  31.235  1.00  0.00     0.029 A 
ATOM     56  N   UNL A   1      41.342  29.483  32.317  1.00  0.00    -0.354 N 
ATOM     57  N   UNL A   1      41.122  31.420  34.517  1.00  0.00    -0.248 NA
ATOM     58  C   UNL A   1      41.779  32.175  36.626  1.00  0.00     0.031 C 
ATOM     59  C   UNL A   1      42.905  27.911  32.456  1.00  0.00     0.029 A 
ATOM     60  C   UNL A   1      42.361  29.000  33.119  1.00  0.00     0.049 A 
ATOM     61  H   UNL A   1      40.768  30.251  32.533  1.00  0.00     0.167 HD
ATOM     62  C   UNL A   1      42.158  30.621  34.985  1.00  0.00     0.074 A 
ATOM     63  C   UNL A   1      42.539  31.146  36.279  1.00  0.00     0.031 C 
ATOM     64  C   UNL A   1      42.744  29.553  34.392  1.00  0.00     0.037 A 
BRANCH  51  65
ATOM     65  C   UNL A   1      40.274  27.986  28.952  1.00  0.00     0.057 A 
ATOM     66  C   UNL A   1      41.019  28.227  27.789  1.00  0.00     0.134 A 
ATOM     67  C   UNL A   1      39.529  26.802  29.008  1.00  0.00     0.134 A 
ATOM     68  F   UNL A   1      41.744  29.349  27.667  1.00  0.00    -0.206 F 
ATOM     69  C   UNL A   1      41.003  27.337  26.715  1.00  0.00     0.040 A 
ATOM     70  C   UNL A   1      39.528  25.890  27.951  1.00  0.00     0.040 A 
ATOM     71  F   UNL A   1      38.798  26.506  30.093  1.00  0.00    -0.206 F 
ATOM     72  C   UNL A   1      40.262  26.160  26.798  1.00  0.00     0.006 A 
ENDBRANCH  51  65
BRANCH  52  73
ATOM     73  C   UNL A   1      39.856  34.386  36.617  1.00  0.00     0.057 A 
ATOM     74  C   UNL A   1      40.563  35.594  36.629  1.00  0.00     0.134 A 
ATOM     75  C   UNL A   1      39.079  34.082  37.742  1.00  0.00     0.134 A 
ATOM     76  F   UNL A   1      41.338  35.932  35.588  1.00  0.00    -0.206 F 
ATOM     77  C   UNL A   1      40.514  36.459  37.723  1.00  0.00     0.040 A 
ATOM     78  C   UNL A   1      39.003  34.950  38.832  1.00  0.00     0.040 A 
ATOM     79  F   UNL A   1      38.372  32.943  37.790  1.00  0.00    -0.206 F 
ATOM     80  C   UNL A   1      39.728  36.139  38.828  1.00  0.00     0.006 A 
ENDBRANCH  52  73
BRANCH  64  81
ATOM     81  C   UNL A   1      43.899  28.911  35.101  1.00  0.00     0.057 A 
ATOM     82  C   UNL A   1      43.723  27.852  36.000  1.00  0.00     0.134 A 
ATOM     83  C   UNL A   1      45.212  29.304  34.809  1.00  0.00     0.134 A 
ATOM     84  F   UNL A   1      42.490  27.438  36.329  1.00  0.00    -0.206 F 
ATOM     85  C   UNL A   1      44.814  27.212  36.590  1.00  0.00     0.040 A 
ATOM     86  C   UNL A   1      46.310  28.655  35.373  1.00  0.00     0.040 A 
ATOM     87  F   UNL A   1      45.448  30.307  33.948  1.00  0.00    -0.206 F 
ATOM     88  C   UNL A   1      46.112  27.605  36.267  1.00  0.00     0.006 A 
ENDBRANCH  64  81
ENDBRANCH  38  39
ENDBRANCH  30  33
ENDBRANCH  28  29
ENDBRANCH  27  28
ENDBRANCH  26  27
ENDBRANCH   1  26
TORSDOF 15
ENDMDL
MODEL 2
REMARK VINA RESULT:     -12.1      4.943     10.175
REMARK SMILES C[C@@H]1CN(S(=O)(=O)c2ccc(Cl)c(C(=O)NCCCCCCNC(=O)c3ccc(-c4c5nc(c(-c6c(F)cccc6F)c6ccc([nH]6)c(-c6c(F)cccc6F)c6nc(c(-c7c(F)cccc7F)c7ccc4[nH]7)C=C6)C=C5)cc3)c2Cl)C[C@H]1C
REMARK SMILES IDX 19 1 18 2 17 3 16 4 14 5 15 6 13 8 8 9 9 10 80 11 10 12
REMARK SMILES IDX 81 13 11 14 12 15 5 16 6 17 7 18 4 19 1 20 2 21 3 22 83 23
REMARK SMILES IDX 82 24 84 25 20 26 21 27 22 28 23 29 24 30 25 32 26 33 27 34
REMARK SMILES IDX 79 35 28 36 78 37 29 38 30 39 31 40 72 41 32 42 77 43 71 44
REMARK SMILES IDX 73 45 33 46 76 47 70 48 69 49 34 51 60 52 43 53 59 54 44 55
REMARK SMILES IDX 47 56 58 57 74 58 45 59 46 60 57 62 75 63 48 64 35 65 36 66
REMARK SMILES IDX 41 67 37 68 38 69 40 70 42 71 39 72 61 73 62 74 67 75 63 76
REMARK SMILES IDX 64 77 66 78 68 79 65 80 49 81 50 82 55 83 51 84 52 85 54 86
REMARK SMILES IDX 56 87 53 88
REMARK H PARENT 16 7 23 31 73 50 47 61
REMARK Flexibility Score: inf
ROOT
ATOM      1  C   UNL A   1      35.180  20.692  25.309  1.00  0.00     0.002 C 
ENDROOT
BRANCH   1   2
ATOM      2  C   UNL A   1      34.065  21.084  24.337  1.00  0.00     0.021 C 
BRANCH   2   3
ATOM      3  C   UNL A   1      32.634  20.949  24.885  1.00  0.00     0.116 C 
BRANCH   3   4
ATOM      4  N   UNL A   1      32.636  21.280  26.298  1.00  0.00    -0.352 N 
ATOM      5  C   UNL A   1      32.577  22.481  26.960  1.00  0.00     0.254 C 
ATOM      6  O   UNL A   1      33.078  22.521  28.085  1.00  0.00    -0.269 OA
ATOM      7  H   UNL A   1      32.689  20.498  26.891  1.00  0.00     0.163 HD
BRANCH   5   8
ATOM      8  C   UNL A   1      31.897  23.709  26.461  1.00  0.00     0.078 A 
ATOM      9  C   UNL A   1      31.988  25.536  24.824  1.00  0.00     0.102 A 
ATOM     10  C   UNL A   1      30.622  25.763  25.024  1.00  0.00     0.025 A 
ATOM     11  C   UNL A   1      32.648  24.558  25.590  1.00  0.00     0.075 A 
ATOM     12  C   UNL A   1      29.909  25.017  25.946  1.00  0.00     0.023 A 
ATOM     13  Cl  UNL A   1      34.385  24.454  25.574  1.00  0.00    -0.082 Cl
ATOM     14  C   UNL A   1      30.516  23.940  26.593  1.00  0.00     0.055 A 
ATOM     15  Cl  UNL A   1      29.382  22.901  27.363  1.00  0.00    -0.083 Cl
BRANCH   9  16
ATOM     16  S   UNL A   1      32.687  26.328  23.382  1.00  0.00     0.244 S 
ATOM     17  O   UNL A   1      31.576  26.661  22.511  1.00  0.00    -0.207 OA
ATOM     18  O   UNL A   1      33.784  25.544  22.861  1.00  0.00    -0.207 OA
BRANCH  16  19
ATOM     19  N   UNL A   1      33.315  27.809  23.950  1.00  0.00    -0.197 NA
ATOM     20  C   UNL A   1      34.005  29.206  27.355  1.00  0.00     0.009 C 
ATOM     21  C   UNL A   1      33.183  28.655  26.200  1.00  0.00     0.005 C 
ATOM     22  C   UNL A   1      34.024  27.799  25.259  1.00  0.00     0.106 C 
ATOM     23  C   UNL A   1      32.626  29.716  25.258  1.00  0.00     0.005 C 
ATOM     24  C   UNL A   1      32.274  28.890  24.017  1.00  0.00     0.106 C 
ATOM     25  C   UNL A   1      31.428  30.458  25.832  1.00  0.00     0.009 C 
ENDBRANCH  16  19
ENDBRANCH   9  16
ENDBRANCH   5   8
ENDBRANCH   3   4
ENDBRANCH   2   3
ENDBRANCH   1   2
BRANCH   1  26
ATOM     26  C   UNL A   1      36.588  21.099  24.871  1.00  0.00     0.002 C 
BRANCH  26  27
ATOM     27  C   UNL A   1      37.645  19.997  24.986  1.00  0.00     0.021 C 
BRANCH  27  28
ATOM     28  C   UNL A   1      38.901  20.402  25.754  1.00  0.00     0.116 C 
BRANCH  28  29
ATOM     29  N   UNL A   1      39.853  19.304  25.841  1.00  0.00    -0.352 N 
ATOM     30  C   UNL A   1      41.214  19.359  26.018  1.00  0.00     0.251 C 
ATOM     31  H   UNL A   1      39.470  18.401  25.763  1.00  0.00     0.163 HD
ATOM     32  O   UNL A   1      41.913  18.370  25.828  1.00  0.00    -0.269 OA
BRANCH  30  33
ATOM     33  C   UNL A   1      41.832  20.632  26.437  1.00  0.00     0.039 A 
ATOM     34  C   UNL A   1      42.235  21.554  25.468  1.00  0.00     0.014 A 
ATOM     35  C   UNL A   1      41.999  20.911  27.795  1.00  0.00     0.014 A 
ATOM     36  C   UNL A   1      42.751  22.790  25.865  1.00  0.00     0.010 A 
ATOM     37  C   UNL A   1      42.451  22.164  28.189  1.00  0.00     0.010 A 
ATOM     38  C   UNL A   1      42.833  23.115  27.228  1.00  0.00    -0.014 A 
BRANCH  38  39
ATOM     39  C   UNL A   1      43.329  24.433  27.696  1.00  0.00     0.031 A 
ATOM     40  C   UNL A   1      42.343  25.479  28.132  1.00  0.00     0.074 A 
ATOM     41  C   UNL A   1      44.642  24.722  27.625  1.00  0.00     0.049 A 
ATOM     42  N   UNL A   1      42.541  26.744  28.398  1.00  0.00    -0.248 NA
ATOM     43  C   UNL A   1      40.940  25.050  28.251  1.00  0.00     0.031 C 
ATOM     44  C   UNL A   1      45.693  23.797  27.196  1.00  0.00     0.029 A 
ATOM     45  N   UNL A   1      45.313  25.890  27.887  1.00  0.00    -0.354 N 
ATOM     46  C   UNL A   1      41.287  27.267  28.688  1.00  0.00     0.074 A 
ATOM     47  C   UNL A   1      40.331  26.194  28.524  1.00  0.00     0.031 C 
ATOM     48  C   UNL A   1      46.876  24.433  27.228  1.00  0.00     0.029 A 
ATOM     49  C   UNL A   1      46.662  25.819  27.631  1.00  0.00     0.049 A 
ATOM     50  H   UNL A   1      44.871  26.701  28.226  1.00  0.00     0.167 HD
ATOM     51  C   UNL A   1      40.965  28.525  29.071  1.00  0.00     0.037 A 
ATOM     52  C   UNL A   1      47.613  26.772  27.692  1.00  0.00     0.037 A 
ATOM     53  C   UNL A   1      41.926  29.578  29.260  1.00  0.00     0.049 A 
ATOM     54  C   UNL A   1      47.228  28.168  28.101  1.00  0.00     0.074 A 
ATOM     55  C   UNL A   1      41.710  30.872  29.698  1.00  0.00     0.029 A 
ATOM     56  N   UNL A   1      43.287  29.456  29.022  1.00  0.00    -0.354 N 
ATOM     57  N   UNL A   1      46.046  28.639  28.417  1.00  0.00    -0.248 NA
ATOM     58  C   UNL A   1      48.306  29.164  28.165  1.00  0.00     0.031 C 
ATOM     59  C   UNL A   1      42.935  31.546  29.684  1.00  0.00     0.029 A 
ATOM     60  C   UNL A   1      43.920  30.657  29.287  1.00  0.00     0.049 A 
ATOM     61  H   UNL A   1      43.735  28.637  28.712  1.00  0.00     0.167 HD
ATOM     62  C   UNL A   1      46.244  29.972  28.753  1.00  0.00     0.074 A 
ATOM     63  C   UNL A   1      47.660  30.236  28.602  1.00  0.00     0.031 C 
ATOM     64  C   UNL A   1      45.336  30.892  29.157  1.00  0.00     0.037 A 
BRANCH  51  65
ATOM     65  C   UNL A   1      39.515  28.830  29.309  1.00  0.00     0.057 A 
ATOM     66  C   UNL A   1      38.917  28.650  30.564  1.00  0.00     0.134 A 
ATOM     67  C   UNL A   1      38.714  29.339  28.279  1.00  0.00     0.134 A 
ATOM     68  F   UNL A   1      39.626  28.154  31.590  1.00  0.00    -0.206 F 
ATOM     69  C   UNL A   1      37.570  28.940  30.779  1.00  0.00     0.040 A 
ATOM     70  C   UNL A   1      37.372  29.660  28.490  1.00  0.00     0.040 A 
ATOM     71  F   UNL A   1      39.224  29.542  27.055  1.00  0.00    -0.206 F 
ATOM     72  C   UNL A   1      36.795  29.454  29.741  1.00  0.00     0.006 A 
ENDBRANCH  51  65
BRANCH  52  73
ATOM     73  C   UNL A   1      49.022  26.438  27.365  1.00  0.00     0.057 A 
ATOM     74  C   UNL A   1      49.523  26.624  26.071  1.00  0.00     0.134 A 
ATOM     75  C   UNL A   1      49.899  25.924  28.328  1.00  0.00     0.134 A 
ATOM     76  F   UNL A   1      48.727  27.097  25.101  1.00  0.00    -0.206 F 
ATOM     77  C   UNL A   1      50.839  26.296  25.742  1.00  0.00     0.040 A 
ATOM     78  C   UNL A   1      51.224  25.614  28.018  1.00  0.00     0.040 A 
ATOM     79  F   UNL A   1      49.483  25.730  29.588  1.00  0.00    -0.206 F 
ATOM     80  C   UNL A   1      51.696  25.792  26.719  1.00  0.00     0.006 A 
ENDBRANCH  52  73
BRANCH  64  81
ATOM     81  C   UNL A   1      45.842  32.256  29.523  1.00  0.00     0.057 A 
ATOM     82  C   UNL A   1      45.885  33.305  28.598  1.00  0.00     0.134 A 
ATOM     83  C   UNL A   1      46.208  32.539  30.845  1.00  0.00     0.134 A 
ATOM     84  F   UNL A   1      45.558  33.094  27.314  1.00  0.00    -0.206 F 
ATOM     85  C   UNL A   1      46.283  34.589  28.975  1.00  0.00     0.040 A 
ATOM     86  C   UNL A   1      46.583  33.824  31.239  1.00  0.00     0.040 A 
ATOM     87  F   UNL A   1      46.180  31.578  31.782  1.00  0.00    -0.206 F 
ATOM     88  C   UNL A   1      46.621  34.853  30.301  1.00  0.00     0.006 A 
ENDBRANCH  64  81
ENDBRANCH  38  39
ENDBRANCH  30  33
ENDBRANCH  28  29
ENDBRANCH  27  28
ENDBRANCH  26  27
ENDBRANCH   1  26
TORSDOF 15
ENDMDL
MODEL 3
REMARK VINA RESULT:     -12.0      5.038     10.202
REMARK SMILES C[C@@H]1CN(S(=O)(=O)c2ccc(Cl)c(C(=O)NCCCCCCNC(=O)c3ccc(-c4c5nc(c(-c6c(F)cccc6F)c6ccc([nH]6)c(-c6c(F)cccc6F)c6nc(c(-c7c(F)cccc7F)c7ccc4[nH]7)C=C6)C=C5)cc3)c2Cl)C[C@H]1C
REMARK SMILES IDX 19 1 18 2 17 3 16 4 14 5 15 6 13 8 8 9 9 10 80 11 10 12
REMARK SMILES IDX 81 13 11 14 12 15 5 16 6 17 7 18 4 19 1 20 2 21 3 22 83 23
REMARK SMILES IDX 82 24 84 25 20 26 21 27 22 28 23 29 24 30 25 32 26 33 27 34
REMARK SMILES IDX 79 35 28 36 78 37 29 38 30 39 31 40 72 41 32 42 77 43 71 44
REMARK SMILES IDX 73 45 33 46 76 47 70 48 69 49 34 51 60 52 43 53 59 54 44 55
REMARK SMILES IDX 47 56 58 57 74 58 45 59 46 60 57 62 75 63 48 64 35 65 36 66
REMARK SMILES IDX 41 67 37 68 38 69 40 70 42 71 39 72 61 73 62 74 67 75 63 76
REMARK SMILES IDX 64 77 66 78 68 79 65 80 49 81 50 82 55 83 51 84 52 85 54 86
REMARK SMILES IDX 56 87 53 88
REMARK H PARENT 16 7 23 31 73 50 47 61
REMARK Flexibility Score: inf
ROOT
ATOM      1  C   UNL A   1      35.590  21.124  25.455  1.00  0.00     0.002 C 
ENDROOT
BRANCH   1   2
ATOM      2  C   UNL A   1      34.333  21.449  24.645  1.00  0.00     0.021 C 
BRANCH   2   3
ATOM      3  C   UNL A   1      34.485  22.583  23.617  1.00  0.00     0.116 C 
BRANCH   3   4
ATOM      4  N   UNL A   1      33.183  22.889  23.055  1.00  0.00    -0.352 N 
ATOM      5  C   UNL A   1      32.126  23.622  23.532  1.00  0.00     0.254 C 
ATOM      6  O   UNL A   1      31.007  23.325  23.110  1.00  0.00    -0.269 OA
ATOM      7  H   UNL A   1      33.029  22.497  22.166  1.00  0.00     0.163 HD
BRANCH   5   8
ATOM      8  C   UNL A   1      32.230  24.787  24.454  1.00  0.00     0.078 A 
ATOM      9  C   UNL A   1      32.168  27.236  24.618  1.00  0.00     0.102 A 
ATOM     10  C   UNL A   1      31.920  27.123  25.991  1.00  0.00     0.025 A 
ATOM     11  C   UNL A   1      32.394  26.076  23.857  1.00  0.00     0.075 A 
ATOM     12  C   UNL A   1      31.867  25.881  26.599  1.00  0.00     0.023 A 
ATOM     13  Cl  UNL A   1      32.988  26.198  22.225  1.00  0.00    -0.082 Cl
ATOM     14  C   UNL A   1      31.930  24.720  25.826  1.00  0.00     0.055 A 
ATOM     15  Cl  UNL A   1      31.435  23.318  26.690  1.00  0.00    -0.083 Cl
BRANCH   9  16
ATOM     16  S   UNL A   1      31.873  28.856  23.924  1.00  0.00     0.244 S 
ATOM     17  O   UNL A   1      33.070  29.218  23.189  1.00  0.00    -0.207 OA
ATOM     18  O   UNL A   1      31.368  29.752  24.939  1.00  0.00    -0.207 OA
BRANCH  16  19
ATOM     19  N   UNL A   1      30.646  28.624  22.762  1.00  0.00    -0.197 NA
ATOM     20  C   UNL A   1      28.049  30.851  21.240  1.00  0.00     0.009 C 
ATOM     21  C   UNL A   1      28.782  30.085  22.330  1.00  0.00     0.005 C 
ATOM     22  C   UNL A   1      30.232  29.802  21.953  1.00  0.00     0.106 C 
ATOM     23  C   UNL A   1      28.240  28.684  22.593  1.00  0.00     0.005 C 
ATOM     24  C   UNL A   1      29.398  28.028  23.350  1.00  0.00     0.106 C 
ATOM     25  C   UNL A   1      26.941  28.684  23.385  1.00  0.00     0.009 C 
ENDBRANCH  16  19
ENDBRANCH   9  16
ENDBRANCH   5   8
ENDBRANCH   3   4
ENDBRANCH   2   3
ENDBRANCH   1   2
BRANCH   1  26
ATOM     26  C   UNL A   1      36.882  21.062  24.639  1.00  0.00     0.002 C 
BRANCH  26  27
ATOM     27  C   UNL A   1      37.827  19.915  25.008  1.00  0.00     0.021 C 
BRANCH  27  28
ATOM     28  C   UNL A   1      39.058  20.338  25.804  1.00  0.00     0.116 C 
BRANCH  28  29
ATOM     29  N   UNL A   1      40.035  19.263  25.894  1.00  0.00    -0.352 N 
ATOM     30  C   UNL A   1      41.394  19.348  26.075  1.00  0.00     0.251 C 
ATOM     31  H   UNL A   1      39.673  18.351  25.815  1.00  0.00     0.163 HD
ATOM     32  O   UNL A   1      42.116  18.376  25.887  1.00  0.00    -0.269 OA
BRANCH  30  33
ATOM     33  C   UNL A   1      41.981  20.635  26.496  1.00  0.00     0.039 A 
ATOM     34  C   UNL A   1      42.373  21.563  25.527  1.00  0.00     0.014 A 
ATOM     35  C   UNL A   1      42.131  20.921  27.855  1.00  0.00     0.014 A 
ATOM     36  C   UNL A   1      42.859  22.811  25.925  1.00  0.00     0.010 A 
ATOM     37  C   UNL A   1      42.553  22.185  28.248  1.00  0.00     0.010 A 
ATOM     38  C   UNL A   1      42.923  23.141  27.288  1.00  0.00    -0.014 A 
BRANCH  38  39
ATOM     39  C   UNL A   1      43.387  24.470  27.757  1.00  0.00     0.031 A 
ATOM     40  C   UNL A   1      42.375  25.510  28.145  1.00  0.00     0.074 A 
ATOM     41  C   UNL A   1      44.698  24.774  27.728  1.00  0.00     0.049 A 
ATOM     42  N   UNL A   1      42.549  26.780  28.401  1.00  0.00    -0.248 NA
ATOM     43  C   UNL A   1      40.973  25.066  28.220  1.00  0.00     0.031 C 
ATOM     44  C   UNL A   1      45.775  23.857  27.347  1.00  0.00     0.029 A 
ATOM     45  N   UNL A   1      45.347  25.953  27.998  1.00  0.00    -0.354 N 
ATOM     46  C   UNL A   1      41.279  27.292  28.641  1.00  0.00     0.074 A 
ATOM     47  C   UNL A   1      40.342  26.206  28.457  1.00  0.00     0.031 C 
ATOM     48  C   UNL A   1      46.948  24.506  27.413  1.00  0.00     0.029 A 
ATOM     49  C   UNL A   1      46.704  25.895  27.791  1.00  0.00     0.049 A 
ATOM     50  H   UNL A   1      44.884  26.763  28.312  1.00  0.00     0.167 HD
ATOM     51  C   UNL A   1      40.930  28.550  28.996  1.00  0.00     0.037 A 
ATOM     52  C   UNL A   1      47.641  26.859  27.873  1.00  0.00     0.037 A 
ATOM     53  C   UNL A   1      41.872  29.617  29.206  1.00  0.00     0.049 A 
ATOM     54  C   UNL A   1      47.227  28.256  28.251  1.00  0.00     0.074 A 
ATOM     55  C   UNL A   1      41.626  30.914  29.620  1.00  0.00     0.029 A 
ATOM     56  N   UNL A   1      43.242  29.508  29.017  1.00  0.00    -0.354 N 
ATOM     57  N   UNL A   1      46.029  28.717  28.519  1.00  0.00    -0.248 NA
ATOM     58  C   UNL A   1      48.291  29.265  28.340  1.00  0.00     0.031 C 
ATOM     59  C   UNL A   1      42.842  31.602  29.640  1.00  0.00     0.029 A 
ATOM     60  C   UNL A   1      43.852  30.720  29.289  1.00  0.00     0.049 A 
ATOM     61  H   UNL A   1      43.710  28.690  28.733  1.00  0.00     0.167 HD
ATOM     62  C   UNL A   1      46.200  30.056  28.845  1.00  0.00     0.074 A 
ATOM     63  C   UNL A   1      47.617  30.334  28.740  1.00  0.00     0.031 C 
ATOM     64  C   UNL A   1      45.268  30.970  29.205  1.00  0.00     0.037 A 
BRANCH  51  65
ATOM     65  C   UNL A   1      39.469  28.841  29.180  1.00  0.00     0.057 A 
ATOM     66  C   UNL A   1      38.843  28.724  30.428  1.00  0.00     0.134 A 
ATOM     67  C   UNL A   1      38.686  29.272  28.102  1.00  0.00     0.134 A 
ATOM     68  F   UNL A   1      39.533  28.304  31.499  1.00  0.00    -0.206 F 
ATOM     69  C   UNL A   1      37.485  29.001  30.592  1.00  0.00     0.040 A 
ATOM     70  C   UNL A   1      37.334  29.579  28.259  1.00  0.00     0.040 A 
ATOM     71  F   UNL A   1      39.224  29.412  26.881  1.00  0.00    -0.206 F 
ATOM     72  C   UNL A   1      36.728  29.437  29.506  1.00  0.00     0.006 A 
ENDBRANCH  51  65
BRANCH  52  73
ATOM     73  C   UNL A   1      49.065  26.538  27.599  1.00  0.00     0.057 A 
ATOM     74  C   UNL A   1      49.579  26.599  26.299  1.00  0.00     0.134 A 
ATOM     75  C   UNL A   1      49.944  26.160  28.623  1.00  0.00     0.134 A 
ATOM     76  F   UNL A   1      48.783  26.938  25.275  1.00  0.00    -0.206 F 
ATOM     77  C   UNL A   1      50.909  26.280  26.022  1.00  0.00     0.040 A 
ATOM     78  C   UNL A   1      51.282  25.862  28.363  1.00  0.00     0.040 A 
ATOM     79  F   UNL A   1      49.516  26.090  29.891  1.00  0.00    -0.206 F 
ATOM     80  C   UNL A   1      51.767  25.914  27.058  1.00  0.00     0.006 A 
ENDBRANCH  52  73
BRANCH  64  81
ATOM     81  C   UNL A   1      45.745  32.344  29.572  1.00  0.00     0.057 A 
ATOM     82  C   UNL A   1      45.848  33.371  28.627  1.00  0.00     0.134 A 
ATOM     83  C   UNL A   1      46.022  32.660  30.909  1.00  0.00     0.134 A 
ATOM     84  F   UNL A   1      45.608  33.128  27.330  1.00  0.00    -0.206 F 
ATOM     85  C   UNL A   1      46.216  34.665  28.999  1.00  0.00     0.040 A 
ATOM     86  C   UNL A   1      46.367  33.955  31.296  1.00  0.00     0.040 A 
ATOM     87  F   UNL A   1      45.933  31.721  31.864  1.00  0.00    -0.206 F 
ATOM     88  C   UNL A   1      46.464  34.962  30.338  1.00  0.00     0.006 A 
ENDBRANCH  64  81
ENDBRANCH  38  39
ENDBRANCH  30  33
ENDBRANCH  28  29
ENDBRANCH  27  28
ENDBRANCH  26  27
ENDBRANCH   1  26
TORSDOF 15
ENDMDL
