MODEL 1
REMARK VINA RESULT:     -11.9      0.000      0.000
REMARK SMILES Cc1cc(Cl)ccc1Oc1cc(C)c(N)c(C(=O)NCCCCCCNC(=O)c2ccc(-c3c4nc(c(-c5c(F)cccc5F)c5ccc([nH]5)c(-c5c(F)cccc5F)c5nc(c(-c6c(F)cccc6F)c6ccc3[nH]6)C=C5)C=C4)cc2)c1
REMARK SMILES IDX 22 1 21 2 20 3 19 4 17 5 18 6 16 8 10 9 11 10 83 11 12 12
REMARK SMILES IDX 13 13 14 14 9 15 8 16 1 17 2 18 3 19 4 20 7 21 5 22 6 23
REMARK SMILES IDX 15 24 23 27 24 28 25 29 26 30 27 31 28 33 29 34 30 35 82 36
REMARK SMILES IDX 31 37 81 38 32 39 33 40 34 41 75 42 35 43 80 44 74 45 76 46
REMARK SMILES IDX 36 47 79 48 73 49 72 50 37 52 63 53 46 54 62 55 47 56 50 57
REMARK SMILES IDX 61 58 77 59 48 60 49 61 60 63 78 64 51 65 38 66 39 67 44 68
REMARK SMILES IDX 40 69 41 70 43 71 45 72 42 73 64 74 65 75 70 76 66 77 67 78
REMARK SMILES IDX 69 79 71 80 68 81 52 82 53 83 58 84 54 85 55 86 57 87 59 88
REMARK SMILES IDX 56 89
REMARK H PARENT 19 7 15 25 15 26 26 32 76 51 50 62
REMARK Flexibility Score: inf
ROOT
ATOM      1  C   UNL A   1      32.463  30.040  26.992  1.00  0.00     0.002 C 
ENDROOT
BRANCH   1   2
ATOM      2  C   UNL A   1      32.479  28.527  26.720  1.00  0.00     0.021 C 
BRANCH   2   3
ATOM      3  C   UNL A   1      33.708  28.078  25.924  1.00  0.00     0.116 C 
BRANCH   3   4
ATOM      4  N   UNL A   1      33.698  28.707  24.618  1.00  0.00    -0.352 N 
ATOM      5  C   UNL A   1      32.892  28.646  23.511  1.00  0.00     0.253 C 
ATOM      6  O   UNL A   1      33.284  29.313  22.549  1.00  0.00    -0.269 OA
ATOM      7  H   UNL A   1      34.453  29.327  24.496  1.00  0.00     0.163 HD
BRANCH   5   8
ATOM      8  C   UNL A   1      31.585  27.903  23.430  1.00  0.00     0.066 A 
ATOM      9  C   UNL A   1      30.284  25.856  23.494  1.00  0.00     0.128 A 
ATOM     10  C   UNL A   1      29.095  26.571  23.500  1.00  0.00     0.052 A 
ATOM     11  C   UNL A   1      31.515  26.508  23.446  1.00  0.00     0.063 A 
ATOM     12  C   UNL A   1      29.125  27.960  23.338  1.00  0.00    -0.024 A 
ATOM     13  C   UNL A   1      27.826  28.692  23.125  1.00  0.00     0.047 C 
ATOM     14  C   UNL A   1      30.367  28.642  23.329  1.00  0.00     0.048 A 
BRANCH   9  15
ATOM     15  O   UNL A   1      30.278  24.500  23.635  1.00  0.00    -0.457 OA
BRANCH  15  16
ATOM     16  C   UNL A   1      31.138  23.864  24.506  1.00  0.00     0.130 A 
ATOM     17  C   UNL A   1      32.395  22.233  22.929  1.00  0.00     0.048 C 
ATOM     18  C   UNL A   1      32.091  22.857  24.262  1.00  0.00    -0.007 A 
ATOM     19  C   UNL A   1      32.820  22.350  25.362  1.00  0.00     0.027 A 
ATOM     20  C   UNL A   1      32.641  22.849  26.650  1.00  0.00     0.041 A 
ATOM     21  C   UNL A   1      30.979  24.361  25.815  1.00  0.00     0.049 A 
ATOM     22  Cl  UNL A   1      33.557  22.203  27.954  1.00  0.00    -0.084 Cl
ATOM     23  C   UNL A   1      31.727  23.865  26.882  1.00  0.00     0.024 A 
ENDBRANCH  15  16
ENDBRANCH   9  15
BRANCH  14  24
ATOM     24  N   UNL A   1      30.375  30.019  23.101  1.00  0.00    -0.398 N 
ATOM     25  H   UNL A   1      29.609  30.449  22.656  1.00  0.00     0.156 HD
ATOM     26  H   UNL A   1      31.147  30.561  23.384  1.00  0.00     0.156 HD
ENDBRANCH  14  24
ENDBRANCH   5   8
ENDBRANCH   3   4
ENDBRANCH   2   3
ENDBRANCH   1   2
BRANCH   1  27
ATOM     27  C   UNL A   1      31.418  30.827  26.188  1.00  0.00     0.002 C 
BRANCH  27  28
ATOM     28  C   UNL A   1      31.362  32.323  26.501  1.00  0.00     0.021 C 
BRANCH  28  29
ATOM     29  C   UNL A   1      32.543  32.830  27.323  1.00  0.00     0.116 C 
BRANCH  29  30
ATOM     30  N   UNL A   1      32.413  34.246  27.626  1.00  0.00    -0.352 N 
ATOM     31  C   UNL A   1      33.038  34.986  28.598  1.00  0.00     0.251 C 
ATOM     32  H   UNL A   1      31.787  34.745  27.053  1.00  0.00     0.163 HD
ATOM     33  O   UNL A   1      32.635  36.110  28.875  1.00  0.00    -0.269 OA
BRANCH  31  34
ATOM     34  C   UNL A   1      34.197  34.418  29.317  1.00  0.00     0.039 A 
ATOM     35  C   UNL A   1      33.986  33.776  30.539  1.00  0.00     0.014 A 
ATOM     36  C   UNL A   1      35.487  34.536  28.794  1.00  0.00     0.014 A 
ATOM     37  C   UNL A   1      35.066  33.203  31.212  1.00  0.00     0.010 A 
ATOM     38  C   UNL A   1      36.551  33.902  29.428  1.00  0.00     0.010 A 
ATOM     39  C   UNL A   1      36.352  33.238  30.647  1.00  0.00    -0.014 A 
BRANCH  39  40
ATOM     40  C   UNL A   1      37.500  32.578  31.315  1.00  0.00     0.031 A 
ATOM     41  C   UNL A   1      38.201  31.425  30.654  1.00  0.00     0.074 A 
ATOM     42  C   UNL A   1      37.863  32.973  32.550  1.00  0.00     0.049 A 
ATOM     43  N   UNL A   1      39.183  30.686  31.106  1.00  0.00    -0.248 NA
ATOM     44  C   UNL A   1      37.715  31.031  29.323  1.00  0.00     0.031 C 
ATOM     45  C   UNL A   1      37.221  34.040  33.319  1.00  0.00     0.029 A 
ATOM     46  N   UNL A   1      38.851  32.510  33.382  1.00  0.00    -0.354 N 
ATOM     47  C   UNL A   1      39.418  29.731  30.124  1.00  0.00     0.074 A 
ATOM     48  C   UNL A   1      38.443  29.952  29.078  1.00  0.00     0.031 C 
ATOM     49  C   UNL A   1      37.843  34.163  34.502  1.00  0.00     0.029 A 
ATOM     50  C   UNL A   1      38.901  33.161  34.590  1.00  0.00     0.049 A 
ATOM     51  H   UNL A   1      39.466  31.782  33.137  1.00  0.00     0.167 HD
ATOM     52  C   UNL A   1      40.373  28.772  30.090  1.00  0.00     0.037 A 
ATOM     53  C   UNL A   1      39.704  32.968  35.653  1.00  0.00     0.037 A 
ATOM     54  C   UNL A   1      41.354  28.572  31.125  1.00  0.00     0.049 A 
ATOM     55  C   UNL A   1      40.763  31.904  35.590  1.00  0.00     0.074 A 
ATOM     56  C   UNL A   1      42.413  27.682  31.149  1.00  0.00     0.029 A 
ATOM     57  N   UNL A   1      41.389  29.267  32.325  1.00  0.00    -0.354 N 
ATOM     58  N   UNL A   1      41.031  31.064  34.619  1.00  0.00    -0.248 NA
ATOM     59  C   UNL A   1      41.634  31.767  36.763  1.00  0.00     0.031 C 
ATOM     60  C   UNL A   1      43.056  27.802  32.386  1.00  0.00     0.029 A 
ATOM     61  C   UNL A   1      42.431  28.805  33.110  1.00  0.00     0.049 A 
ATOM     62  H   UNL A   1      40.764  29.984  32.580  1.00  0.00     0.167 HD
ATOM     63  C   UNL A   1      42.114  30.312  35.055  1.00  0.00     0.074 A 
ATOM     64  C   UNL A   1      42.462  30.808  36.371  1.00  0.00     0.031 C 
ATOM     65  C   UNL A   1      42.762  29.303  34.422  1.00  0.00     0.037 A 
BRANCH  52  66
ATOM     66  C   UNL A   1      40.393  27.859  28.897  1.00  0.00     0.057 A 
ATOM     67  C   UNL A   1      41.156  28.145  27.755  1.00  0.00     0.134 A 
ATOM     68  C   UNL A   1      39.651  26.672  28.893  1.00  0.00     0.134 A 
ATOM     69  F   UNL A   1      41.882  29.271  27.688  1.00  0.00    -0.206 F 
ATOM     70  C   UNL A   1      41.152  27.302  26.643  1.00  0.00     0.040 A 
ATOM     71  C   UNL A   1      39.662  25.806  27.799  1.00  0.00     0.040 A 
ATOM     72  F   UNL A   1      38.903  26.332  29.954  1.00  0.00    -0.206 F 
ATOM     73  C   UNL A   1      40.407  26.125  26.665  1.00  0.00     0.006 A 
ENDBRANCH  52  66
BRANCH  53  74
ATOM     74  C   UNL A   1      39.544  33.822  36.857  1.00  0.00     0.057 A 
ATOM     75  C   UNL A   1      38.746  33.414  37.931  1.00  0.00     0.134 A 
ATOM     76  C   UNL A   1      40.203  35.052  36.971  1.00  0.00     0.134 A 
ATOM     77  F   UNL A   1      38.077  32.253  37.873  1.00  0.00    -0.206 F 
ATOM     78  C   UNL A   1      38.601  34.202  39.074  1.00  0.00     0.040 A 
ATOM     79  C   UNL A   1      40.086  35.839  38.118  1.00  0.00     0.040 A 
ATOM     80  F   UNL A   1      40.992  35.493  35.980  1.00  0.00    -0.206 F 
ATOM     81  C   UNL A   1      39.278  35.416  39.172  1.00  0.00     0.006 A 
ENDBRANCH  53  74
BRANCH  65  82
ATOM     82  C   UNL A   1      43.926  28.681  35.137  1.00  0.00     0.057 A 
ATOM     83  C   UNL A   1      43.759  27.617  36.033  1.00  0.00     0.134 A 
ATOM     84  C   UNL A   1      45.232  29.124  34.895  1.00  0.00     0.134 A 
ATOM     85  F   UNL A   1      42.533  27.153  36.320  1.00  0.00    -0.206 F 
ATOM     86  C   UNL A   1      44.849  27.032  36.680  1.00  0.00     0.040 A 
ATOM     87  C   UNL A   1      46.331  28.529  35.515  1.00  0.00     0.040 A 
ATOM     88  F   UNL A   1      45.461  30.133  34.041  1.00  0.00    -0.206 F 
ATOM     89  C   UNL A   1      46.141  27.484  36.415  1.00  0.00     0.006 A 
ENDBRANCH  65  82
ENDBRANCH  39  40
ENDBRANCH  31  34
ENDBRANCH  29  30
ENDBRANCH  28  29
ENDBRANCH  27  28
ENDBRANCH   1  27
TORSDOF 16
ENDMDL
MODEL 2
REMARK VINA RESULT:     -11.8      4.948      8.949
REMARK SMILES Cc1cc(Cl)ccc1Oc1cc(C)c(N)c(C(=O)NCCCCCCNC(=O)c2ccc(-c3c4nc(c(-c5c(F)cccc5F)c5ccc([nH]5)c(-c5c(F)cccc5F)c5nc(c(-c6c(F)cccc6F)c6ccc3[nH]6)C=C5)C=C4)cc2)c1
REMARK SMILES IDX 22 1 21 2 20 3 19 4 17 5 18 6 16 8 10 9 11 10 83 11 12 12
REMARK SMILES IDX 13 13 14 14 9 15 8 16 1 17 2 18 3 19 4 20 7 21 5 22 6 23
REMARK SMILES IDX 15 24 23 27 24 28 25 29 26 30 27 31 28 33 29 34 30 35 82 36
REMARK SMILES IDX 31 37 81 38 32 39 33 40 34 41 75 42 35 43 80 44 74 45 76 46
REMARK SMILES IDX 36 47 79 48 73 49 72 50 37 52 63 53 46 54 62 55 47 56 50 57
REMARK SMILES IDX 61 58 77 59 48 60 49 61 60 63 78 64 51 65 38 66 39 67 44 68
REMARK SMILES IDX 40 69 41 70 43 71 45 72 42 73 64 74 65 75 70 76 66 77 67 78
REMARK SMILES IDX 69 79 71 80 68 81 52 82 53 83 58 84 54 85 55 86 57 87 59 88
REMARK SMILES IDX 56 89
REMARK H PARENT 19 7 15 25 15 26 26 32 76 51 50 62
REMARK Flexibility Score: inf
ROOT
ATOM      1  C   UNL A   1      34.674  35.092  32.340  1.00  0.00     0.002 C 
ENDROOT
BRANCH   1   2
ATOM      2  C   UNL A   1      34.760  34.140  33.544  1.00  0.00     0.021 C 
BRANCH   2   3
ATOM      3  C   UNL A   1      36.175  33.603  33.779  1.00  0.00     0.116 C 
BRANCH   3   4
ATOM      4  N   UNL A   1      36.298  32.283  33.193  1.00  0.00    -0.352 N 
ATOM      5  C   UNL A   1      37.179  31.240  33.312  1.00  0.00     0.253 C 
ATOM      6  O   UNL A   1      36.955  30.285  32.561  1.00  0.00    -0.269 OA
ATOM      7  H   UNL A   1      35.575  32.090  32.553  1.00  0.00     0.163 HD
BRANCH   5   8
ATOM      8  C   UNL A   1      38.308  31.167  34.306  1.00  0.00     0.066 A 
ATOM      9  C   UNL A   1      39.250  31.587  36.502  1.00  0.00     0.128 A 
ATOM     10  C   UNL A   1      40.361  30.809  36.212  1.00  0.00     0.052 A 
ATOM     11  C   UNL A   1      38.240  31.778  35.560  1.00  0.00     0.063 A 
ATOM     12  C   UNL A   1      40.530  30.303  34.919  1.00  0.00    -0.024 A 
ATOM     13  C   UNL A   1      41.840  29.652  34.562  1.00  0.00     0.047 C 
ATOM     14  C   UNL A   1      39.495  30.453  33.963  1.00  0.00     0.048 A 
BRANCH   9  15
ATOM     15  O   UNL A   1      39.072  32.103  37.751  1.00  0.00    -0.457 OA
BRANCH  15  16
ATOM     16  C   UNL A   1      39.697  33.269  38.144  1.00  0.00     0.130 A 
ATOM     17  C   UNL A   1      42.047  32.417  38.835  1.00  0.00     0.048 C 
ATOM     18  C   UNL A   1      41.000  33.477  38.632  1.00  0.00    -0.007 A 
ATOM     19  C   UNL A   1      41.372  34.790  39.001  1.00  0.00     0.027 A 
ATOM     20  C   UNL A   1      40.499  35.865  38.852  1.00  0.00     0.041 A 
ATOM     21  C   UNL A   1      38.832  34.372  37.993  1.00  0.00     0.049 A 
ATOM     22  Cl  UNL A   1      41.000  37.446  39.310  1.00  0.00    -0.084 Cl
ATOM     23  C   UNL A   1      39.228  35.664  38.338  1.00  0.00     0.024 A 
ENDBRANCH  15  16
ENDBRANCH   9  15
BRANCH  14  24
ATOM     24  N   UNL A   1      39.713  29.998  32.661  1.00  0.00    -0.398 N 
ATOM     25  H   UNL A   1      40.364  29.279  32.494  1.00  0.00     0.156 HD
ATOM     26  H   UNL A   1      39.215  30.396  31.911  1.00  0.00     0.156 HD
ENDBRANCH  14  24
ENDBRANCH   5   8
ENDBRANCH   3   4
ENDBRANCH   2   3
ENDBRANCH   1   2
BRANCH   1  27
ATOM     27  C   UNL A   1      33.257  35.305  31.789  1.00  0.00     0.002 C 
BRANCH  27  28
ATOM     28  C   UNL A   1      33.075  36.582  30.966  1.00  0.00     0.021 C 
BRANCH  28  29
ATOM     29  C   UNL A   1      33.465  36.436  29.499  1.00  0.00     0.116 C 
BRANCH  29  30
ATOM     30  N   UNL A   1      32.639  35.449  28.823  1.00  0.00    -0.352 N 
ATOM     31  C   UNL A   1      32.998  34.237  28.288  1.00  0.00     0.251 C 
ATOM     32  H   UNL A   1      31.687  35.682  28.736  1.00  0.00     0.163 HD
ATOM     33  O   UNL A   1      32.232  33.639  27.540  1.00  0.00    -0.269 OA
BRANCH  31  34
ATOM     34  C   UNL A   1      34.318  33.658  28.609  1.00  0.00     0.039 A 
ATOM     35  C   UNL A   1      35.435  34.072  27.880  1.00  0.00     0.014 A 
ATOM     36  C   UNL A   1      34.448  32.698  29.616  1.00  0.00     0.014 A 
ATOM     37  C   UNL A   1      36.694  33.560  28.197  1.00  0.00     0.010 A 
ATOM     38  C   UNL A   1      35.712  32.244  29.979  1.00  0.00     0.010 A 
ATOM     39  C   UNL A   1      36.845  32.664  29.268  1.00  0.00    -0.014 A 
BRANCH  39  40
ATOM     40  C   UNL A   1      38.184  32.160  29.662  1.00  0.00     0.031 A 
ATOM     41  C   UNL A   1      38.652  30.811  29.197  1.00  0.00     0.074 A 
ATOM     42  C   UNL A   1      38.945  32.890  30.499  1.00  0.00     0.049 A 
ATOM     43  N   UNL A   1      39.762  30.177  29.483  1.00  0.00    -0.248 NA
ATOM     44  C   UNL A   1      37.742  30.061  28.318  1.00  0.00     0.031 C 
ATOM     45  C   UNL A   1      38.573  34.188  31.066  1.00  0.00     0.029 A 
ATOM     46  N   UNL A   1      40.184  32.636  31.031  1.00  0.00    -0.354 N 
ATOM     47  C   UNL A   1      39.674  28.951  28.836  1.00  0.00     0.074 A 
ATOM     48  C   UNL A   1      38.381  28.908  28.186  1.00  0.00     0.031 C 
ATOM     49  C   UNL A   1      39.570  34.625  31.852  1.00  0.00     0.029 A 
ATOM     50  C   UNL A   1      40.633  33.624  31.873  1.00  0.00     0.049 A 
ATOM     51  H   UNL A   1      40.702  31.824  30.829  1.00  0.00     0.167 HD
ATOM     52  C   UNL A   1      40.594  27.960  28.774  1.00  0.00     0.037 A 
ATOM     53  C   UNL A   1      41.769  33.711  32.590  1.00  0.00     0.037 A 
ATOM     54  C   UNL A   1      41.887  28.019  29.404  1.00  0.00     0.049 A 
ATOM     55  C   UNL A   1      42.781  32.604  32.497  1.00  0.00     0.074 A 
ATOM     56  C   UNL A   1      42.923  27.104  29.334  1.00  0.00     0.029 A 
ATOM     57  N   UNL A   1      42.317  29.047  30.230  1.00  0.00    -0.354 N 
ATOM     58  N   UNL A   1      42.723  31.487  31.812  1.00  0.00    -0.248 NA
ATOM     59  C   UNL A   1      44.019  32.772  33.269  1.00  0.00     0.031 C 
ATOM     60  C   UNL A   1      43.959  27.554  30.160  1.00  0.00     0.029 A 
ATOM     61  C   UNL A   1      43.590  28.775  30.702  1.00  0.00     0.049 A 
ATOM     62  H   UNL A   1      41.794  29.852  30.449  1.00  0.00     0.167 HD
ATOM     63  C   UNL A   1      43.922  30.829  32.053  1.00  0.00     0.074 A 
ATOM     64  C   UNL A   1      44.693  31.681  32.935  1.00  0.00     0.031 C 
ATOM     65  C   UNL A   1      44.344  29.629  31.586  1.00  0.00     0.037 A 
BRANCH  52  66
ATOM     66  C   UNL A   1      40.228  26.725  28.002  1.00  0.00     0.057 A 
ATOM     67  C   UNL A   1      40.695  26.496  26.699  1.00  0.00     0.134 A 
ATOM     68  C   UNL A   1      39.408  25.743  28.573  1.00  0.00     0.134 A 
ATOM     69  F   UNL A   1      41.474  27.400  26.088  1.00  0.00    -0.206 F 
ATOM     70  C   UNL A   1      40.331  25.354  25.983  1.00  0.00     0.040 A 
ATOM     71  C   UNL A   1      39.063  24.583  27.877  1.00  0.00     0.040 A 
ATOM     72  F   UNL A   1      38.931  25.893  29.817  1.00  0.00    -0.206 F 
ATOM     73  C   UNL A   1      39.517  24.391  26.574  1.00  0.00     0.006 A 
ENDBRANCH  52  66
BRANCH  53  74
ATOM     74  C   UNL A   1      42.012  34.904  33.437  1.00  0.00     0.057 A 
ATOM     75  C   UNL A   1      41.493  34.987  34.734  1.00  0.00     0.134 A 
ATOM     76  C   UNL A   1      42.786  35.978  32.981  1.00  0.00     0.134 A 
ATOM     77  F   UNL A   1      40.730  33.997  35.220  1.00  0.00    -0.206 F 
ATOM     78  C   UNL A   1      41.727  36.098  35.546  1.00  0.00     0.040 A 
ATOM     79  C   UNL A   1      43.048  37.084  33.790  1.00  0.00     0.040 A 
ATOM     80  F   UNL A   1      43.321  35.954  31.751  1.00  0.00    -0.206 F 
ATOM     81  C   UNL A   1      42.514  37.148  35.075  1.00  0.00     0.006 A 
ENDBRANCH  53  74
BRANCH  65  82
ATOM     82  C   UNL A   1      45.712  29.174  32.003  1.00  0.00     0.057 A 
ATOM     83  C   UNL A   1      46.857  29.506  31.267  1.00  0.00     0.134 A 
ATOM     84  C   UNL A   1      45.891  28.430  33.176  1.00  0.00     0.134 A 
ATOM     85  F   UNL A   1      46.754  30.205  30.126  1.00  0.00    -0.206 F 
ATOM     86  C   UNL A   1      48.129  29.095  31.671  1.00  0.00     0.040 A 
ATOM     87  C   UNL A   1      47.159  28.037  33.605  1.00  0.00     0.040 A 
ATOM     88  F   UNL A   1      44.837  28.087  33.932  1.00  0.00    -0.206 F 
ATOM     89  C   UNL A   1      48.282  28.363  32.848  1.00  0.00     0.006 A 
ENDBRANCH  65  82
ENDBRANCH  39  40
ENDBRANCH  31  34
ENDBRANCH  29  30
ENDBRANCH  28  29
ENDBRANCH  27  28
ENDBRANCH   1  27
TORSDOF 16
ENDMDL
MODEL 3
REMARK VINA RESULT:     -11.8      4.564      9.069
REMARK SMILES Cc1cc(Cl)ccc1Oc1cc(C)c(N)c(C(=O)NCCCCCCNC(=O)c2ccc(-c3c4nc(c(-c5c(F)cccc5F)c5ccc([nH]5)c(-c5c(F)cccc5F)c5nc(c(-c6c(F)cccc6F)c6ccc3[nH]6)C=C5)C=C4)cc2)c1
REMARK SMILES IDX 22 1 21 2 20 3 19 4 17 5 18 6 16 8 10 9 11 10 83 11 12 12
REMARK SMILES IDX 13 13 14 14 9 15 8 16 1 17 2 18 3 19 4 20 7 21 5 22 6 23
REMARK SMILES IDX 15 24 23 27 24 28 25 29 26 30 27 31 28 33 29 34 30 35 82 36
REMARK SMILES IDX 31 37 81 38 32 39 33 40 34 41 75 42 35 43 80 44 74 45 76 46
REMARK SMILES IDX 36 47 79 48 73 49 72 50 37 52 63 53 46 54 62 55 47 56 50 57
REMARK SMILES IDX 61 58 77 59 48 60 49 61 60 63 78 64 51 65 38 66 39 67 44 68
REMARK SMILES IDX 40 69 41 70 43 71 45 72 42 73 64 74 65 75 70 76 66 77 67 78
REMARK SMILES IDX 69 79 71 80 68 81 52 82 53 83 58 84 54 85 55 86 57 87 59 88
REMARK SMILES IDX 56 89
REMARK H PARENT 19 7 15 25 15 26 26 32 76 51 50 62
REMARK Flexibility Score: inf
ROOT
ATOM      1  C   UNL A   1      36.390  22.040  25.725  1.00  0.00     0.002 C 
ENDROOT
BRANCH   1   2
ATOM      2  C   UNL A   1      35.202  22.672  26.468  1.00  0.00     0.021 C 
BRANCH   2   3
ATOM      3  C   UNL A   1      34.461  21.675  27.363  1.00  0.00     0.116 C 
BRANCH   3   4
ATOM      4  N   UNL A   1      33.139  22.184  27.669  1.00  0.00    -0.352 N 
ATOM      5  C   UNL A   1      32.152  22.825  26.965  1.00  0.00     0.253 C 
ATOM      6  O   UNL A   1      31.171  23.159  27.638  1.00  0.00    -0.269 OA
ATOM      7  H   UNL A   1      32.890  22.036  28.610  1.00  0.00     0.163 HD
BRANCH   5   8
ATOM      8  C   UNL A   1      32.166  23.072  25.480  1.00  0.00     0.066 A 
ATOM      9  C   UNL A   1      32.363  24.543  23.561  1.00  0.00     0.128 A 
ATOM     10  C   UNL A   1      32.416  23.462  22.694  1.00  0.00     0.052 A 
ATOM     11  C   UNL A   1      32.227  24.357  24.936  1.00  0.00     0.063 A 
ATOM     12  C   UNL A   1      32.212  22.170  23.190  1.00  0.00    -0.024 A 
ATOM     13  C   UNL A   1      32.052  21.036  22.211  1.00  0.00     0.047 C 
ATOM     14  C   UNL A   1      32.113  21.959  24.588  1.00  0.00     0.048 A 
BRANCH   9  15
ATOM     15  O   UNL A   1      32.543  25.813  23.098  1.00  0.00    -0.457 OA
BRANCH  15  16
ATOM     16  C   UNL A   1      32.423  26.906  23.930  1.00  0.00     0.130 A 
ATOM     17  C   UNL A   1      29.891  27.442  23.755  1.00  0.00     0.048 C 
ATOM     18  C   UNL A   1      31.288  27.671  24.261  1.00  0.00    -0.007 A 
ATOM     19  C   UNL A   1      31.460  28.779  25.121  1.00  0.00     0.027 A 
ATOM     20  C   UNL A   1      32.702  29.095  25.668  1.00  0.00     0.041 A 
ATOM     21  C   UNL A   1      33.668  27.237  24.501  1.00  0.00     0.049 A 
ATOM     22  Cl  UNL A   1      32.858  30.449  26.715  1.00  0.00    -0.084 Cl
ATOM     23  C   UNL A   1      33.810  28.319  25.369  1.00  0.00     0.024 A 
ENDBRANCH  15  16
ENDBRANCH   9  15
BRANCH  14  24
ATOM     24  N   UNL A   1      31.845  20.671  25.055  1.00  0.00    -0.398 N 
ATOM     25  H   UNL A   1      31.897  19.904  24.439  1.00  0.00     0.156 HD
ATOM     26  H   UNL A   1      31.605  20.530  25.999  1.00  0.00     0.156 HD
ENDBRANCH  14  24
ENDBRANCH   5   8
ENDBRANCH   3   4
ENDBRANCH   2   3
ENDBRANCH   1   2
BRANCH   1  27
ATOM     27  C   UNL A   1      36.106  20.662  25.112  1.00  0.00     0.002 C 
BRANCH  27  28
ATOM     28  C   UNL A   1      37.330  19.753  24.984  1.00  0.00     0.021 C 
BRANCH  28  29
ATOM     29  C   UNL A   1      38.633  20.399  25.442  1.00  0.00     0.116 C 
BRANCH  29  30
ATOM     30  N   UNL A   1      39.673  19.406  25.659  1.00  0.00    -0.352 N 
ATOM     31  C   UNL A   1      40.976  19.585  26.052  1.00  0.00     0.251 C 
ATOM     32  H   UNL A   1      39.405  18.472  25.501  1.00  0.00     0.163 HD
ATOM     33  O   UNL A   1      41.785  18.670  25.951  1.00  0.00    -0.269 OA
BRANCH  31  34
ATOM     34  C   UNL A   1      41.403  20.892  26.591  1.00  0.00     0.039 A 
ATOM     35  C   UNL A   1      41.969  21.830  25.724  1.00  0.00     0.014 A 
ATOM     36  C   UNL A   1      41.261  21.183  27.950  1.00  0.00     0.014 A 
ATOM     37  C   UNL A   1      42.344  23.082  26.212  1.00  0.00     0.010 A 
ATOM     38  C   UNL A   1      41.567  22.455  28.421  1.00  0.00     0.010 A 
ATOM     39  C   UNL A   1      42.119  23.414  27.559  1.00  0.00    -0.014 A 
BRANCH  39  40
ATOM     40  C   UNL A   1      42.450  24.762  28.081  1.00  0.00     0.031 A 
ATOM     41  C   UNL A   1      43.850  25.081  28.523  1.00  0.00     0.074 A 
ATOM     42  C   UNL A   1      41.471  25.675  28.225  1.00  0.00     0.049 A 
ATOM     43  N   UNL A   1      44.318  26.180  29.059  1.00  0.00    -0.248 NA
ATOM     44  C   UNL A   1      44.851  24.013  28.370  1.00  0.00     0.031 C 
ATOM     45  C   UNL A   1      40.062  25.464  27.888  1.00  0.00     0.029 A 
ATOM     46  N   UNL A   1      41.509  26.959  28.707  1.00  0.00    -0.354 N 
ATOM     47  C   UNL A   1      45.659  25.930  29.323  1.00  0.00     0.074 A 
ATOM     48  C   UNL A   1      45.917  24.559  28.937  1.00  0.00     0.031 C 
ATOM     49  C   UNL A   1      39.374  26.584  28.156  1.00  0.00     0.029 A 
ATOM     50  C   UNL A   1      40.284  27.579  28.717  1.00  0.00     0.049 A 
ATOM     51  H   UNL A   1      42.336  27.394  29.016  1.00  0.00     0.167 HD
ATOM     52  C   UNL A   1      46.594  26.772  29.822  1.00  0.00     0.037 A 
ATOM     53  C   UNL A   1      39.930  28.808  29.138  1.00  0.00     0.037 A 
ATOM     54  C   UNL A   1      46.336  28.142  30.183  1.00  0.00     0.049 A 
ATOM     55  C   UNL A   1      40.986  29.729  29.680  1.00  0.00     0.074 A 
ATOM     56  C   UNL A   1      47.230  29.102  30.621  1.00  0.00     0.029 A 
ATOM     57  N   UNL A   1      45.086  28.743  30.157  1.00  0.00    -0.354 N 
ATOM     58  N   UNL A   1      42.268  29.510  29.844  1.00  0.00    -0.248 NA
ATOM     59  C   UNL A   1      40.548  31.070  30.086  1.00  0.00     0.031 C 
ATOM     60  C   UNL A   1      46.513  30.268  30.910  1.00  0.00     0.029 A 
ATOM     61  C   UNL A   1      45.180  30.052  30.601  1.00  0.00     0.049 A 
ATOM     62  H   UNL A   1      44.254  28.304  29.865  1.00  0.00     0.167 HD
ATOM     63  C   UNL A   1      42.795  30.689  30.353  1.00  0.00     0.074 A 
ATOM     64  C   UNL A   1      41.694  31.626  30.455  1.00  0.00     0.031 C 
ATOM     65  C   UNL A   1      44.074  30.971  30.704  1.00  0.00     0.037 A 
BRANCH  52  66
ATOM     66  C   UNL A   1      47.981  26.229  30.016  1.00  0.00     0.057 A 
ATOM     67  C   UNL A   1      48.914  26.184  28.969  1.00  0.00     0.134 A 
ATOM     68  C   UNL A   1      48.395  25.757  31.268  1.00  0.00     0.134 A 
ATOM     69  F   UNL A   1      48.580  26.609  27.742  1.00  0.00    -0.206 F 
ATOM     70  C   UNL A   1      50.193  25.657  29.153  1.00  0.00     0.040 A 
ATOM     71  C   UNL A   1      49.682  25.257  31.471  1.00  0.00     0.040 A 
ATOM     72  F   UNL A   1      47.557  25.777  32.315  1.00  0.00    -0.206 F 
ATOM     73  C   UNL A   1      50.583  25.197  30.409  1.00  0.00     0.006 A 
ENDBRANCH  52  66
BRANCH  53  74
ATOM     74  C   UNL A   1      38.513  29.237  29.040  1.00  0.00     0.057 A 
ATOM     75  C   UNL A   1      37.668  29.199  30.154  1.00  0.00     0.134 A 
ATOM     76  C   UNL A   1      37.978  29.715  27.838  1.00  0.00     0.134 A 
ATOM     77  F   UNL A   1      38.120  28.735  31.329  1.00  0.00    -0.206 F 
ATOM     78  C   UNL A   1      36.338  29.614  30.077  1.00  0.00     0.040 A 
ATOM     79  C   UNL A   1      36.656  30.155  27.752  1.00  0.00     0.040 A 
ATOM     80  F   UNL A   1      38.740  29.786  26.737  1.00  0.00    -0.206 F 
ATOM     81  C   UNL A   1      35.831  30.101  28.873  1.00  0.00     0.006 A 
ENDBRANCH  53  74
BRANCH  65  82
ATOM     82  C   UNL A   1      44.356  32.355  31.212  1.00  0.00     0.057 A 
ATOM     83  C   UNL A   1      44.660  33.412  30.344  1.00  0.00     0.134 A 
ATOM     84  C   UNL A   1      44.284  32.642  32.581  1.00  0.00     0.134 A 
ATOM     85  F   UNL A   1      44.758  33.202  29.022  1.00  0.00    -0.206 F 
ATOM     86  C   UNL A   1      44.904  34.701  30.822  1.00  0.00     0.040 A 
ATOM     87  C   UNL A   1      44.499  33.931  33.068  1.00  0.00     0.040 A 
ATOM     88  F   UNL A   1      43.989  31.677  33.464  1.00  0.00    -0.206 F 
ATOM     89  C   UNL A   1      44.817  34.964  32.189  1.00  0.00     0.006 A 
ENDBRANCH  65  82
ENDBRANCH  39  40
ENDBRANCH  31  34
ENDBRANCH  29  30
ENDBRANCH  28  29
ENDBRANCH  27  28
ENDBRANCH   1  27
TORSDOF 16
ENDMDL
