MODEL 1
REMARK VINA RESULT:     -11.7      0.000      0.000
REMARK SMILES O=C(COc1nc(NCc2ccc(F)cc2)nc2c1CCC2)NCCCCCCNC(=O)c1ccc(-c2c3nc(c(-c4c(F)cccc4F)c4ccc([nH]4)c(-c4c(F)cccc4F)c4nc(c(-c5c(F)cccc5F)c5ccc2[nH]5)C=C4)C=C3)cc1
REMARK SMILES IDX 25 1 24 2 23 3 1 4 2 5 3 7 4 8 5 9 6 10 19 11 7 12 18 13
REMARK SMILES IDX 20 14 17 15 22 16 21 17 8 18 9 20 10 21 11 22 16 23 12 24
REMARK SMILES IDX 15 25 13 26 14 27 26 28 27 29 28 30 29 31 30 32 31 33 32 35
REMARK SMILES IDX 33 36 34 37 86 38 35 39 85 40 36 41 37 42 38 43 79 44 39 45
REMARK SMILES IDX 84 46 78 47 80 48 40 49 83 50 77 51 76 52 41 54 67 55 50 56
REMARK SMILES IDX 66 57 51 58 54 59 65 60 81 61 52 62 53 63 64 65 82 66 55 67
REMARK SMILES IDX 42 68 43 69 48 70 44 71 45 72 47 73 49 74 46 75 68 76 69 77
REMARK SMILES IDX 74 78 70 79 71 80 73 81 75 82 72 83 56 84 57 85 62 86 58 87
REMARK SMILES IDX 59 88 61 89 63 90 60 91
REMARK H PARENT 23 6 8 19 30 34 80 53 54 64
REMARK Flexibility Score: inf
ROOT
ATOM      1  C   UNL A   1      33.861  25.791  23.382  1.00  0.00     0.021 C 
ENDROOT
BRANCH   1   2
ATOM      2  C   UNL A   1      34.186  24.386  22.878  1.00  0.00     0.116 C 
BRANCH   2   3
ATOM      3  N   UNL A   1      34.634  23.516  23.941  1.00  0.00    -0.353 N 
ATOM      4  O   UNL A   1      36.555  22.813  22.894  1.00  0.00    -0.271 OA
ATOM      5  C   UNL A   1      35.819  22.816  23.878  1.00  0.00     0.258 C 
ATOM      6  H   UNL A   1      34.071  23.420  24.742  1.00  0.00     0.163 HD
BRANCH   5   7
ATOM      7  C   UNL A   1      36.101  21.938  25.102  1.00  0.00     0.331 C 
BRANCH   7   8
ATOM      8  O   UNL A   1      35.989  20.528  24.942  1.00  0.00    -0.467 OA
BRANCH   8   9
ATOM      9  C   UNL A   1      34.672  20.140  24.999  1.00  0.00     0.222 A 
ATOM     10  N   UNL A   1      33.759  21.061  25.351  1.00  0.00    -0.177 NA
ATOM     11  C   UNL A   1      34.337  18.876  24.627  1.00  0.00     0.036 A 
ATOM     12  C   UNL A   1      32.469  20.678  25.363  1.00  0.00     0.226 A 
ATOM     13  C   UNL A   1      33.000  18.579  24.683  1.00  0.00     0.053 A 
ATOM     14  C   UNL A   1      35.155  17.698  24.248  1.00  0.00     0.043 C 
ATOM     15  N   UNL A   1      32.047  19.444  25.043  1.00  0.00    -0.218 NA
ATOM     16  C   UNL A   1      32.756  17.133  24.362  1.00  0.00     0.057 C 
ATOM     17  C   UNL A   1      34.077  16.766  23.668  1.00  0.00     0.011 C 
BRANCH  12  18
ATOM     18  N   UNL A   1      31.572  21.629  25.752  1.00  0.00    -0.350 N 
ATOM     19  H   UNL A   1      30.612  21.439  25.651  1.00  0.00     0.164 HD
BRANCH  18  20
ATOM     20  C   UNL A   1      31.966  22.896  26.305  1.00  0.00     0.152 C 
BRANCH  20  21
ATOM     21  C   UNL A   1      31.385  24.049  25.511  1.00  0.00    -0.029 A 
ATOM     22  C   UNL A   1      30.876  23.820  24.221  1.00  0.00     0.008 A 
ATOM     23  C   UNL A   1      31.258  25.332  26.070  1.00  0.00     0.008 A 
ATOM     24  C   UNL A   1      30.278  24.857  23.502  1.00  0.00     0.039 A 
ATOM     25  C   UNL A   1      30.664  26.367  25.347  1.00  0.00     0.039 A 
ATOM     26  C   UNL A   1      30.180  26.120  24.070  1.00  0.00     0.123 A 
ATOM     27  F   UNL A   1      29.599  27.111  23.381  1.00  0.00    -0.207 F 
ENDBRANCH  20  21
ENDBRANCH  18  20
ENDBRANCH  12  18
ENDBRANCH   8   9
ENDBRANCH   7   8
ENDBRANCH   5   7
ENDBRANCH   2   3
ENDBRANCH   1   2
BRANCH   1  28
ATOM     28  C   UNL A   1      33.455  26.787  22.287  1.00  0.00     0.002 C 
BRANCH  28  29
ATOM     29  C   UNL A   1      33.726  28.262  22.599  1.00  0.00     0.002 C 
BRANCH  29  30
ATOM     30  C   UNL A   1      32.726  28.928  23.547  1.00  0.00     0.021 C 
BRANCH  30  31
ATOM     31  C   UNL A   1      33.293  29.322  24.907  1.00  0.00     0.116 C 
BRANCH  31  32
ATOM     32  N   UNL A   1      32.567  30.429  25.511  1.00  0.00    -0.352 N 
ATOM     33  C   UNL A   1      32.800  31.084  26.691  1.00  0.00     0.251 C 
ATOM     34  H   UNL A   1      31.794  30.755  24.995  1.00  0.00     0.163 HD
ATOM     35  O   UNL A   1      31.973  31.888  27.126  1.00  0.00    -0.269 OA
BRANCH  33  36
ATOM     36  C   UNL A   1      34.036  30.821  27.459  1.00  0.00     0.039 A 
ATOM     37  C   UNL A   1      34.926  31.874  27.692  1.00  0.00     0.014 A 
ATOM     38  C   UNL A   1      34.332  29.536  27.923  1.00  0.00     0.014 A 
ATOM     39  C   UNL A   1      36.088  31.649  28.432  1.00  0.00     0.010 A 
ATOM     40  C   UNL A   1      35.454  29.328  28.719  1.00  0.00     0.010 A 
ATOM     41  C   UNL A   1      36.349  30.380  28.970  1.00  0.00    -0.014 A 
BRANCH  41  42
ATOM     42  C   UNL A   1      37.576  30.110  29.757  1.00  0.00     0.031 A 
ATOM     43  C   UNL A   1      38.659  29.245  29.176  1.00  0.00     0.074 A 
ATOM     44  C   UNL A   1      37.699  30.596  31.006  1.00  0.00     0.049 A 
ATOM     45  N   UNL A   1      39.765  28.817  29.729  1.00  0.00    -0.248 NA
ATOM     46  C   UNL A   1      38.458  28.784  27.794  1.00  0.00     0.031 C 
ATOM     47  C   UNL A   1      36.716  31.440  31.684  1.00  0.00     0.029 A 
ATOM     48  N   UNL A   1      38.705  30.445  31.926  1.00  0.00    -0.354 N 
ATOM     49  C   UNL A   1      40.386  28.034  28.766  1.00  0.00     0.074 A 
ATOM     50  C   UNL A   1      39.506  27.993  27.618  1.00  0.00     0.031 C 
ATOM     51  C   UNL A   1      37.182  31.757  32.903  1.00  0.00     0.029 A 
ATOM     52  C   UNL A   1      38.471  31.104  33.108  1.00  0.00     0.049 A 
ATOM     53  H   UNL A   1      39.516  29.913  31.756  1.00  0.00     0.167 HD
ATOM     54  C   UNL A   1      41.596  27.426  28.819  1.00  0.00     0.037 A 
ATOM     55  C   UNL A   1      39.213  31.171  34.229  1.00  0.00     0.037 A 
ATOM     56  C   UNL A   1      42.472  27.468  29.960  1.00  0.00     0.049 A 
ATOM     57  C   UNL A   1      40.522  30.437  34.292  1.00  0.00     0.074 A 
ATOM     58  C   UNL A   1      43.725  26.900  30.108  1.00  0.00     0.029 A 
ATOM     59  N   UNL A   1      42.183  28.115  31.153  1.00  0.00    -0.354 N 
ATOM     60  N   UNL A   1      41.111  29.715  33.370  1.00  0.00    -0.248 NA
ATOM     61  C   UNL A   1      41.267  30.522  35.557  1.00  0.00     0.031 C 
ATOM     62  C   UNL A   1      44.174  27.167  31.406  1.00  0.00     0.029 A 
ATOM     63  C   UNL A   1      43.224  27.943  32.051  1.00  0.00     0.049 A 
ATOM     64  H   UNL A   1      41.359  28.624  31.334  1.00  0.00     0.167 HD
ATOM     65  C   UNL A   1      42.302  29.273  33.932  1.00  0.00     0.074 A 
ATOM     66  C   UNL A   1      42.358  29.823  35.272  1.00  0.00     0.031 C 
ATOM     67  C   UNL A   1      43.260  28.483  33.388  1.00  0.00     0.037 A 
BRANCH  54  68
ATOM     68  C   UNL A   1      42.029  26.663  27.600  1.00  0.00     0.057 A 
ATOM     69  C   UNL A   1      42.675  27.294  26.528  1.00  0.00     0.134 A 
ATOM     70  C   UNL A   1      41.795  25.286  27.491  1.00  0.00     0.134 A 
ATOM     71  F   UNL A   1      42.916  28.614  26.561  1.00  0.00    -0.206 F 
ATOM     72  C   UNL A   1      43.039  26.593  25.378  1.00  0.00     0.040 A 
ATOM     73  C   UNL A   1      42.183  24.568  26.358  1.00  0.00     0.040 A 
ATOM     74  F   UNL A   1      41.186  24.617  28.481  1.00  0.00    -0.206 F 
ATOM     75  C   UNL A   1      42.797  25.223  25.293  1.00  0.00     0.006 A 
ENDBRANCH  54  68
BRANCH  55  76
ATOM     76  C   UNL A   1      38.744  32.003  35.364  1.00  0.00     0.057 A 
ATOM     77  C   UNL A   1      38.151  31.411  36.484  1.00  0.00     0.134 A 
ATOM     78  C   UNL A   1      38.917  33.391  35.382  1.00  0.00     0.134 A 
ATOM     79  F   UNL A   1      37.941  30.087  36.516  1.00  0.00    -0.206 F 
ATOM     80  C   UNL A   1      37.752  32.168  37.586  1.00  0.00     0.040 A 
ATOM     81  C   UNL A   1      38.542  34.160  36.485  1.00  0.00     0.040 A 
ATOM     82  F   UNL A   1      39.484  34.017  34.339  1.00  0.00    -0.206 F 
ATOM     83  C   UNL A   1      37.957  33.547  37.592  1.00  0.00     0.006 A 
ENDBRANCH  55  76
BRANCH  67  84
ATOM     84  C   UNL A   1      44.456  28.165  34.239  1.00  0.00     0.057 A 
ATOM     85  C   UNL A   1      45.570  29.012  34.288  1.00  0.00     0.134 A 
ATOM     86  C   UNL A   1      44.472  27.027  35.056  1.00  0.00     0.134 A 
ATOM     87  F   UNL A   1      45.622  30.112  33.522  1.00  0.00    -0.206 F 
ATOM     88  C   UNL A   1      46.666  28.730  35.106  1.00  0.00     0.040 A 
ATOM     89  C   UNL A   1      45.550  26.749  35.899  1.00  0.00     0.040 A 
ATOM     90  F   UNL A   1      43.433  26.179  35.064  1.00  0.00    -0.206 F 
ATOM     91  C   UNL A   1      46.653  27.599  35.920  1.00  0.00     0.006 A 
ENDBRANCH  67  84
ENDBRANCH  41  42
ENDBRANCH  33  36
ENDBRANCH  31  32
ENDBRANCH  30  31
ENDBRANCH  29  30
ENDBRANCH  28  29
ENDBRANCH   1  28
TORSDOF 18
ENDMDL
MODEL 2
REMARK VINA RESULT:     -11.7      2.387      6.975
REMARK SMILES O=C(COc1nc(NCc2ccc(F)cc2)nc2c1CCC2)NCCCCCCNC(=O)c1ccc(-c2c3nc(c(-c4c(F)cccc4F)c4ccc([nH]4)c(-c4c(F)cccc4F)c4nc(c(-c5c(F)cccc5F)c5ccc2[nH]5)C=C4)C=C3)cc1
REMARK SMILES IDX 25 1 24 2 23 3 1 4 2 5 3 7 4 8 5 9 6 10 19 11 7 12 18 13
REMARK SMILES IDX 20 14 17 15 22 16 21 17 8 18 9 20 10 21 11 22 16 23 12 24
REMARK SMILES IDX 15 25 13 26 14 27 26 28 27 29 28 30 29 31 30 32 31 33 32 35
REMARK SMILES IDX 33 36 34 37 86 38 35 39 85 40 36 41 37 42 38 43 79 44 39 45
REMARK SMILES IDX 84 46 78 47 80 48 40 49 83 50 77 51 76 52 41 54 67 55 50 56
REMARK SMILES IDX 66 57 51 58 54 59 65 60 81 61 52 62 53 63 64 65 82 66 55 67
REMARK SMILES IDX 42 68 43 69 48 70 44 71 45 72 47 73 49 74 46 75 68 76 69 77
REMARK SMILES IDX 74 78 70 79 71 80 73 81 75 82 72 83 56 84 57 85 62 86 58 87
REMARK SMILES IDX 59 88 61 89 63 90 60 91
REMARK H PARENT 23 6 8 19 30 34 80 53 54 64
REMARK Flexibility Score: inf
ROOT
ATOM      1  C   UNL A   1      31.399  26.377  26.443  1.00  0.00     0.021 C 
ENDROOT
BRANCH   1   2
ATOM      2  C   UNL A   1      30.201  25.493  26.104  1.00  0.00     0.116 C 
BRANCH   2   3
ATOM      3  N   UNL A   1      30.602  24.226  25.536  1.00  0.00    -0.353 N 
ATOM      4  O   UNL A   1      30.980  23.164  27.539  1.00  0.00    -0.271 OA
ATOM      5  C   UNL A   1      30.931  23.136  26.311  1.00  0.00     0.258 C 
ATOM      6  H   UNL A   1      30.643  24.139  24.556  1.00  0.00     0.163 HD
BRANCH   5   7
ATOM      7  C   UNL A   1      31.345  21.894  25.513  1.00  0.00     0.331 C 
BRANCH   7   8
ATOM      8  O   UNL A   1      32.732  21.581  25.452  1.00  0.00    -0.467 OA
BRANCH   8   9
ATOM      9  C   UNL A   1      33.340  22.281  24.437  1.00  0.00     0.222 A 
ATOM     10  N   UNL A   1      32.566  23.047  23.650  1.00  0.00    -0.177 NA
ATOM     11  C   UNL A   1      34.693  22.233  24.317  1.00  0.00     0.036 A 
ATOM     12  C   UNL A   1      33.180  23.758  22.686  1.00  0.00     0.226 A 
ATOM     13  C   UNL A   1      35.222  22.982  23.299  1.00  0.00     0.053 A 
ATOM     14  C   UNL A   1      35.730  21.445  25.028  1.00  0.00     0.043 C 
ATOM     15  N   UNL A   1      34.505  23.748  22.471  1.00  0.00    -0.218 NA
ATOM     16  C   UNL A   1      36.704  22.769  23.187  1.00  0.00     0.057 C 
ATOM     17  C   UNL A   1      37.011  22.160  24.564  1.00  0.00     0.011 C 
BRANCH  12  18
ATOM     18  N   UNL A   1      32.361  24.502  21.888  1.00  0.00    -0.350 N 
ATOM     19  H   UNL A   1      31.462  24.157  21.685  1.00  0.00     0.164 HD
BRANCH  18  20
ATOM     20  C   UNL A   1      32.752  25.767  21.329  1.00  0.00     0.152 C 
BRANCH  20  21
ATOM     21  C   UNL A   1      32.180  26.922  22.127  1.00  0.00    -0.029 A 
ATOM     22  C   UNL A   1      30.819  26.923  22.476  1.00  0.00     0.008 A 
ATOM     23  C   UNL A   1      33.003  27.955  22.610  1.00  0.00     0.008 A 
ATOM     24  C   UNL A   1      30.291  27.945  23.267  1.00  0.00     0.039 A 
ATOM     25  C   UNL A   1      32.471  28.978  23.397  1.00  0.00     0.039 A 
ATOM     26  C   UNL A   1      31.121  28.964  23.717  1.00  0.00     0.123 A 
ATOM     27  F   UNL A   1      30.613  29.940  24.482  1.00  0.00    -0.207 F 
ENDBRANCH  20  21
ENDBRANCH  18  20
ENDBRANCH  12  18
ENDBRANCH   8   9
ENDBRANCH   7   8
ENDBRANCH   5   7
ENDBRANCH   2   3
ENDBRANCH   1   2
BRANCH   1  28
ATOM     28  C   UNL A   1      31.038  27.743  27.042  1.00  0.00     0.002 C 
BRANCH  28  29
ATOM     29  C   UNL A   1      32.220  28.584  27.536  1.00  0.00     0.002 C 
BRANCH  29  30
ATOM     30  C   UNL A   1      33.575  28.242  26.914  1.00  0.00     0.021 C 
BRANCH  30  31
ATOM     31  C   UNL A   1      34.321  29.424  26.306  1.00  0.00     0.116 C 
BRANCH  31  32
ATOM     32  N   UNL A   1      34.048  30.671  27.003  1.00  0.00    -0.352 N 
ATOM     33  C   UNL A   1      34.692  31.231  28.075  1.00  0.00     0.251 C 
ATOM     34  H   UNL A   1      33.288  31.190  26.651  1.00  0.00     0.163 HD
ATOM     35  O   UNL A   1      34.210  32.213  28.641  1.00  0.00    -0.269 OA
BRANCH  33  36
ATOM     36  C   UNL A   1      35.959  30.652  28.569  1.00  0.00     0.039 A 
ATOM     37  C   UNL A   1      35.916  29.701  29.593  1.00  0.00     0.014 A 
ATOM     38  C   UNL A   1      37.188  31.065  28.046  1.00  0.00     0.014 A 
ATOM     39  C   UNL A   1      37.101  29.128  30.059  1.00  0.00     0.010 A 
ATOM     40  C   UNL A   1      38.362  30.443  28.461  1.00  0.00     0.010 A 
ATOM     41  C   UNL A   1      38.330  29.479  29.480  1.00  0.00    -0.014 A 
BRANCH  41  42
ATOM     42  C   UNL A   1      39.606  28.890  29.956  1.00  0.00     0.031 A 
ATOM     43  C   UNL A   1      40.290  29.471  31.160  1.00  0.00     0.074 A 
ATOM     44  C   UNL A   1      40.172  27.872  29.283  1.00  0.00     0.049 A 
ATOM     45  N   UNL A   1      41.450  29.163  31.684  1.00  0.00    -0.248 NA
ATOM     46  C   UNL A   1      39.585  30.559  31.855  1.00  0.00     0.031 C 
ATOM     47  C   UNL A   1      39.611  27.227  28.097  1.00  0.00     0.029 A 
ATOM     48  N   UNL A   1      41.350  27.205  29.503  1.00  0.00    -0.354 N 
ATOM     49  C   UNL A   1      41.613  30.021  32.763  1.00  0.00     0.074 A 
ATOM     50  C   UNL A   1      40.467  30.903  32.781  1.00  0.00     0.031 C 
ATOM     51  C   UNL A   1      40.431  26.237  27.710  1.00  0.00     0.029 A 
ATOM     52  C   UNL A   1      41.593  26.206  28.593  1.00  0.00     0.049 A 
ATOM     53  H   UNL A   1      41.964  27.422  30.242  1.00  0.00     0.167 HD
ATOM     54  C   UNL A   1      42.613  30.053  33.676  1.00  0.00     0.037 A 
ATOM     55  C   UNL A   1      42.638  25.364  28.482  1.00  0.00     0.037 A 
ATOM     56  C   UNL A   1      43.752  29.173  33.659  1.00  0.00     0.049 A 
ATOM     57  C   UNL A   1      43.769  25.458  29.467  1.00  0.00     0.074 A 
ATOM     58  C   UNL A   1      44.810  29.113  34.549  1.00  0.00     0.029 A 
ATOM     59  N   UNL A   1      43.982  28.199  32.698  1.00  0.00    -0.354 N 
ATOM     60  N   UNL A   1      43.905  26.259  30.495  1.00  0.00    -0.248 NA
ATOM     61  C   UNL A   1      44.894  24.533  29.270  1.00  0.00     0.031 C 
ATOM     62  C   UNL A   1      45.702  28.132  34.100  1.00  0.00     0.029 A 
ATOM     63  C   UNL A   1      45.175  27.546  32.959  1.00  0.00     0.049 A 
ATOM     64  H   UNL A   1      43.383  27.999  31.943  1.00  0.00     0.167 HD
ATOM     65  C   UNL A   1      45.121  25.927  31.080  1.00  0.00     0.074 A 
ATOM     66  C   UNL A   1      45.674  24.839  30.299  1.00  0.00     0.031 C 
ATOM     67  C   UNL A   1      45.723  26.475  32.164  1.00  0.00     0.037 A 
BRANCH  54  68
ATOM     68  C   UNL A   1      42.508  31.081  34.766  1.00  0.00     0.057 A 
ATOM     69  C   UNL A   1      41.890  30.795  35.991  1.00  0.00     0.134 A 
ATOM     70  C   UNL A   1      43.022  32.372  34.591  1.00  0.00     0.134 A 
ATOM     71  F   UNL A   1      41.361  29.582  36.219  1.00  0.00    -0.206 F 
ATOM     72  C   UNL A   1      41.754  31.763  36.987  1.00  0.00     0.040 A 
ATOM     73  C   UNL A   1      42.921  33.340  35.592  1.00  0.00     0.040 A 
ATOM     74  F   UNL A   1      43.631  32.714  33.445  1.00  0.00    -0.206 F 
ATOM     75  C   UNL A   1      42.275  33.040  36.790  1.00  0.00     0.006 A 
ENDBRANCH  54  68
BRANCH  55  76
ATOM     76  C   UNL A   1      42.631  24.332  27.417  1.00  0.00     0.057 A 
ATOM     77  C   UNL A   1      43.167  24.607  26.154  1.00  0.00     0.134 A 
ATOM     78  C   UNL A   1      42.140  23.041  27.643  1.00  0.00     0.134 A 
ATOM     79  F   UNL A   1      43.635  25.832  25.872  1.00  0.00    -0.206 F 
ATOM     80  C   UNL A   1      43.221  23.635  25.155  1.00  0.00     0.040 A 
ATOM     81  C   UNL A   1      42.205  22.052  26.660  1.00  0.00     0.040 A 
ATOM     82  F   UNL A   1      41.618  22.714  28.835  1.00  0.00    -0.206 F 
ATOM     83  C   UNL A   1      42.748  22.349  25.411  1.00  0.00     0.006 A 
ENDBRANCH  55  76
BRANCH  67  84
ATOM     84  C   UNL A   1      47.051  25.906  32.575  1.00  0.00     0.057 A 
ATOM     85  C   UNL A   1      48.250  26.356  32.009  1.00  0.00     0.134 A 
ATOM     86  C   UNL A   1      47.134  24.937  33.583  1.00  0.00     0.134 A 
ATOM     87  F   UNL A   1      48.239  27.274  31.031  1.00  0.00    -0.206 F 
ATOM     88  C   UNL A   1      49.485  25.847  32.418  1.00  0.00     0.040 A 
ATOM     89  C   UNL A   1      48.365  24.442  34.020  1.00  0.00     0.040 A 
ATOM     90  F   UNL A   1      46.024  24.470  34.174  1.00  0.00    -0.206 F 
ATOM     91  C   UNL A   1      49.544  24.893  33.432  1.00  0.00     0.006 A 
ENDBRANCH  67  84
ENDBRANCH  41  42
ENDBRANCH  33  36
ENDBRANCH  31  32
ENDBRANCH  30  31
ENDBRANCH  29  30
ENDBRANCH  28  29
ENDBRANCH   1  28
TORSDOF 18
ENDMDL
MODEL 3
REMARK VINA RESULT:     -11.6      2.937      6.687
REMARK SMILES O=C(COc1nc(NCc2ccc(F)cc2)nc2c1CCC2)NCCCCCCNC(=O)c1ccc(-c2c3nc(c(-c4c(F)cccc4F)c4ccc([nH]4)c(-c4c(F)cccc4F)c4nc(c(-c5c(F)cccc5F)c5ccc2[nH]5)C=C4)C=C3)cc1
REMARK SMILES IDX 25 1 24 2 23 3 1 4 2 5 3 7 4 8 5 9 6 10 19 11 7 12 18 13
REMARK SMILES IDX 20 14 17 15 22 16 21 17 8 18 9 20 10 21 11 22 16 23 12 24
REMARK SMILES IDX 15 25 13 26 14 27 26 28 27 29 28 30 29 31 30 32 31 33 32 35
REMARK SMILES IDX 33 36 34 37 86 38 35 39 85 40 36 41 37 42 38 43 79 44 39 45
REMARK SMILES IDX 84 46 78 47 80 48 40 49 83 50 77 51 76 52 41 54 67 55 50 56
REMARK SMILES IDX 66 57 51 58 54 59 65 60 81 61 52 62 53 63 64 65 82 66 55 67
REMARK SMILES IDX 42 68 43 69 48 70 44 71 45 72 47 73 49 74 46 75 68 76 69 77
REMARK SMILES IDX 74 78 70 79 71 80 73 81 75 82 72 83 56 84 57 85 62 86 58 87
REMARK SMILES IDX 59 88 61 89 63 90 60 91
REMARK H PARENT 23 6 8 19 30 34 80 53 54 64
REMARK Flexibility Score: inf
ROOT
ATOM      1  C   UNL A   1      33.975  25.760  22.934  1.00  0.00     0.021 C 
ENDROOT
BRANCH   1   2
ATOM      2  C   UNL A   1      33.986  24.268  22.609  1.00  0.00     0.116 C 
BRANCH   2   3
ATOM      3  N   UNL A   1      34.460  23.473  23.718  1.00  0.00    -0.353 N 
ATOM      4  O   UNL A   1      36.430  22.819  22.732  1.00  0.00    -0.271 OA
ATOM      5  C   UNL A   1      35.678  22.831  23.705  1.00  0.00     0.258 C 
ATOM      6  H   UNL A   1      33.889  23.386  24.515  1.00  0.00     0.163 HD
BRANCH   5   7
ATOM      7  C   UNL A   1      35.984  22.026  24.973  1.00  0.00     0.331 C 
BRANCH   7   8
ATOM      8  O   UNL A   1      35.929  20.607  24.883  1.00  0.00    -0.467 OA
BRANCH   8   9
ATOM      9  C   UNL A   1      34.628  20.169  24.967  1.00  0.00     0.222 A 
ATOM     10  N   UNL A   1      33.685  21.063  25.308  1.00  0.00    -0.177 NA
ATOM     11  C   UNL A   1      34.339  18.884  24.631  1.00  0.00     0.036 A 
ATOM     12  C   UNL A   1      32.411  20.630  25.346  1.00  0.00     0.226 A 
ATOM     13  C   UNL A   1      33.015  18.537  24.712  1.00  0.00     0.053 A 
ATOM     14  C   UNL A   1      35.198  17.730  24.270  1.00  0.00     0.043 C 
ATOM     15  N   UNL A   1      32.034  19.373  25.063  1.00  0.00    -0.218 NA
ATOM     16  C   UNL A   1      32.824  17.075  24.430  1.00  0.00     0.057 C 
ATOM     17  C   UNL A   1      34.151  16.742  23.729  1.00  0.00     0.011 C 
BRANCH  12  18
ATOM     18  N   UNL A   1      31.482  21.556  25.724  1.00  0.00    -0.350 N 
ATOM     19  H   UNL A   1      30.529  21.324  25.643  1.00  0.00     0.164 HD
BRANCH  18  20
ATOM     20  C   UNL A   1      31.833  22.852  26.235  1.00  0.00     0.152 C 
BRANCH  20  21
ATOM     21  C   UNL A   1      31.144  23.956  25.456  1.00  0.00    -0.029 A 
ATOM     22  C   UNL A   1      30.934  23.808  24.074  1.00  0.00     0.008 A 
ATOM     23  C   UNL A   1      30.624  25.091  26.102  1.00  0.00     0.008 A 
ATOM     24  C   UNL A   1      30.242  24.785  23.355  1.00  0.00     0.039 A 
ATOM     25  C   UNL A   1      29.937  26.068  25.379  1.00  0.00     0.039 A 
ATOM     26  C   UNL A   1      29.753  25.906  24.013  1.00  0.00     0.123 A 
ATOM     27  F   UNL A   1      29.084  26.838  23.321  1.00  0.00    -0.207 F 
ENDBRANCH  20  21
ENDBRANCH  18  20
ENDBRANCH  12  18
ENDBRANCH   8   9
ENDBRANCH   7   8
ENDBRANCH   5   7
ENDBRANCH   2   3
ENDBRANCH   1   2
BRANCH   1  28
ATOM     28  C   UNL A   1      33.902  26.090  24.430  1.00  0.00     0.002 C 
BRANCH  28  29
ATOM     29  C   UNL A   1      33.727  27.573  24.775  1.00  0.00     0.002 C 
BRANCH  29  30
ATOM     30  C   UNL A   1      33.023  27.859  26.103  1.00  0.00     0.021 C 
BRANCH  30  31
ATOM     31  C   UNL A   1      33.942  28.297  27.238  1.00  0.00     0.116 C 
BRANCH  31  32
ATOM     32  N   UNL A   1      33.802  29.711  27.551  1.00  0.00    -0.352 N 
ATOM     33  C   UNL A   1      34.693  30.565  28.148  1.00  0.00     0.251 C 
ATOM     34  H   UNL A   1      32.941  30.115  27.296  1.00  0.00     0.163 HD
ATOM     35  O   UNL A   1      34.334  31.692  28.490  1.00  0.00    -0.269 OA
BRANCH  33  36
ATOM     36  C   UNL A   1      36.084  30.134  28.400  1.00  0.00     0.039 A 
ATOM     37  C   UNL A   1      36.422  29.638  29.663  1.00  0.00     0.014 A 
ATOM     38  C   UNL A   1      37.060  30.244  27.406  1.00  0.00     0.014 A 
ATOM     39  C   UNL A   1      37.726  29.207  29.914  1.00  0.00     0.010 A 
ATOM     40  C   UNL A   1      38.341  29.750  27.634  1.00  0.00     0.010 A 
ATOM     41  C   UNL A   1      38.689  29.240  28.894  1.00  0.00    -0.014 A 
BRANCH  41  42
ATOM     42  C   UNL A   1      40.083  28.792  29.131  1.00  0.00     0.031 A 
ATOM     43  C   UNL A   1      41.050  29.707  29.827  1.00  0.00     0.074 A 
ATOM     44  C   UNL A   1      40.493  27.592  28.682  1.00  0.00     0.049 A 
ATOM     45  N   UNL A   1      42.330  29.545  30.052  1.00  0.00    -0.248 NA
ATOM     46  C   UNL A   1      40.510  30.985  30.314  1.00  0.00     0.031 C 
ATOM     47  C   UNL A   1      39.652  26.618  27.987  1.00  0.00     0.029 A 
ATOM     48  N   UNL A   1      41.724  26.991  28.743  1.00  0.00    -0.354 N 
ATOM     49  C   UNL A   1      42.745  30.700  30.701  1.00  0.00     0.074 A 
ATOM     50  C   UNL A   1      41.600  31.580  30.776  1.00  0.00     0.031 C 
ATOM     51  C   UNL A   1      40.386  25.527  27.712  1.00  0.00     0.029 A 
ATOM     52  C   UNL A   1      41.755  25.743  28.171  1.00  0.00     0.049 A 
ATOM     53  H   UNL A   1      42.511  27.414  29.157  1.00  0.00     0.167 HD
ATOM     54  C   UNL A   1      43.964  30.990  31.216  1.00  0.00     0.037 A 
ATOM     55  C   UNL A   1      42.774  24.875  28.029  1.00  0.00     0.037 A 
ATOM     56  C   UNL A   1      45.102  30.113  31.143  1.00  0.00     0.049 A 
ATOM     57  C   UNL A   1      44.135  25.243  28.550  1.00  0.00     0.074 A 
ATOM     58  C   UNL A   1      46.376  30.307  31.648  1.00  0.00     0.029 A 
ATOM     59  N   UNL A   1      45.104  28.873  30.521  1.00  0.00    -0.354 N 
ATOM     60  N   UNL A   1      44.513  26.328  29.180  1.00  0.00    -0.248 NA
ATOM     61  C   UNL A   1      45.211  24.265  28.334  1.00  0.00     0.031 C 
ATOM     62  C   UNL A   1      47.159  29.204  31.292  1.00  0.00     0.029 A 
ATOM     63  C   UNL A   1      46.362  28.299  30.609  1.00  0.00     0.049 A 
ATOM     64  H   UNL A   1      44.325  28.460  30.082  1.00  0.00     0.167 HD
ATOM     65  C   UNL A   1      45.866  26.161  29.451  1.00  0.00     0.074 A 
ATOM     66  C   UNL A   1      46.236  24.860  28.931  1.00  0.00     0.031 C 
ATOM     67  C   UNL A   1      46.721  27.009  30.073  1.00  0.00     0.037 A 
BRANCH  54  68
ATOM     68  C   UNL A   1      44.115  32.319  31.900  1.00  0.00     0.057 A 
ATOM     69  C   UNL A   1      43.865  32.474  33.270  1.00  0.00     0.134 A 
ATOM     70  C   UNL A   1      44.508  33.457  31.184  1.00  0.00     0.134 A 
ATOM     71  F   UNL A   1      43.470  31.428  34.012  1.00  0.00    -0.206 F 
ATOM     72  C   UNL A   1      43.965  33.717  33.897  1.00  0.00     0.040 A 
ATOM     73  C   UNL A   1      44.641  34.700  31.806  1.00  0.00     0.040 A 
ATOM     74  F   UNL A   1      44.768  33.381  29.870  1.00  0.00    -0.206 F 
ATOM     75  C   UNL A   1      44.359  34.835  33.164  1.00  0.00     0.006 A 
ENDBRANCH  54  68
BRANCH  55  76
ATOM     76  C   UNL A   1      42.523  23.554  27.402  1.00  0.00     0.057 A 
ATOM     77  C   UNL A   1      42.636  23.390  26.017  1.00  0.00     0.134 A 
ATOM     78  C   UNL A   1      42.216  22.422  28.165  1.00  0.00     0.134 A 
ATOM     79  F   UNL A   1      42.909  24.444  25.233  1.00  0.00    -0.206 F 
ATOM     80  C   UNL A   1      42.458  22.146  25.412  1.00  0.00     0.040 A 
ATOM     81  C   UNL A   1      42.055  21.166  27.575  1.00  0.00     0.040 A 
ATOM     82  F   UNL A   1      42.099  22.513  29.498  1.00  0.00    -0.206 F 
ATOM     83  C   UNL A   1      42.177  21.027  26.193  1.00  0.00     0.006 A 
ENDBRANCH  55  76
BRANCH  67  84
ATOM     84  C   UNL A   1      48.145  26.558  30.230  1.00  0.00     0.057 A 
ATOM     85  C   UNL A   1      48.558  25.796  31.329  1.00  0.00     0.134 A 
ATOM     86  C   UNL A   1      49.101  26.845  29.246  1.00  0.00     0.134 A 
ATOM     87  F   UNL A   1      47.695  25.496  32.311  1.00  0.00    -0.206 F 
ATOM     88  C   UNL A   1      49.876  25.350  31.455  1.00  0.00     0.040 A 
ATOM     89  C   UNL A   1      50.414  26.382  29.347  1.00  0.00     0.040 A 
ATOM     90  F   UNL A   1      48.769  27.563  28.163  1.00  0.00    -0.206 F 
ATOM     91  C   UNL A   1      50.805  25.637  30.457  1.00  0.00     0.006 A 
ENDBRANCH  67  84
ENDBRANCH  41  42
ENDBRANCH  33  36
ENDBRANCH  31  32
ENDBRANCH  30  31
ENDBRANCH  29  30
ENDBRANCH  28  29
ENDBRANCH   1  28
TORSDOF 18
ENDMDL
