MODEL 1
REMARK VINA RESULT:     -10.7      0.000      0.000
REMARK SMILES C[C@H](C1CCCC1)[N@@H+](CC(=O)NCCCCCCNC(=O)c1ccc(-c2c3nc(c(-c4c(F)cccc4F)c4ccc([nH]4)c(-c4c(F)cccc4F)c4nc(c(-c5c(F)cccc5F)c5ccc2[nH]5)C=C4)C=C3)cc1)CC(F)(F)F
REMARK SMILES IDX 15 1 14 2 13 3 12 4 10 5 11 6 9 8 8 9 2 11 1 12 3 13 4 14
REMARK SMILES IDX 7 15 5 16 6 17 76 18 77 19 78 20 79 21 80 22 16 23 17 24
REMARK SMILES IDX 18 25 19 26 20 27 21 29 22 30 23 31 75 32 24 33 74 34 25 35
REMARK SMILES IDX 26 36 27 37 68 38 28 39 73 40 67 41 69 42 29 43 72 44 66 45
REMARK SMILES IDX 65 46 30 48 56 49 39 50 55 51 40 52 43 53 54 54 70 55 41 56
REMARK SMILES IDX 42 57 53 59 71 60 44 61 31 62 32 63 37 64 33 65 34 66 36 67
REMARK SMILES IDX 38 68 35 69 57 70 58 71 63 72 59 73 60 74 62 75 64 76 61 77
REMARK SMILES IDX 45 78 46 79 51 80 47 81 48 82 50 83 52 84 49 85
REMARK H PARENT 12 7 8 10 19 28 69 47 43 58
REMARK Flexibility Score: inf
ROOT
ATOM      1  C   UNL A   1      32.473  29.345  26.929  1.00  0.00     0.002 C 
ENDROOT
BRANCH   1   2
ATOM      2  C   UNL A   1      31.525  28.179  27.243  1.00  0.00     0.021 C 
BRANCH   2   3
ATOM      3  C   UNL A   1      31.593  26.969  26.296  1.00  0.00     0.116 C 
BRANCH   3   4
ATOM      4  N   UNL A   1      31.239  25.687  26.891  1.00  0.00    -0.351 N 
ATOM      5  C   UNL A   1      31.252  24.400  26.426  1.00  0.00     0.275 C 
ATOM      6  O   UNL A   1      31.033  23.510  27.252  1.00  0.00    -0.269 OA
ATOM      7  H   UNL A   1      30.925  25.762  27.822  1.00  0.00     0.163 HD
BRANCH   5   8
ATOM      8  C   UNL A   1      31.520  24.055  24.953  1.00  0.00     0.364 C 
BRANCH   8   9
ATOM      9  N   UNL A   1      32.690  23.171  24.684  1.00  0.00    -0.317 N 
ATOM     10  H   UNL A   1      33.210  23.141  25.561  1.00  0.00     0.349 HD
BRANCH   9  11
ATOM     11  C   UNL A   1      33.690  23.760  23.794  1.00  0.00     0.184 C 
ATOM     12  C   UNL A   1      33.525  23.402  22.307  1.00  0.00     0.075 C 
BRANCH  11  13
ATOM     13  C   UNL A   1      35.175  23.823  24.256  1.00  0.00     0.047 C 
ATOM     14  C   UNL A   1      35.470  23.982  25.746  1.00  0.00     0.010 C 
ATOM     15  C   UNL A   1      36.062  22.651  23.854  1.00  0.00     0.010 C 
ATOM     16  C   UNL A   1      36.966  23.688  25.865  1.00  0.00     0.001 C 
ATOM     17  C   UNL A   1      37.345  22.851  24.644  1.00  0.00     0.001 C 
ENDBRANCH  11  13
ENDBRANCH   9  11
BRANCH   9  18
ATOM     18  C   UNL A   1      32.402  21.722  24.581  1.00  0.00     0.379 C 
BRANCH  18  19
ATOM     19  C   UNL A   1      33.259  20.581  25.171  1.00  0.00     0.438 C 
ATOM     20  F   UNL A   1      34.078  20.031  24.249  1.00  0.00    -0.165 F 
ATOM     21  F   UNL A   1      34.067  21.079  26.141  1.00  0.00    -0.165 F 
ATOM     22  F   UNL A   1      32.526  19.602  25.727  1.00  0.00    -0.165 F 
ENDBRANCH  18  19
ENDBRANCH   9  18
ENDBRANCH   8   9
ENDBRANCH   5   8
ENDBRANCH   3   4
ENDBRANCH   2   3
ENDBRANCH   1   2
BRANCH   1  23
ATOM     23  C   UNL A   1      31.883  30.421  26.022  1.00  0.00     0.002 C 
BRANCH  23  24
ATOM     24  C   UNL A   1      31.573  31.747  26.722  1.00  0.00     0.021 C 
BRANCH  24  25
ATOM     25  C   UNL A   1      32.792  32.454  27.307  1.00  0.00     0.116 C 
BRANCH  25  26
ATOM     26  N   UNL A   1      32.534  33.872  27.505  1.00  0.00    -0.352 N 
ATOM     27  C   UNL A   1      33.035  34.678  28.497  1.00  0.00     0.251 C 
ATOM     28  H   UNL A   1      31.932  34.302  26.854  1.00  0.00     0.163 HD
ATOM     29  O   UNL A   1      32.530  35.769  28.751  1.00  0.00    -0.269 OA
BRANCH  27  30
ATOM     30  C   UNL A   1      34.200  34.200  29.266  1.00  0.00     0.039 A 
ATOM     31  C   UNL A   1      34.002  33.444  30.421  1.00  0.00     0.014 A 
ATOM     32  C   UNL A   1      35.490  34.454  28.789  1.00  0.00     0.014 A 
ATOM     33  C   UNL A   1      35.106  32.889  31.072  1.00  0.00     0.010 A 
ATOM     34  C   UNL A   1      36.579  33.841  29.397  1.00  0.00     0.010 A 
ATOM     35  C   UNL A   1      36.399  33.055  30.545  1.00  0.00    -0.014 A 
BRANCH  35  36
ATOM     36  C   UNL A   1      37.578  32.409  31.175  1.00  0.00     0.031 A 
ATOM     37  C   UNL A   1      38.250  31.249  30.494  1.00  0.00     0.074 A 
ATOM     38  C   UNL A   1      37.993  32.814  32.391  1.00  0.00     0.049 A 
ATOM     39  N   UNL A   1      39.235  30.499  30.919  1.00  0.00    -0.248 NA
ATOM     40  C   UNL A   1      37.729  30.862  29.172  1.00  0.00     0.031 C 
ATOM     41  C   UNL A   1      37.392  33.896  33.174  1.00  0.00     0.029 A 
ATOM     42  N   UNL A   1      39.007  32.351  33.192  1.00  0.00    -0.354 N 
ATOM     43  C   UNL A   1      39.438  29.546  29.929  1.00  0.00     0.074 A 
ATOM     44  C   UNL A   1      38.445  29.780  28.905  1.00  0.00     0.031 C 
ATOM     45  C   UNL A   1      38.056  34.023  34.333  1.00  0.00     0.029 A 
ATOM     46  C   UNL A   1      39.101  33.004  34.398  1.00  0.00     0.049 A 
ATOM     47  H   UNL A   1      39.611  31.620  32.928  1.00  0.00     0.167 HD
ATOM     48  C   UNL A   1      40.380  28.576  29.873  1.00  0.00     0.037 A 
ATOM     49  C   UNL A   1      39.921  32.794  35.444  1.00  0.00     0.037 A 
ATOM     50  C   UNL A   1      41.383  28.365  30.883  1.00  0.00     0.049 A 
ATOM     51  C   UNL A   1      40.948  31.696  35.361  1.00  0.00     0.074 A 
ATOM     52  C   UNL A   1      42.432  27.464  30.877  1.00  0.00     0.029 A 
ATOM     53  N   UNL A   1      41.454  29.057  32.082  1.00  0.00    -0.354 N 
ATOM     54  N   UNL A   1      41.189  30.862  34.378  1.00  0.00    -0.248 NA
ATOM     55  C   UNL A   1      41.818  31.509  36.532  1.00  0.00     0.031 C 
ATOM     56  C   UNL A   1      43.101  27.565  32.101  1.00  0.00     0.029 A 
ATOM     57  C   UNL A   1      42.504  28.572  32.844  1.00  0.00     0.049 A 
ATOM     58  H   UNL A   1      40.847  29.783  32.353  1.00  0.00     0.167 HD
ATOM     59  C   UNL A   1      42.251  30.072  34.800  1.00  0.00     0.074 A 
ATOM     60  C   UNL A   1      42.619  30.537  36.121  1.00  0.00     0.031 C 
ATOM     61  C   UNL A   1      42.863  29.050  34.154  1.00  0.00     0.037 A 
BRANCH  48  62
ATOM     62  C   UNL A   1      40.373  27.660  28.683  1.00  0.00     0.057 A 
ATOM     63  C   UNL A   1      41.129  27.927  27.534  1.00  0.00     0.134 A 
ATOM     64  C   UNL A   1      39.643  26.465  28.709  1.00  0.00     0.134 A 
ATOM     65  F   UNL A   1      41.843  29.059  27.439  1.00  0.00    -0.206 F 
ATOM     66  C   UNL A   1      41.143  27.051  26.447  1.00  0.00     0.040 A 
ATOM     67  C   UNL A   1      39.671  25.566  27.642  1.00  0.00     0.040 A 
ATOM     68  F   UNL A   1      38.901  26.142  29.782  1.00  0.00    -0.206 F 
ATOM     69  C   UNL A   1      40.419  25.860  26.505  1.00  0.00     0.006 A 
ENDBRANCH  48  62
BRANCH  49  70
ATOM     70  C   UNL A   1      39.808  33.632  36.668  1.00  0.00     0.057 A 
ATOM     71  C   UNL A   1      40.563  34.801  36.820  1.00  0.00     0.134 A 
ATOM     72  C   UNL A   1      38.963  33.271  37.724  1.00  0.00     0.134 A 
ATOM     73  F   UNL A   1      41.406  35.191  35.851  1.00  0.00    -0.206 F 
ATOM     74  C   UNL A   1      40.504  35.565  37.987  1.00  0.00     0.040 A 
ATOM     75  C   UNL A   1      38.871  34.042  38.884  1.00  0.00     0.040 A 
ATOM     76  F   UNL A   1      38.206  32.167  37.640  1.00  0.00    -0.206 F 
ATOM     77  C   UNL A   1      39.651  35.187  39.022  1.00  0.00     0.006 A 
ENDBRANCH  49  70
BRANCH  61  78
ATOM     78  C   UNL A   1      44.012  28.381  34.849  1.00  0.00     0.057 A 
ATOM     79  C   UNL A   1      43.838  27.227  35.623  1.00  0.00     0.134 A 
ATOM     80  C   UNL A   1      45.318  28.864  34.693  1.00  0.00     0.134 A 
ATOM     81  F   UNL A   1      42.611  26.721  35.822  1.00  0.00    -0.206 F 
ATOM     82  C   UNL A   1      44.919  26.585  36.230  1.00  0.00     0.040 A 
ATOM     83  C   UNL A   1      46.410  28.215  35.272  1.00  0.00     0.040 A 
ATOM     84  F   UNL A   1      45.557  29.960  33.958  1.00  0.00    -0.206 F 
ATOM     85  C   UNL A   1      46.211  27.075  36.046  1.00  0.00     0.006 A 
ENDBRANCH  61  78
ENDBRANCH  35  36
ENDBRANCH  27  30
ENDBRANCH  25  26
ENDBRANCH  24  25
ENDBRANCH  23  24
ENDBRANCH   1  23
TORSDOF 18
ENDMDL
MODEL 2
REMARK VINA RESULT:     -10.5      1.254      2.379
REMARK SMILES C[C@H](C1CCCC1)[N@@H+](CC(=O)NCCCCCCNC(=O)c1ccc(-c2c3nc(c(-c4c(F)cccc4F)c4ccc([nH]4)c(-c4c(F)cccc4F)c4nc(c(-c5c(F)cccc5F)c5ccc2[nH]5)C=C4)C=C3)cc1)CC(F)(F)F
REMARK SMILES IDX 15 1 14 2 13 3 12 4 10 5 11 6 9 8 8 9 2 11 1 12 3 13 4 14
REMARK SMILES IDX 7 15 5 16 6 17 76 18 77 19 78 20 79 21 80 22 16 23 17 24
REMARK SMILES IDX 18 25 19 26 20 27 21 29 22 30 23 31 75 32 24 33 74 34 25 35
REMARK SMILES IDX 26 36 27 37 68 38 28 39 73 40 67 41 69 42 29 43 72 44 66 45
REMARK SMILES IDX 65 46 30 48 56 49 39 50 55 51 40 52 43 53 54 54 70 55 41 56
REMARK SMILES IDX 42 57 53 59 71 60 44 61 31 62 32 63 37 64 33 65 34 66 36 67
REMARK SMILES IDX 38 68 35 69 57 70 58 71 63 72 59 73 60 74 62 75 64 76 61 77
REMARK SMILES IDX 45 78 46 79 51 80 47 81 48 82 50 83 52 84 49 85
REMARK H PARENT 12 7 8 10 19 28 69 47 43 58
REMARK Flexibility Score: inf
ROOT
ATOM      1  C   UNL A   1      31.967  29.102  27.230  1.00  0.00     0.002 C 
ENDROOT
BRANCH   1   2
ATOM      2  C   UNL A   1      32.313  27.674  26.785  1.00  0.00     0.021 C 
BRANCH   2   3
ATOM      3  C   UNL A   1      31.156  26.837  26.214  1.00  0.00     0.116 C 
BRANCH   3   4
ATOM      4  N   UNL A   1      30.970  25.528  26.824  1.00  0.00    -0.351 N 
ATOM      5  C   UNL A   1      31.048  24.249  26.344  1.00  0.00     0.275 C 
ATOM      6  O   UNL A   1      30.985  23.339  27.176  1.00  0.00    -0.269 OA
ATOM      7  H   UNL A   1      30.742  25.571  27.781  1.00  0.00     0.163 HD
BRANCH   5   8
ATOM      8  C   UNL A   1      31.201  23.933  24.848  1.00  0.00     0.364 C 
BRANCH   8   9
ATOM      9  N   UNL A   1      32.436  24.447  24.188  1.00  0.00    -0.317 N 
ATOM     10  H   UNL A   1      32.621  25.347  24.630  1.00  0.00     0.349 HD
BRANCH   9  11
ATOM     11  C   UNL A   1      32.242  24.860  22.799  1.00  0.00     0.184 C 
ATOM     12  C   UNL A   1      33.029  24.039  21.763  1.00  0.00     0.075 C 
BRANCH  11  13
ATOM     13  C   UNL A   1      32.167  26.377  22.461  1.00  0.00     0.047 C 
ATOM     14  C   UNL A   1      30.869  27.127  22.753  1.00  0.00     0.010 C 
ATOM     15  C   UNL A   1      33.227  27.268  23.097  1.00  0.00     0.010 C 
ATOM     16  C   UNL A   1      31.248  28.602  22.609  1.00  0.00     0.001 C 
ATOM     17  C   UNL A   1      32.760  28.686  22.813  1.00  0.00     0.001 C 
ENDBRANCH  11  13
ENDBRANCH   9  11
BRANCH   9  18
ATOM     18  C   UNL A   1      33.702  23.781  24.569  1.00  0.00     0.379 C 
BRANCH  18  19
ATOM     19  C   UNL A   1      34.677  24.246  25.673  1.00  0.00     0.438 C 
ATOM     20  F   UNL A   1      35.959  23.933  25.383  1.00  0.00    -0.165 F 
ATOM     21  F   UNL A   1      34.634  25.599  25.772  1.00  0.00    -0.165 F 
ATOM     22  F   UNL A   1      34.381  23.748  26.885  1.00  0.00    -0.165 F 
ENDBRANCH  18  19
ENDBRANCH   9  18
ENDBRANCH   8   9
ENDBRANCH   5   8
ENDBRANCH   3   4
ENDBRANCH   2   3
ENDBRANCH   1   2
BRANCH   1  23
ATOM     23  C   UNL A   1      31.926  30.130  26.104  1.00  0.00     0.002 C 
BRANCH  23  24
ATOM     24  C   UNL A   1      31.660  31.568  26.559  1.00  0.00     0.021 C 
BRANCH  24  25
ATOM     25  C   UNL A   1      32.828  32.229  27.283  1.00  0.00     0.116 C 
BRANCH  25  26
ATOM     26  N   UNL A   1      32.602  33.656  27.454  1.00  0.00    -0.352 N 
ATOM     27  C   UNL A   1      33.128  34.470  28.427  1.00  0.00     0.251 C 
ATOM     28  H   UNL A   1      32.006  34.086  26.799  1.00  0.00     0.163 HD
ATOM     29  O   UNL A   1      32.648  35.577  28.662  1.00  0.00    -0.269 OA
BRANCH  27  30
ATOM     30  C   UNL A   1      34.286  33.982  29.198  1.00  0.00     0.039 A 
ATOM     31  C   UNL A   1      34.085  33.129  30.283  1.00  0.00     0.014 A 
ATOM     32  C   UNL A   1      35.579  34.328  28.789  1.00  0.00     0.014 A 
ATOM     33  C   UNL A   1      35.192  32.571  30.928  1.00  0.00     0.010 A 
ATOM     34  C   UNL A   1      36.674  33.715  29.387  1.00  0.00     0.010 A 
ATOM     35  C   UNL A   1      36.492  32.833  30.463  1.00  0.00    -0.014 A 
BRANCH  35  36
ATOM     36  C   UNL A   1      37.678  32.189  31.083  1.00  0.00     0.031 A 
ATOM     37  C   UNL A   1      38.398  31.087  30.356  1.00  0.00     0.074 A 
ATOM     38  C   UNL A   1      38.056  32.542  32.327  1.00  0.00     0.049 A 
ATOM     39  N   UNL A   1      39.397  30.346  30.762  1.00  0.00    -0.248 NA
ATOM     40  C   UNL A   1      37.915  30.756  29.006  1.00  0.00     0.031 C 
ATOM     41  C   UNL A   1      37.407  33.562  33.153  1.00  0.00     0.029 A 
ATOM     42  N   UNL A   1      39.068  32.067  33.124  1.00  0.00    -0.354 N 
ATOM     43  C   UNL A   1      39.648  29.452  29.728  1.00  0.00     0.074 A 
ATOM     44  C   UNL A   1      38.669  29.712  28.697  1.00  0.00     0.031 C 
ATOM     45  C   UNL A   1      38.045  33.647  34.331  1.00  0.00     0.029 A 
ATOM     46  C   UNL A   1      39.118  32.657  34.364  1.00  0.00     0.049 A 
ATOM     47  H   UNL A   1      39.699  31.368  32.834  1.00  0.00     0.167 HD
ATOM     48  C   UNL A   1      40.620  28.515  29.641  1.00  0.00     0.037 A 
ATOM     49  C   UNL A   1      39.924  32.416  35.415  1.00  0.00     0.037 A 
ATOM     50  C   UNL A   1      41.609  28.280  30.659  1.00  0.00     0.049 A 
ATOM     51  C   UNL A   1      40.985  31.355  35.297  1.00  0.00     0.074 A 
ATOM     52  C   UNL A   1      42.685  27.413  30.629  1.00  0.00     0.029 A 
ATOM     53  N   UNL A   1      41.635  28.909  31.894  1.00  0.00    -0.354 N 
ATOM     54  N   UNL A   1      41.271  30.582  34.276  1.00  0.00    -0.248 NA
ATOM     55  C   UNL A   1      41.837  31.131  36.474  1.00  0.00     0.031 C 
ATOM     56  C   UNL A   1      43.326  27.468  31.870  1.00  0.00     0.029 A 
ATOM     57  C   UNL A   1      42.685  28.416  32.652  1.00  0.00     0.049 A 
ATOM     58  H   UNL A   1      41.001  29.602  32.191  1.00  0.00     0.167 HD
ATOM     59  C   UNL A   1      42.347  29.801  34.679  1.00  0.00     0.074 A 
ATOM     60  C   UNL A   1      42.676  30.206  36.029  1.00  0.00     0.031 C 
ATOM     61  C   UNL A   1      43.003  28.834  33.993  1.00  0.00     0.037 A 
BRANCH  48  62
ATOM     62  C   UNL A   1      40.664  27.664  28.405  1.00  0.00     0.057 A 
ATOM     63  C   UNL A   1      39.960  26.456  28.309  1.00  0.00     0.134 A 
ATOM     64  C   UNL A   1      41.375  28.086  27.274  1.00  0.00     0.134 A 
ATOM     65  F   UNL A   1      39.267  25.988  29.358  1.00  0.00    -0.206 F 
ATOM     66  C   UNL A   1      39.978  25.690  27.141  1.00  0.00     0.040 A 
ATOM     67  C   UNL A   1      41.378  27.345  26.092  1.00  0.00     0.040 A 
ATOM     68  F   UNL A   1      42.067  29.237  27.295  1.00  0.00    -0.206 F 
ATOM     69  C   UNL A   1      40.682  26.140  26.025  1.00  0.00     0.006 A 
ENDBRANCH  48  62
BRANCH  49  70
ATOM     70  C   UNL A   1      39.761  33.184  36.678  1.00  0.00     0.057 A 
ATOM     71  C   UNL A   1      38.853  32.777  37.664  1.00  0.00     0.134 A 
ATOM     72  C   UNL A   1      40.488  34.356  36.919  1.00  0.00     0.134 A 
ATOM     73  F   UNL A   1      38.113  31.673  37.484  1.00  0.00    -0.206 F 
ATOM     74  C   UNL A   1      38.654  33.520  38.828  1.00  0.00     0.040 A 
ATOM     75  C   UNL A   1      40.321  35.093  38.093  1.00  0.00     0.040 A 
ATOM     76  F   UNL A   1      41.380  34.798  36.020  1.00  0.00    -0.206 F 
ATOM     77  C   UNL A   1      39.393  34.680  39.047  1.00  0.00     0.006 A 
ENDBRANCH  49  70
BRANCH  61  78
ATOM     78  C   UNL A   1      44.158  28.163  34.676  1.00  0.00     0.057 A 
ATOM     79  C   UNL A   1      44.003  26.969  35.391  1.00  0.00     0.134 A 
ATOM     80  C   UNL A   1      45.453  28.687  34.567  1.00  0.00     0.134 A 
ATOM     81  F   UNL A   1      42.787  26.422  35.544  1.00  0.00    -0.206 F 
ATOM     82  C   UNL A   1      45.090  26.328  35.986  1.00  0.00     0.040 A 
ATOM     83  C   UNL A   1      46.553  28.040  35.133  1.00  0.00     0.040 A 
ATOM     84  F   UNL A   1      45.674  29.823  33.888  1.00  0.00    -0.206 F 
ATOM     85  C   UNL A   1      46.371  26.860  35.849  1.00  0.00     0.006 A 
ENDBRANCH  61  78
ENDBRANCH  35  36
ENDBRANCH  27  30
ENDBRANCH  25  26
ENDBRANCH  24  25
ENDBRANCH  23  24
ENDBRANCH   1  23
TORSDOF 18
ENDMDL
MODEL 3
REMARK VINA RESULT:     -10.5      4.281      8.918
REMARK SMILES C[C@H](C1CCCC1)[N@@H+](CC(=O)NCCCCCCNC(=O)c1ccc(-c2c3nc(c(-c4c(F)cccc4F)c4ccc([nH]4)c(-c4c(F)cccc4F)c4nc(c(-c5c(F)cccc5F)c5ccc2[nH]5)C=C4)C=C3)cc1)CC(F)(F)F
REMARK SMILES IDX 15 1 14 2 13 3 12 4 10 5 11 6 9 8 8 9 2 11 1 12 3 13 4 14
REMARK SMILES IDX 7 15 5 16 6 17 76 18 77 19 78 20 79 21 80 22 16 23 17 24
REMARK SMILES IDX 18 25 19 26 20 27 21 29 22 30 23 31 75 32 24 33 74 34 25 35
REMARK SMILES IDX 26 36 27 37 68 38 28 39 73 40 67 41 69 42 29 43 72 44 66 45
REMARK SMILES IDX 65 46 30 48 56 49 39 50 55 51 40 52 43 53 54 54 70 55 41 56
REMARK SMILES IDX 42 57 53 59 71 60 44 61 31 62 32 63 37 64 33 65 34 66 36 67
REMARK SMILES IDX 38 68 35 69 57 70 58 71 63 72 59 73 60 74 62 75 64 76 61 77
REMARK SMILES IDX 45 78 46 79 51 80 47 81 48 82 50 83 52 84 49 85
REMARK H PARENT 12 7 8 10 19 28 69 47 43 58
REMARK Flexibility Score: inf
ROOT
ATOM      1  C   UNL A   1      35.192  20.408  24.996  1.00  0.00     0.002 C 
ENDROOT
BRANCH   1   2
ATOM      2  C   UNL A   1      34.307  21.110  26.036  1.00  0.00     0.021 C 
BRANCH   2   3
ATOM      3  C   UNL A   1      32.788  21.020  25.812  1.00  0.00     0.116 C 
BRANCH   3   4
ATOM      4  N   UNL A   1      31.977  21.868  26.676  1.00  0.00    -0.351 N 
ATOM      5  C   UNL A   1      31.093  22.884  26.432  1.00  0.00     0.275 C 
ATOM      6  O   UNL A   1      30.446  23.300  27.398  1.00  0.00    -0.269 OA
ATOM      7  H   UNL A   1      32.089  21.670  27.634  1.00  0.00     0.163 HD
BRANCH   5   8
ATOM      8  C   UNL A   1      30.900  23.496  25.036  1.00  0.00     0.364 C 
BRANCH   8   9
ATOM      9  N   UNL A   1      32.030  24.314  24.511  1.00  0.00    -0.317 N 
ATOM     10  H   UNL A   1      32.661  24.439  25.303  1.00  0.00     0.349 HD
BRANCH   9  11
ATOM     11  C   UNL A   1      31.678  25.703  24.222  1.00  0.00     0.184 C 
ATOM     12  C   UNL A   1      31.119  25.950  22.810  1.00  0.00     0.075 C 
BRANCH  11  13
ATOM     13  C   UNL A   1      32.606  26.844  24.730  1.00  0.00     0.047 C 
ATOM     14  C   UNL A   1      32.036  28.258  24.832  1.00  0.00     0.010 C 
ATOM     15  C   UNL A   1      33.253  26.637  26.094  1.00  0.00     0.010 C 
ATOM     16  C   UNL A   1      33.082  29.025  25.643  1.00  0.00     0.001 C 
ATOM     17  C   UNL A   1      33.870  27.984  26.436  1.00  0.00     0.001 C 
ENDBRANCH  11  13
ENDBRANCH   9  11
BRANCH   9  18
ATOM     18  C   UNL A   1      32.981  23.614  23.618  1.00  0.00     0.379 C 
BRANCH  18  19
ATOM     19  C   UNL A   1      34.461  23.990  23.391  1.00  0.00     0.438 C 
ATOM     20  F   UNL A   1      35.116  23.060  22.662  1.00  0.00    -0.165 F 
ATOM     21  F   UNL A   1      34.529  25.142  22.677  1.00  0.00    -0.165 F 
ATOM     22  F   UNL A   1      35.138  24.189  24.534  1.00  0.00    -0.165 F 
ENDBRANCH  18  19
ENDBRANCH   9  18
ENDBRANCH   8   9
ENDBRANCH   5   8
ENDBRANCH   3   4
ENDBRANCH   2   3
ENDBRANCH   1   2
BRANCH   1  23
ATOM     23  C   UNL A   1      36.595  20.991  24.851  1.00  0.00     0.002 C 
BRANCH  23  24
ATOM     24  C   UNL A   1      37.727  19.966  24.948  1.00  0.00     0.021 C 
BRANCH  24  25
ATOM     25  C   UNL A   1      38.965  20.458  25.692  1.00  0.00     0.116 C 
BRANCH  25  26
ATOM     26  N   UNL A   1      39.954  19.399  25.826  1.00  0.00    -0.352 N 
ATOM     27  C   UNL A   1      41.297  19.543  26.073  1.00  0.00     0.251 C 
ATOM     28  H   UNL A   1      39.623  18.477  25.728  1.00  0.00     0.163 HD
ATOM     29  O   UNL A   1      42.086  18.623  25.873  1.00  0.00    -0.269 OA
BRANCH  27  30
ATOM     30  C   UNL A   1      41.781  20.840  26.582  1.00  0.00     0.039 A 
ATOM     31  C   UNL A   1      42.318  21.774  25.697  1.00  0.00     0.014 A 
ATOM     32  C   UNL A   1      41.631  21.145  27.940  1.00  0.00     0.014 A 
ATOM     33  C   UNL A   1      42.656  23.045  26.166  1.00  0.00     0.010 A 
ATOM     34  C   UNL A   1      41.900  22.433  28.387  1.00  0.00     0.010 A 
ATOM     35  C   UNL A   1      42.417  23.394  27.506  1.00  0.00    -0.014 A 
BRANCH  35  36
ATOM     36  C   UNL A   1      42.694  24.764  28.008  1.00  0.00     0.031 A 
ATOM     37  C   UNL A   1      44.080  25.130  28.462  1.00  0.00     0.074 A 
ATOM     38  C   UNL A   1      41.685  25.650  28.128  1.00  0.00     0.049 A 
ATOM     39  N   UNL A   1      44.504  26.241  29.008  1.00  0.00    -0.248 NA
ATOM     40  C   UNL A   1      45.123  24.103  28.306  1.00  0.00     0.031 C 
ATOM     41  C   UNL A   1      40.289  25.397  27.768  1.00  0.00     0.029 A 
ATOM     42  N   UNL A   1      41.675  26.937  28.606  1.00  0.00    -0.354 N 
ATOM     43  C   UNL A   1      45.852  26.039  29.276  1.00  0.00     0.074 A 
ATOM     44  C   UNL A   1      46.166  24.686  28.877  1.00  0.00     0.031 C 
ATOM     45  C   UNL A   1      39.562  26.496  28.023  1.00  0.00     0.029 A 
ATOM     46  C   UNL A   1      40.429  27.516  28.606  1.00  0.00     0.049 A 
ATOM     47  H   UNL A   1      42.485  27.402  28.918  1.00  0.00     0.167 HD
ATOM     48  C   UNL A   1      46.750  26.912  29.790  1.00  0.00     0.037 A 
ATOM     49  C   UNL A   1      40.026  28.724  29.043  1.00  0.00     0.037 A 
ATOM     50  C   UNL A   1      46.438  28.267  30.159  1.00  0.00     0.049 A 
ATOM     51  C   UNL A   1      41.044  29.668  29.628  1.00  0.00     0.074 A 
ATOM     52  C   UNL A   1      47.295  29.255  30.609  1.00  0.00     0.029 A 
ATOM     53  N   UNL A   1      45.168  28.821  30.130  1.00  0.00    -0.354 N 
ATOM     54  N   UNL A   1      42.334  29.497  29.788  1.00  0.00    -0.248 NA
ATOM     55  C   UNL A   1      40.551  30.973  30.092  1.00  0.00     0.031 C 
ATOM     56  C   UNL A   1      46.535  30.387  30.915  1.00  0.00     0.029 A 
ATOM     57  C   UNL A   1      45.211  30.125  30.596  1.00  0.00     0.049 A 
ATOM     58  H   UNL A   1      44.354  28.357  29.826  1.00  0.00     0.167 HD
ATOM     59  C   UNL A   1      42.809  30.677  30.346  1.00  0.00     0.074 A 
ATOM     60  C   UNL A   1      41.672  31.564  30.479  1.00  0.00     0.031 C 
ATOM     61  C   UNL A   1      44.072  30.998  30.717  1.00  0.00     0.037 A 
BRANCH  48  62
ATOM     62  C   UNL A   1      48.158  26.432  29.992  1.00  0.00     0.057 A 
ATOM     63  C   UNL A   1      48.559  25.775  31.163  1.00  0.00     0.134 A 
ATOM     64  C   UNL A   1      49.113  26.578  28.977  1.00  0.00     0.134 A 
ATOM     65  F   UNL A   1      47.698  25.611  32.178  1.00  0.00    -0.206 F 
ATOM     66  C   UNL A   1      49.862  25.300  31.325  1.00  0.00     0.040 A 
ATOM     67  C   UNL A   1      50.410  26.082  29.115  1.00  0.00     0.040 A 
ATOM     68  F   UNL A   1      48.795  27.192  27.825  1.00  0.00    -0.206 F 
ATOM     69  C   UNL A   1      50.789  25.445  30.294  1.00  0.00     0.006 A 
ENDBRANCH  48  62
BRANCH  49  70
ATOM     70  C   UNL A   1      38.595  29.115  28.957  1.00  0.00     0.057 A 
ATOM     71  C   UNL A   1      38.050  29.619  27.769  1.00  0.00     0.134 A 
ATOM     72  C   UNL A   1      37.743  29.020  30.065  1.00  0.00     0.134 A 
ATOM     73  F   UNL A   1      38.818  29.753  26.678  1.00  0.00    -0.206 F 
ATOM     74  C   UNL A   1      36.721  30.039  27.694  1.00  0.00     0.040 A 
ATOM     75  C   UNL A   1      36.404  29.408  29.995  1.00  0.00     0.040 A 
ATOM     76  F   UNL A   1      38.199  28.538  31.230  1.00  0.00    -0.206 F 
ATOM     77  C   UNL A   1      35.893  29.930  28.809  1.00  0.00     0.006 A 
ENDBRANCH  49  70
BRANCH  61  78
ATOM     78  C   UNL A   1      44.302  32.370  31.277  1.00  0.00     0.057 A 
ATOM     79  C   UNL A   1      44.564  33.471  30.452  1.00  0.00     0.134 A 
ATOM     80  C   UNL A   1      44.200  32.604  32.655  1.00  0.00     0.134 A 
ATOM     81  F   UNL A   1      44.686  33.313  29.125  1.00  0.00    -0.206 F 
ATOM     82  C   UNL A   1      44.732  34.753  30.978  1.00  0.00     0.040 A 
ATOM     83  C   UNL A   1      44.338  33.886  33.190  1.00  0.00     0.040 A 
ATOM     84  F   UNL A   1      43.942  31.595  33.501  1.00  0.00    -0.206 F 
ATOM     85  C   UNL A   1      44.609  34.964  32.351  1.00  0.00     0.006 A 
ENDBRANCH  61  78
ENDBRANCH  35  36
ENDBRANCH  27  30
ENDBRANCH  25  26
ENDBRANCH  24  25
ENDBRANCH  23  24
ENDBRANCH   1  23
TORSDOF 18
ENDMDL
