MODEL 1
REMARK VINA RESULT:     -11.2      0.000      0.000
REMARK SMILES O=C(C[NH+]1CCN(c2nccc(N3CCCCC3)n2)CC1)NCCCCCCNC(=O)c1ccc(-c2c3nc(c(-c4c(F)cccc4F)c4ccc([nH]4)c(-c4c(F)cccc4F)c4nc(c(-c5c(F)cccc5F)c5ccc2[nH]5)C=C4)C=C3)cc1
REMARK SMILES IDX 25 1 24 2 23 3 22 4 1 5 2 6 3 8 4 9 5 10 21 11 6 13 20 14
REMARK SMILES IDX 7 15 8 16 9 17 19 18 10 19 12 20 11 21 13 22 14 23 18 24
REMARK SMILES IDX 15 25 17 26 16 27 26 28 27 29 28 30 29 31 30 32 31 34 32 35
REMARK SMILES IDX 33 36 85 37 34 38 84 39 35 40 36 41 37 42 78 43 38 44 83 45
REMARK SMILES IDX 77 46 79 47 39 48 82 49 76 50 75 51 40 53 66 54 49 55 65 56
REMARK SMILES IDX 50 57 53 58 64 59 80 60 51 61 52 62 63 64 81 65 54 66 41 67
REMARK SMILES IDX 42 68 47 69 43 70 44 71 46 72 48 73 45 74 67 75 68 76 73 77
REMARK SMILES IDX 69 78 70 79 72 80 74 81 71 82 55 83 56 84 61 85 57 86 58 87
REMARK SMILES IDX 60 88 62 89 59 90
REMARK H PARENT 22 7 4 12 29 33 79 52 53 63
REMARK Flexibility Score: inf
ROOT
ATOM      1  C   UNL A   1      35.573  32.739  28.074  1.00  0.00     0.002 C 
ENDROOT
BRANCH   1   2
ATOM      2  C   UNL A   1      34.756  31.544  28.575  1.00  0.00     0.021 C 
BRANCH   2   3
ATOM      3  C   UNL A   1      34.713  30.376  27.593  1.00  0.00     0.116 C 
BRANCH   3   4
ATOM      4  N   UNL A   1      33.661  30.528  26.609  1.00  0.00    -0.351 N 
ATOM      5  O   UNL A   1      32.727  28.482  27.027  1.00  0.00    -0.269 OA
ATOM      6  C   UNL A   1      32.723  29.542  26.406  1.00  0.00     0.275 C 
ATOM      7  H   UNL A   1      33.616  31.354  26.076  1.00  0.00     0.163 HD
BRANCH   6   8
ATOM      8  C   UNL A   1      31.691  29.860  25.323  1.00  0.00     0.363 C 
BRANCH   8   9
ATOM      9  N   UNL A   1      32.004  29.386  23.972  1.00  0.00    -0.324 N 
ATOM     10  C   UNL A   1      33.382  28.991  23.655  1.00  0.00     0.284 C 
ATOM     11  C   UNL A   1      31.024  28.495  23.343  1.00  0.00     0.284 C 
ATOM     12  H   UNL A   1      31.911  30.293  23.516  1.00  0.00     0.348 HD
ATOM     13  C   UNL A   1      33.714  27.486  23.823  1.00  0.00     0.181 C 
ATOM     14  C   UNL A   1      31.268  26.986  23.537  1.00  0.00     0.181 C 
ATOM     15  N   UNL A   1      32.660  26.633  23.276  1.00  0.00    -0.329 N 
BRANCH  15  16
ATOM     16  C   UNL A   1      32.930  25.288  23.099  1.00  0.00     0.227 A 
ATOM     17  N   UNL A   1      33.018  24.799  21.855  1.00  0.00    -0.221 NA
ATOM     18  N   UNL A   1      33.075  24.515  24.186  1.00  0.00    -0.196 NA
ATOM     19  C   UNL A   1      33.341  23.501  21.719  1.00  0.00     0.119 A 
ATOM     20  C   UNL A   1      33.329  23.204  24.018  1.00  0.00     0.134 A 
ATOM     21  C   UNL A   1      33.542  22.658  22.774  1.00  0.00     0.067 A 
BRANCH  20  22
ATOM     22  N   UNL A   1      33.184  22.349  25.092  1.00  0.00    -0.356 N 
ATOM     23  C   UNL A   1      31.871  22.332  25.717  1.00  0.00     0.118 C 
ATOM     24  C   UNL A   1      34.341  21.895  25.843  1.00  0.00     0.118 C 
ATOM     25  C   UNL A   1      31.911  23.031  27.069  1.00  0.00     0.022 C 
ATOM     26  C   UNL A   1      34.368  22.538  27.233  1.00  0.00     0.022 C 
ATOM     27  C   UNL A   1      33.014  22.434  27.938  1.00  0.00     0.004 C 
ENDBRANCH  20  22
ENDBRANCH  15  16
ENDBRANCH   8   9
ENDBRANCH   6   8
ENDBRANCH   3   4
ENDBRANCH   2   3
ENDBRANCH   1   2
BRANCH   1  28
ATOM     28  C   UNL A   1      34.774  34.037  27.945  1.00  0.00     0.002 C 
BRANCH  28  29
ATOM     29  C   UNL A   1      33.791  34.325  29.070  1.00  0.00     0.021 C 
BRANCH  29  30
ATOM     30  C   UNL A   1      33.795  35.763  29.574  1.00  0.00     0.116 C 
BRANCH  30  31
ATOM     31  N   UNL A   1      32.702  36.080  30.490  1.00  0.00    -0.352 N 
ATOM     32  C   UNL A   1      32.573  35.805  31.832  1.00  0.00     0.251 C 
ATOM     33  H   UNL A   1      31.945  36.562  30.087  1.00  0.00     0.163 HD
ATOM     34  O   UNL A   1      31.530  36.063  32.426  1.00  0.00    -0.269 OA
BRANCH  32  35
ATOM     35  C   UNL A   1      33.692  35.143  32.541  1.00  0.00     0.039 A 
ATOM     36  C   UNL A   1      33.517  33.850  33.039  1.00  0.00     0.014 A 
ATOM     37  C   UNL A   1      34.938  35.764  32.619  1.00  0.00     0.014 A 
ATOM     38  C   UNL A   1      34.627  33.134  33.496  1.00  0.00     0.010 A 
ATOM     39  C   UNL A   1      36.054  35.015  32.966  1.00  0.00     0.010 A 
ATOM     40  C   UNL A   1      35.915  33.685  33.396  1.00  0.00    -0.014 A 
BRANCH  40  41
ATOM     41  C   UNL A   1      37.139  32.898  33.703  1.00  0.00     0.031 A 
ATOM     42  C   UNL A   1      37.895  33.149  34.978  1.00  0.00     0.074 A 
ATOM     43  C   UNL A   1      37.636  32.042  32.786  1.00  0.00     0.049 A 
ATOM     44  N   UNL A   1      39.055  32.680  35.361  1.00  0.00    -0.248 NA
ATOM     45  C   UNL A   1      37.286  34.091  35.931  1.00  0.00     0.031 C 
ATOM     46  C   UNL A   1      37.043  31.753  31.478  1.00  0.00     0.029 A 
ATOM     47  N   UNL A   1      38.770  31.267  32.811  1.00  0.00    -0.354 N 
ATOM     48  C   UNL A   1      39.332  33.302  36.572  1.00  0.00     0.074 A 
ATOM     49  C   UNL A   1      38.245  34.220  36.834  1.00  0.00     0.031 C 
ATOM     50  C   UNL A   1      37.795  30.838  30.845  1.00  0.00     0.029 A 
ATOM     51  C   UNL A   1      38.947  30.509  31.678  1.00  0.00     0.049 A 
ATOM     52  H   UNL A   1      39.398  31.255  33.569  1.00  0.00     0.167 HD
ATOM     53  C   UNL A   1      40.381  33.109  37.406  1.00  0.00     0.037 A 
ATOM     54  C   UNL A   1      39.927  29.649  31.347  1.00  0.00     0.037 A 
ATOM     55  C   UNL A   1      41.431  32.152  37.175  1.00  0.00     0.049 A 
ATOM     56  C   UNL A   1      41.064  29.424  32.304  1.00  0.00     0.074 A 
ATOM     57  C   UNL A   1      42.487  31.815  38.002  1.00  0.00     0.029 A 
ATOM     58  N   UNL A   1      41.550  31.374  36.034  1.00  0.00    -0.354 N 
ATOM     59  N   UNL A   1      41.277  29.967  33.478  1.00  0.00    -0.248 NA
ATOM     60  C   UNL A   1      42.098  28.464  31.888  1.00  0.00     0.031 C 
ATOM     61  C   UNL A   1      43.264  30.852  37.348  1.00  0.00     0.029 A 
ATOM     62  C   UNL A   1      42.670  30.565  36.129  1.00  0.00     0.049 A 
ATOM     63  H   UNL A   1      40.930  31.393  35.269  1.00  0.00     0.167 HD
ATOM     64  C   UNL A   1      42.449  29.395  33.954  1.00  0.00     0.074 A 
ATOM     65  C   UNL A   1      42.897  28.456  32.946  1.00  0.00     0.031 C 
ATOM     66  C   UNL A   1      43.094  29.626  35.123  1.00  0.00     0.037 A 
BRANCH  53  67
ATOM     67  C   UNL A   1      40.432  33.944  38.651  1.00  0.00     0.057 A 
ATOM     68  C   UNL A   1      41.153  35.143  38.708  1.00  0.00     0.134 A 
ATOM     69  C   UNL A   1      39.746  33.546  39.806  1.00  0.00     0.134 A 
ATOM     70  F   UNL A   1      41.843  35.572  37.641  1.00  0.00    -0.206 F 
ATOM     71  C   UNL A   1      41.222  35.900  39.879  1.00  0.00     0.040 A 
ATOM     72  C   UNL A   1      39.783  34.308  40.975  1.00  0.00     0.040 A 
ATOM     73  F   UNL A   1      39.031  32.411  39.818  1.00  0.00    -0.206 F 
ATOM     74  C   UNL A   1      40.531  35.484  41.016  1.00  0.00     0.006 A 
ENDBRANCH  53  67
BRANCH  54  75
ATOM     75  C   UNL A   1      39.860  28.897  30.068  1.00  0.00     0.057 A 
ATOM     76  C   UNL A   1      39.194  27.668  29.999  1.00  0.00     0.134 A 
ATOM     77  C   UNL A   1      40.458  29.375  28.897  1.00  0.00     0.134 A 
ATOM     78  F   UNL A   1      38.618  27.151  31.094  1.00  0.00    -0.206 F 
ATOM     79  C   UNL A   1      39.138  26.932  28.815  1.00  0.00     0.040 A 
ATOM     80  C   UNL A   1      40.391  28.659  27.700  1.00  0.00     0.040 A 
ATOM     81  F   UNL A   1      41.105  30.549  28.898  1.00  0.00    -0.206 F 
ATOM     82  C   UNL A   1      39.734  27.430  27.659  1.00  0.00     0.006 A 
ENDBRANCH  54  75
BRANCH  66  83
ATOM     83  C   UNL A   1      44.330  28.822  35.392  1.00  0.00     0.057 A 
ATOM     84  C   UNL A   1      44.278  27.580  36.035  1.00  0.00     0.134 A 
ATOM     85  C   UNL A   1      45.584  29.283  34.969  1.00  0.00     0.134 A 
ATOM     86  F   UNL A   1      43.110  27.091  36.476  1.00  0.00    -0.206 F 
ATOM     87  C   UNL A   1      45.434  26.830  36.263  1.00  0.00     0.040 A 
ATOM     88  C   UNL A   1      46.742  28.532  35.170  1.00  0.00     0.040 A 
ATOM     89  F   UNL A   1      45.699  30.464  34.342  1.00  0.00    -0.206 F 
ATOM     90  C   UNL A   1      46.669  27.304  35.824  1.00  0.00     0.006 A 
ENDBRANCH  66  83
ENDBRANCH  40  41
ENDBRANCH  32  35
ENDBRANCH  30  31
ENDBRANCH  29  30
ENDBRANCH  28  29
ENDBRANCH   1  28
TORSDOF 16
ENDMDL
MODEL 2
REMARK VINA RESULT:     -11.1      1.285      2.424
REMARK SMILES O=C(C[NH+]1CCN(c2nccc(N3CCCCC3)n2)CC1)NCCCCCCNC(=O)c1ccc(-c2c3nc(c(-c4c(F)cccc4F)c4ccc([nH]4)c(-c4c(F)cccc4F)c4nc(c(-c5c(F)cccc5F)c5ccc2[nH]5)C=C4)C=C3)cc1
REMARK SMILES IDX 25 1 24 2 23 3 22 4 1 5 2 6 3 8 4 9 5 10 21 11 6 13 20 14
REMARK SMILES IDX 7 15 8 16 9 17 19 18 10 19 12 20 11 21 13 22 14 23 18 24
REMARK SMILES IDX 15 25 17 26 16 27 26 28 27 29 28 30 29 31 30 32 31 34 32 35
REMARK SMILES IDX 33 36 85 37 34 38 84 39 35 40 36 41 37 42 78 43 38 44 83 45
REMARK SMILES IDX 77 46 79 47 39 48 82 49 76 50 75 51 40 53 66 54 49 55 65 56
REMARK SMILES IDX 50 57 53 58 64 59 80 60 51 61 52 62 63 64 81 65 54 66 41 67
REMARK SMILES IDX 42 68 47 69 43 70 44 71 46 72 48 73 45 74 67 75 68 76 73 77
REMARK SMILES IDX 69 78 70 79 72 80 74 81 71 82 55 83 56 84 61 85 57 86 58 87
REMARK SMILES IDX 60 88 62 89 59 90
REMARK H PARENT 22 7 4 12 29 33 79 52 53 63
REMARK Flexibility Score: inf
ROOT
ATOM      1  C   UNL A   1      35.778  33.157  28.573  1.00  0.00     0.002 C 
ENDROOT
BRANCH   1   2
ATOM      2  C   UNL A   1      35.478  31.696  28.222  1.00  0.00     0.021 C 
BRANCH   2   3
ATOM      3  C   UNL A   1      34.093  31.483  27.616  1.00  0.00     0.116 C 
BRANCH   3   4
ATOM      4  N   UNL A   1      33.677  30.098  27.680  1.00  0.00    -0.351 N 
ATOM      5  O   UNL A   1      31.731  30.441  26.527  1.00  0.00    -0.269 OA
ATOM      6  C   UNL A   1      32.498  29.678  27.108  1.00  0.00     0.275 C 
ATOM      7  H   UNL A   1      34.249  29.443  28.143  1.00  0.00     0.163 HD
BRANCH   6   8
ATOM      8  C   UNL A   1      32.205  28.186  27.279  1.00  0.00     0.363 C 
BRANCH   8   9
ATOM      9  N   UNL A   1      32.048  27.412  26.044  1.00  0.00    -0.324 N 
ATOM     10  C   UNL A   1      33.210  27.220  25.169  1.00  0.00     0.284 C 
ATOM     11  C   UNL A   1      31.222  26.204  26.125  1.00  0.00     0.284 C 
ATOM     12  H   UNL A   1      31.496  28.112  25.548  1.00  0.00     0.348 HD
ATOM     13  C   UNL A   1      34.029  25.924  25.399  1.00  0.00     0.181 C 
ATOM     14  C   UNL A   1      31.977  24.894  26.422  1.00  0.00     0.181 C 
ATOM     15  N   UNL A   1      33.163  24.760  25.581  1.00  0.00    -0.329 N 
BRANCH  15  16
ATOM     16  C   UNL A   1      33.734  23.502  25.519  1.00  0.00     0.227 A 
ATOM     17  N   UNL A   1      35.069  23.391  25.546  1.00  0.00    -0.221 NA
ATOM     18  N   UNL A   1      32.927  22.436  25.416  1.00  0.00    -0.196 NA
ATOM     19  C   UNL A   1      35.589  22.150  25.546  1.00  0.00     0.119 A 
ATOM     20  C   UNL A   1      33.480  21.211  25.346  1.00  0.00     0.134 A 
ATOM     21  C   UNL A   1      34.834  21.015  25.480  1.00  0.00     0.067 A 
BRANCH  20  22
ATOM     22  N   UNL A   1      32.701  20.145  24.942  1.00  0.00    -0.356 N 
ATOM     23  C   UNL A   1      32.904  18.899  25.665  1.00  0.00     0.118 C 
ATOM     24  C   UNL A   1      32.111  20.114  23.616  1.00  0.00     0.118 C 
ATOM     25  C   UNL A   1      33.644  17.890  24.798  1.00  0.00     0.022 C 
ATOM     26  C   UNL A   1      32.800  19.060  22.743  1.00  0.00     0.022 C 
ATOM     27  C   UNL A   1      32.927  17.716  23.463  1.00  0.00     0.004 C 
ENDBRANCH  20  22
ENDBRANCH  15  16
ENDBRANCH   8   9
ENDBRANCH   6   8
ENDBRANCH   3   4
ENDBRANCH   2   3
ENDBRANCH   1   2
BRANCH   1  28
ATOM     28  C   UNL A   1      34.986  34.176  27.751  1.00  0.00     0.002 C 
BRANCH  28  29
ATOM     29  C   UNL A   1      34.123  35.143  28.547  1.00  0.00     0.021 C 
BRANCH  29  30
ATOM     30  C   UNL A   1      33.250  34.495  29.615  1.00  0.00     0.116 C 
BRANCH  30  31
ATOM     31  N   UNL A   1      32.554  35.447  30.477  1.00  0.00    -0.352 N 
ATOM     32  C   UNL A   1      32.766  35.749  31.803  1.00  0.00     0.251 C 
ATOM     33  H   UNL A   1      31.824  35.946  30.045  1.00  0.00     0.163 HD
ATOM     34  O   UNL A   1      32.011  36.513  32.398  1.00  0.00    -0.269 OA
BRANCH  32  35
ATOM     35  C   UNL A   1      33.886  35.098  32.518  1.00  0.00     0.039 A 
ATOM     36  C   UNL A   1      33.687  33.850  33.112  1.00  0.00     0.014 A 
ATOM     37  C   UNL A   1      35.154  35.678  32.510  1.00  0.00     0.014 A 
ATOM     38  C   UNL A   1      34.788  33.128  33.581  1.00  0.00     0.010 A 
ATOM     39  C   UNL A   1      36.256  34.915  32.871  1.00  0.00     0.010 A 
ATOM     40  C   UNL A   1      36.089  33.624  33.398  1.00  0.00    -0.014 A 
BRANCH  40  41
ATOM     41  C   UNL A   1      37.296  32.816  33.718  1.00  0.00     0.031 A 
ATOM     42  C   UNL A   1      38.070  33.087  34.980  1.00  0.00     0.074 A 
ATOM     43  C   UNL A   1      37.765  31.923  32.824  1.00  0.00     0.049 A 
ATOM     44  N   UNL A   1      39.221  32.601  35.366  1.00  0.00    -0.248 NA
ATOM     45  C   UNL A   1      37.492  34.071  35.909  1.00  0.00     0.031 C 
ATOM     46  C   UNL A   1      37.153  31.609  31.529  1.00  0.00     0.029 A 
ATOM     47  N   UNL A   1      38.879  31.121  32.862  1.00  0.00    -0.354 N 
ATOM     48  C   UNL A   1      39.523  33.251  36.556  1.00  0.00     0.074 A 
ATOM     49  C   UNL A   1      38.461  34.203  36.800  1.00  0.00     0.031 C 
ATOM     50  C   UNL A   1      37.877  30.658  30.917  1.00  0.00     0.029 A 
ATOM     51  C   UNL A   1      39.028  30.326  31.751  1.00  0.00     0.049 A 
ATOM     52  H   UNL A   1      39.513  31.116  33.615  1.00  0.00     0.167 HD
ATOM     53  C   UNL A   1      40.575  33.057  37.387  1.00  0.00     0.037 A 
ATOM     54  C   UNL A   1      39.984  29.432  31.437  1.00  0.00     0.037 A 
ATOM     55  C   UNL A   1      41.599  32.069  37.176  1.00  0.00     0.049 A 
ATOM     56  C   UNL A   1      41.123  29.208  32.391  1.00  0.00     0.074 A 
ATOM     57  C   UNL A   1      42.654  31.730  38.004  1.00  0.00     0.029 A 
ATOM     58  N   UNL A   1      41.689  31.254  36.058  1.00  0.00    -0.354 N 
ATOM     59  N   UNL A   1      41.359  29.779  33.547  1.00  0.00    -0.248 NA
ATOM     60  C   UNL A   1      42.130  28.211  31.996  1.00  0.00     0.031 C 
ATOM     61  C   UNL A   1      43.401  30.729  37.373  1.00  0.00     0.029 A 
ATOM     62  C   UNL A   1      42.791  30.422  36.168  1.00  0.00     0.049 A 
ATOM     63  H   UNL A   1      41.063  31.266  35.298  1.00  0.00     0.167 HD
ATOM     64  C   UNL A   1      42.521  29.193  34.030  1.00  0.00     0.074 A 
ATOM     65  C   UNL A   1      42.939  28.215  33.047  1.00  0.00     0.031 C 
ATOM     66  C   UNL A   1      43.183  29.443  35.187  1.00  0.00     0.037 A 
BRANCH  53  67
ATOM     67  C   UNL A   1      40.657  33.926  38.607  1.00  0.00     0.057 A 
ATOM     68  C   UNL A   1      39.935  33.635  39.772  1.00  0.00     0.134 A 
ATOM     69  C   UNL A   1      41.471  35.065  38.619  1.00  0.00     0.134 A 
ATOM     70  F   UNL A   1      39.126  32.567  39.821  1.00  0.00    -0.206 F 
ATOM     71  C   UNL A   1      39.991  34.465  40.893  1.00  0.00     0.040 A 
ATOM     72  C   UNL A   1      41.558  35.888  39.743  1.00  0.00     0.040 A 
ATOM     73  F   UNL A   1      42.194  35.399  37.539  1.00  0.00    -0.206 F 
ATOM     74  C   UNL A   1      40.808  35.594  40.882  1.00  0.00     0.006 A 
ENDBRANCH  53  67
BRANCH  54  75
ATOM     75  C   UNL A   1      39.887  28.645  30.182  1.00  0.00     0.057 A 
ATOM     76  C   UNL A   1      40.525  29.084  29.015  1.00  0.00     0.134 A 
ATOM     77  C   UNL A   1      39.158  27.454  30.110  1.00  0.00     0.134 A 
ATOM     78  F   UNL A   1      41.223  30.229  29.019  1.00  0.00    -0.206 F 
ATOM     79  C   UNL A   1      40.429  28.374  27.818  1.00  0.00     0.040 A 
ATOM     80  C   UNL A   1      39.071  26.723  28.924  1.00  0.00     0.040 A 
ATOM     81  F   UNL A   1      38.530  26.978  31.195  1.00  0.00    -0.206 F 
ATOM     82  C   UNL A   1      39.703  27.187  27.771  1.00  0.00     0.006 A 
ENDBRANCH  54  75
BRANCH  66  83
ATOM     83  C   UNL A   1      44.401  28.618  35.470  1.00  0.00     0.057 A 
ATOM     84  C   UNL A   1      45.680  29.029  35.075  1.00  0.00     0.134 A 
ATOM     85  C   UNL A   1      44.296  27.414  36.180  1.00  0.00     0.134 A 
ATOM     86  F   UNL A   1      45.845  30.164  34.381  1.00  0.00    -0.206 F 
ATOM     87  C   UNL A   1      46.811  28.263  35.362  1.00  0.00     0.040 A 
ATOM     88  C   UNL A   1      45.421  26.652  36.492  1.00  0.00     0.040 A 
ATOM     89  F   UNL A   1      43.099  26.969  36.591  1.00  0.00    -0.206 F 
ATOM     90  C   UNL A   1      46.683  27.074  36.078  1.00  0.00     0.006 A 
ENDBRANCH  66  83
ENDBRANCH  40  41
ENDBRANCH  32  35
ENDBRANCH  30  31
ENDBRANCH  29  30
ENDBRANCH  28  29
ENDBRANCH   1  28
TORSDOF 16
ENDMDL
MODEL 3
REMARK VINA RESULT:     -11.0      2.442      3.660
REMARK SMILES O=C(C[NH+]1CCN(c2nccc(N3CCCCC3)n2)CC1)NCCCCCCNC(=O)c1ccc(-c2c3nc(c(-c4c(F)cccc4F)c4ccc([nH]4)c(-c4c(F)cccc4F)c4nc(c(-c5c(F)cccc5F)c5ccc2[nH]5)C=C4)C=C3)cc1
REMARK SMILES IDX 25 1 24 2 23 3 22 4 1 5 2 6 3 8 4 9 5 10 21 11 6 13 20 14
REMARK SMILES IDX 7 15 8 16 9 17 19 18 10 19 12 20 11 21 13 22 14 23 18 24
REMARK SMILES IDX 15 25 17 26 16 27 26 28 27 29 28 30 29 31 30 32 31 34 32 35
REMARK SMILES IDX 33 36 85 37 34 38 84 39 35 40 36 41 37 42 78 43 38 44 83 45
REMARK SMILES IDX 77 46 79 47 39 48 82 49 76 50 75 51 40 53 66 54 49 55 65 56
REMARK SMILES IDX 50 57 53 58 64 59 80 60 51 61 52 62 63 64 81 65 54 66 41 67
REMARK SMILES IDX 42 68 47 69 43 70 44 71 46 72 48 73 45 74 67 75 68 76 73 77
REMARK SMILES IDX 69 78 70 79 72 80 74 81 71 82 55 83 56 84 61 85 57 86 58 87
REMARK SMILES IDX 60 88 62 89 59 90
REMARK H PARENT 22 7 4 12 29 33 79 52 53 63
REMARK Flexibility Score: inf
ROOT
ATOM      1  C   UNL A   1      35.030  29.372  27.380  1.00  0.00     0.002 C 
ENDROOT
BRANCH   1   2
ATOM      2  C   UNL A   1      33.950  29.201  26.308  1.00  0.00     0.021 C 
BRANCH   2   3
ATOM      3  C   UNL A   1      33.699  27.747  25.916  1.00  0.00     0.116 C 
BRANCH   3   4
ATOM      4  N   UNL A   1      32.786  27.632  24.798  1.00  0.00    -0.351 N 
ATOM      5  O   UNL A   1      31.277  26.337  25.929  1.00  0.00    -0.269 OA
ATOM      6  C   UNL A   1      31.613  26.921  24.901  1.00  0.00     0.275 C 
ATOM      7  H   UNL A   1      33.010  28.072  23.946  1.00  0.00     0.163 HD
BRANCH   6   8
ATOM      8  C   UNL A   1      30.773  26.891  23.624  1.00  0.00     0.363 C 
BRANCH   8   9
ATOM      9  N   UNL A   1      30.969  25.733  22.747  1.00  0.00    -0.324 N 
ATOM     10  C   UNL A   1      32.305  25.468  22.202  1.00  0.00     0.284 C 
ATOM     11  C   UNL A   1      30.282  24.495  23.127  1.00  0.00     0.284 C 
ATOM     12  H   UNL A   1      30.463  26.116  21.949  1.00  0.00     0.348 HD
ATOM     13  C   UNL A   1      33.192  24.492  23.016  1.00  0.00     0.181 C 
ATOM     14  C   UNL A   1      31.094  23.517  23.998  1.00  0.00     0.181 C 
ATOM     15  N   UNL A   1      32.439  23.322  23.465  1.00  0.00    -0.329 N 
BRANCH  15  16
ATOM     16  C   UNL A   1      33.144  22.239  23.959  1.00  0.00     0.227 A 
ATOM     17  N   UNL A   1      34.420  22.407  24.331  1.00  0.00    -0.221 NA
ATOM     18  N   UNL A   1      32.526  21.050  24.028  1.00  0.00    -0.196 NA
ATOM     19  C   UNL A   1      35.056  21.348  24.863  1.00  0.00     0.119 A 
ATOM     20  C   UNL A   1      33.212  19.992  24.499  1.00  0.00     0.134 A 
ATOM     21  C   UNL A   1      34.486  20.115  25.002  1.00  0.00     0.067 A 
BRANCH  20  22
ATOM     22  N   UNL A   1      32.707  18.722  24.300  1.00  0.00    -0.356 N 
ATOM     23  C   UNL A   1      32.528  17.915  25.497  1.00  0.00     0.118 C 
ATOM     24  C   UNL A   1      32.818  18.071  23.007  1.00  0.00     0.118 C 
ATOM     25  C   UNL A   1      33.580  16.817  25.565  1.00  0.00     0.022 C 
ATOM     26  C   UNL A   1      33.826  16.920  23.068  1.00  0.00     0.022 C 
ATOM     27  C   UNL A   1      33.581  16.007  24.271  1.00  0.00     0.004 C 
ENDBRANCH  20  22
ENDBRANCH  15  16
ENDBRANCH   8   9
ENDBRANCH   6   8
ENDBRANCH   3   4
ENDBRANCH   2   3
ENDBRANCH   1   2
BRANCH   1  28
ATOM     28  C   UNL A   1      34.973  30.708  28.122  1.00  0.00     0.002 C 
BRANCH  28  29
ATOM     29  C   UNL A   1      33.772  31.589  27.811  1.00  0.00     0.021 C 
BRANCH  29  30
ATOM     30  C   UNL A   1      34.092  33.067  27.627  1.00  0.00     0.116 C 
BRANCH  30  31
ATOM     31  N   UNL A   1      33.374  33.953  28.540  1.00  0.00    -0.352 N 
ATOM     32  C   UNL A   1      33.654  34.282  29.847  1.00  0.00     0.251 C 
ATOM     33  H   UNL A   1      32.570  34.379  28.164  1.00  0.00     0.163 HD
ATOM     34  O   UNL A   1      32.876  34.974  30.498  1.00  0.00    -0.269 OA
BRANCH  32  35
ATOM     35  C   UNL A   1      34.881  33.743  30.476  1.00  0.00     0.039 A 
ATOM     36  C   UNL A   1      34.777  32.694  31.392  1.00  0.00     0.014 A 
ATOM     37  C   UNL A   1      36.134  34.209  30.080  1.00  0.00     0.014 A 
ATOM     38  C   UNL A   1      35.933  32.029  31.809  1.00  0.00     0.010 A 
ATOM     39  C   UNL A   1      37.268  33.478  30.405  1.00  0.00     0.010 A 
ATOM     40  C   UNL A   1      37.181  32.369  31.263  1.00  0.00    -0.014 A 
BRANCH  40  41
ATOM     41  C   UNL A   1      38.409  31.577  31.540  1.00  0.00     0.031 A 
ATOM     42  C   UNL A   1      39.332  31.986  32.655  1.00  0.00     0.074 A 
ATOM     43  C   UNL A   1      38.757  30.565  30.720  1.00  0.00     0.049 A 
ATOM     44  N   UNL A   1      40.517  31.523  32.963  1.00  0.00    -0.248 NA
ATOM     45  C   UNL A   1      38.881  33.095  33.511  1.00  0.00     0.031 C 
ATOM     46  C   UNL A   1      37.990  30.106  29.558  1.00  0.00     0.029 A 
ATOM     47  N   UNL A   1      39.859  29.746  30.729  1.00  0.00    -0.354 N 
ATOM     48  C   UNL A   1      40.967  32.311  34.014  1.00  0.00     0.074 A 
ATOM     49  C   UNL A   1      39.953  33.314  34.257  1.00  0.00     0.031 C 
ATOM     50  C   UNL A   1      38.625  29.066  28.993  1.00  0.00     0.029 A 
ATOM     51  C   UNL A   1      39.864  28.812  29.721  1.00  0.00     0.049 A 
ATOM     52  H   UNL A   1      40.579  29.820  31.396  1.00  0.00     0.167 HD
ATOM     53  C   UNL A   1      42.109  32.196  34.733  1.00  0.00     0.037 A 
ATOM     54  C   UNL A   1      40.766  27.861  29.415  1.00  0.00     0.037 A 
ATOM     55  C   UNL A   1      43.090  31.163  34.533  1.00  0.00     0.049 A 
ATOM     56  C   UNL A   1      42.009  27.729  30.249  1.00  0.00     0.074 A 
ATOM     57  C   UNL A   1      44.233  30.904  35.267  1.00  0.00     0.029 A 
ATOM     58  N   UNL A   1      43.035  30.210  33.526  1.00  0.00    -0.354 N 
ATOM     59  N   UNL A   1      42.389  28.437  31.284  1.00  0.00    -0.248 NA
ATOM     60  C   UNL A   1      42.950  26.664  29.870  1.00  0.00     0.031 C 
ATOM     61  C   UNL A   1      44.887  29.812  34.687  1.00  0.00     0.029 A 
ATOM     62  C   UNL A   1      44.133  29.370  33.612  1.00  0.00     0.049 A 
ATOM     63  H   UNL A   1      42.322  30.142  32.850  1.00  0.00     0.167 HD
ATOM     64  C   UNL A   1      43.594  27.887  31.699  1.00  0.00     0.074 A 
ATOM     65  C   UNL A   1      43.879  26.781  30.808  1.00  0.00     0.031 C 
ATOM     66  C   UNL A   1      44.393  28.264  32.727  1.00  0.00     0.037 A 
BRANCH  53  67
ATOM     67  C   UNL A   1      42.347  33.212  35.812  1.00  0.00     0.057 A 
ATOM     68  C   UNL A   1      41.862  33.034  37.114  1.00  0.00     0.134 A 
ATOM     69  C   UNL A   1      43.075  34.378  35.546  1.00  0.00     0.134 A 
ATOM     70  F   UNL A   1      41.145  31.946  37.429  1.00  0.00    -0.206 F 
ATOM     71  C   UNL A   1      42.059  33.997  38.105  1.00  0.00     0.040 A 
ATOM     72  C   UNL A   1      43.304  35.336  36.536  1.00  0.00     0.040 A 
ATOM     73  F   UNL A   1      43.573  34.608  34.323  1.00  0.00    -0.206 F 
ATOM     74  C   UNL A   1      42.786  35.151  37.818  1.00  0.00     0.006 A 
ENDBRANCH  53  67
BRANCH  54  75
ATOM     75  C   UNL A   1      40.509  26.923  28.292  1.00  0.00     0.057 A 
ATOM     76  C   UNL A   1      41.171  27.080  27.068  1.00  0.00     0.134 A 
ATOM     77  C   UNL A   1      39.603  25.863  28.406  1.00  0.00     0.134 A 
ATOM     78  F   UNL A   1      42.036  28.089  26.895  1.00  0.00    -0.206 F 
ATOM     79  C   UNL A   1      40.928  26.227  25.991  1.00  0.00     0.040 A 
ATOM     80  C   UNL A   1      39.367  24.990  27.343  1.00  0.00     0.040 A 
ATOM     81  F   UNL A   1      38.943  25.657  29.554  1.00  0.00    -0.206 F 
ATOM     82  C   UNL A   1      40.027  25.174  26.129  1.00  0.00     0.006 A 
ENDBRANCH  54  75
BRANCH  66  83
ATOM     83  C   UNL A   1      45.627  27.450  32.968  1.00  0.00     0.057 A 
ATOM     84  C   UNL A   1      45.619  26.323  33.800  1.00  0.00     0.134 A 
ATOM     85  C   UNL A   1      46.831  27.777  32.331  1.00  0.00     0.134 A 
ATOM     86  F   UNL A   1      44.501  25.967  34.449  1.00  0.00    -0.206 F 
ATOM     87  C   UNL A   1      46.769  25.559  34.002  1.00  0.00     0.040 A 
ATOM     88  C   UNL A   1      47.981  27.008  32.507  1.00  0.00     0.040 A 
ATOM     89  F   UNL A   1      46.903  28.841  31.517  1.00  0.00    -0.206 F 
ATOM     90  C   UNL A   1      47.953  25.899  33.349  1.00  0.00     0.006 A 
ENDBRANCH  66  83
ENDBRANCH  40  41
ENDBRANCH  32  35
ENDBRANCH  30  31
ENDBRANCH  29  30
ENDBRANCH  28  29
ENDBRANCH   1  28
TORSDOF 16
ENDMDL
