MODEL 1
REMARK VINA RESULT:     -10.0      0.000      0.000
REMARK SMILES CCN(CC(C)C)C(=O)N[C@](C)(CC)C(=O)NCCCCCCNC(=O)c1ccc(-c2c3nc(c(-c4c(F)cccc4F)c4ccc([nH]4)c(-c4c(F)cccc4F)c4nc(c(-c5c(F)cccc5F)c5ccc2[nH]5)C=C4)C=C3)cc1
REMARK SMILES IDX 19 1 18 2 17 3 15 4 16 5 11 7 12 8 10 9 8 10 9 11 3 13 2 14
REMARK SMILES IDX 1 15 4 16 5 17 6 18 7 19 13 20 14 21 20 22 21 23 22 24 23 25
REMARK SMILES IDX 24 26 25 27 26 29 27 30 28 31 80 32 29 33 79 34 30 35 31 36
REMARK SMILES IDX 32 37 73 38 33 39 78 40 72 41 74 42 34 43 77 44 71 45 70 46
REMARK SMILES IDX 35 48 61 49 44 50 60 51 45 52 48 53 59 54 75 55 46 56 47 57
REMARK SMILES IDX 58 59 76 60 49 61 36 62 37 63 42 64 38 65 39 66 41 67 43 68
REMARK SMILES IDX 40 69 62 70 63 71 68 72 64 73 65 74 67 75 69 76 66 77 50 78
REMARK SMILES IDX 51 79 56 80 52 81 53 82 55 83 57 84 54 85
REMARK H PARENT 17 6 10 12 24 28 74 47 48 58
REMARK Flexibility Score: inf
ROOT
ATOM      1  C   UNL A   1      34.753  31.069  27.665  1.00  0.00     0.021 C 
ENDROOT
BRANCH   1   2
ATOM      2  C   UNL A   1      33.802  30.202  26.832  1.00  0.00     0.116 C 
BRANCH   2   3
ATOM      3  N   UNL A   1      33.098  29.288  27.705  1.00  0.00    -0.354 N 
ATOM      4  C   UNL A   1      32.161  28.343  27.388  1.00  0.00     0.245 C 
ATOM      5  O   UNL A   1      31.231  28.218  28.191  1.00  0.00    -0.272 OA
ATOM      6  H   UNL A   1      33.324  29.356  28.661  1.00  0.00     0.163 HD
BRANCH   4   7
ATOM      7  C   UNL A   1      32.267  27.463  26.092  1.00  0.00     0.117 C 
ATOM      8  C   UNL A   1      31.415  28.097  25.015  1.00  0.00     0.045 C 
BRANCH   7   9
ATOM      9  N   UNL A   1      31.795  26.120  26.535  1.00  0.00    -0.324 N 
ATOM     10  C   UNL A   1      31.775  24.814  26.262  1.00  0.00     0.318 C 
ATOM     11  O   UNL A   1      31.146  24.166  27.114  1.00  0.00    -0.249 OA
ATOM     12  H   UNL A   1      31.293  26.249  27.372  1.00  0.00     0.166 HD
BRANCH  10  13
ATOM     13  N   UNL A   1      32.425  24.166  25.253  1.00  0.00    -0.325 N 
BRANCH  13  14
ATOM     14  C   UNL A   1      31.918  24.487  23.903  1.00  0.00     0.118 C 
ATOM     15  C   UNL A   1      30.439  24.137  23.722  1.00  0.00     0.027 C 
ENDBRANCH  13  14
BRANCH  13  16
ATOM     16  C   UNL A   1      33.618  23.298  25.273  1.00  0.00     0.124 C 
BRANCH  16  17
ATOM     17  C   UNL A   1      34.445  23.131  26.580  1.00  0.00     0.002 C 
ATOM     18  C   UNL A   1      34.140  21.920  27.454  1.00  0.00     0.009 C 
ATOM     19  C   UNL A   1      35.959  23.212  26.295  1.00  0.00     0.009 C 
ENDBRANCH  16  17
ENDBRANCH  13  16
ENDBRANCH  10  13
ENDBRANCH   7   9
BRANCH   7  20
ATOM     20  C   UNL A   1      33.703  27.363  25.512  1.00  0.00     0.035 C 
ATOM     21  C   UNL A   1      33.807  27.718  24.027  1.00  0.00     0.007 C 
ENDBRANCH   7  20
ENDBRANCH   4   7
ENDBRANCH   2   3
ENDBRANCH   1   2
BRANCH   1  22
ATOM     22  C   UNL A   1      34.033  32.025  28.627  1.00  0.00     0.002 C 
BRANCH  22  23
ATOM     23  C   UNL A   1      34.271  33.513  28.353  1.00  0.00     0.002 C 
BRANCH  23  24
ATOM     24  C   UNL A   1      33.133  34.428  28.803  1.00  0.00     0.021 C 
BRANCH  24  25
ATOM     25  C   UNL A   1      33.598  35.781  29.322  1.00  0.00     0.116 C 
BRANCH  25  26
ATOM     26  N   UNL A   1      32.720  36.295  30.361  1.00  0.00    -0.352 N 
ATOM     27  C   UNL A   1      32.702  35.955  31.691  1.00  0.00     0.251 C 
ATOM     28  H   UNL A   1      32.060  36.967  30.076  1.00  0.00     0.163 HD
ATOM     29  O   UNL A   1      31.785  36.309  32.425  1.00  0.00    -0.269 OA
BRANCH  27  30
ATOM     30  C   UNL A   1      33.808  35.135  32.221  1.00  0.00     0.039 A 
ATOM     31  C   UNL A   1      33.564  33.813  32.600  1.00  0.00     0.014 A 
ATOM     32  C   UNL A   1      35.100  35.666  32.275  1.00  0.00     0.014 A 
ATOM     33  C   UNL A   1      34.632  33.001  32.985  1.00  0.00     0.010 A 
ATOM     34  C   UNL A   1      36.168  34.836  32.583  1.00  0.00     0.010 A 
ATOM     35  C   UNL A   1      35.946  33.498  32.949  1.00  0.00    -0.014 A 
BRANCH  35  36
ATOM     36  C   UNL A   1      37.116  32.662  33.322  1.00  0.00     0.031 A 
ATOM     37  C   UNL A   1      37.846  32.959  34.604  1.00  0.00     0.074 A 
ATOM     38  C   UNL A   1      37.580  31.722  32.476  1.00  0.00     0.049 A 
ATOM     39  N   UNL A   1      38.988  32.491  35.033  1.00  0.00    -0.248 NA
ATOM     40  C   UNL A   1      37.224  33.944  35.506  1.00  0.00     0.031 C 
ATOM     41  C   UNL A   1      36.977  31.361  31.191  1.00  0.00     0.029 A 
ATOM     42  N   UNL A   1      38.689  30.917  32.557  1.00  0.00    -0.354 N 
ATOM     43  C   UNL A   1      39.236  33.147  36.232  1.00  0.00     0.074 A 
ATOM     44  C   UNL A   1      38.148  34.074  36.446  1.00  0.00     0.031 C 
ATOM     45  C   UNL A   1      37.722  30.407  30.608  1.00  0.00     0.029 A 
ATOM     46  C   UNL A   1      38.880  30.124  31.451  1.00  0.00     0.049 A 
ATOM     47  H   UNL A   1      39.291  30.907  33.337  1.00  0.00     0.167 HD
ATOM     48  C   UNL A   1      40.273  32.980  37.085  1.00  0.00     0.037 A 
ATOM     49  C   UNL A   1      39.890  29.288  31.140  1.00  0.00     0.037 A 
ATOM     50  C   UNL A   1      41.326  32.020  36.892  1.00  0.00     0.049 A 
ATOM     51  C   UNL A   1      41.033  29.125  32.109  1.00  0.00     0.074 A 
ATOM     52  C   UNL A   1      42.379  31.720  37.738  1.00  0.00     0.029 A 
ATOM     53  N   UNL A   1      41.455  31.203  35.781  1.00  0.00    -0.354 N 
ATOM     54  N   UNL A   1      41.222  29.705  33.270  1.00  0.00    -0.248 NA
ATOM     55  C   UNL A   1      42.103  28.192  31.727  1.00  0.00     0.031 C 
ATOM     56  C   UNL A   1      43.176  30.759  37.114  1.00  0.00     0.029 A 
ATOM     57  C   UNL A   1      42.585  30.415  35.909  1.00  0.00     0.049 A 
ATOM     58  H   UNL A   1      40.836  31.186  35.015  1.00  0.00     0.167 HD
ATOM     59  C   UNL A   1      42.402  29.172  33.774  1.00  0.00     0.074 A 
ATOM     60  C   UNL A   1      42.886  28.222  32.797  1.00  0.00     0.031 C 
ATOM     61  C   UNL A   1      43.027  29.442  34.945  1.00  0.00     0.037 A 
BRANCH  48  62
ATOM     62  C   UNL A   1      40.328  33.844  38.309  1.00  0.00     0.057 A 
ATOM     63  C   UNL A   1      41.047  35.046  38.337  1.00  0.00     0.134 A 
ATOM     64  C   UNL A   1      39.586  33.508  39.448  1.00  0.00     0.134 A 
ATOM     65  F   UNL A   1      41.788  35.420  37.283  1.00  0.00    -0.206 F 
ATOM     66  C   UNL A   1      41.032  35.879  39.457  1.00  0.00     0.040 A 
ATOM     67  C   UNL A   1      39.540  34.345  40.564  1.00  0.00     0.040 A 
ATOM     68  F   UNL A   1      38.871  32.373  39.485  1.00  0.00    -0.206 F 
ATOM     69  C   UNL A   1      40.267  35.534  40.570  1.00  0.00     0.006 A 
ENDBRANCH  48  62
BRANCH  49  70
ATOM     70  C   UNL A   1      39.889  28.541  29.854  1.00  0.00     0.057 A 
ATOM     71  C   UNL A   1      39.249  27.301  29.737  1.00  0.00     0.134 A 
ATOM     72  C   UNL A   1      40.573  29.017  28.729  1.00  0.00     0.134 A 
ATOM     73  F   UNL A   1      38.591  26.781  30.785  1.00  0.00    -0.206 F 
ATOM     74  C   UNL A   1      39.322  26.544  28.567  1.00  0.00     0.040 A 
ATOM     75  C   UNL A   1      40.628  28.285  27.541  1.00  0.00     0.040 A 
ATOM     76  F   UNL A   1      41.201  30.202  28.769  1.00  0.00    -0.206 F 
ATOM     77  C   UNL A   1      40.013  27.037  27.463  1.00  0.00     0.006 A 
ENDBRANCH  49  70
BRANCH  61  78
ATOM     78  C   UNL A   1      44.257  28.654  35.281  1.00  0.00     0.057 A 
ATOM     79  C   UNL A   1      45.545  29.125  35.002  1.00  0.00     0.134 A 
ATOM     80  C   UNL A   1      44.147  27.441  35.976  1.00  0.00     0.134 A 
ATOM     81  F   UNL A   1      45.718  30.275  34.330  1.00  0.00    -0.206 F 
ATOM     82  C   UNL A   1      46.680  28.414  35.393  1.00  0.00     0.040 A 
ATOM     83  C   UNL A   1      45.274  26.736  36.396  1.00  0.00     0.040 A 
ATOM     84  F   UNL A   1      42.941  26.940  36.284  1.00  0.00    -0.206 F 
ATOM     85  C   UNL A   1      46.545  27.222  36.103  1.00  0.00     0.006 A 
ENDBRANCH  61  78
ENDBRANCH  35  36
ENDBRANCH  27  30
ENDBRANCH  25  26
ENDBRANCH  24  25
ENDBRANCH  23  24
ENDBRANCH  22  23
ENDBRANCH   1  22
TORSDOF 19
ENDMDL
MODEL 2
REMARK VINA RESULT:      -9.6      0.747      2.170
REMARK SMILES CCN(CC(C)C)C(=O)N[C@](C)(CC)C(=O)NCCCCCCNC(=O)c1ccc(-c2c3nc(c(-c4c(F)cccc4F)c4ccc([nH]4)c(-c4c(F)cccc4F)c4nc(c(-c5c(F)cccc5F)c5ccc2[nH]5)C=C4)C=C3)cc1
REMARK SMILES IDX 19 1 18 2 17 3 15 4 16 5 11 7 12 8 10 9 8 10 9 11 3 13 2 14
REMARK SMILES IDX 1 15 4 16 5 17 6 18 7 19 13 20 14 21 20 22 21 23 22 24 23 25
REMARK SMILES IDX 24 26 25 27 26 29 27 30 28 31 80 32 29 33 79 34 30 35 31 36
REMARK SMILES IDX 32 37 73 38 33 39 78 40 72 41 74 42 34 43 77 44 71 45 70 46
REMARK SMILES IDX 35 48 61 49 44 50 60 51 45 52 48 53 59 54 75 55 46 56 47 57
REMARK SMILES IDX 58 59 76 60 49 61 36 62 37 63 42 64 38 65 39 66 41 67 43 68
REMARK SMILES IDX 40 69 62 70 63 71 68 72 64 73 65 74 67 75 69 76 66 77 50 78
REMARK SMILES IDX 51 79 56 80 52 81 53 82 55 83 57 84 54 85
REMARK H PARENT 17 6 10 12 24 28 74 47 48 58
REMARK Flexibility Score: inf
ROOT
ATOM      1  C   UNL A   1      34.721  31.289  28.051  1.00  0.00     0.021 C 
ENDROOT
BRANCH   1   2
ATOM      2  C   UNL A   1      33.480  30.833  27.275  1.00  0.00     0.116 C 
BRANCH   2   3
ATOM      3  N   UNL A   1      33.096  29.511  27.720  1.00  0.00    -0.354 N 
ATOM      4  C   UNL A   1      32.139  28.675  27.212  1.00  0.00     0.245 C 
ATOM      5  O   UNL A   1      31.492  28.031  28.045  1.00  0.00    -0.272 OA
ATOM      6  H   UNL A   1      33.592  29.164  28.496  1.00  0.00     0.163 HD
BRANCH   4   7
ATOM      7  C   UNL A   1      31.886  28.533  25.670  1.00  0.00     0.117 C 
ATOM      8  C   UNL A   1      31.383  29.861  25.145  1.00  0.00     0.045 C 
BRANCH   7   9
ATOM      9  N   UNL A   1      30.897  27.422  25.572  1.00  0.00    -0.324 N 
ATOM     10  C   UNL A   1      30.725  26.116  25.361  1.00  0.00     0.318 C 
ATOM     11  O   UNL A   1      29.530  25.785  25.417  1.00  0.00    -0.249 OA
ATOM     12  H   UNL A   1      30.006  27.811  25.727  1.00  0.00     0.166 HD
BRANCH  10  13
ATOM     13  N   UNL A   1      31.691  25.166  25.199  1.00  0.00    -0.325 N 
BRANCH  13  14
ATOM     14  C   UNL A   1      32.552  24.971  26.383  1.00  0.00     0.118 C 
ATOM     15  C   UNL A   1      33.397  23.697  26.304  1.00  0.00     0.027 C 
ENDBRANCH  13  14
BRANCH  13  16
ATOM     16  C   UNL A   1      31.942  24.223  24.091  1.00  0.00     0.124 C 
BRANCH  16  17
ATOM     17  C   UNL A   1      32.526  24.734  22.743  1.00  0.00     0.002 C 
ATOM     18  C   UNL A   1      31.732  25.795  21.990  1.00  0.00     0.009 C 
ATOM     19  C   UNL A   1      33.993  25.186  22.907  1.00  0.00     0.009 C 
ENDBRANCH  16  17
ENDBRANCH  13  16
ENDBRANCH  10  13
ENDBRANCH   7   9
BRANCH   7  20
ATOM     20  C   UNL A   1      33.160  28.193  24.850  1.00  0.00     0.035 C 
ATOM     21  C   UNL A   1      33.227  28.877  23.482  1.00  0.00     0.007 C 
ENDBRANCH   7  20
ENDBRANCH   4   7
ENDBRANCH   2   3
ENDBRANCH   1   2
BRANCH   1  22
ATOM     22  C   UNL A   1      34.439  32.412  29.059  1.00  0.00     0.002 C 
BRANCH  22  23
ATOM     23  C   UNL A   1      34.332  33.813  28.448  1.00  0.00     0.002 C 
BRANCH  23  24
ATOM     24  C   UNL A   1      33.068  34.578  28.839  1.00  0.00     0.021 C 
BRANCH  24  25
ATOM     25  C   UNL A   1      33.331  35.994  29.331  1.00  0.00     0.116 C 
BRANCH  25  26
ATOM     26  N   UNL A   1      32.583  36.297  30.540  1.00  0.00    -0.352 N 
ATOM     27  C   UNL A   1      32.744  35.748  31.789  1.00  0.00     0.251 C 
ATOM     28  H   UNL A   1      31.876  36.976  30.453  1.00  0.00     0.163 HD
ATOM     29  O   UNL A   1      31.920  35.939  32.677  1.00  0.00    -0.269 OA
BRANCH  27  30
ATOM     30  C   UNL A   1      33.926  34.902  32.036  1.00  0.00     0.039 A 
ATOM     31  C   UNL A   1      35.204  35.433  31.851  1.00  0.00     0.014 A 
ATOM     32  C   UNL A   1      33.758  33.600  32.516  1.00  0.00     0.014 A 
ATOM     33  C   UNL A   1      36.321  34.673  32.202  1.00  0.00     0.010 A 
ATOM     34  C   UNL A   1      34.865  32.876  32.936  1.00  0.00     0.010 A 
ATOM     35  C   UNL A   1      36.159  33.401  32.777  1.00  0.00    -0.014 A 
BRANCH  35  36
ATOM     36  C   UNL A   1      37.316  32.569  33.192  1.00  0.00     0.031 A 
ATOM     37  C   UNL A   1      38.012  32.881  34.489  1.00  0.00     0.074 A 
ATOM     38  C   UNL A   1      37.801  31.617  32.371  1.00  0.00     0.049 A 
ATOM     39  N   UNL A   1      39.142  32.416  34.955  1.00  0.00    -0.248 NA
ATOM     40  C   UNL A   1      37.368  33.879  35.361  1.00  0.00     0.031 C 
ATOM     41  C   UNL A   1      37.232  31.240  31.075  1.00  0.00     0.029 A 
ATOM     42  N   UNL A   1      38.906  30.811  32.493  1.00  0.00    -0.354 N 
ATOM     43  C   UNL A   1      39.358  33.088  36.152  1.00  0.00     0.074 A 
ATOM     44  C   UNL A   1      38.267  34.019  36.324  1.00  0.00     0.031 C 
ATOM     45  C   UNL A   1      37.991  30.277  30.524  1.00  0.00     0.029 A 
ATOM     46  C   UNL A   1      39.125  30.004  31.402  1.00  0.00     0.049 A 
ATOM     47  H   UNL A   1      39.487  30.810  33.288  1.00  0.00     0.167 HD
ATOM     48  C   UNL A   1      40.372  32.929  37.034  1.00  0.00     0.037 A 
ATOM     49  C   UNL A   1      40.141  29.162  31.129  1.00  0.00     0.037 A 
ATOM     50  C   UNL A   1      41.427  31.966  36.882  1.00  0.00     0.049 A 
ATOM     51  C   UNL A   1      41.257  29.010  32.130  1.00  0.00     0.074 A 
ATOM     52  C   UNL A   1      42.457  31.675  37.760  1.00  0.00     0.029 A 
ATOM     53  N   UNL A   1      41.585  31.134  35.786  1.00  0.00    -0.354 N 
ATOM     54  N   UNL A   1      41.416  29.604  33.288  1.00  0.00    -0.248 NA
ATOM     55  C   UNL A   1      42.335  28.069  31.790  1.00  0.00     0.031 C 
ATOM     56  C   UNL A   1      43.269  30.704  37.170  1.00  0.00     0.029 A 
ATOM     57  C   UNL A   1      42.710  30.346  35.954  1.00  0.00     0.049 A 
ATOM     58  H   UNL A   1      40.987  31.108  35.004  1.00  0.00     0.167 HD
ATOM     59  C   UNL A   1      42.581  29.076  33.831  1.00  0.00     0.074 A 
ATOM     60  C   UNL A   1      43.089  28.112  32.880  1.00  0.00     0.031 C 
ATOM     61  C   UNL A   1      43.175  29.360  35.015  1.00  0.00     0.037 A 
BRANCH  48  62
ATOM     62  C   UNL A   1      40.396  33.809  38.248  1.00  0.00     0.057 A 
ATOM     63  C   UNL A   1      39.689  33.486  39.413  1.00  0.00     0.134 A 
ATOM     64  C   UNL A   1      41.202  34.955  38.277  1.00  0.00     0.134 A 
ATOM     65  F   UNL A   1      38.890  32.409  39.447  1.00  0.00    -0.206 F 
ATOM     66  C   UNL A   1      39.777  34.274  40.561  1.00  0.00     0.040 A 
ATOM     67  C   UNL A   1      41.320  35.736  39.428  1.00  0.00     0.040 A 
ATOM     68  F   UNL A   1      41.909  35.318  37.196  1.00  0.00    -0.206 F 
ATOM     69  C   UNL A   1      40.603  35.397  40.573  1.00  0.00     0.006 A 
ENDBRANCH  48  62
BRANCH  49  70
ATOM     70  C   UNL A   1      40.172  28.398  29.853  1.00  0.00     0.057 A 
ATOM     71  C   UNL A   1      40.899  28.861  28.750  1.00  0.00     0.134 A 
ATOM     72  C   UNL A   1      39.433  27.221  29.686  1.00  0.00     0.134 A 
ATOM     73  F   UNL A   1      41.613  29.994  28.840  1.00  0.00    -0.206 F 
ATOM     74  C   UNL A   1      40.859  28.207  27.517  1.00  0.00     0.040 A 
ATOM     75  C   UNL A   1      39.409  26.538  28.468  1.00  0.00     0.040 A 
ATOM     76  F   UNL A   1      38.721  26.716  30.705  1.00  0.00    -0.206 F 
ATOM     77  C   UNL A   1      40.112  27.040  27.374  1.00  0.00     0.006 A 
ENDBRANCH  49  70
BRANCH  61  78
ATOM     78  C   UNL A   1      44.394  28.574  35.394  1.00  0.00     0.057 A 
ATOM     79  C   UNL A   1      44.313  27.362  36.089  1.00  0.00     0.134 A 
ATOM     80  C   UNL A   1      45.663  28.998  34.976  1.00  0.00     0.134 A 
ATOM     81  F   UNL A   1      43.128  26.905  36.526  1.00  0.00    -0.206 F 
ATOM     82  C   UNL A   1      45.452  26.604  36.363  1.00  0.00     0.040 A 
ATOM     83  C   UNL A   1      46.805  28.236  35.220  1.00  0.00     0.040 A 
ATOM     84  F   UNL A   1      45.807  30.146  34.296  1.00  0.00    -0.206 F 
ATOM     85  C   UNL A   1      46.700  27.035  35.918  1.00  0.00     0.006 A 
ENDBRANCH  61  78
ENDBRANCH  35  36
ENDBRANCH  27  30
ENDBRANCH  25  26
ENDBRANCH  24  25
ENDBRANCH  23  24
ENDBRANCH  22  23
ENDBRANCH   1  22
TORSDOF 19
ENDMDL
MODEL 3
REMARK VINA RESULT:      -9.5      1.830      6.685
REMARK SMILES CCN(CC(C)C)C(=O)N[C@](C)(CC)C(=O)NCCCCCCNC(=O)c1ccc(-c2c3nc(c(-c4c(F)cccc4F)c4ccc([nH]4)c(-c4c(F)cccc4F)c4nc(c(-c5c(F)cccc5F)c5ccc2[nH]5)C=C4)C=C3)cc1
REMARK SMILES IDX 19 1 18 2 17 3 15 4 16 5 11 7 12 8 10 9 8 10 9 11 3 13 2 14
REMARK SMILES IDX 1 15 4 16 5 17 6 18 7 19 13 20 14 21 20 22 21 23 22 24 23 25
REMARK SMILES IDX 24 26 25 27 26 29 27 30 28 31 80 32 29 33 79 34 30 35 31 36
REMARK SMILES IDX 32 37 73 38 33 39 78 40 72 41 74 42 34 43 77 44 71 45 70 46
REMARK SMILES IDX 35 48 61 49 44 50 60 51 45 52 48 53 59 54 75 55 46 56 47 57
REMARK SMILES IDX 58 59 76 60 49 61 36 62 37 63 42 64 38 65 39 66 41 67 43 68
REMARK SMILES IDX 40 69 62 70 63 71 68 72 64 73 65 74 67 75 69 76 66 77 50 78
REMARK SMILES IDX 51 79 56 80 52 81 53 82 55 83 57 84 54 85
REMARK H PARENT 17 6 10 12 24 28 74 47 48 58
REMARK Flexibility Score: inf
ROOT
ATOM      1  C   UNL A   1      32.900  29.244  24.425  1.00  0.00     0.021 C 
ENDROOT
BRANCH   1   2
ATOM      2  C   UNL A   1      33.754  27.979  24.560  1.00  0.00     0.116 C 
BRANCH   2   3
ATOM      3  N   UNL A   1      33.282  27.199  25.683  1.00  0.00    -0.354 N 
ATOM      4  C   UNL A   1      32.044  26.657  25.897  1.00  0.00     0.245 C 
ATOM      5  O   UNL A   1      31.634  26.698  27.062  1.00  0.00    -0.272 OA
ATOM      6  H   UNL A   1      33.945  27.036  26.394  1.00  0.00     0.163 HD
BRANCH   4   7
ATOM      7  C   UNL A   1      31.203  26.012  24.739  1.00  0.00     0.117 C 
ATOM      8  C   UNL A   1      30.381  24.883  25.321  1.00  0.00     0.045 C 
BRANCH   7   9
ATOM      9  N   UNL A   1      32.232  25.575  23.753  1.00  0.00    -0.324 N 
ATOM     10  C   UNL A   1      33.131  24.640  23.440  1.00  0.00     0.318 C 
ATOM     11  O   UNL A   1      33.721  24.892  22.377  1.00  0.00    -0.249 OA
ATOM     12  H   UNL A   1      32.258  26.253  23.040  1.00  0.00     0.166 HD
BRANCH  10  13
ATOM     13  N   UNL A   1      33.369  23.465  24.091  1.00  0.00    -0.325 N 
BRANCH  13  14
ATOM     14  C   UNL A   1      32.294  22.463  23.943  1.00  0.00     0.118 C 
ATOM     15  C   UNL A   1      32.455  21.593  22.695  1.00  0.00     0.027 C 
ENDBRANCH  13  14
BRANCH  13  16
ATOM     16  C   UNL A   1      34.564  22.985  24.814  1.00  0.00     0.124 C 
BRANCH  16  17
ATOM     17  C   UNL A   1      35.971  23.548  24.463  1.00  0.00     0.002 C 
ATOM     18  C   UNL A   1      36.975  23.687  25.600  1.00  0.00     0.009 C 
ATOM     19  C   UNL A   1      36.603  22.771  23.288  1.00  0.00     0.009 C 
ENDBRANCH  16  17
ENDBRANCH  13  16
ENDBRANCH  10  13
ENDBRANCH   7   9
BRANCH   7  20
ATOM     20  C   UNL A   1      30.198  26.987  24.070  1.00  0.00     0.035 C 
ATOM     21  C   UNL A   1      30.482  27.264  22.591  1.00  0.00     0.007 C 
ENDBRANCH   7  20
ENDBRANCH   4   7
ENDBRANCH   2   3
ENDBRANCH   1   2
BRANCH   1  22
ATOM     22  C   UNL A   1      32.662  29.971  25.757  1.00  0.00     0.002 C 
BRANCH  22  23
ATOM     23  C   UNL A   1      31.379  30.806  25.814  1.00  0.00     0.002 C 
BRANCH  23  24
ATOM     24  C   UNL A   1      31.375  31.886  26.895  1.00  0.00     0.021 C 
BRANCH  24  25
ATOM     25  C   UNL A   1      32.659  32.700  26.958  1.00  0.00     0.116 C 
BRANCH  25  26
ATOM     26  N   UNL A   1      32.453  33.991  27.595  1.00  0.00    -0.352 N 
ATOM     27  C   UNL A   1      33.149  34.531  28.648  1.00  0.00     0.251 C 
ATOM     28  H   UNL A   1      31.727  34.544  27.226  1.00  0.00     0.163 HD
ATOM     29  O   UNL A   1      32.750  35.539  29.223  1.00  0.00    -0.269 OA
BRANCH  27  30
ATOM     30  C   UNL A   1      34.386  33.859  29.090  1.00  0.00     0.039 A 
ATOM     31  C   UNL A   1      35.620  34.307  28.616  1.00  0.00     0.014 A 
ATOM     32  C   UNL A   1      34.314  32.825  30.028  1.00  0.00     0.014 A 
ATOM     33  C   UNL A   1      36.794  33.752  29.128  1.00  0.00     0.010 A 
ATOM     34  C   UNL A   1      35.481  32.329  30.590  1.00  0.00     0.010 A 
ATOM     35  C   UNL A   1      36.734  32.782  30.142  1.00  0.00    -0.014 A 
BRANCH  35  36
ATOM     36  C   UNL A   1      37.957  32.184  30.736  1.00  0.00     0.031 A 
ATOM     37  C   UNL A   1      38.644  31.057  30.013  1.00  0.00     0.074 A 
ATOM     38  C   UNL A   1      38.384  32.573  31.952  1.00  0.00     0.049 A 
ATOM     39  N   UNL A   1      39.601  30.269  30.427  1.00  0.00    -0.248 NA
ATOM     40  C   UNL A   1      38.162  30.752  28.654  1.00  0.00     0.031 C 
ATOM     41  C   UNL A   1      37.786  33.634  32.765  1.00  0.00     0.029 A 
ATOM     42  N   UNL A   1      39.407  32.096  32.734  1.00  0.00    -0.354 N 
ATOM     43  C   UNL A   1      39.810  29.359  29.399  1.00  0.00     0.074 A 
ATOM     44  C   UNL A   1      38.857  29.664  28.356  1.00  0.00     0.031 C 
ATOM     45  C   UNL A   1      38.454  33.728  33.928  1.00  0.00     0.029 A 
ATOM     46  C   UNL A   1      39.493  32.704  33.964  1.00  0.00     0.049 A 
ATOM     47  H   UNL A   1      40.024  31.386  32.440  1.00  0.00     0.167 HD
ATOM     48  C   UNL A   1      40.727  28.366  29.327  1.00  0.00     0.037 A 
ATOM     49  C   UNL A   1      40.299  32.442  35.013  1.00  0.00     0.037 A 
ATOM     50  C   UNL A   1      41.705  28.100  30.346  1.00  0.00     0.049 A 
ATOM     51  C   UNL A   1      41.307  31.327  34.903  1.00  0.00     0.074 A 
ATOM     52  C   UNL A   1      42.727  27.166  30.330  1.00  0.00     0.029 A 
ATOM     53  N   UNL A   1      41.788  28.770  31.555  1.00  0.00    -0.354 N 
ATOM     54  N   UNL A   1      41.537  30.515  33.899  1.00  0.00    -0.248 NA
ATOM     55  C   UNL A   1      42.170  31.091  36.070  1.00  0.00     0.031 C 
ATOM     56  C   UNL A   1      43.395  27.235  31.555  1.00  0.00     0.029 A 
ATOM     57  C   UNL A   1      42.830  28.253  32.305  1.00  0.00     0.049 A 
ATOM     58  H   UNL A   1      41.195  29.503  31.839  1.00  0.00     0.167 HD
ATOM     59  C   UNL A   1      42.597  29.710  34.295  1.00  0.00     0.074 A 
ATOM     60  C   UNL A   1      42.968  30.129  35.629  1.00  0.00     0.031 C 
ATOM     61  C   UNL A   1      43.212  28.713  33.614  1.00  0.00     0.037 A 
BRANCH  48  62
ATOM     62  C   UNL A   1      40.725  27.490  28.110  1.00  0.00     0.057 A 
ATOM     63  C   UNL A   1      41.479  27.802  26.971  1.00  0.00     0.134 A 
ATOM     64  C   UNL A   1      40.023  26.278  28.109  1.00  0.00     0.134 A 
ATOM     65  F   UNL A   1      42.165  28.953  26.904  1.00  0.00    -0.206 F 
ATOM     66  C   UNL A   1      41.528  26.943  25.872  1.00  0.00     0.040 A 
ATOM     67  C   UNL A   1      40.086  25.398  27.028  1.00  0.00     0.040 A 
ATOM     68  F   UNL A   1      39.285  25.918  29.171  1.00  0.00    -0.206 F 
ATOM     69  C   UNL A   1      40.839  25.732  25.904  1.00  0.00     0.006 A 
ENDBRANCH  48  62
BRANCH  49  70
ATOM     70  C   UNL A   1      40.192  33.232  36.268  1.00  0.00     0.057 A 
ATOM     71  C   UNL A   1      39.304  32.860  37.285  1.00  0.00     0.134 A 
ATOM     72  C   UNL A   1      40.928  34.407  36.459  1.00  0.00     0.134 A 
ATOM     73  F   UNL A   1      38.556  31.754  37.154  1.00  0.00    -0.206 F 
ATOM     74  C   UNL A   1      39.122  33.644  38.425  1.00  0.00     0.040 A 
ATOM     75  C   UNL A   1      40.780  35.186  37.608  1.00  0.00     0.040 A 
ATOM     76  F   UNL A   1      41.803  34.818  35.528  1.00  0.00    -0.206 F 
ATOM     77  C   UNL A   1      39.863  34.812  38.589  1.00  0.00     0.006 A 
ENDBRANCH  49  70
BRANCH  61  78
ATOM     78  C   UNL A   1      44.398  28.055  34.253  1.00  0.00     0.057 A 
ATOM     79  C   UNL A   1      45.702  28.530  34.074  1.00  0.00     0.134 A 
ATOM     80  C   UNL A   1      44.215  26.979  35.133  1.00  0.00     0.134 A 
ATOM     81  F   UNL A   1      45.945  29.551  33.237  1.00  0.00    -0.206 F 
ATOM     82  C   UNL A   1      46.783  27.953  34.741  1.00  0.00     0.040 A 
ATOM     83  C   UNL A   1      45.284  26.412  35.826  1.00  0.00     0.040 A 
ATOM     84  F   UNL A   1      42.988  26.483  35.356  1.00  0.00    -0.206 F 
ATOM     85  C   UNL A   1      46.573  26.899  35.628  1.00  0.00     0.006 A 
ENDBRANCH  61  78
ENDBRANCH  35  36
ENDBRANCH  27  30
ENDBRANCH  25  26
ENDBRANCH  24  25
ENDBRANCH  23  24
ENDBRANCH  22  23
ENDBRANCH   1  22
TORSDOF 19
ENDMDL
