MODEL 1
REMARK VINA RESULT:     -10.9      0.000      0.000
REMARK SMILES Cc1n[nH]c(CN(C)C(=O)N[C@](C)(C(=O)NCCCCCCNC(=O)c2ccc(-c3c4nc(c(-c5c(F)cccc5F)c5ccc([nH]5)c(-c5c(F)cccc5F)c5nc(c(-c6c(F)cccc6F)c6ccc3[nH]6)C=C5)C=C4)cc2)C(F)(F)F)n1
REMARK SMILES IDX 18 1 17 2 16 3 14 4 15 5 12 7 13 8 11 9 9 10 10 11 7 13 8 14
REMARK SMILES IDX 6 15 5 16 1 17 2 18 3 19 84 20 4 21 80 23 81 24 82 25 83 26
REMARK SMILES IDX 19 27 20 28 21 29 22 30 23 31 24 32 25 34 26 35 27 36 79 37
REMARK SMILES IDX 28 38 78 39 29 40 30 41 31 42 72 43 32 44 77 45 71 46 73 47
REMARK SMILES IDX 33 48 76 49 70 50 69 51 34 53 60 54 43 55 59 56 44 57 47 58
REMARK SMILES IDX 58 59 74 60 45 61 46 62 57 64 75 65 48 66 35 67 36 68 41 69
REMARK SMILES IDX 37 70 38 71 40 72 42 73 39 74 61 75 62 76 67 77 63 78 64 79
REMARK SMILES IDX 66 80 68 81 65 82 49 83 50 84 55 85 51 86 52 87 54 88 56 89
REMARK SMILES IDX 53 90
REMARK H PARENT 16 6 11 12 4 22 23 33 73 52 47 63
REMARK Flexibility Score: inf
ROOT
ATOM      1  C   UNL A   1      38.435  22.944  26.070  1.00  0.00     0.021 C 
ENDROOT
BRANCH   1   2
ATOM      2  C   UNL A   1      37.229  23.344  25.200  1.00  0.00     0.116 C 
BRANCH   2   3
ATOM      3  N   UNL A   1      36.132  24.039  25.898  1.00  0.00    -0.354 N 
ATOM      4  C   UNL A   1      34.799  23.699  26.020  1.00  0.00     0.255 C 
ATOM      5  O   UNL A   1      34.547  23.241  27.146  1.00  0.00    -0.272 OA
ATOM      6  H   UNL A   1      36.390  24.877  26.346  1.00  0.00     0.163 HD
BRANCH   4   7
ATOM      7  C   UNL A   1      33.618  23.918  24.959  1.00  0.00     0.213 C 
ATOM      8  C   UNL A   1      33.960  23.748  23.458  1.00  0.00     0.056 C 
BRANCH   7   9
ATOM      9  N   UNL A   1      32.283  23.302  25.261  1.00  0.00    -0.316 N 
ATOM     10  C   UNL A   1      31.783  22.058  25.155  1.00  0.00     0.318 C 
ATOM     11  O   UNL A   1      30.627  21.828  25.498  1.00  0.00    -0.249 OA
ATOM     12  H   UNL A   1      31.630  23.950  25.614  1.00  0.00     0.166 HD
BRANCH  10  13
ATOM     13  N   UNL A   1      32.616  21.079  24.712  1.00  0.00    -0.320 N 
ATOM     14  C   UNL A   1      32.284  20.451  23.433  1.00  0.00     0.149 C 
BRANCH  13  15
ATOM     15  C   UNL A   1      33.220  20.209  25.715  1.00  0.00     0.197 C 
BRANCH  15  16
ATOM     16  C   UNL A   1      33.270  18.746  25.394  1.00  0.00     0.144 A 
ATOM     17  C   UNL A   1      32.674  15.231  25.379  1.00  0.00     0.092 C 
ATOM     18  C   UNL A   1      33.158  16.627  25.264  1.00  0.00     0.147 A 
ATOM     19  N   UNL A   1      34.375  16.894  24.779  1.00  0.00    -0.159 NA
ATOM     20  N   UNL A   1      32.457  17.743  25.686  1.00  0.00    -0.215 NA
ATOM     21  N   UNL A   1      34.401  18.228  24.831  1.00  0.00    -0.262 N 
ATOM     22  H   UNL A   1      35.151  18.775  24.501  1.00  0.00     0.192 HD
ENDBRANCH  15  16
ENDBRANCH  13  15
ENDBRANCH  10  13
ENDBRANCH   7   9
BRANCH   7  23
ATOM     23  C   UNL A   1      33.398  25.482  25.081  1.00  0.00     0.420 C 
ATOM     24  F   UNL A   1      33.739  26.143  23.951  1.00  0.00    -0.168 F 
ATOM     25  F   UNL A   1      32.071  25.742  25.288  1.00  0.00    -0.168 F 
ATOM     26  F   UNL A   1      34.025  26.054  26.130  1.00  0.00    -0.168 F 
ENDBRANCH   7  23
ENDBRANCH   4   7
ENDBRANCH   2   3
ENDBRANCH   1   2
BRANCH   1  27
ATOM     27  C   UNL A   1      39.095  21.586  25.769  1.00  0.00     0.002 C 
BRANCH  27  28
ATOM     28  C   UNL A   1      40.353  21.163  26.548  1.00  0.00     0.002 C 
BRANCH  28  29
ATOM     29  C   UNL A   1      41.056  19.853  26.173  1.00  0.00     0.021 C 
BRANCH  29  30
ATOM     30  C   UNL A   1      42.438  19.649  26.770  1.00  0.00     0.116 C 
BRANCH  30  31
ATOM     31  N   UNL A   1      43.489  19.537  25.761  1.00  0.00    -0.352 N 
ATOM     32  C   UNL A   1      44.080  20.532  25.001  1.00  0.00     0.251 C 
ATOM     33  H   UNL A   1      43.823  18.626  25.598  1.00  0.00     0.163 HD
ATOM     34  O   UNL A   1      44.677  20.267  23.973  1.00  0.00    -0.269 OA
BRANCH  32  35
ATOM     35  C   UNL A   1      43.982  21.927  25.465  1.00  0.00     0.039 A 
ATOM     36  C   UNL A   1      43.073  22.825  24.899  1.00  0.00     0.014 A 
ATOM     37  C   UNL A   1      44.822  22.326  26.500  1.00  0.00     0.014 A 
ATOM     38  C   UNL A   1      42.987  24.107  25.430  1.00  0.00     0.010 A 
ATOM     39  C   UNL A   1      44.589  23.500  27.156  1.00  0.00     0.010 A 
ATOM     40  C   UNL A   1      43.744  24.428  26.571  1.00  0.00    -0.014 A 
BRANCH  40  41
ATOM     41  C   UNL A   1      43.595  25.705  27.246  1.00  0.00     0.031 A 
ATOM     42  C   UNL A   1      44.671  26.668  26.914  1.00  0.00     0.074 A 
ATOM     43  C   UNL A   1      42.485  26.045  27.936  1.00  0.00     0.049 A 
ATOM     44  N   UNL A   1      45.642  27.035  27.678  1.00  0.00    -0.248 NA
ATOM     45  C   UNL A   1      44.803  27.128  25.520  1.00  0.00     0.031 C 
ATOM     46  C   UNL A   1      41.223  25.307  28.072  1.00  0.00     0.029 A 
ATOM     47  N   UNL A   1      42.221  27.197  28.608  1.00  0.00    -0.354 N 
ATOM     48  C   UNL A   1      46.374  27.959  26.944  1.00  0.00     0.074 A 
ATOM     49  C   UNL A   1      45.949  27.812  25.576  1.00  0.00     0.031 C 
ATOM     50  C   UNL A   1      40.267  26.122  28.576  1.00  0.00     0.029 A 
ATOM     51  C   UNL A   1      40.884  27.376  28.960  1.00  0.00     0.049 A 
ATOM     52  H   UNL A   1      42.920  27.855  28.829  1.00  0.00     0.167 HD
ATOM     53  C   UNL A   1      47.063  28.948  27.573  1.00  0.00     0.037 A 
ATOM     54  C   UNL A   1      40.343  28.496  29.504  1.00  0.00     0.037 A 
ATOM     55  C   UNL A   1      47.185  28.669  28.984  1.00  0.00     0.049 A 
ATOM     56  C   UNL A   1      41.462  29.281  30.085  1.00  0.00     0.074 A 
ATOM     57  C   UNL A   1      47.747  27.649  29.726  1.00  0.00     0.029 A 
ATOM     58  N   UNL A   1      46.306  29.308  29.826  1.00  0.00    -0.354 N 
ATOM     59  N   UNL A   1      42.152  28.894  31.121  1.00  0.00    -0.248 NA
ATOM     60  C   UNL A   1      42.123  30.244  29.218  1.00  0.00     0.031 C 
ATOM     61  C   UNL A   1      46.834  27.429  30.800  1.00  0.00     0.029 A 
ATOM     62  C   UNL A   1      45.818  28.381  30.710  1.00  0.00     0.049 A 
ATOM     63  H   UNL A   1      46.069  30.263  29.798  1.00  0.00     0.167 HD
ATOM     64  C   UNL A   1      43.467  29.195  30.799  1.00  0.00     0.074 A 
ATOM     65  C   UNL A   1      43.379  30.094  29.648  1.00  0.00     0.031 C 
ATOM     66  C   UNL A   1      44.499  28.451  31.296  1.00  0.00     0.037 A 
BRANCH  53  67
ATOM     67  C   UNL A   1      47.260  30.336  27.018  1.00  0.00     0.057 A 
ATOM     68  C   UNL A   1      48.543  30.912  27.068  1.00  0.00     0.134 A 
ATOM     69  C   UNL A   1      46.213  31.232  26.718  1.00  0.00     0.134 A 
ATOM     70  F   UNL A   1      49.620  30.167  27.359  1.00  0.00    -0.206 F 
ATOM     71  C   UNL A   1      48.755  32.286  26.907  1.00  0.00     0.040 A 
ATOM     72  C   UNL A   1      46.421  32.596  26.504  1.00  0.00     0.040 A 
ATOM     73  F   UNL A   1      44.927  30.863  26.720  1.00  0.00    -0.206 F 
ATOM     74  C   UNL A   1      47.690  33.134  26.631  1.00  0.00     0.006 A 
ENDBRANCH  53  67
BRANCH  54  75
ATOM     75  C   UNL A   1      39.009  29.101  29.274  1.00  0.00     0.057 A 
ATOM     76  C   UNL A   1      38.583  29.435  27.978  1.00  0.00     0.134 A 
ATOM     77  C   UNL A   1      38.010  29.076  30.262  1.00  0.00     0.134 A 
ATOM     78  F   UNL A   1      39.454  29.454  26.959  1.00  0.00    -0.206 F 
ATOM     79  C   UNL A   1      37.238  29.685  27.674  1.00  0.00     0.040 A 
ATOM     80  C   UNL A   1      36.663  29.328  29.971  1.00  0.00     0.040 A 
ATOM     81  F   UNL A   1      38.290  28.712  31.521  1.00  0.00    -0.206 F 
ATOM     82  C   UNL A   1      36.270  29.615  28.670  1.00  0.00     0.006 A 
ENDBRANCH  54  75
BRANCH  66  83
ATOM     83  C   UNL A   1      44.196  27.482  32.409  1.00  0.00     0.057 A 
ATOM     84  C   UNL A   1      43.972  26.106  32.235  1.00  0.00     0.134 A 
ATOM     85  C   UNL A   1      44.265  27.946  33.727  1.00  0.00     0.134 A 
ATOM     86  F   UNL A   1      43.984  25.546  31.019  1.00  0.00    -0.206 F 
ATOM     87  C   UNL A   1      43.780  25.247  33.323  1.00  0.00     0.040 A 
ATOM     88  C   UNL A   1      44.112  27.093  34.821  1.00  0.00     0.040 A 
ATOM     89  F   UNL A   1      44.529  29.239  33.973  1.00  0.00    -0.206 F 
ATOM     90  C   UNL A   1      43.855  25.740  34.623  1.00  0.00     0.006 A 
ENDBRANCH  66  83
ENDBRANCH  40  41
ENDBRANCH  32  35
ENDBRANCH  30  31
ENDBRANCH  29  30
ENDBRANCH  28  29
ENDBRANCH  27  28
ENDBRANCH   1  27
TORSDOF 18
ENDMDL
MODEL 2
REMARK VINA RESULT:     -10.9      1.913      3.538
REMARK SMILES Cc1n[nH]c(CN(C)C(=O)N[C@](C)(C(=O)NCCCCCCNC(=O)c2ccc(-c3c4nc(c(-c5c(F)cccc5F)c5ccc([nH]5)c(-c5c(F)cccc5F)c5nc(c(-c6c(F)cccc6F)c6ccc3[nH]6)C=C5)C=C4)cc2)C(F)(F)F)n1
REMARK SMILES IDX 18 1 17 2 16 3 14 4 15 5 12 7 13 8 11 9 9 10 10 11 7 13 8 14
REMARK SMILES IDX 6 15 5 16 1 17 2 18 3 19 84 20 4 21 80 23 81 24 82 25 83 26
REMARK SMILES IDX 19 27 20 28 21 29 22 30 23 31 24 32 25 34 26 35 27 36 79 37
REMARK SMILES IDX 28 38 78 39 29 40 30 41 31 42 72 43 32 44 77 45 71 46 73 47
REMARK SMILES IDX 33 48 76 49 70 50 69 51 34 53 60 54 43 55 59 56 44 57 47 58
REMARK SMILES IDX 58 59 74 60 45 61 46 62 57 64 75 65 48 66 35 67 36 68 41 69
REMARK SMILES IDX 37 70 38 71 40 72 42 73 39 74 61 75 62 76 67 77 63 78 64 79
REMARK SMILES IDX 66 80 68 81 65 82 49 83 50 84 55 85 51 86 52 87 54 88 56 89
REMARK SMILES IDX 53 90
REMARK H PARENT 16 6 11 12 4 22 23 33 73 52 47 63
REMARK Flexibility Score: inf
ROOT
ATOM      1  C   UNL A   1      38.724  23.131  26.463  1.00  0.00     0.021 C 
ENDROOT
BRANCH   1   2
ATOM      2  C   UNL A   1      37.642  23.748  25.558  1.00  0.00     0.116 C 
BRANCH   2   3
ATOM      3  N   UNL A   1      37.091  22.865  24.515  1.00  0.00    -0.354 N 
ATOM      4  C   UNL A   1      35.835  22.840  23.942  1.00  0.00     0.255 C 
ATOM      5  O   UNL A   1      35.843  23.337  22.805  1.00  0.00    -0.272 OA
ATOM      6  H   UNL A   1      37.717  22.185  24.174  1.00  0.00     0.163 HD
BRANCH   4   7
ATOM      7  C   UNL A   1      34.492  22.188  24.525  1.00  0.00     0.213 C 
ATOM      8  C   UNL A   1      33.743  22.960  25.639  1.00  0.00     0.056 C 
BRANCH   7   9
ATOM      9  N   UNL A   1      33.513  21.609  23.545  1.00  0.00    -0.316 N 
ATOM     10  C   UNL A   1      32.476  22.115  22.852  1.00  0.00     0.318 C 
ATOM     11  O   UNL A   1      31.838  21.396  22.089  1.00  0.00    -0.249 OA
ATOM     12  H   UNL A   1      33.661  20.651  23.371  1.00  0.00     0.166 HD
BRANCH  10  13
ATOM     13  N   UNL A   1      32.209  23.441  22.993  1.00  0.00    -0.320 N 
ATOM     14  C   UNL A   1      30.876  23.803  23.475  1.00  0.00     0.149 C 
BRANCH  13  15
ATOM     15  C   UNL A   1      32.810  24.351  22.025  1.00  0.00     0.197 C 
BRANCH  15  16
ATOM     16  C   UNL A   1      33.204  25.706  22.531  1.00  0.00     0.144 A 
ATOM     17  C   UNL A   1      33.924  28.485  24.643  1.00  0.00     0.092 C 
ATOM     18  C   UNL A   1      33.601  27.518  23.568  1.00  0.00     0.147 A 
ATOM     19  N   UNL A   1      33.300  27.938  22.335  1.00  0.00    -0.159 NA
ATOM     20  N   UNL A   1      33.520  26.147  23.738  1.00  0.00    -0.215 NA
ATOM     21  N   UNL A   1      33.099  26.782  21.697  1.00  0.00    -0.262 N 
ATOM     22  H   UNL A   1      32.897  26.714  20.735  1.00  0.00     0.192 HD
ENDBRANCH  15  16
ENDBRANCH  13  15
ENDBRANCH  10  13
ENDBRANCH   7   9
BRANCH   7  23
ATOM     23  C   UNL A   1      35.084  20.947  25.311  1.00  0.00     0.420 C 
ATOM     24  F   UNL A   1      35.424  21.255  26.584  1.00  0.00    -0.168 F 
ATOM     25  F   UNL A   1      34.134  19.966  25.399  1.00  0.00    -0.168 F 
ATOM     26  F   UNL A   1      36.134  20.353  24.707  1.00  0.00    -0.168 F 
ENDBRANCH   7  23
ENDBRANCH   4   7
ENDBRANCH   2   3
ENDBRANCH   1   2
BRANCH   1  27
ATOM     27  C   UNL A   1      39.350  21.803  25.999  1.00  0.00     0.002 C 
BRANCH  27  28
ATOM     28  C   UNL A   1      40.477  21.163  26.828  1.00  0.00     0.002 C 
BRANCH  28  29
ATOM     29  C   UNL A   1      41.202  19.931  26.275  1.00  0.00     0.021 C 
BRANCH  29  30
ATOM     30  C   UNL A   1      42.576  19.652  26.860  1.00  0.00     0.116 C 
BRANCH  30  31
ATOM     31  N   UNL A   1      43.630  19.598  25.851  1.00  0.00    -0.352 N 
ATOM     32  C   UNL A   1      44.166  20.622  25.089  1.00  0.00     0.251 C 
ATOM     33  H   UNL A   1      44.014  18.706  25.687  1.00  0.00     0.163 HD
ATOM     34  O   UNL A   1      44.776  20.390  24.062  1.00  0.00    -0.269 OA
BRANCH  32  35
ATOM     35  C   UNL A   1      43.992  22.011  25.553  1.00  0.00     0.039 A 
ATOM     36  C   UNL A   1      43.079  22.876  24.944  1.00  0.00     0.014 A 
ATOM     37  C   UNL A   1      44.764  22.436  26.629  1.00  0.00     0.014 A 
ATOM     38  C   UNL A   1      42.918  24.152  25.475  1.00  0.00     0.010 A 
ATOM     39  C   UNL A   1      44.453  23.597  27.277  1.00  0.00     0.010 A 
ATOM     40  C   UNL A   1      43.604  24.495  26.653  1.00  0.00    -0.014 A 
BRANCH  40  41
ATOM     41  C   UNL A   1      43.373  25.761  27.324  1.00  0.00     0.031 A 
ATOM     42  C   UNL A   1      44.340  26.813  26.931  1.00  0.00     0.074 A 
ATOM     43  C   UNL A   1      42.272  26.009  28.067  1.00  0.00     0.049 A 
ATOM     44  N   UNL A   1      45.310  27.276  27.642  1.00  0.00    -0.248 NA
ATOM     45  C   UNL A   1      44.361  27.265  25.528  1.00  0.00     0.031 C 
ATOM     46  C   UNL A   1      41.090  25.162  28.272  1.00  0.00     0.029 A 
ATOM     47  N   UNL A   1      41.938  27.141  28.741  1.00  0.00    -0.354 N 
ATOM     48  C   UNL A   1      45.918  28.254  26.864  1.00  0.00     0.074 A 
ATOM     49  C   UNL A   1      45.441  28.051  25.521  1.00  0.00     0.031 C 
ATOM     50  C   UNL A   1      40.091  25.893  28.816  1.00  0.00     0.029 A 
ATOM     51  C   UNL A   1      40.609  27.203  29.158  1.00  0.00     0.049 A 
ATOM     52  H   UNL A   1      42.584  27.862  28.922  1.00  0.00     0.167 HD
ATOM     53  C   UNL A   1      46.544  29.309  27.450  1.00  0.00     0.037 A 
ATOM     54  C   UNL A   1      39.996  28.276  29.719  1.00  0.00     0.037 A 
ATOM     55  C   UNL A   1      46.760  29.060  28.855  1.00  0.00     0.049 A 
ATOM     56  C   UNL A   1      41.067  29.167  30.237  1.00  0.00     0.074 A 
ATOM     57  C   UNL A   1      47.449  28.104  29.576  1.00  0.00     0.029 A 
ATOM     58  N   UNL A   1      45.870  29.628  29.735  1.00  0.00    -0.354 N 
ATOM     59  N   UNL A   1      41.839  28.857  31.240  1.00  0.00    -0.248 NA
ATOM     60  C   UNL A   1      41.593  30.175  29.331  1.00  0.00     0.031 C 
ATOM     61  C   UNL A   1      46.613  27.816  30.697  1.00  0.00     0.029 A 
ATOM     62  C   UNL A   1      45.512  28.672  30.651  1.00  0.00     0.049 A 
ATOM     63  H   UNL A   1      45.546  30.557  29.711  1.00  0.00     0.167 HD
ATOM     64  C   UNL A   1      43.104  29.271  30.850  1.00  0.00     0.074 A 
ATOM     65  C   UNL A   1      42.877  30.144  29.698  1.00  0.00     0.031 C 
ATOM     66  C   UNL A   1      44.222  28.630  31.301  1.00  0.00     0.037 A 
BRANCH  53  67
ATOM     67  C   UNL A   1      46.586  30.702  26.875  1.00  0.00     0.057 A 
ATOM     68  C   UNL A   1      47.811  31.395  26.864  1.00  0.00     0.134 A 
ATOM     69  C   UNL A   1      45.449  31.492  26.611  1.00  0.00     0.134 A 
ATOM     70  F   UNL A   1      48.964  30.758  27.115  1.00  0.00    -0.206 F 
ATOM     71  C   UNL A   1      47.886  32.781  26.681  1.00  0.00     0.040 A 
ATOM     72  C   UNL A   1      45.519  32.866  26.376  1.00  0.00     0.040 A 
ATOM     73  F   UNL A   1      44.204  31.005  26.672  1.00  0.00    -0.206 F 
ATOM     74  C   UNL A   1      46.736  33.522  26.443  1.00  0.00     0.006 A 
ENDBRANCH  53  67
BRANCH  54  75
ATOM     75  C   UNL A   1      38.603  28.756  29.552  1.00  0.00     0.057 A 
ATOM     76  C   UNL A   1      37.758  28.916  30.661  1.00  0.00     0.134 A 
ATOM     77  C   UNL A   1      38.172  29.361  28.359  1.00  0.00     0.134 A 
ATOM     78  F   UNL A   1      38.097  28.405  31.854  1.00  0.00    -0.206 F 
ATOM     79  C   UNL A   1      36.578  29.670  30.601  1.00  0.00     0.040 A 
ATOM     80  C   UNL A   1      36.993  30.114  28.284  1.00  0.00     0.040 A 
ATOM     81  F   UNL A   1      38.927  29.325  27.252  1.00  0.00    -0.206 F 
ATOM     82  C   UNL A   1      36.201  30.286  29.413  1.00  0.00     0.006 A 
ENDBRANCH  54  75
BRANCH  66  83
ATOM     83  C   UNL A   1      44.063  27.652  32.436  1.00  0.00     0.057 A 
ATOM     84  C   UNL A   1      43.900  28.008  33.784  1.00  0.00     0.134 A 
ATOM     85  C   UNL A   1      43.939  26.293  32.125  1.00  0.00     0.134 A 
ATOM     86  F   UNL A   1      43.904  29.289  34.173  1.00  0.00    -0.206 F 
ATOM     87  C   UNL A   1      43.671  27.048  34.778  1.00  0.00     0.040 A 
ATOM     88  C   UNL A   1      43.675  25.331  33.101  1.00  0.00     0.040 A 
ATOM     89  F   UNL A   1      44.030  25.883  30.850  1.00  0.00    -0.206 F 
ATOM     90  C   UNL A   1      43.553  25.705  34.435  1.00  0.00     0.006 A 
ENDBRANCH  66  83
ENDBRANCH  40  41
ENDBRANCH  32  35
ENDBRANCH  30  31
ENDBRANCH  29  30
ENDBRANCH  28  29
ENDBRANCH  27  28
ENDBRANCH   1  27
TORSDOF 18
ENDMDL
MODEL 3
REMARK VINA RESULT:     -10.7      2.890      7.778
REMARK SMILES Cc1n[nH]c(CN(C)C(=O)N[C@](C)(C(=O)NCCCCCCNC(=O)c2ccc(-c3c4nc(c(-c5c(F)cccc5F)c5ccc([nH]5)c(-c5c(F)cccc5F)c5nc(c(-c6c(F)cccc6F)c6ccc3[nH]6)C=C5)C=C4)cc2)C(F)(F)F)n1
REMARK SMILES IDX 18 1 17 2 16 3 14 4 15 5 12 7 13 8 11 9 9 10 10 11 7 13 8 14
REMARK SMILES IDX 6 15 5 16 1 17 2 18 3 19 84 20 4 21 80 23 81 24 82 25 83 26
REMARK SMILES IDX 19 27 20 28 21 29 22 30 23 31 24 32 25 34 26 35 27 36 79 37
REMARK SMILES IDX 28 38 78 39 29 40 30 41 31 42 72 43 32 44 77 45 71 46 73 47
REMARK SMILES IDX 33 48 76 49 70 50 69 51 34 53 60 54 43 55 59 56 44 57 47 58
REMARK SMILES IDX 58 59 74 60 45 61 46 62 57 64 75 65 48 66 35 67 36 68 41 69
REMARK SMILES IDX 37 70 38 71 40 72 42 73 39 74 61 75 62 76 67 77 63 78 64 79
REMARK SMILES IDX 66 80 68 81 65 82 49 83 50 84 55 85 51 86 52 87 54 88 56 89
REMARK SMILES IDX 53 90
REMARK H PARENT 16 6 11 12 4 22 23 33 73 52 47 63
REMARK Flexibility Score: inf
ROOT
ATOM      1  C   UNL A   1      32.253  28.804  27.134  1.00  0.00     0.021 C 
ENDROOT
BRANCH   1   2
ATOM      2  C   UNL A   1      31.515  27.457  27.244  1.00  0.00     0.116 C 
BRANCH   2   3
ATOM      3  N   UNL A   1      32.168  26.307  26.592  1.00  0.00    -0.354 N 
ATOM      4  C   UNL A   1      32.111  25.876  25.281  1.00  0.00     0.255 C 
ATOM      5  O   UNL A   1      33.144  26.169  24.660  1.00  0.00    -0.272 OA
ATOM      6  H   UNL A   1      32.734  25.761  27.185  1.00  0.00     0.163 HD
BRANCH   4   7
ATOM      7  C   UNL A   1      30.963  25.011  24.572  1.00  0.00     0.213 C 
ATOM      8  C   UNL A   1      31.241  24.479  23.144  1.00  0.00     0.056 C 
BRANCH   7   9
ATOM      9  N   UNL A   1      30.273  23.960  25.393  1.00  0.00    -0.316 N 
ATOM     10  C   UNL A   1      30.653  22.775  25.903  1.00  0.00     0.318 C 
ATOM     11  O   UNL A   1      29.863  22.109  26.566  1.00  0.00    -0.249 OA
ATOM     12  H   UNL A   1      29.338  24.187  25.603  1.00  0.00     0.166 HD
BRANCH  10  13
ATOM     13  N   UNL A   1      31.940  22.384  25.700  1.00  0.00    -0.320 N 
ATOM     14  C   UNL A   1      32.164  21.310  24.732  1.00  0.00     0.149 C 
BRANCH  13  15
ATOM     15  C   UNL A   1      32.834  22.406  26.852  1.00  0.00     0.197 C 
BRANCH  15  16
ATOM     16  C   UNL A   1      34.298  22.554  26.564  1.00  0.00     0.144 A 
ATOM     17  C   UNL A   1      37.434  23.716  25.330  1.00  0.00     0.092 C 
ATOM     18  C   UNL A   1      36.262  22.996  25.881  1.00  0.00     0.147 A 
ATOM     19  N   UNL A   1      36.335  21.696  26.183  1.00  0.00    -0.159 NA
ATOM     20  N   UNL A   1      35.010  23.554  26.070  1.00  0.00    -0.215 NA
ATOM     21  N   UNL A   1      35.106  21.456  26.649  1.00  0.00    -0.262 N 
ATOM     22  H   UNL A   1      34.816  20.588  27.011  1.00  0.00     0.192 HD
ENDBRANCH  15  16
ENDBRANCH  13  15
ENDBRANCH  10  13
ENDBRANCH   7   9
BRANCH   7  23
ATOM     23  C   UNL A   1      29.870  26.127  24.312  1.00  0.00     0.420 C 
ATOM     24  F   UNL A   1      29.068  25.831  23.264  1.00  0.00    -0.168 F 
ATOM     25  F   UNL A   1      29.050  26.226  25.402  1.00  0.00    -0.168 F 
ATOM     26  F   UNL A   1      30.369  27.369  24.146  1.00  0.00    -0.168 F 
ENDBRANCH   7  23
ENDBRANCH   4   7
ENDBRANCH   2   3
ENDBRANCH   1   2
BRANCH   1  27
ATOM     27  C   UNL A   1      33.791  28.765  27.186  1.00  0.00     0.002 C 
BRANCH  27  28
ATOM     28  C   UNL A   1      34.581  30.080  27.307  1.00  0.00     0.002 C 
BRANCH  28  29
ATOM     29  C   UNL A   1      33.835  31.365  27.681  1.00  0.00     0.021 C 
BRANCH  29  30
ATOM     30  C   UNL A   1      34.701  32.517  28.164  1.00  0.00     0.116 C 
BRANCH  30  31
ATOM     31  N   UNL A   1      34.576  32.768  29.597  1.00  0.00    -0.352 N 
ATOM     32  C   UNL A   1      35.246  32.171  30.651  1.00  0.00     0.251 C 
ATOM     33  H   UNL A   1      33.923  33.460  29.850  1.00  0.00     0.163 HD
ATOM     34  O   UNL A   1      34.806  32.221  31.785  1.00  0.00    -0.269 OA
BRANCH  32  35
ATOM     35  C   UNL A   1      36.516  31.475  30.376  1.00  0.00     0.039 A 
ATOM     36  C   UNL A   1      37.705  32.177  30.165  1.00  0.00     0.014 A 
ATOM     37  C   UNL A   1      36.497  30.084  30.341  1.00  0.00     0.014 A 
ATOM     38  C   UNL A   1      38.878  31.454  29.977  1.00  0.00     0.010 A 
ATOM     39  C   UNL A   1      37.669  29.383  30.374  1.00  0.00     0.010 A 
ATOM     40  C   UNL A   1      38.848  30.054  30.098  1.00  0.00    -0.014 A 
BRANCH  40  41
ATOM     41  C   UNL A   1      40.062  29.261  30.044  1.00  0.00     0.031 A 
ATOM     42  C   UNL A   1      40.659  29.017  31.378  1.00  0.00     0.074 A 
ATOM     43  C   UNL A   1      40.483  28.640  28.920  1.00  0.00     0.049 A 
ATOM     44  N   UNL A   1      41.726  29.558  31.858  1.00  0.00    -0.248 NA
ATOM     45  C   UNL A   1      39.889  28.241  32.366  1.00  0.00     0.031 C 
ATOM     46  C   UNL A   1      39.814  28.540  27.617  1.00  0.00     0.029 A 
ATOM     47  N   UNL A   1      41.592  27.874  28.737  1.00  0.00    -0.354 N 
ATOM     48  C   UNL A   1      41.896  29.006  33.121  1.00  0.00     0.074 A 
ATOM     49  C   UNL A   1      40.642  28.385  33.460  1.00  0.00     0.031 C 
ATOM     50  C   UNL A   1      40.408  27.583  26.868  1.00  0.00     0.029 A 
ATOM     51  C   UNL A   1      41.597  27.126  27.561  1.00  0.00     0.049 A 
ATOM     52  H   UNL A   1      42.334  27.850  29.384  1.00  0.00     0.167 HD
ATOM     53  C   UNL A   1      43.140  28.876  33.654  1.00  0.00     0.037 A 
ATOM     54  C   UNL A   1      42.513  26.184  27.216  1.00  0.00     0.037 A 
ATOM     55  C   UNL A   1      44.098  29.665  32.915  1.00  0.00     0.049 A 
ATOM     56  C   UNL A   1      43.721  26.428  28.045  1.00  0.00     0.074 A 
ATOM     57  C   UNL A   1      44.235  31.010  32.632  1.00  0.00     0.029 A 
ATOM     58  N   UNL A   1      44.872  29.004  31.991  1.00  0.00    -0.354 N 
ATOM     59  N   UNL A   1      44.484  27.477  27.915  1.00  0.00    -0.248 NA
ATOM     60  C   UNL A   1      43.792  25.760  29.335  1.00  0.00     0.031 C 
ATOM     61  C   UNL A   1      44.682  31.056  31.278  1.00  0.00     0.029 A 
ATOM     62  C   UNL A   1      44.883  29.747  30.840  1.00  0.00     0.049 A 
ATOM     63  H   UNL A   1      45.336  28.148  32.133  1.00  0.00     0.167 HD
ATOM     64  C   UNL A   1      44.772  27.865  29.214  1.00  0.00     0.074 A 
ATOM     65  C   UNL A   1      44.381  26.725  30.045  1.00  0.00     0.031 C 
ATOM     66  C   UNL A   1      45.010  29.174  29.519  1.00  0.00     0.037 A 
BRANCH  53  67
ATOM     67  C   UNL A   1      43.568  27.746  34.554  1.00  0.00     0.057 A 
ATOM     68  C   UNL A   1      43.981  28.042  35.867  1.00  0.00     0.134 A 
ATOM     69  C   UNL A   1      43.874  26.444  34.110  1.00  0.00     0.134 A 
ATOM     70  F   UNL A   1      43.762  29.253  36.400  1.00  0.00    -0.206 F 
ATOM     71  C   UNL A   1      44.710  27.135  36.646  1.00  0.00     0.040 A 
ATOM     72  C   UNL A   1      44.555  25.514  34.899  1.00  0.00     0.040 A 
ATOM     73  F   UNL A   1      43.631  26.033  32.860  1.00  0.00    -0.206 F 
ATOM     74  C   UNL A   1      45.005  25.869  36.159  1.00  0.00     0.006 A 
ENDBRANCH  53  67
BRANCH  54  75
ATOM     75  C   UNL A   1      42.317  24.907  26.488  1.00  0.00     0.057 A 
ATOM     76  C   UNL A   1      43.153  24.554  25.416  1.00  0.00     0.134 A 
ATOM     77  C   UNL A   1      41.525  23.873  27.016  1.00  0.00     0.134 A 
ATOM     78  F   UNL A   1      43.972  25.461  24.865  1.00  0.00    -0.206 F 
ATOM     79  C   UNL A   1      43.229  23.242  24.928  1.00  0.00     0.040 A 
ATOM     80  C   UNL A   1      41.589  22.560  26.534  1.00  0.00     0.040 A 
ATOM     81  F   UNL A   1      40.735  24.080  28.079  1.00  0.00    -0.206 F 
ATOM     82  C   UNL A   1      42.458  22.236  25.499  1.00  0.00     0.006 A 
ENDBRANCH  54  75
BRANCH  66  83
ATOM     83  C   UNL A   1      45.223  30.135  28.378  1.00  0.00     0.057 A 
ATOM     84  C   UNL A   1      44.205  30.865  27.744  1.00  0.00     0.134 A 
ATOM     85  C   UNL A   1      46.537  30.429  27.997  1.00  0.00     0.134 A 
ATOM     86  F   UNL A   1      42.922  30.730  28.103  1.00  0.00    -0.206 F 
ATOM     87  C   UNL A   1      44.484  31.806  26.745  1.00  0.00     0.040 A 
ATOM     88  C   UNL A   1      46.831  31.390  27.030  1.00  0.00     0.040 A 
ATOM     89  F   UNL A   1      47.566  29.810  28.597  1.00  0.00    -0.206 F 
ATOM     90  C   UNL A   1      45.802  32.074  26.389  1.00  0.00     0.006 A 
ENDBRANCH  66  83
ENDBRANCH  40  41
ENDBRANCH  32  35
ENDBRANCH  30  31
ENDBRANCH  29  30
ENDBRANCH  28  29
ENDBRANCH  27  28
ENDBRANCH   1  27
TORSDOF 18
ENDMDL
