MODEL 1
REMARK VINA RESULT:     -11.1      0.000      0.000
REMARK SMILES COc1ccc(OC)c(-c2cc(-c3ccccc3)nc(S[C@H](C)C(=O)NCCCCCCNC(=O)c3ccc(-c4c5nc(c(-c6c(F)cccc6F)c6ccc([nH]6)c(-c6c(F)cccc6F)c6nc(c(-c7c(F)cccc7F)c7ccc4[nH]7)C=C6)C=C5)cc3)c2C#N)c1
REMARK SMILES IDX 28 1 27 2 26 3 24 4 25 5 22 7 23 8 21 9 20 10 10 11 11 12
REMARK SMILES IDX 90 13 12 14 19 15 9 16 3 17 4 18 93 19 5 20 6 21 2 22 1 23
REMARK SMILES IDX 7 24 8 25 91 26 92 27 13 28 14 29 18 30 15 31 17 32 16 33
REMARK SMILES IDX 29 34 30 35 31 36 32 37 33 38 34 39 35 41 36 42 37 43 89 44
REMARK SMILES IDX 38 45 88 46 39 47 40 48 41 49 82 50 42 51 87 52 81 53 83 54
REMARK SMILES IDX 43 55 86 56 80 57 79 58 44 60 70 61 53 62 69 63 54 64 57 65
REMARK SMILES IDX 68 66 84 67 55 68 56 69 67 71 85 72 58 73 45 74 46 75 51 76
REMARK SMILES IDX 47 77 48 78 50 79 52 80 49 81 71 82 72 83 77 84 73 85 74 86
REMARK SMILES IDX 76 87 78 88 75 89 59 90 60 91 65 92 61 93 62 94 64 95 66 96
REMARK SMILES IDX 63 97
REMARK H PARENT 26 6 33 40 83 59 57 70
REMARK Flexibility Score: inf
ROOT
ATOM      1  C   UNL A   1      34.858  32.613  29.493  1.00  0.00     0.021 C 
ENDROOT
BRANCH   1   2
ATOM      2  C   UNL A   1      34.738  31.570  28.398  1.00  0.00     0.116 C 
BRANCH   2   3
ATOM      3  N   UNL A   1      33.570  31.733  27.576  1.00  0.00    -0.355 N 
ATOM      4  C   UNL A   1      32.671  30.800  27.153  1.00  0.00     0.233 C 
ATOM      5  O   UNL A   1      31.692  31.230  26.531  1.00  0.00    -0.274 OA
ATOM      6  H   UNL A   1      33.395  32.654  27.275  1.00  0.00     0.163 HD
BRANCH   4   7
ATOM      7  C   UNL A   1      32.864  29.286  27.341  1.00  0.00     0.139 C 
ATOM      8  C   UNL A   1      31.637  28.587  27.898  1.00  0.00     0.030 C 
BRANCH   7   9
ATOM      9  S   UNL A   1      33.869  28.513  26.003  1.00  0.00    -0.092 SA
BRANCH   9  10
ATOM     10  C   UNL A   1      32.777  27.733  24.795  1.00  0.00     0.116 A 
ATOM     11  C   UNL A   1      32.092  25.764  23.556  1.00  0.00     0.008 A 
ATOM     12  C   UNL A   1      31.009  26.512  23.077  1.00  0.00     0.039 A 
ATOM     13  C   UNL A   1      32.983  26.385  24.458  1.00  0.00     0.092 A 
ATOM     14  C   UNL A   1      30.895  27.859  23.406  1.00  0.00     0.072 A 
ATOM     15  N   UNL A   1      31.775  28.465  24.244  1.00  0.00    -0.240 NA
BRANCH  11  16
ATOM     16  C   UNL A   1      32.221  24.340  23.174  1.00  0.00     0.029 A 
ATOM     17  C   UNL A   1      31.911  22.019  23.953  1.00  0.00     0.119 A 
ATOM     18  C   UNL A   1      32.481  21.553  22.780  1.00  0.00     0.050 A 
ATOM     19  C   UNL A   1      31.778  23.396  24.141  1.00  0.00     0.059 A 
ATOM     20  C   UNL A   1      32.898  22.455  21.803  1.00  0.00     0.051 A 
ATOM     21  C   UNL A   1      32.784  23.847  21.980  1.00  0.00     0.127 A 
BRANCH  17  22
ATOM     22  O   UNL A   1      31.582  21.057  24.866  1.00  0.00    -0.497 OA
ATOM     23  C   UNL A   1      32.589  20.093  25.153  1.00  0.00     0.278 C 
ENDBRANCH  17  22
BRANCH  21  24
ATOM     24  O   UNL A   1      33.335  24.501  20.914  1.00  0.00    -0.496 OA
ATOM     25  C   UNL A   1      32.545  25.158  19.946  1.00  0.00     0.278 C 
ENDBRANCH  21  24
ENDBRANCH  11  16
BRANCH  13  26
ATOM     26  C   UNL A   1      34.074  25.640  25.029  1.00  0.00     0.103 C 
ATOM     27  N   UNL A   1      34.938  25.027  25.496  1.00  0.00    -0.192 NA
ENDBRANCH  13  26
BRANCH  14  28
ATOM     28  C   UNL A   1      29.828  28.698  22.829  1.00  0.00     0.000 A 
ATOM     29  C   UNL A   1      28.480  28.491  23.160  1.00  0.00     0.010 A 
ATOM     30  C   UNL A   1      30.114  29.759  21.958  1.00  0.00     0.010 A 
ATOM     31  C   UNL A   1      27.456  29.301  22.664  1.00  0.00     0.001 A 
ATOM     32  C   UNL A   1      29.091  30.565  21.439  1.00  0.00     0.001 A 
ATOM     33  C   UNL A   1      27.764  30.339  21.795  1.00  0.00     0.000 A 
ENDBRANCH  14  28
ENDBRANCH   9  10
ENDBRANCH   7   9
ENDBRANCH   4   7
ENDBRANCH   2   3
ENDBRANCH   1   2
BRANCH   1  34
ATOM     34  C   UNL A   1      35.706  33.827  29.143  1.00  0.00     0.002 C 
BRANCH  34  35
ATOM     35  C   UNL A   1      34.996  34.827  28.223  1.00  0.00     0.002 C 
BRANCH  35  36
ATOM     36  C   UNL A   1      33.944  35.718  28.898  1.00  0.00     0.021 C 
BRANCH  36  37
ATOM     37  C   UNL A   1      32.878  34.964  29.687  1.00  0.00     0.116 C 
BRANCH  37  38
ATOM     38  N   UNL A   1      32.405  35.742  30.818  1.00  0.00    -0.352 N 
ATOM     39  C   UNL A   1      32.780  35.694  32.135  1.00  0.00     0.251 C 
ATOM     40  H   UNL A   1      31.709  36.405  30.607  1.00  0.00     0.163 HD
ATOM     41  O   UNL A   1      32.077  36.224  32.989  1.00  0.00    -0.269 OA
BRANCH  39  42
ATOM     42  C   UNL A   1      34.027  35.007  32.533  1.00  0.00     0.039 A 
ATOM     43  C   UNL A   1      33.939  33.737  33.109  1.00  0.00     0.014 A 
ATOM     44  C   UNL A   1      35.273  35.624  32.386  1.00  0.00     0.014 A 
ATOM     45  C   UNL A   1      35.102  33.073  33.501  1.00  0.00     0.010 A 
ATOM     46  C   UNL A   1      36.438  34.925  32.701  1.00  0.00     0.010 A 
ATOM     47  C   UNL A   1      36.363  33.647  33.274  1.00  0.00    -0.014 A 
BRANCH  47  48
ATOM     48  C   UNL A   1      37.604  32.914  33.637  1.00  0.00     0.031 A 
ATOM     49  C   UNL A   1      38.155  31.844  32.733  1.00  0.00     0.074 A 
ATOM     50  C   UNL A   1      38.220  33.194  34.803  1.00  0.00     0.049 A 
ATOM     51  N   UNL A   1      39.217  31.095  32.893  1.00  0.00    -0.248 NA
ATOM     52  C   UNL A   1      37.405  31.561  31.499  1.00  0.00     0.031 C 
ATOM     53  C   UNL A   1      37.759  34.175  35.788  1.00  0.00     0.029 A 
ATOM     54  N   UNL A   1      39.363  32.678  35.361  1.00  0.00    -0.354 N 
ATOM     55  C   UNL A   1      39.255  30.249  31.792  1.00  0.00     0.074 A 
ATOM     56  C   UNL A   1      38.082  30.539  30.996  1.00  0.00     0.031 C 
ATOM     57  C   UNL A   1      38.625  34.212  36.812  1.00  0.00     0.029 A 
ATOM     58  C   UNL A   1      39.675  33.223  36.584  1.00  0.00     0.049 A 
ATOM     59  H   UNL A   1      39.909  31.983  34.927  1.00  0.00     0.167 HD
ATOM     60  C   UNL A   1      40.192  29.327  31.465  1.00  0.00     0.037 A 
ATOM     61  C   UNL A   1      40.683  32.950  37.434  1.00  0.00     0.037 A 
ATOM     62  C   UNL A   1      41.367  29.056  32.251  1.00  0.00     0.049 A 
ATOM     63  C   UNL A   1      41.700  31.908  37.051  1.00  0.00     0.074 A 
ATOM     64  C   UNL A   1      42.410  28.193  31.967  1.00  0.00     0.029 A 
ATOM     65  N   UNL A   1      41.648  29.631  33.482  1.00  0.00    -0.354 N 
ATOM     66  N   UNL A   1      41.769  31.179  35.964  1.00  0.00    -0.248 NA
ATOM     67  C   UNL A   1      42.784  31.656  38.010  1.00  0.00     0.031 C 
ATOM     68  C   UNL A   1      43.281  28.184  33.059  1.00  0.00     0.029 A 
ATOM     69  C   UNL A   1      42.826  29.106  33.988  1.00  0.00     0.049 A 
ATOM     70  H   UNL A   1      41.093  30.311  33.929  1.00  0.00     0.167 HD
ATOM     71  C   UNL A   1      42.918  30.408  36.094  1.00  0.00     0.074 A 
ATOM     72  C   UNL A   1      43.524  30.774  37.356  1.00  0.00     0.031 C 
ATOM     73  C   UNL A   1      43.425  29.482  35.244  1.00  0.00     0.037 A 
BRANCH  60  74
ATOM     74  C   UNL A   1      39.985  28.527  30.210  1.00  0.00     0.057 A 
ATOM     75  C   UNL A   1      40.579  28.881  28.991  1.00  0.00     0.134 A 
ATOM     76  C   UNL A   1      39.233  27.344  30.239  1.00  0.00     0.134 A 
ATOM     77  F   UNL A   1      41.305  30.005  28.889  1.00  0.00    -0.206 F 
ATOM     78  C   UNL A   1      40.415  28.101  27.845  1.00  0.00     0.040 A 
ATOM     79  C   UNL A   1      39.091  26.539  29.108  1.00  0.00     0.040 A 
ATOM     80  F   UNL A   1      38.643  26.940  31.373  1.00  0.00    -0.206 F 
ATOM     81  C   UNL A   1      39.678  26.921  27.904  1.00  0.00     0.006 A 
ENDBRANCH  60  74
BRANCH  61  82
ATOM     82  C   UNL A   1      40.779  33.661  38.737  1.00  0.00     0.057 A 
ATOM     83  C   UNL A   1      39.981  33.298  39.828  1.00  0.00     0.134 A 
ATOM     84  C   UNL A   1      41.651  34.743  38.910  1.00  0.00     0.134 A 
ATOM     85  F   UNL A   1      39.114  32.280  39.722  1.00  0.00    -0.206 F 
ATOM     86  C   UNL A   1      40.017  34.007  41.030  1.00  0.00     0.040 A 
ATOM     87  C   UNL A   1      41.724  35.439  40.118  1.00  0.00     0.040 A 
ATOM     88  F   UNL A   1      42.452  35.137  37.909  1.00  0.00    -0.206 F 
ATOM     89  C   UNL A   1      40.895  35.080  41.178  1.00  0.00     0.006 A 
ENDBRANCH  61  82
BRANCH  73  90
ATOM     90  C   UNL A   1      44.723  28.828  35.627  1.00  0.00     0.057 A 
ATOM     91  C   UNL A   1      44.771  27.638  36.367  1.00  0.00     0.134 A 
ATOM     92  C   UNL A   1      45.943  29.377  35.213  1.00  0.00     0.134 A 
ATOM     93  F   UNL A   1      43.641  27.063  36.804  1.00  0.00    -0.206 F 
ATOM     94  C   UNL A   1      45.985  27.039  36.709  1.00  0.00     0.040 A 
ATOM     95  C   UNL A   1      47.162  28.768  35.516  1.00  0.00     0.040 A 
ATOM     96  F   UNL A   1      45.972  30.507  34.490  1.00  0.00    -0.206 F 
ATOM     97  C   UNL A   1      47.185  27.601  36.275  1.00  0.00     0.006 A 
ENDBRANCH  73  90
ENDBRANCH  47  48
ENDBRANCH  39  42
ENDBRANCH  37  38
ENDBRANCH  36  37
ENDBRANCH  35  36
ENDBRANCH  34  35
ENDBRANCH   1  34
TORSDOF 20
ENDMDL
MODEL 2
REMARK VINA RESULT:     -10.6      0.390      5.723
REMARK SMILES COc1ccc(OC)c(-c2cc(-c3ccccc3)nc(S[C@H](C)C(=O)NCCCCCCNC(=O)c3ccc(-c4c5nc(c(-c6c(F)cccc6F)c6ccc([nH]6)c(-c6c(F)cccc6F)c6nc(c(-c7c(F)cccc7F)c7ccc4[nH]7)C=C6)C=C5)cc3)c2C#N)c1
REMARK SMILES IDX 28 1 27 2 26 3 24 4 25 5 22 7 23 8 21 9 20 10 10 11 11 12
REMARK SMILES IDX 90 13 12 14 19 15 9 16 3 17 4 18 93 19 5 20 6 21 2 22 1 23
REMARK SMILES IDX 7 24 8 25 91 26 92 27 13 28 14 29 18 30 15 31 17 32 16 33
REMARK SMILES IDX 29 34 30 35 31 36 32 37 33 38 34 39 35 41 36 42 37 43 89 44
REMARK SMILES IDX 38 45 88 46 39 47 40 48 41 49 82 50 42 51 87 52 81 53 83 54
REMARK SMILES IDX 43 55 86 56 80 57 79 58 44 60 70 61 53 62 69 63 54 64 57 65
REMARK SMILES IDX 68 66 84 67 55 68 56 69 67 71 85 72 58 73 45 74 46 75 51 76
REMARK SMILES IDX 47 77 48 78 50 79 52 80 49 81 71 82 72 83 77 84 73 85 74 86
REMARK SMILES IDX 76 87 78 88 75 89 59 90 60 91 65 92 61 93 62 94 64 95 66 96
REMARK SMILES IDX 63 97
REMARK H PARENT 26 6 33 40 83 59 57 70
REMARK Flexibility Score: inf
ROOT
ATOM      1  C   UNL A   1      35.285  31.980  29.101  1.00  0.00     0.021 C 
ENDROOT
BRANCH   1   2
ATOM      2  C   UNL A   1      35.038  31.745  27.622  1.00  0.00     0.116 C 
BRANCH   2   3
ATOM      3  N   UNL A   1      33.648  31.796  27.258  1.00  0.00    -0.355 N 
ATOM      4  C   UNL A   1      32.732  30.789  27.193  1.00  0.00     0.233 C 
ATOM      5  O   UNL A   1      31.568  31.127  26.945  1.00  0.00    -0.274 OA
ATOM      6  H   UNL A   1      33.310  32.689  27.020  1.00  0.00     0.163 HD
BRANCH   4   7
ATOM      7  C   UNL A   1      33.092  29.300  27.330  1.00  0.00     0.139 C 
ATOM      8  C   UNL A   1      32.007  28.478  28.003  1.00  0.00     0.030 C 
BRANCH   7   9
ATOM      9  S   UNL A   1      34.016  28.642  25.878  1.00  0.00    -0.092 SA
BRANCH   9  10
ATOM     10  C   UNL A   1      32.873  27.807  24.757  1.00  0.00     0.116 A 
ATOM     11  C   UNL A   1      32.144  25.785  23.634  1.00  0.00     0.008 A 
ATOM     12  C   UNL A   1      31.034  26.507  23.177  1.00  0.00     0.039 A 
ATOM     13  C   UNL A   1      33.073  26.448  24.465  1.00  0.00     0.092 A 
ATOM     14  C   UNL A   1      30.925  27.865  23.457  1.00  0.00     0.072 A 
ATOM     15  N   UNL A   1      31.840  28.510  24.226  1.00  0.00    -0.240 NA
BRANCH  11  16
ATOM     16  C   UNL A   1      32.266  24.347  23.304  1.00  0.00     0.029 A 
ATOM     17  C   UNL A   1      31.997  22.059  24.187  1.00  0.00     0.119 A 
ATOM     18  C   UNL A   1      32.525  21.548  23.013  1.00  0.00     0.050 A 
ATOM     19  C   UNL A   1      31.865  23.441  24.325  1.00  0.00     0.059 A 
ATOM     20  C   UNL A   1      32.900  22.411  21.985  1.00  0.00     0.051 A 
ATOM     21  C   UNL A   1      32.786  23.808  22.110  1.00  0.00     0.127 A 
BRANCH  17  22
ATOM     22  O   UNL A   1      31.709  21.133  25.150  1.00  0.00    -0.497 OA
ATOM     23  C   UNL A   1      32.212  19.820  24.930  1.00  0.00     0.278 C 
ENDBRANCH  17  22
BRANCH  21  24
ATOM     24  O   UNL A   1      33.292  24.421  20.998  1.00  0.00    -0.496 OA
ATOM     25  C   UNL A   1      32.551  25.369  20.261  1.00  0.00     0.278 C 
ENDBRANCH  21  24
ENDBRANCH  11  16
BRANCH  13  26
ATOM     26  C   UNL A   1      34.196  25.733  25.012  1.00  0.00     0.103 C 
ATOM     27  N   UNL A   1      35.112  25.171  25.444  1.00  0.00    -0.192 NA
ENDBRANCH  13  26
BRANCH  14  28
ATOM     28  C   UNL A   1      29.825  28.673  22.898  1.00  0.00     0.000 A 
ATOM     29  C   UNL A   1      30.078  29.741  22.025  1.00  0.00     0.010 A 
ATOM     30  C   UNL A   1      28.482  28.390  23.184  1.00  0.00     0.010 A 
ATOM     31  C   UNL A   1      29.053  30.492  21.446  1.00  0.00     0.001 A 
ATOM     32  C   UNL A   1      27.447  29.150  22.624  1.00  0.00     0.001 A 
ATOM     33  C   UNL A   1      27.731  30.198  21.753  1.00  0.00     0.000 A 
ENDBRANCH  14  28
ENDBRANCH   9  10
ENDBRANCH   7   9
ENDBRANCH   4   7
ENDBRANCH   2   3
ENDBRANCH   1   2
BRANCH   1  34
ATOM     34  C   UNL A   1      35.471  33.435  29.504  1.00  0.00     0.002 C 
BRANCH  34  35
ATOM     35  C   UNL A   1      35.030  34.432  28.425  1.00  0.00     0.002 C 
BRANCH  35  36
ATOM     36  C   UNL A   1      33.886  35.375  28.824  1.00  0.00     0.021 C 
BRANCH  36  37
ATOM     37  C   UNL A   1      32.853  34.767  29.768  1.00  0.00     0.116 C 
BRANCH  37  38
ATOM     38  N   UNL A   1      32.516  35.680  30.846  1.00  0.00    -0.352 N 
ATOM     39  C   UNL A   1      32.987  35.731  32.132  1.00  0.00     0.251 C 
ATOM     40  H   UNL A   1      31.849  36.366  30.619  1.00  0.00     0.163 HD
ATOM     41  O   UNL A   1      32.384  36.386  32.976  1.00  0.00    -0.269 OA
BRANCH  39  42
ATOM     42  C   UNL A   1      34.216  35.000  32.509  1.00  0.00     0.039 A 
ATOM     43  C   UNL A   1      34.097  33.701  33.009  1.00  0.00     0.014 A 
ATOM     44  C   UNL A   1      35.474  35.603  32.418  1.00  0.00     0.014 A 
ATOM     45  C   UNL A   1      35.242  32.996  33.380  1.00  0.00     0.010 A 
ATOM     46  C   UNL A   1      36.621  34.867  32.710  1.00  0.00     0.010 A 
ATOM     47  C   UNL A   1      36.516  33.560  33.206  1.00  0.00    -0.014 A 
BRANCH  47  48
ATOM     48  C   UNL A   1      37.739  32.786  33.545  1.00  0.00     0.031 A 
ATOM     49  C   UNL A   1      38.518  33.091  34.795  1.00  0.00     0.074 A 
ATOM     50  C   UNL A   1      38.166  31.823  32.702  1.00  0.00     0.049 A 
ATOM     51  N   UNL A   1      39.612  32.528  35.244  1.00  0.00    -0.248 NA
ATOM     52  C   UNL A   1      38.019  34.185  35.643  1.00  0.00     0.031 C 
ATOM     53  C   UNL A   1      37.527  31.464  31.435  1.00  0.00     0.029 A 
ATOM     54  N   UNL A   1      39.240  30.972  32.782  1.00  0.00    -0.354 N 
ATOM     55  C   UNL A   1      39.935  33.204  36.413  1.00  0.00     0.074 A 
ATOM     56  C   UNL A   1      38.954  34.254  36.580  1.00  0.00     0.031 C 
ATOM     57  C   UNL A   1      38.200  30.450  30.873  1.00  0.00     0.029 A 
ATOM     58  C   UNL A   1      39.349  30.118  31.711  1.00  0.00     0.049 A 
ATOM     59  H   UNL A   1      39.873  30.972  33.536  1.00  0.00     0.167 HD
ATOM     60  C   UNL A   1      40.948  32.960  37.280  1.00  0.00     0.037 A 
ATOM     61  C   UNL A   1      40.275  29.183  31.426  1.00  0.00     0.037 A 
ATOM     62  C   UNL A   1      41.911  31.902  37.119  1.00  0.00     0.049 A 
ATOM     63  C   UNL A   1      41.398  28.946  32.399  1.00  0.00     0.074 A 
ATOM     64  C   UNL A   1      42.929  31.531  37.979  1.00  0.00     0.029 A 
ATOM     65  N   UNL A   1      41.986  31.058  36.022  1.00  0.00    -0.354 N 
ATOM     66  N   UNL A   1      41.639  29.536  33.545  1.00  0.00    -0.248 NA
ATOM     67  C   UNL A   1      42.375  27.907  32.044  1.00  0.00     0.031 C 
ATOM     68  C   UNL A   1      43.669  30.516  37.368  1.00  0.00     0.029 A 
ATOM     69  C   UNL A   1      43.061  30.196  36.164  1.00  0.00     0.049 A 
ATOM     70  H   UNL A   1      41.367  31.068  35.256  1.00  0.00     0.167 HD
ATOM     71  C   UNL A   1      42.773  28.919  34.061  1.00  0.00     0.074 A 
ATOM     72  C   UNL A   1      43.159  27.897  33.112  1.00  0.00     0.031 C 
ATOM     73  C   UNL A   1      43.433  29.177  35.216  1.00  0.00     0.037 A 
BRANCH  60  74
ATOM     74  C   UNL A   1      41.083  33.860  38.476  1.00  0.00     0.057 A 
ATOM     75  C   UNL A   1      41.890  35.005  38.463  1.00  0.00     0.134 A 
ATOM     76  C   UNL A   1      40.339  33.611  39.638  1.00  0.00     0.134 A 
ATOM     77  F   UNL A   1      42.636  35.299  37.386  1.00  0.00    -0.206 F 
ATOM     78  C   UNL A   1      41.969  35.857  39.567  1.00  0.00     0.040 A 
ATOM     79  C   UNL A   1      40.384  34.473  40.734  1.00  0.00     0.040 A 
ATOM     80  F   UNL A   1      39.539  32.538  39.718  1.00  0.00    -0.206 F 
ATOM     81  C   UNL A   1      41.206  35.597  40.703  1.00  0.00     0.006 A 
ENDBRANCH  60  74
BRANCH  61  82
ATOM     82  C   UNL A   1      40.192  28.406  30.160  1.00  0.00     0.057 A 
ATOM     83  C   UNL A   1      39.418  27.244  30.065  1.00  0.00     0.134 A 
ATOM     84  C   UNL A   1      40.914  28.791  29.024  1.00  0.00     0.134 A 
ATOM     85  F   UNL A   1      38.715  26.812  31.123  1.00  0.00    -0.206 F 
ATOM     86  C   UNL A   1      39.393  26.473  28.901  1.00  0.00     0.040 A 
ATOM     87  C   UNL A   1      40.871  28.050  27.842  1.00  0.00     0.040 A 
ATOM     88  F   UNL A   1      41.668  29.901  29.043  1.00  0.00    -0.206 F 
ATOM     89  C   UNL A   1      40.119  26.879  27.783  1.00  0.00     0.006 A 
ENDBRANCH  61  82
BRANCH  73  90
ATOM     90  C   UNL A   1      44.618  28.311  35.544  1.00  0.00     0.057 A 
ATOM     91  C   UNL A   1      44.494  27.118  36.270  1.00  0.00     0.134 A 
ATOM     92  C   UNL A   1      45.898  28.658  35.092  1.00  0.00     0.134 A 
ATOM     93  F   UNL A   1      43.299  26.731  36.742  1.00  0.00    -0.206 F 
ATOM     94  C   UNL A   1      45.602  26.322  36.560  1.00  0.00     0.040 A 
ATOM     95  C   UNL A   1      47.008  27.851  35.343  1.00  0.00     0.040 A 
ATOM     96  F   UNL A   1      46.089  29.780  34.379  1.00  0.00    -0.206 F 
ATOM     97  C   UNL A   1      46.863  26.684  36.088  1.00  0.00     0.006 A 
ENDBRANCH  73  90
ENDBRANCH  47  48
ENDBRANCH  39  42
ENDBRANCH  37  38
ENDBRANCH  36  37
ENDBRANCH  35  36
ENDBRANCH  34  35
ENDBRANCH   1  34
TORSDOF 20
ENDMDL
MODEL 3
REMARK VINA RESULT:     -10.2      6.420     13.504
REMARK SMILES COc1ccc(OC)c(-c2cc(-c3ccccc3)nc(S[C@H](C)C(=O)NCCCCCCNC(=O)c3ccc(-c4c5nc(c(-c6c(F)cccc6F)c6ccc([nH]6)c(-c6c(F)cccc6F)c6nc(c(-c7c(F)cccc7F)c7ccc4[nH]7)C=C6)C=C5)cc3)c2C#N)c1
REMARK SMILES IDX 28 1 27 2 26 3 24 4 25 5 22 7 23 8 21 9 20 10 10 11 11 12
REMARK SMILES IDX 90 13 12 14 19 15 9 16 3 17 4 18 93 19 5 20 6 21 2 22 1 23
REMARK SMILES IDX 7 24 8 25 91 26 92 27 13 28 14 29 18 30 15 31 17 32 16 33
REMARK SMILES IDX 29 34 30 35 31 36 32 37 33 38 34 39 35 41 36 42 37 43 89 44
REMARK SMILES IDX 38 45 88 46 39 47 40 48 41 49 82 50 42 51 87 52 81 53 83 54
REMARK SMILES IDX 43 55 86 56 80 57 79 58 44 60 70 61 53 62 69 63 54 64 57 65
REMARK SMILES IDX 68 66 84 67 55 68 56 69 67 71 85 72 58 73 45 74 46 75 51 76
REMARK SMILES IDX 47 77 48 78 50 79 52 80 49 81 71 82 72 83 77 84 73 85 74 86
REMARK SMILES IDX 76 87 78 88 75 89 59 90 60 91 65 92 61 93 62 94 64 95 66 96
REMARK SMILES IDX 63 97
REMARK H PARENT 26 6 33 40 83 59 57 70
REMARK Flexibility Score: inf
ROOT
ATOM      1  C   UNL A   1      46.351  23.987  26.391  1.00  0.00     0.021 C 
ENDROOT
BRANCH   1   2
ATOM      2  C   UNL A   1      46.427  25.055  25.315  1.00  0.00     0.116 C 
BRANCH   2   3
ATOM      3  N   UNL A   1      47.759  25.285  24.829  1.00  0.00    -0.355 N 
ATOM      4  C   UNL A   1      48.851  25.767  25.487  1.00  0.00     0.233 C 
ATOM      5  O   UNL A   1      49.913  25.772  24.852  1.00  0.00    -0.274 OA
ATOM      6  H   UNL A   1      47.904  25.062  23.881  1.00  0.00     0.163 HD
BRANCH   4   7
ATOM      7  C   UNL A   1      48.797  26.360  26.906  1.00  0.00     0.139 C 
ATOM      8  C   UNL A   1      49.281  25.399  27.978  1.00  0.00     0.030 C 
BRANCH   7   9
ATOM      9  S   UNL A   1      49.244  28.147  26.962  1.00  0.00    -0.092 SA
BRANCH   9  10
ATOM     10  C   UNL A   1      47.780  29.128  27.358  1.00  0.00     0.116 A 
ATOM     11  C   UNL A   1      46.792  31.104  28.358  1.00  0.00     0.008 A 
ATOM     12  C   UNL A   1      45.567  30.696  27.815  1.00  0.00     0.039 A 
ATOM     13  C   UNL A   1      47.931  30.310  28.100  1.00  0.00     0.092 A 
ATOM     14  C   UNL A   1      45.475  29.485  27.136  1.00  0.00     0.072 A 
ATOM     15  N   UNL A   1      46.566  28.705  26.922  1.00  0.00    -0.240 NA
BRANCH  11  16
ATOM     16  C   UNL A   1      46.871  32.378  29.105  1.00  0.00     0.029 A 
ATOM     17  C   UNL A   1      47.186  33.375  31.341  1.00  0.00     0.119 A 
ATOM     18  C   UNL A   1      46.936  34.631  30.812  1.00  0.00     0.050 A 
ATOM     19  C   UNL A   1      47.159  32.267  30.493  1.00  0.00     0.059 A 
ATOM     20  C   UNL A   1      46.678  34.774  29.450  1.00  0.00     0.051 A 
ATOM     21  C   UNL A   1      46.634  33.666  28.583  1.00  0.00     0.127 A 
BRANCH  17  22
ATOM     22  O   UNL A   1      47.378  33.338  32.693  1.00  0.00    -0.497 OA
ATOM     23  C   UNL A   1      46.948  34.483  33.420  1.00  0.00     0.278 C 
ENDBRANCH  17  22
BRANCH  21  24
ATOM     24  O   UNL A   1      46.288  34.070  27.324  1.00  0.00    -0.496 OA
ATOM     25  C   UNL A   1      45.382  35.129  27.097  1.00  0.00     0.278 C 
ENDBRANCH  21  24
ENDBRANCH  11  16
BRANCH  13  26
ATOM     26  C   UNL A   1      49.224  30.720  28.581  1.00  0.00     0.103 C 
ATOM     27  N   UNL A   1      50.265  31.065  28.955  1.00  0.00    -0.192 NA
ENDBRANCH  13  26
BRANCH  14  28
ATOM     28  C   UNL A   1      44.179  28.979  26.649  1.00  0.00     0.000 A 
ATOM     29  C   UNL A   1      43.000  29.722  26.811  1.00  0.00     0.010 A 
ATOM     30  C   UNL A   1      44.072  27.756  25.971  1.00  0.00     0.010 A 
ATOM     31  C   UNL A   1      41.768  29.286  26.318  1.00  0.00     0.001 A 
ATOM     32  C   UNL A   1      42.837  27.301  25.491  1.00  0.00     0.001 A 
ATOM     33  C   UNL A   1      41.687  28.067  25.660  1.00  0.00     0.000 A 
ENDBRANCH  14  28
ENDBRANCH   9  10
ENDBRANCH   7   9
ENDBRANCH   4   7
ENDBRANCH   2   3
ENDBRANCH   1   2
BRANCH   1  34
ATOM     34  C   UNL A   1      46.004  22.591  25.896  1.00  0.00     0.002 C 
BRANCH  34  35
ATOM     35  C   UNL A   1      45.586  22.549  24.421  1.00  0.00     0.002 C 
BRANCH  35  36
ATOM     36  C   UNL A   1      44.980  21.222  23.942  1.00  0.00     0.021 C 
BRANCH  36  37
ATOM     37  C   UNL A   1      44.741  20.193  25.043  1.00  0.00     0.116 C 
BRANCH  37  38
ATOM     38  N   UNL A   1      43.371  19.711  25.029  1.00  0.00    -0.352 N 
ATOM     39  C   UNL A   1      42.290  20.122  25.765  1.00  0.00     0.251 C 
ATOM     40  H   UNL A   1      43.192  18.979  24.398  1.00  0.00     0.163 HD
ATOM     41  O   UNL A   1      41.288  19.415  25.822  1.00  0.00    -0.269 OA
BRANCH  39  42
ATOM     42  C   UNL A   1      42.322  21.410  26.489  1.00  0.00     0.039 A 
ATOM     43  C   UNL A   1      42.310  21.395  27.886  1.00  0.00     0.014 A 
ATOM     44  C   UNL A   1      42.317  22.628  25.803  1.00  0.00     0.014 A 
ATOM     45  C   UNL A   1      42.331  22.598  28.591  1.00  0.00     0.010 A 
ATOM     46  C   UNL A   1      42.422  23.826  26.508  1.00  0.00     0.010 A 
ATOM     47  C   UNL A   1      42.417  23.824  27.910  1.00  0.00    -0.014 A 
BRANCH  47  48
ATOM     48  C   UNL A   1      42.501  25.103  28.662  1.00  0.00     0.031 A 
ATOM     49  C   UNL A   1      43.729  25.444  29.462  1.00  0.00     0.074 A 
ATOM     50  C   UNL A   1      41.449  25.946  28.650  1.00  0.00     0.049 A 
ATOM     51  N   UNL A   1      43.972  26.507  30.187  1.00  0.00    -0.248 NA
ATOM     52  C   UNL A   1      44.819  24.455  29.466  1.00  0.00     0.031 C 
ATOM     53  C   UNL A   1      40.182  25.708  27.953  1.00  0.00     0.029 A 
ATOM     54  N   UNL A   1      41.274  27.172  29.242  1.00  0.00    -0.354 N 
ATOM     55  C   UNL A   1      45.231  26.309  30.741  1.00  0.00     0.074 A 
ATOM     56  C   UNL A   1      45.681  25.003  30.311  1.00  0.00     0.031 C 
ATOM     57  C   UNL A   1      39.375  26.765  28.132  1.00  0.00     0.029 A 
ATOM     58  C   UNL A   1      40.043  27.733  28.997  1.00  0.00     0.049 A 
ATOM     59  H   UNL A   1      41.964  27.609  29.791  1.00  0.00     0.167 HD
ATOM     60  C   UNL A   1      45.954  27.148  31.521  1.00  0.00     0.037 A 
ATOM     61  C   UNL A   1      39.505  28.889  29.429  1.00  0.00     0.037 A 
ATOM     62  C   UNL A   1      45.509  28.455  31.930  1.00  0.00     0.049 A 
ATOM     63  C   UNL A   1      40.326  29.794  30.309  1.00  0.00     0.074 A 
ATOM     64  C   UNL A   1      46.198  29.407  32.660  1.00  0.00     0.029 A 
ATOM     65  N   UNL A   1      44.258  28.988  31.659  1.00  0.00    -0.354 N 
ATOM     66  N   UNL A   1      41.549  29.631  30.751  1.00  0.00    -0.248 NA
ATOM     67  C   UNL A   1      39.694  31.047  30.745  1.00  0.00     0.031 C 
ATOM     68  C   UNL A   1      45.338  30.482  32.899  1.00  0.00     0.029 A 
ATOM     69  C   UNL A   1      44.141  30.237  32.246  1.00  0.00     0.049 A 
ATOM     70  H   UNL A   1      43.556  28.544  31.128  1.00  0.00     0.167 HD
ATOM     71  C   UNL A   1      41.844  30.772  31.488  1.00  0.00     0.074 A 
ATOM     72  C   UNL A   1      40.678  31.627  31.415  1.00  0.00     0.031 C 
ATOM     73  C   UNL A   1      42.977  31.083  32.162  1.00  0.00     0.037 A 
BRANCH  60  74
ATOM     74  C   UNL A   1      47.299  26.680  32.002  1.00  0.00     0.057 A 
ATOM     75  C   UNL A   1      47.447  25.886  33.147  1.00  0.00     0.134 A 
ATOM     76  C   UNL A   1      48.456  26.973  31.267  1.00  0.00     0.134 A 
ATOM     77  F   UNL A   1      46.383  25.574  33.902  1.00  0.00    -0.206 F 
ATOM     78  C   UNL A   1      48.699  25.419  33.554  1.00  0.00     0.040 A 
ATOM     79  C   UNL A   1      49.706  26.484  31.646  1.00  0.00     0.040 A 
ATOM     80  F   UNL A   1      48.386  27.721  30.156  1.00  0.00    -0.206 F 
ATOM     81  C   UNL A   1      49.831  25.710  32.797  1.00  0.00     0.006 A 
ENDBRANCH  60  74
BRANCH  61  82
ATOM     82  C   UNL A   1      38.115  29.258  29.051  1.00  0.00     0.057 A 
ATOM     83  C   UNL A   1      37.803  29.711  27.764  1.00  0.00     0.134 A 
ATOM     84  C   UNL A   1      37.069  29.196  29.981  1.00  0.00     0.134 A 
ATOM     85  F   UNL A   1      38.762  29.808  26.831  1.00  0.00    -0.206 F 
ATOM     86  C   UNL A   1      36.513  30.125  27.425  1.00  0.00     0.040 A 
ATOM     87  C   UNL A   1      35.768  29.573  29.646  1.00  0.00     0.040 A 
ATOM     88  F   UNL A   1      37.296  28.761  31.229  1.00  0.00    -0.206 F 
ATOM     89  C   UNL A   1      35.490  30.052  28.368  1.00  0.00     0.006 A 
ENDBRANCH  61  82
BRANCH  73  90
ATOM     90  C   UNL A   1      43.034  32.423  32.841  1.00  0.00     0.057 A 
ATOM     91  C   UNL A   1      43.448  33.583  32.171  1.00  0.00     0.134 A 
ATOM     92  C   UNL A   1      42.629  32.561  34.175  1.00  0.00     0.134 A 
ATOM     93  F   UNL A   1      43.858  33.522  30.895  1.00  0.00    -0.206 F 
ATOM     94  C   UNL A   1      43.488  34.822  32.813  1.00  0.00     0.040 A 
ATOM     95  C   UNL A   1      42.629  33.800  34.817  1.00  0.00     0.040 A 
ATOM     96  F   UNL A   1      42.208  31.496  34.874  1.00  0.00    -0.206 F 
ATOM     97  C   UNL A   1      43.069  34.934  34.138  1.00  0.00     0.006 A 
ENDBRANCH  73  90
ENDBRANCH  47  48
ENDBRANCH  39  42
ENDBRANCH  37  38
ENDBRANCH  36  37
ENDBRANCH  35  36
ENDBRANCH  34  35
ENDBRANCH   1  34
TORSDOF 20
ENDMDL
