MODEL 1
REMARK VINA RESULT:     -10.3      0.000      0.000
REMARK SMILES O=C(NCCCCCCNC(=O)[C@H](CO)NC(=O)[C@H](Cc1c[nH]c2ccccc12)NC(=O)[C@H](Cc1ccc(O)cc1)NC(=O)c1ccc(F)cc1)c1ccc(-c2c3nc(c(-c4c(F)cccc4F)c4ccc([nH]4)c(-c4c(F)cccc4F)c4nc(c(-c5c(F)cccc5F)c5ccc2[nH]5)C=C4)C=C3)cc1
REMARK SMILES IDX 9 1 8 2 7 3 6 4 5 5 4 6 3 7 1 8 2 9 52 11 53 12 105 13 54 14
REMARK SMILES IDX 104 15 55 16 56 17 57 18 98 19 58 20 103 21 97 22 99 23
REMARK SMILES IDX 59 24 102 25 96 26 95 27 60 29 86 30 69 31 85 32 70 33 73 34
REMARK SMILES IDX 84 35 100 36 71 37 72 38 83 40 101 41 74 42 61 43 62 44
REMARK SMILES IDX 67 45 63 46 64 47 66 48 68 49 65 50 87 51 88 52 93 53 89 54
REMARK SMILES IDX 90 55 92 56 94 57 91 58 75 59 76 60 81 61 77 62 78 63 80 64
REMARK SMILES IDX 82 65 79 66 10 67 11 68 12 70 13 71 16 72 17 73 18 75 19 76
REMARK SMILES IDX 30 77 31 78 32 80 33 81 42 82 43 83 44 85 45 86 46 87 51 88
REMARK SMILES IDX 47 89 50 90 48 91 49 92 34 93 35 94 36 95 41 96 37 97 40 98
REMARK SMILES IDX 38 99 39 100 20 102 21 103 22 104 29 105 23 106 24 107
REMARK SMILES IDX 28 108 25 110 27 111 26 112 14 113 15 114
REMARK H PARENT 3 10 99 28 73 39 10 69 16 74 30 79 42 84 39 101 23 109 15 115
REMARK Flexibility Score: inf
ROOT
ATOM      1  C   UNL A   1      39.892  29.422  30.268  1.00  0.00     0.116 C 
ENDROOT
BRANCH   1   2
ATOM      2  C   UNL A   1      39.592  29.135  28.800  1.00  0.00     0.021 C 
BRANCH   2   3
ATOM      3  C   UNL A   1      39.267  27.675  28.467  1.00  0.00     0.002 C 
BRANCH   3   4
ATOM      4  C   UNL A   1      40.109  27.048  27.356  1.00  0.00     0.002 C 
BRANCH   4   5
ATOM      5  C   UNL A   1      39.791  25.591  27.021  1.00  0.00     0.021 C 
BRANCH   5   6
ATOM      6  C   UNL A   1      40.507  24.570  27.891  1.00  0.00     0.116 C 
BRANCH   6   7
ATOM      7  N   UNL A   1      41.058  23.465  27.125  1.00  0.00    -0.352 N 
ATOM      8  O   UNL A   1      42.486  22.468  25.684  1.00  0.00    -0.269 OA
ATOM      9  C   UNL A   1      42.216  23.435  26.389  1.00  0.00     0.251 C 
ATOM     10  H   UNL A   1      40.534  22.631  27.135  1.00  0.00     0.163 HD
BRANCH   9  11
ATOM     11  C   UNL A   1      43.130  24.596  26.440  1.00  0.00     0.039 A 
ATOM     12  C   UNL A   1      43.811  24.907  27.621  1.00  0.00     0.014 A 
ATOM     13  C   UNL A   1      43.307  25.376  25.294  1.00  0.00     0.014 A 
ATOM     14  C   UNL A   1      44.587  26.055  27.688  1.00  0.00     0.010 A 
ATOM     15  C   UNL A   1      44.156  26.483  25.339  1.00  0.00     0.010 A 
ATOM     16  C   UNL A   1      44.799  26.831  26.537  1.00  0.00    -0.014 A 
BRANCH  16  17
ATOM     17  C   UNL A   1      45.814  27.910  26.570  1.00  0.00     0.031 A 
ATOM     18  C   UNL A   1      45.424  29.351  26.706  1.00  0.00     0.074 A 
ATOM     19  C   UNL A   1      47.109  27.554  26.456  1.00  0.00     0.049 A 
ATOM     20  N   UNL A   1      46.195  30.408  26.690  1.00  0.00    -0.248 NA
ATOM     21  C   UNL A   1      43.995  29.651  26.879  1.00  0.00     0.031 C 
ATOM     22  C   UNL A   1      47.591  26.177  26.307  1.00  0.00     0.029 A 
ATOM     23  N   UNL A   1      48.255  28.307  26.444  1.00  0.00    -0.354 N 
ATOM     24  C   UNL A   1      45.347  31.499  26.830  1.00  0.00     0.074 A 
ATOM     25  C   UNL A   1      43.999  30.979  26.921  1.00  0.00     0.031 C 
ATOM     26  C   UNL A   1      48.928  26.181  26.243  1.00  0.00     0.029 A 
ATOM     27  C   UNL A   1      49.396  27.561  26.268  1.00  0.00     0.049 A 
ATOM     28  H   UNL A   1      48.260  29.285  26.552  1.00  0.00     0.167 HD
ATOM     29  C   UNL A   1      45.677  32.810  26.880  1.00  0.00     0.037 A 
ATOM     30  C   UNL A   1      50.674  27.943  26.099  1.00  0.00     0.037 A 
ATOM     31  C   UNL A   1      47.029  33.305  26.813  1.00  0.00     0.049 A 
ATOM     32  C   UNL A   1      51.000  29.405  26.115  1.00  0.00     0.074 A 
ATOM     33  C   UNL A   1      47.467  34.613  26.927  1.00  0.00     0.029 A 
ATOM     34  N   UNL A   1      48.153  32.522  26.605  1.00  0.00    -0.354 N 
ATOM     35  N   UNL A   1      50.193  30.422  26.302  1.00  0.00    -0.248 NA
ATOM     36  C   UNL A   1      52.400  29.780  25.885  1.00  0.00     0.031 C 
ATOM     37  C   UNL A   1      48.849  34.628  26.730  1.00  0.00     0.029 A 
ATOM     38  C   UNL A   1      49.280  33.324  26.545  1.00  0.00     0.049 A 
ATOM     39  H   UNL A   1      48.150  31.542  26.513  1.00  0.00     0.167 HD
ATOM     40  C   UNL A   1      50.987  31.555  26.214  1.00  0.00     0.074 A 
ATOM     41  C   UNL A   1      52.342  31.101  25.982  1.00  0.00     0.031 C 
ATOM     42  C   UNL A   1      50.621  32.855  26.309  1.00  0.00     0.037 A 
BRANCH  29  43
ATOM     43  C   UNL A   1      44.582  33.825  27.009  1.00  0.00     0.057 A 
ATOM     44  C   UNL A   1      43.889  34.267  25.873  1.00  0.00     0.134 A 
ATOM     45  C   UNL A   1      44.316  34.473  28.220  1.00  0.00     0.134 A 
ATOM     46  F   UNL A   1      44.106  33.694  24.679  1.00  0.00    -0.206 F 
ATOM     47  C   UNL A   1      42.993  35.334  25.932  1.00  0.00     0.040 A 
ATOM     48  C   UNL A   1      43.407  35.531  28.296  1.00  0.00     0.040 A 
ATOM     49  F   UNL A   1      44.943  34.097  29.344  1.00  0.00    -0.206 F 
ATOM     50  C   UNL A   1      42.753  35.973  27.147  1.00  0.00     0.006 A 
ENDBRANCH  29  43
BRANCH  30  51
ATOM     51  C   UNL A   1      51.717  26.916  25.857  1.00  0.00     0.057 A 
ATOM     52  C   UNL A   1      52.043  26.505  24.558  1.00  0.00     0.134 A 
ATOM     53  C   UNL A   1      52.383  26.293  26.916  1.00  0.00     0.134 A 
ATOM     54  F   UNL A   1      51.431  27.056  23.499  1.00  0.00    -0.206 F 
ATOM     55  C   UNL A   1      52.974  25.493  24.321  1.00  0.00     0.040 A 
ATOM     56  C   UNL A   1      53.340  25.300  26.693  1.00  0.00     0.040 A 
ATOM     57  F   UNL A   1      52.126  26.652  28.182  1.00  0.00    -0.206 F 
ATOM     58  C   UNL A   1      53.630  24.891  25.391  1.00  0.00     0.006 A 
ENDBRANCH  30  51
BRANCH  42  59
ATOM     59  C   UNL A   1      51.694  33.889  26.162  1.00  0.00     0.057 A 
ATOM     60  C   UNL A   1      52.162  34.260  24.894  1.00  0.00     0.134 A 
ATOM     61  C   UNL A   1      52.332  34.439  27.279  1.00  0.00     0.134 A 
ATOM     62  F   UNL A   1      51.597  33.759  23.786  1.00  0.00    -0.206 F 
ATOM     63  C   UNL A   1      53.247  35.122  24.746  1.00  0.00     0.040 A 
ATOM     64  C   UNL A   1      53.403  35.321  27.142  1.00  0.00     0.040 A 
ATOM     65  F   UNL A   1      51.919  34.131  28.518  1.00  0.00    -0.206 F 
ATOM     66  C   UNL A   1      53.872  35.654  25.871  1.00  0.00     0.006 A 
ENDBRANCH  42  59
ENDBRANCH  16  17
ENDBRANCH   9  11
ENDBRANCH   6   7
ENDBRANCH   5   6
ENDBRANCH   4   5
ENDBRANCH   3   4
ENDBRANCH   2   3
ENDBRANCH   1   2
BRANCH   1  67
ATOM     67  N   UNL A   1      39.392  28.379  31.145  1.00  0.00    -0.354 N 
ATOM     68  C   UNL A   1      39.484  28.303  32.504  1.00  0.00     0.244 C 
ATOM     69  H   UNL A   1      38.928  27.631  30.703  1.00  0.00     0.163 HD
ATOM     70  O   UNL A   1      38.837  27.424  33.082  1.00  0.00    -0.273 OA
BRANCH  68  71
ATOM     71  C   UNL A   1      40.440  29.237  33.262  1.00  0.00     0.197 C 
BRANCH  71  72
ATOM     72  N   UNL A   1      39.964  29.386  34.638  1.00  0.00    -0.340 N 
ATOM     73  C   UNL A   1      39.388  30.411  35.315  1.00  0.00     0.243 C 
ATOM     74  H   UNL A   1      40.088  28.577  35.185  1.00  0.00     0.164 HD
ATOM     75  O   UNL A   1      38.954  30.128  36.440  1.00  0.00    -0.273 OA
BRANCH  73  76
ATOM     76  C   UNL A   1      39.194  31.850  34.772  1.00  0.00     0.175 C 
BRANCH  76  77
ATOM     77  N   UNL A   1      38.129  32.694  35.324  1.00  0.00    -0.342 N 
ATOM     78  C   UNL A   1      36.857  33.020  34.959  1.00  0.00     0.243 C 
ATOM     79  H   UNL A   1      38.399  33.133  36.162  1.00  0.00     0.164 HD
ATOM     80  O   UNL A   1      36.287  33.761  35.770  1.00  0.00    -0.273 OA
BRANCH  78  81
ATOM     81  C   UNL A   1      36.194  32.690  33.578  1.00  0.00     0.176 C 
BRANCH  81  82
ATOM     82  N   UNL A   1      36.378  31.327  33.072  1.00  0.00    -0.340 N 
ATOM     83  C   UNL A   1      36.278  30.809  31.806  1.00  0.00     0.251 C 
ATOM     84  H   UNL A   1      36.615  30.666  33.763  1.00  0.00     0.164 HD
ATOM     85  O   UNL A   1      36.307  29.587  31.678  1.00  0.00    -0.269 OA
BRANCH  83  86
ATOM     86  C   UNL A   1      36.157  31.658  30.593  1.00  0.00     0.040 A 
ATOM     87  C   UNL A   1      37.256  32.088  29.838  1.00  0.00     0.017 A 
ATOM     88  C   UNL A   1      34.863  31.954  30.139  1.00  0.00     0.017 A 
ATOM     89  C   UNL A   1      37.069  32.849  28.683  1.00  0.00     0.040 A 
ATOM     90  C   UNL A   1      34.676  32.704  28.977  1.00  0.00     0.040 A 
ATOM     91  C   UNL A   1      35.781  33.154  28.265  1.00  0.00     0.123 A 
ATOM     92  F   UNL A   1      35.605  33.876  27.152  1.00  0.00    -0.207 F 
ENDBRANCH  83  86
ENDBRANCH  81  82
BRANCH  81  93
ATOM     93  C   UNL A   1      34.693  33.064  33.406  1.00  0.00     0.070 C 
BRANCH  93  94
ATOM     94  C   UNL A   1      34.324  34.465  33.003  1.00  0.00    -0.045 A 
ATOM     95  C   UNL A   1      34.443  35.537  33.899  1.00  0.00     0.007 A 
ATOM     96  C   UNL A   1      33.847  34.710  31.709  1.00  0.00     0.007 A 
ATOM     97  C   UNL A   1      34.064  36.827  33.514  1.00  0.00     0.046 A 
ATOM     98  C   UNL A   1      33.465  35.995  31.328  1.00  0.00     0.046 A 
ATOM     99  C   UNL A   1      33.565  37.041  32.233  1.00  0.00     0.115 A 
BRANCH  99 100
ATOM    100  O   UNL A   1      33.154  38.276  31.825  1.00  0.00    -0.508 OA
ATOM    101  H   UNL A   1      33.465  38.628  31.014  1.00  0.00     0.293 HD
ENDBRANCH  99 100
ENDBRANCH  93  94
ENDBRANCH  81  93
ENDBRANCH  78  81
ENDBRANCH  76  77
BRANCH  76 102
ATOM    102  C   UNL A   1      40.551  32.600  34.736  1.00  0.00     0.072 C 
BRANCH 102 103
ATOM    103  C   UNL A   1      41.113  32.889  33.373  1.00  0.00    -0.020 A 
ATOM    104  C   UNL A   1      42.300  32.405  32.862  1.00  0.00     0.087 A 
ATOM    105  C   UNL A   1      40.480  33.609  32.301  1.00  0.00     0.003 A 
ATOM    106  N   UNL A   1      42.462  32.879  31.590  1.00  0.00    -0.361 N 
ATOM    107  C   UNL A   1      41.352  33.595  31.211  1.00  0.00     0.046 A 
ATOM    108  C   UNL A   1      39.230  34.244  32.138  1.00  0.00     0.010 A 
ATOM    109  H   UNL A   1      43.256  32.730  31.027  1.00  0.00     0.166 HD
ATOM    110  C   UNL A   1      41.055  34.204  29.985  1.00  0.00     0.026 A 
ATOM    111  C   UNL A   1      38.908  34.843  30.912  1.00  0.00     0.001 A 
ATOM    112  C   UNL A   1      39.815  34.831  29.855  1.00  0.00     0.002 A 
ENDBRANCH 102 103
ENDBRANCH  76 102
ENDBRANCH  73  76
ENDBRANCH  71  72
BRANCH  71 113
ATOM    113  C   UNL A   1      41.825  28.574  33.221  1.00  0.00     0.191 C 
BRANCH 113 114
ATOM    114  O   UNL A   1      41.831  27.332  33.922  1.00  0.00    -0.394 OA
ATOM    115  H   UNL A   1      42.644  26.847  33.713  1.00  0.00     0.210 HD
ENDBRANCH 113 114
ENDBRANCH  71 113
ENDBRANCH  68  71
ENDBRANCH   1  67
TORSDOF 26
ENDMDL
MODEL 2
REMARK VINA RESULT:     -10.2      1.412      2.285
REMARK SMILES O=C(NCCCCCCNC(=O)[C@H](CO)NC(=O)[C@H](Cc1c[nH]c2ccccc12)NC(=O)[C@H](Cc1ccc(O)cc1)NC(=O)c1ccc(F)cc1)c1ccc(-c2c3nc(c(-c4c(F)cccc4F)c4ccc([nH]4)c(-c4c(F)cccc4F)c4nc(c(-c5c(F)cccc5F)c5ccc2[nH]5)C=C4)C=C3)cc1
REMARK SMILES IDX 9 1 8 2 7 3 6 4 5 5 4 6 3 7 1 8 2 9 52 11 53 12 105 13 54 14
REMARK SMILES IDX 104 15 55 16 56 17 57 18 98 19 58 20 103 21 97 22 99 23
REMARK SMILES IDX 59 24 102 25 96 26 95 27 60 29 86 30 69 31 85 32 70 33 73 34
REMARK SMILES IDX 84 35 100 36 71 37 72 38 83 40 101 41 74 42 61 43 62 44
REMARK SMILES IDX 67 45 63 46 64 47 66 48 68 49 65 50 87 51 88 52 93 53 89 54
REMARK SMILES IDX 90 55 92 56 94 57 91 58 75 59 76 60 81 61 77 62 78 63 80 64
REMARK SMILES IDX 82 65 79 66 10 67 11 68 12 70 13 71 16 72 17 73 18 75 19 76
REMARK SMILES IDX 30 77 31 78 32 80 33 81 42 82 43 83 44 85 45 86 46 87 51 88
REMARK SMILES IDX 47 89 50 90 48 91 49 92 34 93 35 94 36 95 41 96 37 97 40 98
REMARK SMILES IDX 38 99 39 100 20 102 21 103 22 104 29 105 23 106 24 107
REMARK SMILES IDX 28 108 25 110 27 111 26 112 14 113 15 114
REMARK H PARENT 3 10 99 28 73 39 10 69 16 74 30 79 42 84 39 101 23 109 15 115
REMARK Flexibility Score: inf
ROOT
ATOM      1  C   UNL A   1      39.822  29.703  30.291  1.00  0.00     0.116 C 
ENDROOT
BRANCH   1   2
ATOM      2  C   UNL A   1      39.390  29.508  28.841  1.00  0.00     0.021 C 
BRANCH   2   3
ATOM      3  C   UNL A   1      39.230  28.053  28.391  1.00  0.00     0.002 C 
BRANCH   3   4
ATOM      4  C   UNL A   1      40.305  27.536  27.434  1.00  0.00     0.002 C 
BRANCH   4   5
ATOM      5  C   UNL A   1      40.039  26.167  26.811  1.00  0.00     0.021 C 
BRANCH   5   6
ATOM      6  C   UNL A   1      40.247  24.990  27.751  1.00  0.00     0.116 C 
BRANCH   6   7
ATOM      7  N   UNL A   1      40.688  23.789  27.063  1.00  0.00    -0.352 N 
ATOM      8  O   UNL A   1      42.042  22.553  25.742  1.00  0.00    -0.269 OA
ATOM      9  C   UNL A   1      41.865  23.580  26.390  1.00  0.00     0.251 C 
ATOM     10  H   UNL A   1      40.063  23.029  27.082  1.00  0.00     0.163 HD
BRANCH   9  11
ATOM     11  C   UNL A   1      42.915  24.619  26.437  1.00  0.00     0.039 A 
ATOM     12  C   UNL A   1      43.259  25.329  25.283  1.00  0.00     0.014 A 
ATOM     13  C   UNL A   1      43.559  24.883  27.649  1.00  0.00     0.014 A 
ATOM     14  C   UNL A   1      44.314  26.229  25.316  1.00  0.00     0.010 A 
ATOM     15  C   UNL A   1      44.562  25.852  27.699  1.00  0.00     0.010 A 
ATOM     16  C   UNL A   1      44.948  26.529  26.532  1.00  0.00    -0.014 A 
BRANCH  16  17
ATOM     17  C   UNL A   1      45.905  27.658  26.589  1.00  0.00     0.031 A 
ATOM     18  C   UNL A   1      45.439  29.077  26.715  1.00  0.00     0.074 A 
ATOM     19  C   UNL A   1      47.219  27.370  26.505  1.00  0.00     0.049 A 
ATOM     20  N   UNL A   1      46.154  30.173  26.718  1.00  0.00    -0.248 NA
ATOM     21  C   UNL A   1      43.993  29.304  26.854  1.00  0.00     0.031 C 
ATOM     22  C   UNL A   1      47.774  26.019  26.367  1.00  0.00     0.029 A 
ATOM     23  N   UNL A   1      48.325  28.180  26.521  1.00  0.00    -0.354 N 
ATOM     24  C   UNL A   1      45.249  31.219  26.838  1.00  0.00     0.074 A 
ATOM     25  C   UNL A   1      43.928  30.630  26.897  1.00  0.00     0.031 C 
ATOM     26  C   UNL A   1      49.111  26.092  26.335  1.00  0.00     0.029 A 
ATOM     27  C   UNL A   1      49.506  27.494  26.371  1.00  0.00     0.049 A 
ATOM     28  H   UNL A   1      48.277  29.157  26.629  1.00  0.00     0.167 HD
ATOM     29  C   UNL A   1      45.510  32.545  26.896  1.00  0.00     0.037 A 
ATOM     30  C   UNL A   1      50.767  27.941  26.233  1.00  0.00     0.037 A 
ATOM     31  C   UNL A   1      46.836  33.108  26.861  1.00  0.00     0.049 A 
ATOM     32  C   UNL A   1      51.017  29.419  26.256  1.00  0.00     0.074 A 
ATOM     33  C   UNL A   1      47.203  34.437  26.985  1.00  0.00     0.029 A 
ATOM     34  N   UNL A   1      48.003  32.384  26.679  1.00  0.00    -0.354 N 
ATOM     35  N   UNL A   1      50.155  30.392  26.424  1.00  0.00    -0.248 NA
ATOM     36  C   UNL A   1      52.401  29.865  26.060  1.00  0.00     0.031 C 
ATOM     37  C   UNL A   1      48.587  34.523  26.820  1.00  0.00     0.029 A 
ATOM     38  C   UNL A   1      49.088  33.244  26.645  1.00  0.00     0.049 A 
ATOM     39  H   UNL A   1      48.052  31.406  26.587  1.00  0.00     0.167 HD
ATOM     40  C   UNL A   1      50.892  31.565  26.355  1.00  0.00     0.074 A 
ATOM     41  C   UNL A   1      52.273  31.181  26.155  1.00  0.00     0.031 C 
ATOM     42  C   UNL A   1      50.457  32.844  26.441  1.00  0.00     0.037 A 
BRANCH  29  43
ATOM     43  C   UNL A   1      44.361  33.502  26.998  1.00  0.00     0.057 A 
ATOM     44  C   UNL A   1      43.843  34.111  25.847  1.00  0.00     0.134 A 
ATOM     45  C   UNL A   1      43.871  33.936  28.235  1.00  0.00     0.134 A 
ATOM     46  F   UNL A   1      44.278  33.749  24.631  1.00  0.00    -0.206 F 
ATOM     47  C   UNL A   1      42.899  35.136  25.924  1.00  0.00     0.040 A 
ATOM     48  C   UNL A   1      42.913  34.948  28.325  1.00  0.00     0.040 A 
ATOM     49  F   UNL A   1      44.324  33.391  29.374  1.00  0.00    -0.206 F 
ATOM     50  C   UNL A   1      42.434  35.560  27.167  1.00  0.00     0.006 A 
ENDBRANCH  29  43
BRANCH  30  51
ATOM     51  C   UNL A   1      51.867  26.969  26.016  1.00  0.00     0.057 A 
ATOM     52  C   UNL A   1      52.173  26.494  24.733  1.00  0.00     0.134 A 
ATOM     53  C   UNL A   1      52.611  26.462  27.085  1.00  0.00     0.134 A 
ATOM     54  F   UNL A   1      51.488  26.934  23.666  1.00  0.00    -0.206 F 
ATOM     55  C   UNL A   1      53.160  25.531  24.524  1.00  0.00     0.040 A 
ATOM     56  C   UNL A   1      53.623  25.520  26.887  1.00  0.00     0.040 A 
ATOM     57  F   UNL A   1      52.376  26.888  28.334  1.00  0.00    -0.206 F 
ATOM     58  C   UNL A   1      53.893  25.045  25.604  1.00  0.00     0.006 A 
ENDBRANCH  30  51
BRANCH  42  59
ATOM     59  C   UNL A   1      51.479  33.932  26.320  1.00  0.00     0.057 A 
ATOM     60  C   UNL A   1      51.908  34.374  25.061  1.00  0.00     0.134 A 
ATOM     61  C   UNL A   1      52.110  34.467  27.449  1.00  0.00     0.134 A 
ATOM     62  F   UNL A   1      51.348  33.891  23.942  1.00  0.00    -0.206 F 
ATOM     63  C   UNL A   1      52.950  35.291  24.931  1.00  0.00     0.040 A 
ATOM     64  C   UNL A   1      53.136  35.402  27.331  1.00  0.00     0.040 A 
ATOM     65  F   UNL A   1      51.732  34.091  28.680  1.00  0.00    -0.206 F 
ATOM     66  C   UNL A   1      53.569  35.807  26.068  1.00  0.00     0.006 A 
ENDBRANCH  42  59
ENDBRANCH  16  17
ENDBRANCH   9  11
ENDBRANCH   6   7
ENDBRANCH   5   6
ENDBRANCH   4   5
ENDBRANCH   3   4
ENDBRANCH   2   3
ENDBRANCH   1   2
BRANCH   1  67
ATOM     67  N   UNL A   1      39.417  28.596  31.139  1.00  0.00    -0.354 N 
ATOM     68  C   UNL A   1      39.428  28.529  32.501  1.00  0.00     0.244 C 
ATOM     69  H   UNL A   1      39.093  27.793  30.671  1.00  0.00     0.163 HD
ATOM     70  O   UNL A   1      38.875  27.565  33.039  1.00  0.00    -0.273 OA
BRANCH  68  71
ATOM     71  C   UNL A   1      40.192  29.584  33.316  1.00  0.00     0.197 C 
BRANCH  71  72
ATOM     72  N   UNL A   1      39.644  29.624  34.672  1.00  0.00    -0.340 N 
ATOM     73  C   UNL A   1      39.030  30.592  35.397  1.00  0.00     0.243 C 
ATOM     74  H   UNL A   1      39.741  28.773  35.158  1.00  0.00     0.164 HD
ATOM     75  O   UNL A   1      38.537  30.220  36.471  1.00  0.00    -0.273 OA
BRANCH  73  76
ATOM     76  C   UNL A   1      38.861  32.070  34.962  1.00  0.00     0.175 C 
BRANCH  76  77
ATOM     77  N   UNL A   1      37.764  32.868  35.518  1.00  0.00    -0.342 N 
ATOM     78  C   UNL A   1      36.505  33.205  35.120  1.00  0.00     0.243 C 
ATOM     79  H   UNL A   1      37.992  33.254  36.394  1.00  0.00     0.164 HD
ATOM     80  O   UNL A   1      35.892  33.889  35.951  1.00  0.00    -0.273 OA
BRANCH  78  81
ATOM     81  C   UNL A   1      35.906  32.959  33.693  1.00  0.00     0.176 C 
BRANCH  81  82
ATOM     82  N   UNL A   1      36.092  31.620  33.126  1.00  0.00    -0.340 N 
ATOM     83  C   UNL A   1      36.619  31.208  31.929  1.00  0.00     0.251 C 
ATOM     84  H   UNL A   1      35.786  30.888  33.708  1.00  0.00     0.164 HD
ATOM     85  O   UNL A   1      36.496  30.025  31.621  1.00  0.00    -0.269 OA
BRANCH  83  86
ATOM     86  C   UNL A   1      37.343  32.122  31.008  1.00  0.00     0.040 A 
ATOM     87  C   UNL A   1      36.892  32.437  29.720  1.00  0.00     0.017 A 
ATOM     88  C   UNL A   1      38.482  32.771  31.507  1.00  0.00     0.017 A 
ATOM     89  C   UNL A   1      37.598  33.338  28.921  1.00  0.00     0.040 A 
ATOM     90  C   UNL A   1      39.181  33.682  30.713  1.00  0.00     0.040 A 
ATOM     91  C   UNL A   1      38.738  33.950  29.423  1.00  0.00     0.123 A 
ATOM     92  F   UNL A   1      39.408  34.820  28.659  1.00  0.00    -0.207 F 
ENDBRANCH  83  86
ENDBRANCH  81  82
BRANCH  81  93
ATOM     93  C   UNL A   1      34.422  33.369  33.467  1.00  0.00     0.070 C 
BRANCH  93  94
ATOM     94  C   UNL A   1      34.104  34.500  32.528  1.00  0.00    -0.045 A 
ATOM     95  C   UNL A   1      34.036  34.301  31.142  1.00  0.00     0.007 A 
ATOM     96  C   UNL A   1      33.872  35.783  33.043  1.00  0.00     0.007 A 
ATOM     97  C   UNL A   1      33.771  35.373  30.285  1.00  0.00     0.046 A 
ATOM     98  C   UNL A   1      33.612  36.852  32.187  1.00  0.00     0.046 A 
ATOM     99  C   UNL A   1      33.574  36.644  30.816  1.00  0.00     0.115 A 
BRANCH  99 100
ATOM    100  O   UNL A   1      33.343  37.724  30.017  1.00  0.00    -0.508 OA
ATOM    101  H   UNL A   1      33.578  38.583  30.310  1.00  0.00     0.293 HD
ENDBRANCH  99 100
ENDBRANCH  93  94
ENDBRANCH  81  93
ENDBRANCH  78  81
ENDBRANCH  76  77
BRANCH  76 102
ATOM    102  C   UNL A   1      40.215  32.820  35.062  1.00  0.00     0.072 C 
BRANCH 102 103
ATOM    103  C   UNL A   1      40.166  34.199  35.657  1.00  0.00    -0.020 A 
ATOM    104  C   UNL A   1      40.223  35.389  34.960  1.00  0.00     0.087 A 
ATOM    105  C   UNL A   1      39.927  34.550  37.031  1.00  0.00     0.003 A 
ATOM    106  N   UNL A   1      40.139  36.426  35.847  1.00  0.00    -0.361 N 
ATOM    107  C   UNL A   1      39.929  35.944  37.116  1.00  0.00     0.046 A 
ATOM    108  C   UNL A   1      39.672  33.817  38.209  1.00  0.00     0.010 A 
ATOM    109  H   UNL A   1      40.216  37.379  35.612  1.00  0.00     0.166 HD
ATOM    110  C   UNL A   1      39.722  36.637  38.315  1.00  0.00     0.026 A 
ATOM    111  C   UNL A   1      39.443  34.495  39.415  1.00  0.00     0.001 A 
ATOM    112  C   UNL A   1      39.479  35.886  39.466  1.00  0.00     0.002 A 
ENDBRANCH 102 103
ENDBRANCH  76 102
ENDBRANCH  73  76
ENDBRANCH  71  72
BRANCH  71 113
ATOM    113  C   UNL A   1      41.666  29.151  33.324  1.00  0.00     0.191 C 
BRANCH 113 114
ATOM    114  O   UNL A   1      41.857  27.938  32.599  1.00  0.00    -0.394 OA
ATOM    115  H   UNL A   1      41.626  27.183  33.163  1.00  0.00     0.210 HD
ENDBRANCH 113 114
ENDBRANCH  71 113
ENDBRANCH  68  71
ENDBRANCH   1  67
TORSDOF 26
ENDMDL
MODEL 3
REMARK VINA RESULT:      -9.9      1.921      4.983
REMARK SMILES O=C(NCCCCCCNC(=O)[C@H](CO)NC(=O)[C@H](Cc1c[nH]c2ccccc12)NC(=O)[C@H](Cc1ccc(O)cc1)NC(=O)c1ccc(F)cc1)c1ccc(-c2c3nc(c(-c4c(F)cccc4F)c4ccc([nH]4)c(-c4c(F)cccc4F)c4nc(c(-c5c(F)cccc5F)c5ccc2[nH]5)C=C4)C=C3)cc1
REMARK SMILES IDX 9 1 8 2 7 3 6 4 5 5 4 6 3 7 1 8 2 9 52 11 53 12 105 13 54 14
REMARK SMILES IDX 104 15 55 16 56 17 57 18 98 19 58 20 103 21 97 22 99 23
REMARK SMILES IDX 59 24 102 25 96 26 95 27 60 29 86 30 69 31 85 32 70 33 73 34
REMARK SMILES IDX 84 35 100 36 71 37 72 38 83 40 101 41 74 42 61 43 62 44
REMARK SMILES IDX 67 45 63 46 64 47 66 48 68 49 65 50 87 51 88 52 93 53 89 54
REMARK SMILES IDX 90 55 92 56 94 57 91 58 75 59 76 60 81 61 77 62 78 63 80 64
REMARK SMILES IDX 82 65 79 66 10 67 11 68 12 70 13 71 16 72 17 73 18 75 19 76
REMARK SMILES IDX 30 77 31 78 32 80 33 81 42 82 43 83 44 85 45 86 46 87 51 88
REMARK SMILES IDX 47 89 50 90 48 91 49 92 34 93 35 94 36 95 41 96 37 97 40 98
REMARK SMILES IDX 38 99 39 100 20 102 21 103 22 104 29 105 23 106 24 107
REMARK SMILES IDX 28 108 25 110 27 111 26 112 14 113 15 114
REMARK H PARENT 3 10 99 28 73 39 10 69 16 74 30 79 42 84 39 101 23 109 15 115
REMARK Flexibility Score: inf
ROOT
ATOM      1  C   UNL A   1      38.405  28.940  28.375  1.00  0.00     0.116 C 
ENDROOT
BRANCH   1   2
ATOM      2  C   UNL A   1      39.857  28.503  28.217  1.00  0.00     0.021 C 
BRANCH   2   3
ATOM      3  C   UNL A   1      40.064  27.099  27.639  1.00  0.00     0.002 C 
BRANCH   3   4
ATOM      4  C   UNL A   1      39.709  25.942  28.574  1.00  0.00     0.002 C 
BRANCH   4   5
ATOM      5  C   UNL A   1      39.594  24.567  27.918  1.00  0.00     0.021 C 
BRANCH   5   6
ATOM      6  C   UNL A   1      40.049  24.516  26.468  1.00  0.00     0.116 C 
BRANCH   6   7
ATOM      7  N   UNL A   1      40.791  23.307  26.152  1.00  0.00    -0.352 N 
ATOM      8  O   UNL A   1      42.591  22.107  25.499  1.00  0.00    -0.269 OA
ATOM      9  C   UNL A   1      42.130  23.178  25.880  1.00  0.00     0.251 C 
ATOM     10  H   UNL A   1      40.266  22.474  26.131  1.00  0.00     0.163 HD
BRANCH   9  11
ATOM     11  C   UNL A   1      43.011  24.354  26.034  1.00  0.00     0.039 A 
ATOM     12  C   UNL A   1      43.674  24.587  27.242  1.00  0.00     0.014 A 
ATOM     13  C   UNL A   1      43.175  25.229  24.956  1.00  0.00     0.014 A 
ATOM     14  C   UNL A   1      44.417  25.747  27.409  1.00  0.00     0.010 A 
ATOM     15  C   UNL A   1      43.993  26.351  25.098  1.00  0.00     0.010 A 
ATOM     16  C   UNL A   1      44.617  26.618  26.327  1.00  0.00    -0.014 A 
BRANCH  16  17
ATOM     17  C   UNL A   1      45.601  27.718  26.456  1.00  0.00     0.031 A 
ATOM     18  C   UNL A   1      45.170  29.140  26.646  1.00  0.00     0.074 A 
ATOM     19  C   UNL A   1      46.909  27.399  26.380  1.00  0.00     0.049 A 
ATOM     20  N   UNL A   1      45.913  30.215  26.716  1.00  0.00    -0.248 NA
ATOM     21  C   UNL A   1      43.727  29.398  26.773  1.00  0.00     0.031 C 
ATOM     22  C   UNL A   1      47.432  26.043  26.183  1.00  0.00     0.029 A 
ATOM     23  N   UNL A   1      48.035  28.178  26.455  1.00  0.00    -0.354 N 
ATOM     24  C   UNL A   1      45.032  31.277  26.873  1.00  0.00     0.074 A 
ATOM     25  C   UNL A   1      43.695  30.722  26.881  1.00  0.00     0.031 C 
ATOM     26  C   UNL A   1      48.770  26.081  26.177  1.00  0.00     0.029 A 
ATOM     27  C   UNL A   1      49.200  27.469  26.290  1.00  0.00     0.049 A 
ATOM     28  H   UNL A   1      48.010  29.149  26.611  1.00  0.00     0.167 HD
ATOM     29  C   UNL A   1      45.326  32.591  27.002  1.00  0.00     0.037 A 
ATOM     30  C   UNL A   1      50.475  27.889  26.195  1.00  0.00     0.037 A 
ATOM     31  C   UNL A   1      46.666  33.121  27.017  1.00  0.00     0.049 A 
ATOM     32  C   UNL A   1      50.762  29.356  26.297  1.00  0.00     0.074 A 
ATOM     33  C   UNL A   1      47.065  34.431  27.214  1.00  0.00     0.029 A 
ATOM     34  N   UNL A   1      47.818  32.376  26.819  1.00  0.00    -0.354 N 
ATOM     35  N   UNL A   1      49.922  30.343  26.499  1.00  0.00    -0.248 NA
ATOM     36  C   UNL A   1      52.160  29.775  26.146  1.00  0.00     0.031 C 
ATOM     37  C   UNL A   1      48.453  34.489  27.077  1.00  0.00     0.029 A 
ATOM     38  C   UNL A   1      48.925  33.207  26.846  1.00  0.00     0.049 A 
ATOM     39  H   UNL A   1      47.844  31.402  26.678  1.00  0.00     0.167 HD
ATOM     40  C   UNL A   1      50.690  31.498  26.502  1.00  0.00     0.074 A 
ATOM     41  C   UNL A   1      52.065  31.088  26.306  1.00  0.00     0.031 C 
ATOM     42  C   UNL A   1      50.287  32.782  26.645  1.00  0.00     0.037 A 
BRANCH  29  43
ATOM     43  C   UNL A   1      44.200  33.572  27.134  1.00  0.00     0.057 A 
ATOM     44  C   UNL A   1      43.710  34.243  26.004  1.00  0.00     0.134 A 
ATOM     45  C   UNL A   1      43.708  33.966  28.383  1.00  0.00     0.134 A 
ATOM     46  F   UNL A   1      44.150  33.921  24.778  1.00  0.00    -0.206 F 
ATOM     47  C   UNL A   1      42.791  35.287  26.116  1.00  0.00     0.040 A 
ATOM     48  C   UNL A   1      42.774  34.997  28.506  1.00  0.00     0.040 A 
ATOM     49  F   UNL A   1      44.134  33.362  29.502  1.00  0.00    -0.206 F 
ATOM     50  C   UNL A   1      42.324  35.670  27.371  1.00  0.00     0.006 A 
ENDBRANCH  29  43
BRANCH  30  51
ATOM     51  C   UNL A   1      51.553  26.901  25.948  1.00  0.00     0.057 A 
ATOM     52  C   UNL A   1      51.906  26.523  24.645  1.00  0.00     0.134 A 
ATOM     53  C   UNL A   1      52.228  26.281  27.003  1.00  0.00     0.134 A 
ATOM     54  F   UNL A   1      51.287  27.072  23.589  1.00  0.00    -0.206 F 
ATOM     55  C   UNL A   1      52.871  25.546  24.401  1.00  0.00     0.040 A 
ATOM     56  C   UNL A   1      53.219  25.324  26.774  1.00  0.00     0.040 A 
ATOM     57  F   UNL A   1      51.946  26.610  28.272  1.00  0.00    -0.206 F 
ATOM     58  C   UNL A   1      53.535  24.947  25.469  1.00  0.00     0.006 A 
ENDBRANCH  30  51
BRANCH  42  59
ATOM     59  C   UNL A   1      51.337  33.847  26.595  1.00  0.00     0.057 A 
ATOM     60  C   UNL A   1      51.987  34.268  27.763  1.00  0.00     0.134 A 
ATOM     61  C   UNL A   1      51.629  34.526  25.406  1.00  0.00     0.134 A 
ATOM     62  F   UNL A   1      51.742  33.663  28.935  1.00  0.00    -0.206 F 
ATOM     63  C   UNL A   1      52.871  35.347  27.754  1.00  0.00     0.040 A 
ATOM     64  C   UNL A   1      52.529  35.590  25.381  1.00  0.00     0.040 A 
ATOM     65  F   UNL A   1      51.048  34.159  24.254  1.00  0.00    -0.206 F 
ATOM     66  C   UNL A   1      53.143  36.012  26.560  1.00  0.00     0.006 A 
ENDBRANCH  42  59
ENDBRANCH  16  17
ENDBRANCH   9  11
ENDBRANCH   6   7
ENDBRANCH   5   6
ENDBRANCH   4   5
ENDBRANCH   3   4
ENDBRANCH   2   3
ENDBRANCH   1   2
BRANCH   1  67
ATOM     67  N   UNL A   1      38.221  30.353  28.097  1.00  0.00    -0.354 N 
ATOM     68  C   UNL A   1      37.087  31.099  28.228  1.00  0.00     0.244 C 
ATOM     69  H   UNL A   1      39.018  30.833  27.772  1.00  0.00     0.163 HD
ATOM     70  O   UNL A   1      37.182  32.325  28.112  1.00  0.00    -0.273 OA
BRANCH  68  71
ATOM     71  C   UNL A   1      35.731  30.406  28.424  1.00  0.00     0.197 C 
BRANCH  71  72
ATOM     72  N   UNL A   1      34.710  31.424  28.676  1.00  0.00    -0.340 N 
ATOM     73  C   UNL A   1      34.526  32.329  29.670  1.00  0.00     0.243 C 
ATOM     74  H   UNL A   1      34.013  31.460  27.982  1.00  0.00     0.164 HD
ATOM     75  O   UNL A   1      33.632  33.162  29.472  1.00  0.00    -0.273 OA
BRANCH  73  76
ATOM     76  C   UNL A   1      35.370  32.421  30.967  1.00  0.00     0.175 C 
BRANCH  76  77
ATOM     77  N   UNL A   1      36.463  33.394  31.052  1.00  0.00    -0.342 N 
ATOM     78  C   UNL A   1      37.743  33.384  31.521  1.00  0.00     0.243 C 
ATOM     79  H   UNL A   1      36.212  34.270  30.678  1.00  0.00     0.164 HD
ATOM     80  O   UNL A   1      38.341  34.454  31.347  1.00  0.00    -0.273 OA
BRANCH  78  81
ATOM     81  C   UNL A   1      38.386  32.242  32.381  1.00  0.00     0.176 C 
BRANCH  81  82
ATOM     82  N   UNL A   1      37.761  31.965  33.677  1.00  0.00    -0.340 N 
ATOM     83  C   UNL A   1      38.096  32.359  34.947  1.00  0.00     0.251 C 
ATOM     84  H   UNL A   1      36.958  31.398  33.627  1.00  0.00     0.164 HD
ATOM     85  O   UNL A   1      37.502  31.838  35.888  1.00  0.00    -0.269 OA
BRANCH  83  86
ATOM     86  C   UNL A   1      39.125  33.394  35.227  1.00  0.00     0.040 A 
ATOM     87  C   UNL A   1      38.860  34.769  35.219  1.00  0.00     0.017 A 
ATOM     88  C   UNL A   1      40.398  32.949  35.614  1.00  0.00     0.017 A 
ATOM     89  C   UNL A   1      39.864  35.687  35.534  1.00  0.00     0.040 A 
ATOM     90  C   UNL A   1      41.398  33.866  35.942  1.00  0.00     0.040 A 
ATOM     91  C   UNL A   1      41.124  35.228  35.888  1.00  0.00     0.123 A 
ATOM     92  F   UNL A   1      42.081  36.110  36.199  1.00  0.00    -0.207 F 
ENDBRANCH  83  86
ENDBRANCH  81  82
BRANCH  81  93
ATOM     93  C   UNL A   1      38.636  30.878  31.673  1.00  0.00     0.070 C 
BRANCH  93  94
ATOM     94  C   UNL A   1      40.037  30.499  31.276  1.00  0.00    -0.045 A 
ATOM     95  C   UNL A   1      40.602  29.279  31.671  1.00  0.00     0.007 A 
ATOM     96  C   UNL A   1      40.799  31.382  30.499  1.00  0.00     0.007 A 
ATOM     97  C   UNL A   1      41.917  28.960  31.318  1.00  0.00     0.046 A 
ATOM     98  C   UNL A   1      42.111  31.065  30.152  1.00  0.00     0.046 A 
ATOM     99  C   UNL A   1      42.665  29.865  30.572  1.00  0.00     0.115 A 
BRANCH  99 100
ATOM    100  O   UNL A   1      43.961  29.610  30.231  1.00  0.00    -0.508 OA
ATOM    101  H   UNL A   1      44.658  29.916  30.779  1.00  0.00     0.293 HD
ENDBRANCH  99 100
ENDBRANCH  93  94
ENDBRANCH  81  93
ENDBRANCH  78  81
ENDBRANCH  76  77
BRANCH  76 102
ATOM    102  C   UNL A   1      34.443  32.501  32.208  1.00  0.00     0.072 C 
BRANCH 102 103
ATOM    103  C   UNL A   1      34.439  33.808  32.951  1.00  0.00    -0.020 A 
ATOM    104  C   UNL A   1      34.961  34.031  34.208  1.00  0.00     0.087 A 
ATOM    105  C   UNL A   1      34.015  35.090  32.458  1.00  0.00     0.003 A 
ATOM    106  N   UNL A   1      34.777  35.346  34.536  1.00  0.00    -0.361 N 
ATOM    107  C   UNL A   1      34.227  36.023  33.475  1.00  0.00     0.046 A 
ATOM    108  C   UNL A   1      33.502  35.559  31.230  1.00  0.00     0.010 A 
ATOM    109  H   UNL A   1      35.006  35.749  35.405  1.00  0.00     0.166 HD
ATOM    110  C   UNL A   1      33.927  37.384  33.340  1.00  0.00     0.026 A 
ATOM    111  C   UNL A   1      33.213  36.922  31.071  1.00  0.00     0.001 A 
ATOM    112  C   UNL A   1      33.413  37.818  32.117  1.00  0.00     0.002 A 
ENDBRANCH 102 103
ENDBRANCH  76 102
ENDBRANCH  73  76
ENDBRANCH  71  72
BRANCH  71 113
ATOM    113  C   UNL A   1      35.440  29.636  27.127  1.00  0.00     0.191 C 
BRANCH 113 114
ATOM    114  O   UNL A   1      34.274  30.133  26.475  1.00  0.00    -0.394 OA
ATOM    115  H   UNL A   1      33.695  29.392  26.237  1.00  0.00     0.210 HD
ENDBRANCH 113 114
ENDBRANCH  71 113
ENDBRANCH  68  71
ENDBRANCH   1  67
TORSDOF 26
ENDMDL
