MODEL 1
REMARK VINA RESULT:     -11.2      0.000      0.000
REMARK SMILES CC[C@@H]1CCC[C@@](Cc2ccccn2)(C(=O)NCCCCCCNC(=O)c2ccc(-c3c4nc(c(-c5c(F)cccc5F)c5ccc([nH]5)c(-c5c(F)cccc5F)c5nc(c(-c6c(F)cccc6F)c6ccc3[nH]6)C=C5)C=C4)cc2)C1
REMARK SMILES IDX 20 1 19 2 18 3 17 4 15 5 16 6 7 8 3 9 4 10 81 11 5 12 6 13
REMARK SMILES IDX 2 14 1 15 8 16 9 17 10 18 14 19 11 20 13 21 12 22 21 23
REMARK SMILES IDX 22 24 23 25 24 26 25 27 26 29 27 30 28 31 80 32 29 33 79 34
REMARK SMILES IDX 30 35 31 36 32 37 73 38 33 39 78 40 72 41 74 42 34 43 77 44
REMARK SMILES IDX 71 45 70 46 35 48 61 49 44 50 60 51 45 52 48 53 59 54 75 55
REMARK SMILES IDX 46 56 47 57 58 59 76 60 49 61 36 62 37 63 42 64 38 65 39 66
REMARK SMILES IDX 41 67 43 68 40 69 62 70 63 71 68 72 64 73 65 74 67 75 69 76
REMARK SMILES IDX 66 77 50 78 51 79 56 80 52 81 53 82 55 83 57 84 54 85
REMARK H PARENT 17 7 24 28 74 47 48 58
REMARK Flexibility Score: inf
ROOT
ATOM      1  C   UNL A   1      37.793  22.123  25.115  1.00  0.00     0.002 C 
ENDROOT
BRANCH   1   2
ATOM      2  C   UNL A   1      36.761  22.940  25.898  1.00  0.00     0.021 C 
BRANCH   2   3
ATOM      3  C   UNL A   1      35.550  22.142  26.357  1.00  0.00     0.116 C 
BRANCH   3   4
ATOM      4  N   UNL A   1      34.379  22.955  26.611  1.00  0.00    -0.356 N 
ATOM      5  C   UNL A   1      33.135  22.940  26.065  1.00  0.00     0.226 C 
ATOM      6  O   UNL A   1      32.261  23.495  26.741  1.00  0.00    -0.274 OA
ATOM      7  H   UNL A   1      34.508  23.642  27.304  1.00  0.00     0.163 HD
BRANCH   5   8
ATOM      8  C   UNL A   1      32.778  22.246  24.723  1.00  0.00     0.055 C 
ATOM      9  C   UNL A   1      32.030  24.489  23.578  1.00  0.00    -0.010 C 
ATOM     10  C   UNL A   1      33.325  24.480  22.749  1.00  0.00     0.003 C 
ATOM     11  C   UNL A   1      31.626  23.074  24.042  1.00  0.00     0.021 C 
ATOM     12  C   UNL A   1      34.426  23.625  23.361  1.00  0.00     0.001 C 
ATOM     13  C   UNL A   1      33.910  22.220  23.673  1.00  0.00     0.017 C 
BRANCH   9  14
ATOM     14  C   UNL A   1      30.916  25.171  22.751  1.00  0.00     0.000 C 
ATOM     15  C   UNL A   1      31.254  26.571  22.262  1.00  0.00     0.004 C 
ENDBRANCH   9  14
BRANCH   8  16
ATOM     16  C   UNL A   1      32.153  20.845  24.998  1.00  0.00     0.073 C 
BRANCH  16  17
ATOM     17  C   UNL A   1      32.764  19.629  24.352  1.00  0.00     0.041 A 
ATOM     18  C   UNL A   1      33.907  19.036  24.892  1.00  0.00     0.024 A 
ATOM     19  N   UNL A   1      32.152  19.140  23.246  1.00  0.00    -0.261 NA
ATOM     20  C   UNL A   1      34.451  17.918  24.263  1.00  0.00     0.003 A 
ATOM     21  C   UNL A   1      32.687  18.038  22.673  1.00  0.00     0.111 A 
ATOM     22  C   UNL A   1      33.829  17.404  23.132  1.00  0.00     0.020 A 
ENDBRANCH  16  17
ENDBRANCH   8  16
ENDBRANCH   5   8
ENDBRANCH   3   4
ENDBRANCH   2   3
ENDBRANCH   1   2
BRANCH   1  23
ATOM     23  C   UNL A   1      37.326  20.746  24.621  1.00  0.00     0.002 C 
BRANCH  23  24
ATOM     24  C   UNL A   1      38.219  19.561  25.003  1.00  0.00     0.021 C 
BRANCH  24  25
ATOM     25  C   UNL A   1      39.303  19.874  26.024  1.00  0.00     0.116 C 
BRANCH  25  26
ATOM     26  N   UNL A   1      40.376  18.896  26.007  1.00  0.00    -0.352 N 
ATOM     27  C   UNL A   1      41.730  19.085  26.091  1.00  0.00     0.251 C 
ATOM     28  H   UNL A   1      40.088  17.958  25.922  1.00  0.00     0.163 HD
ATOM     29  O   UNL A   1      42.495  18.143  25.884  1.00  0.00    -0.269 OA
BRANCH  27  30
ATOM     30  C   UNL A   1      42.279  20.420  26.407  1.00  0.00     0.039 A 
ATOM     31  C   UNL A   1      42.791  21.197  25.365  1.00  0.00     0.014 A 
ATOM     32  C   UNL A   1      42.306  20.901  27.719  1.00  0.00     0.014 A 
ATOM     33  C   UNL A   1      43.283  22.476  25.632  1.00  0.00     0.010 A 
ATOM     34  C   UNL A   1      42.726  22.203  27.973  1.00  0.00     0.010 A 
ATOM     35  C   UNL A   1      43.226  23.001  26.933  1.00  0.00    -0.014 A 
BRANCH  35  36
ATOM     36  C   UNL A   1      43.682  24.383  27.217  1.00  0.00     0.031 A 
ATOM     37  C   UNL A   1      42.696  25.441  27.629  1.00  0.00     0.074 A 
ATOM     38  C   UNL A   1      44.981  24.699  27.051  1.00  0.00     0.049 A 
ATOM     39  N   UNL A   1      42.901  26.709  27.882  1.00  0.00    -0.248 NA
ATOM     40  C   UNL A   1      41.290  25.025  27.745  1.00  0.00     0.031 C 
ATOM     41  C   UNL A   1      46.023  23.774  26.603  1.00  0.00     0.029 A 
ATOM     42  N   UNL A   1      45.643  25.886  27.231  1.00  0.00    -0.354 N 
ATOM     43  C   UNL A   1      41.654  27.240  28.180  1.00  0.00     0.074 A 
ATOM     44  C   UNL A   1      40.690  26.174  28.013  1.00  0.00     0.031 C 
ATOM     45  C   UNL A   1      47.198  24.421  26.566  1.00  0.00     0.029 A 
ATOM     46  C   UNL A   1      46.986  25.813  26.952  1.00  0.00     0.049 A 
ATOM     47  H   UNL A   1      45.199  26.711  27.532  1.00  0.00     0.167 HD
ATOM     48  C   UNL A   1      41.341  28.497  28.581  1.00  0.00     0.037 A 
ATOM     49  C   UNL A   1      47.939  26.763  26.995  1.00  0.00     0.037 A 
ATOM     50  C   UNL A   1      42.307  29.551  28.753  1.00  0.00     0.049 A 
ATOM     51  C   UNL A   1      47.570  28.152  27.433  1.00  0.00     0.074 A 
ATOM     52  C   UNL A   1      42.102  30.843  29.206  1.00  0.00     0.029 A 
ATOM     53  N   UNL A   1      43.661  29.437  28.471  1.00  0.00    -0.354 N 
ATOM     54  N   UNL A   1      46.398  28.624  27.782  1.00  0.00    -0.248 NA
ATOM     55  C   UNL A   1      48.657  29.138  27.491  1.00  0.00     0.031 C 
ATOM     56  C   UNL A   1      43.323  31.525  29.150  1.00  0.00     0.029 A 
ATOM     57  C   UNL A   1      44.299  30.643  28.715  1.00  0.00     0.049 A 
ATOM     58  H   UNL A   1      44.103  28.620  28.146  1.00  0.00     0.167 HD
ATOM     59  C   UNL A   1      46.609  29.954  28.122  1.00  0.00     0.074 A 
ATOM     60  C   UNL A   1      48.025  30.208  27.954  1.00  0.00     0.031 C 
ATOM     61  C   UNL A   1      45.710  30.881  28.535  1.00  0.00     0.037 A 
BRANCH  48  62
ATOM     62  C   UNL A   1      39.895  28.791  28.855  1.00  0.00     0.057 A 
ATOM     63  C   UNL A   1      39.346  28.677  30.141  1.00  0.00     0.134 A 
ATOM     64  C   UNL A   1      39.038  29.203  27.826  1.00  0.00     0.134 A 
ATOM     65  F   UNL A   1      40.107  28.276  31.171  1.00  0.00    -0.206 F 
ATOM     66  C   UNL A   1      37.994  28.925  30.385  1.00  0.00     0.040 A 
ATOM     67  C   UNL A   1      37.692  29.484  28.064  1.00  0.00     0.040 A 
ATOM     68  F   UNL A   1      39.495  29.341  26.573  1.00  0.00    -0.206 F 
ATOM     69  C   UNL A   1      37.164  29.336  29.345  1.00  0.00     0.006 A 
ENDBRANCH  48  62
BRANCH  49  70
ATOM     70  C   UNL A   1      49.336  26.419  26.634  1.00  0.00     0.057 A 
ATOM     71  C   UNL A   1      49.827  26.643  25.342  1.00  0.00     0.134 A 
ATOM     72  C   UNL A   1      50.222  25.879  27.575  1.00  0.00     0.134 A 
ATOM     73  F   UNL A   1      49.023  27.144  24.393  1.00  0.00    -0.206 F 
ATOM     74  C   UNL A   1      51.142  26.332  24.996  1.00  0.00     0.040 A 
ATOM     75  C   UNL A   1      51.546  25.585  27.249  1.00  0.00     0.040 A 
ATOM     76  F   UNL A   1      49.816  25.651  28.833  1.00  0.00    -0.206 F 
ATOM     77  C   UNL A   1      52.009  25.807  25.953  1.00  0.00     0.006 A 
ENDBRANCH  49  70
BRANCH  61  78
ATOM     78  C   UNL A   1      46.237  32.251  28.856  1.00  0.00     0.057 A 
ATOM     79  C   UNL A   1      46.691  32.588  30.138  1.00  0.00     0.134 A 
ATOM     80  C   UNL A   1      46.321  33.234  27.861  1.00  0.00     0.134 A 
ATOM     81  F   UNL A   1      46.625  31.698  31.139  1.00  0.00    -0.206 F 
ATOM     82  C   UNL A   1      47.186  33.861  30.423  1.00  0.00     0.040 A 
ATOM     83  C   UNL A   1      46.842  34.500  28.127  1.00  0.00     0.040 A 
ATOM     84  F   UNL A   1      45.911  32.974  26.610  1.00  0.00    -0.206 F 
ATOM     85  C   UNL A   1      47.270  34.819  29.414  1.00  0.00     0.006 A 
ENDBRANCH  61  78
ENDBRANCH  35  36
ENDBRANCH  27  30
ENDBRANCH  25  26
ENDBRANCH  24  25
ENDBRANCH  23  24
ENDBRANCH   1  23
TORSDOF 16
ENDMDL
MODEL 2
REMARK VINA RESULT:     -11.1      4.111      7.586
REMARK SMILES CC[C@@H]1CCC[C@@](Cc2ccccn2)(C(=O)NCCCCCCNC(=O)c2ccc(-c3c4nc(c(-c5c(F)cccc5F)c5ccc([nH]5)c(-c5c(F)cccc5F)c5nc(c(-c6c(F)cccc6F)c6ccc3[nH]6)C=C5)C=C4)cc2)C1
REMARK SMILES IDX 20 1 19 2 18 3 17 4 15 5 16 6 7 8 3 9 4 10 81 11 5 12 6 13
REMARK SMILES IDX 2 14 1 15 8 16 9 17 10 18 14 19 11 20 13 21 12 22 21 23
REMARK SMILES IDX 22 24 23 25 24 26 25 27 26 29 27 30 28 31 80 32 29 33 79 34
REMARK SMILES IDX 30 35 31 36 32 37 73 38 33 39 78 40 72 41 74 42 34 43 77 44
REMARK SMILES IDX 71 45 70 46 35 48 61 49 44 50 60 51 45 52 48 53 59 54 75 55
REMARK SMILES IDX 46 56 47 57 58 59 76 60 49 61 36 62 37 63 42 64 38 65 39 66
REMARK SMILES IDX 41 67 43 68 40 69 62 70 63 71 68 72 64 73 65 74 67 75 69 76
REMARK SMILES IDX 66 77 50 78 51 79 56 80 52 81 53 82 55 83 57 84 54 85
REMARK H PARENT 17 7 24 28 74 47 48 58
REMARK Flexibility Score: inf
ROOT
ATOM      1  C   UNL A   1      31.997  26.547  24.917  1.00  0.00     0.002 C 
ENDROOT
BRANCH   1   2
ATOM      2  C   UNL A   1      30.677  25.866  24.543  1.00  0.00     0.021 C 
BRANCH   2   3
ATOM      3  C   UNL A   1      30.813  24.398  24.172  1.00  0.00     0.116 C 
BRANCH   3   4
ATOM      4  N   UNL A   1      31.987  24.104  23.378  1.00  0.00    -0.356 N 
ATOM      5  C   UNL A   1      32.959  23.164  23.518  1.00  0.00     0.226 C 
ATOM      6  O   UNL A   1      33.608  22.927  22.492  1.00  0.00    -0.274 OA
ATOM      7  H   UNL A   1      32.103  24.691  22.596  1.00  0.00     0.163 HD
BRANCH   5   8
ATOM      8  C   UNL A   1      33.236  22.383  24.831  1.00  0.00     0.055 C 
ATOM      9  C   UNL A   1      35.839  22.392  24.475  1.00  0.00    -0.010 C 
ATOM     10  C   UNL A   1      35.971  23.453  25.579  1.00  0.00     0.003 C 
ATOM     11  C   UNL A   1      34.555  21.550  24.628  1.00  0.00     0.021 C 
ATOM     12  C   UNL A   1      34.680  24.220  25.835  1.00  0.00     0.001 C 
ATOM     13  C   UNL A   1      33.517  23.258  26.072  1.00  0.00     0.017 C 
BRANCH   9  14
ATOM     14  C   UNL A   1      37.113  21.516  24.472  1.00  0.00     0.000 C 
ATOM     15  C   UNL A   1      38.147  21.895  25.521  1.00  0.00     0.004 C 
ENDBRANCH   9  14
BRANCH   8  16
ATOM     16  C   UNL A   1      32.122  21.317  25.061  1.00  0.00     0.073 C 
BRANCH  16  17
ATOM     17  C   UNL A   1      32.379  19.888  24.661  1.00  0.00     0.041 A 
ATOM     18  C   UNL A   1      32.393  19.519  23.315  1.00  0.00     0.024 A 
ATOM     19  N   UNL A   1      32.606  18.996  25.655  1.00  0.00    -0.261 NA
ATOM     20  C   UNL A   1      32.624  18.186  22.980  1.00  0.00     0.003 A 
ATOM     21  C   UNL A   1      32.855  17.715  25.301  1.00  0.00     0.111 A 
ATOM     22  C   UNL A   1      32.863  17.264  23.991  1.00  0.00     0.020 A 
ENDBRANCH  16  17
ENDBRANCH   8  16
ENDBRANCH   5   8
ENDBRANCH   3   4
ENDBRANCH   2   3
ENDBRANCH   1   2
BRANCH   1  23
ATOM     23  C   UNL A   1      31.957  27.454  26.155  1.00  0.00     0.002 C 
BRANCH  23  24
ATOM     24  C   UNL A   1      33.313  27.773  26.793  1.00  0.00     0.021 C 
BRANCH  24  25
ATOM     25  C   UNL A   1      34.121  28.852  26.085  1.00  0.00     0.116 C 
BRANCH  25  26
ATOM     26  N   UNL A   1      33.812  30.183  26.574  1.00  0.00    -0.352 N 
ATOM     27  C   UNL A   1      34.433  30.922  27.545  1.00  0.00     0.251 C 
ATOM     28  H   UNL A   1      33.041  30.620  26.143  1.00  0.00     0.163 HD
ATOM     29  O   UNL A   1      33.920  31.967  27.945  1.00  0.00    -0.269 OA
BRANCH  27  30
ATOM     30  C   UNL A   1      35.707  30.459  28.133  1.00  0.00     0.039 A 
ATOM     31  C   UNL A   1      35.664  29.661  29.279  1.00  0.00     0.014 A 
ATOM     32  C   UNL A   1      36.937  30.819  27.575  1.00  0.00     0.014 A 
ATOM     33  C   UNL A   1      36.852  29.182  29.835  1.00  0.00     0.010 A 
ATOM     34  C   UNL A   1      38.115  30.279  28.083  1.00  0.00     0.010 A 
ATOM     35  C   UNL A   1      38.085  29.462  29.222  1.00  0.00    -0.014 A 
BRANCH  35  36
ATOM     36  C   UNL A   1      39.348  28.902  29.763  1.00  0.00     0.031 A 
ATOM     37  C   UNL A   1      39.988  29.507  30.981  1.00  0.00     0.074 A 
ATOM     38  C   UNL A   1      39.947  27.880  29.124  1.00  0.00     0.049 A 
ATOM     39  N   UNL A   1      41.107  29.179  31.576  1.00  0.00    -0.248 NA
ATOM     40  C   UNL A   1      39.293  30.649  31.595  1.00  0.00     0.031 C 
ATOM     41  C   UNL A   1      39.451  27.243  27.902  1.00  0.00     0.029 A 
ATOM     42  N   UNL A   1      41.105  27.203  29.406  1.00  0.00    -0.354 N 
ATOM     43  C   UNL A   1      41.252  30.076  32.626  1.00  0.00     0.074 A 
ATOM     44  C   UNL A   1      40.142  31.001  32.549  1.00  0.00     0.031 C 
ATOM     45  C   UNL A   1      40.287  26.253  27.553  1.00  0.00     0.029 A 
ATOM     46  C   UNL A   1      41.394  26.208  28.504  1.00  0.00     0.049 A 
ATOM     47  H   UNL A   1      41.675  27.409  30.182  1.00  0.00     0.167 HD
ATOM     48  C   UNL A   1      42.210  30.111  33.585  1.00  0.00     0.037 A 
ATOM     49  C   UNL A   1      42.438  25.360  28.445  1.00  0.00     0.037 A 
ATOM     50  C   UNL A   1      43.308  29.183  33.662  1.00  0.00     0.049 A 
ATOM     51  C   UNL A   1      43.494  25.421  29.512  1.00  0.00     0.074 A 
ATOM     52  C   UNL A   1      44.301  29.098  34.622  1.00  0.00     0.029 A 
ATOM     53  N   UNL A   1      43.562  28.181  32.735  1.00  0.00    -0.354 N 
ATOM     54  N   UNL A   1      43.581  26.227  30.542  1.00  0.00    -0.248 NA
ATOM     55  C   UNL A   1      44.591  24.450  29.413  1.00  0.00     0.031 C 
ATOM     56  C   UNL A   1      45.184  28.078  34.250  1.00  0.00     0.029 A 
ATOM     57  C   UNL A   1      44.711  27.491  33.087  1.00  0.00     0.049 A 
ATOM     58  H   UNL A   1      43.007  27.989  31.945  1.00  0.00     0.167 HD
ATOM     59  C   UNL A   1      44.729  25.849  31.226  1.00  0.00     0.074 A 
ATOM     60  C   UNL A   1      45.294  24.728  30.503  1.00  0.00     0.031 C 
ATOM     61  C   UNL A   1      45.265  26.381  32.352  1.00  0.00     0.037 A 
BRANCH  48  62
ATOM     62  C   UNL A   1      42.106  31.193  34.621  1.00  0.00     0.057 A 
ATOM     63  C   UNL A   1      42.788  32.412  34.491  1.00  0.00     0.134 A 
ATOM     64  C   UNL A   1      41.308  31.022  35.760  1.00  0.00     0.134 A 
ATOM     65  F   UNL A   1      43.579  32.638  33.431  1.00  0.00    -0.206 F 
ATOM     66  C   UNL A   1      42.710  33.403  35.472  1.00  0.00     0.040 A 
ATOM     67  C   UNL A   1      41.197  32.018  36.732  1.00  0.00     0.040 A 
ATOM     68  F   UNL A   1      40.622  29.885  35.947  1.00  0.00    -0.206 F 
ATOM     69  C   UNL A   1      41.908  33.209  36.593  1.00  0.00     0.006 A 
ENDBRANCH  48  62
BRANCH  49  70
ATOM     70  C   UNL A   1      42.516  24.366  27.345  1.00  0.00     0.057 A 
ATOM     71  C   UNL A   1      43.136  24.678  26.130  1.00  0.00     0.134 A 
ATOM     72  C   UNL A   1      41.992  23.075  27.490  1.00  0.00     0.134 A 
ATOM     73  F   UNL A   1      43.644  25.902  25.927  1.00  0.00    -0.206 F 
ATOM     74  C   UNL A   1      43.223  23.747  25.094  1.00  0.00     0.040 A 
ATOM     75  C   UNL A   1      42.093  22.127  26.471  1.00  0.00     0.040 A 
ATOM     76  F   UNL A   1      41.395  22.711  28.634  1.00  0.00    -0.206 F 
ATOM     77  C   UNL A   1      42.706  22.464  25.266  1.00  0.00     0.006 A 
ENDBRANCH  49  70
BRANCH  61  78
ATOM     78  C   UNL A   1      46.517  25.743  32.881  1.00  0.00     0.057 A 
ATOM     79  C   UNL A   1      47.791  26.186  32.502  1.00  0.00     0.134 A 
ATOM     80  C   UNL A   1      46.446  24.694  33.807  1.00  0.00     0.134 A 
ATOM     81  F   UNL A   1      47.929  27.176  31.609  1.00  0.00    -0.206 F 
ATOM     82  C   UNL A   1      48.949  25.591  33.006  1.00  0.00     0.040 A 
ATOM     83  C   UNL A   1      47.597  24.112  34.341  1.00  0.00     0.040 A 
ATOM     84  F   UNL A   1      45.258  24.227  34.220  1.00  0.00    -0.206 F 
ATOM     85  C   UNL A   1      48.854  24.555  33.935  1.00  0.00     0.006 A 
ENDBRANCH  61  78
ENDBRANCH  35  36
ENDBRANCH  27  30
ENDBRANCH  25  26
ENDBRANCH  24  25
ENDBRANCH  23  24
ENDBRANCH   1  23
TORSDOF 16
ENDMDL
MODEL 3
REMARK VINA RESULT:     -11.1      1.365      6.404
REMARK SMILES CC[C@@H]1CCC[C@@](Cc2ccccn2)(C(=O)NCCCCCCNC(=O)c2ccc(-c3c4nc(c(-c5c(F)cccc5F)c5ccc([nH]5)c(-c5c(F)cccc5F)c5nc(c(-c6c(F)cccc6F)c6ccc3[nH]6)C=C5)C=C4)cc2)C1
REMARK SMILES IDX 20 1 19 2 18 3 17 4 15 5 16 6 7 8 3 9 4 10 81 11 5 12 6 13
REMARK SMILES IDX 2 14 1 15 8 16 9 17 10 18 14 19 11 20 13 21 12 22 21 23
REMARK SMILES IDX 22 24 23 25 24 26 25 27 26 29 27 30 28 31 80 32 29 33 79 34
REMARK SMILES IDX 30 35 31 36 32 37 73 38 33 39 78 40 72 41 74 42 34 43 77 44
REMARK SMILES IDX 71 45 70 46 35 48 61 49 44 50 60 51 45 52 48 53 59 54 75 55
REMARK SMILES IDX 46 56 47 57 58 59 76 60 49 61 36 62 37 63 42 64 38 65 39 66
REMARK SMILES IDX 41 67 43 68 40 69 62 70 63 71 68 72 64 73 65 74 67 75 69 76
REMARK SMILES IDX 66 77 50 78 51 79 56 80 52 81 53 82 55 83 57 84 54 85
REMARK H PARENT 17 7 24 28 74 47 48 58
REMARK Flexibility Score: inf
ROOT
ATOM      1  C   UNL A   1      37.869  22.039  25.252  1.00  0.00     0.002 C 
ENDROOT
BRANCH   1   2
ATOM      2  C   UNL A   1      36.759  22.840  25.939  1.00  0.00     0.021 C 
BRANCH   2   3
ATOM      3  C   UNL A   1      35.530  22.022  26.302  1.00  0.00     0.116 C 
BRANCH   3   4
ATOM      4  N   UNL A   1      34.372  22.824  26.633  1.00  0.00    -0.356 N 
ATOM      5  C   UNL A   1      33.090  22.789  26.181  1.00  0.00     0.226 C 
ATOM      6  O   UNL A   1      32.262  23.344  26.914  1.00  0.00    -0.274 OA
ATOM      7  H   UNL A   1      34.543  23.522  27.306  1.00  0.00     0.163 HD
BRANCH   5   8
ATOM      8  C   UNL A   1      32.644  22.075  24.877  1.00  0.00     0.055 C 
ATOM      9  C   UNL A   1      31.609  24.258  23.845  1.00  0.00    -0.010 C 
ATOM     10  C   UNL A   1      32.804  24.350  22.882  1.00  0.00     0.003 C 
ATOM     11  C   UNL A   1      31.366  22.815  24.334  1.00  0.00     0.021 C 
ATOM     12  C   UNL A   1      34.026  23.578  23.362  1.00  0.00     0.001 C 
ATOM     13  C   UNL A   1      33.654  22.138  23.711  1.00  0.00     0.017 C 
BRANCH   9  14
ATOM     14  C   UNL A   1      30.364  24.856  23.152  1.00  0.00     0.000 C 
ATOM     15  C   UNL A   1      29.705  26.001  23.905  1.00  0.00     0.004 C 
ENDBRANCH   9  14
BRANCH   8  16
ATOM     16  C   UNL A   1      32.159  20.629  25.202  1.00  0.00     0.073 C 
BRANCH  16  17
ATOM     17  C   UNL A   1      32.793  19.464  24.487  1.00  0.00     0.041 A 
ATOM     18  C   UNL A   1      34.000  18.926  24.937  1.00  0.00     0.024 A 
ATOM     19  N   UNL A   1      32.137  18.965  23.411  1.00  0.00    -0.261 NA
ATOM     20  C   UNL A   1      34.563  17.855  24.246  1.00  0.00     0.003 A 
ATOM     21  C   UNL A   1      32.693  17.908  22.777  1.00  0.00     0.111 A 
ATOM     22  C   UNL A   1      33.897  17.331  23.145  1.00  0.00     0.020 A 
ENDBRANCH  16  17
ENDBRANCH   8  16
ENDBRANCH   5   8
ENDBRANCH   3   4
ENDBRANCH   2   3
ENDBRANCH   1   2
BRANCH   1  23
ATOM     23  C   UNL A   1      37.437  20.719  24.596  1.00  0.00     0.002 C 
BRANCH  23  24
ATOM     24  C   UNL A   1      38.352  19.517  24.849  1.00  0.00     0.021 C 
BRANCH  24  25
ATOM     25  C   UNL A   1      39.243  19.632  26.078  1.00  0.00     0.116 C 
BRANCH  25  26
ATOM     26  N   UNL A   1      40.519  18.964  25.900  1.00  0.00    -0.352 N 
ATOM     27  C   UNL A   1      41.789  19.474  25.966  1.00  0.00     0.251 C 
ATOM     28  H   UNL A   1      40.464  18.001  25.701  1.00  0.00     0.163 HD
ATOM     29  O   UNL A   1      42.746  18.786  25.614  1.00  0.00    -0.269 OA
BRANCH  27  30
ATOM     30  C   UNL A   1      42.013  20.856  26.439  1.00  0.00     0.039 A 
ATOM     31  C   UNL A   1      42.019  21.099  27.815  1.00  0.00     0.014 A 
ATOM     32  C   UNL A   1      42.197  21.909  25.539  1.00  0.00     0.014 A 
ATOM     33  C   UNL A   1      42.263  22.390  28.288  1.00  0.00     0.010 A 
ATOM     34  C   UNL A   1      42.516  23.179  26.012  1.00  0.00     0.010 A 
ATOM     35  C   UNL A   1      42.544  23.434  27.391  1.00  0.00    -0.014 A 
BRANCH  35  36
ATOM     36  C   UNL A   1      42.872  24.794  27.884  1.00  0.00     0.031 A 
ATOM     37  C   UNL A   1      44.302  25.193  28.119  1.00  0.00     0.074 A 
ATOM     38  C   UNL A   1      41.875  25.652  28.172  1.00  0.00     0.049 A 
ATOM     39  N   UNL A   1      44.780  26.322  28.581  1.00  0.00    -0.248 NA
ATOM     40  C   UNL A   1      45.328  24.183  27.822  1.00  0.00     0.031 C 
ATOM     41  C   UNL A   1      40.447  25.361  28.039  1.00  0.00     0.029 A 
ATOM     42  N   UNL A   1      41.911  26.938  28.645  1.00  0.00    -0.354 N 
ATOM     43  C   UNL A   1      46.156  26.154  28.635  1.00  0.00     0.074 A 
ATOM     44  C   UNL A   1      46.433  24.795  28.220  1.00  0.00     0.031 C 
ATOM     45  C   UNL A   1      39.742  26.446  28.397  1.00  0.00     0.029 A 
ATOM     46  C   UNL A   1      40.666  27.493  28.820  1.00  0.00     0.049 A 
ATOM     47  H   UNL A   1      42.747  27.419  28.840  1.00  0.00     0.167 HD
ATOM     48  C   UNL A   1      47.108  27.057  28.974  1.00  0.00     0.037 A 
ATOM     49  C   UNL A   1      40.309  28.709  29.277  1.00  0.00     0.037 A 
ATOM     50  C   UNL A   1      46.827  28.410  29.377  1.00  0.00     0.049 A 
ATOM     51  C   UNL A   1      41.380  29.692  29.656  1.00  0.00     0.074 A 
ATOM     52  C   UNL A   1      47.720  29.421  29.690  1.00  0.00     0.029 A 
ATOM     53  N   UNL A   1      45.554  28.941  29.532  1.00  0.00    -0.354 N 
ATOM     54  N   UNL A   1      42.682  29.546  29.634  1.00  0.00    -0.248 NA
ATOM     55  C   UNL A   1      40.931  31.013  30.117  1.00  0.00     0.031 C 
ATOM     56  C   UNL A   1      46.988  30.546  30.082  1.00  0.00     0.029 A 
ATOM     57  C   UNL A   1      45.638  30.256  29.962  1.00  0.00     0.049 A 
ATOM     58  H   UNL A   1      44.716  28.455  29.362  1.00  0.00     0.167 HD
ATOM     59  C   UNL A   1      43.209  30.759  30.056  1.00  0.00     0.074 A 
ATOM     60  C   UNL A   1      42.085  31.636  30.309  1.00  0.00     0.031 C 
ATOM     61  C   UNL A   1      44.508  31.114  30.218  1.00  0.00     0.037 A 
BRANCH  48  62
ATOM     62  C   UNL A   1      48.538  26.601  28.924  1.00  0.00     0.057 A 
ATOM     63  C   UNL A   1      49.324  26.751  27.771  1.00  0.00     0.134 A 
ATOM     64  C   UNL A   1      49.145  26.015  30.042  1.00  0.00     0.134 A 
ATOM     65  F   UNL A   1      48.803  27.294  26.660  1.00  0.00    -0.206 F 
ATOM     66  C   UNL A   1      50.644  26.300  27.721  1.00  0.00     0.040 A 
ATOM     67  C   UNL A   1      50.474  25.589  30.014  1.00  0.00     0.040 A 
ATOM     68  F   UNL A   1      48.456  25.847  31.181  1.00  0.00    -0.206 F 
ATOM     69  C   UNL A   1      51.224  25.722  28.847  1.00  0.00     0.006 A 
ENDBRANCH  48  62
BRANCH  49  70
ATOM     70  C   UNL A   1      38.872  29.064  29.374  1.00  0.00     0.057 A 
ATOM     71  C   UNL A   1      38.176  28.939  30.582  1.00  0.00     0.134 A 
ATOM     72  C   UNL A   1      38.165  29.556  28.270  1.00  0.00     0.134 A 
ATOM     73  F   UNL A   1      38.794  28.460  31.671  1.00  0.00    -0.206 F 
ATOM     74  C   UNL A   1      36.826  29.280  30.686  1.00  0.00     0.040 A 
ATOM     75  C   UNL A   1      36.822  29.923  28.366  1.00  0.00     0.040 A 
ATOM     76  F   UNL A   1      38.778  29.709  27.087  1.00  0.00    -0.206 F 
ATOM     77  C   UNL A   1      36.147  29.780  29.576  1.00  0.00     0.006 A 
ENDBRANCH  49  70
BRANCH  61  78
ATOM     78  C   UNL A   1      44.782  32.520  30.672  1.00  0.00     0.057 A 
ATOM     79  C   UNL A   1      44.935  32.843  32.027  1.00  0.00     0.134 A 
ATOM     80  C   UNL A   1      44.926  33.555  29.740  1.00  0.00     0.134 A 
ATOM     81  F   UNL A   1      44.795  31.900  32.971  1.00  0.00    -0.206 F 
ATOM     82  C   UNL A   1      45.198  34.150  32.438  1.00  0.00     0.040 A 
ATOM     83  C   UNL A   1      45.218  34.860  30.137  1.00  0.00     0.040 A 
ATOM     84  F   UNL A   1      44.800  33.313  28.426  1.00  0.00    -0.206 F 
ATOM     85  C   UNL A   1      45.347  35.163  31.492  1.00  0.00     0.006 A 
ENDBRANCH  61  78
ENDBRANCH  35  36
ENDBRANCH  27  30
ENDBRANCH  25  26
ENDBRANCH  24  25
ENDBRANCH  23  24
ENDBRANCH   1  23
TORSDOF 16
ENDMDL
