MODEL 1
REMARK VINA RESULT:     -12.4      0.000      0.000
REMARK SMILES C[C@@H](C(=O)NCCCCCCNC(=O)c1ccc(-c2c3nc(c(-c4c(F)cccc4F)c4ccc([nH]4)c(-c4c(F)cccc4F)c4nc(c(-c5c(F)cccc5F)c5ccc2[nH]5)C=C4)C=C3)cc1)c1ccc(C[C@H]2CCC[C@H]2O)cc1-c1ccc(O)cc1
REMARK SMILES IDX 7 1 6 2 5 3 3 4 4 5 2 7 1 8 69 9 70 10 81 11 71 12 80 13
REMARK SMILES IDX 72 14 82 15 83 16 88 17 84 18 87 19 85 20 86 21 73 23 74 24
REMARK SMILES IDX 75 25 78 26 76 27 77 28 79 29 8 31 9 32 10 33 11 34 12 35
REMARK SMILES IDX 13 36 14 38 15 39 16 40 68 41 17 42 67 43 18 44 19 45 20 46
REMARK SMILES IDX 61 47 21 48 66 49 60 50 62 51 22 52 65 53 59 54 58 55 23 57
REMARK SMILES IDX 49 58 32 59 48 60 33 61 36 62 47 63 63 64 34 65 35 66 46 68
REMARK SMILES IDX 64 69 37 70 24 71 25 72 30 73 26 74 27 75 29 76 31 77 28 78
REMARK SMILES IDX 50 79 51 80 56 81 52 82 53 83 55 84 57 85 54 86 38 87 39 88
REMARK SMILES IDX 44 89 40 90 41 91 43 92 45 93 42 94
REMARK H PARENT 5 6 86 22 79 30 12 37 62 56 36 67
REMARK Flexibility Score: inf
ROOT
ATOM      1  C   UNL A   1      36.061  22.939  24.245  1.00  0.00     0.021 C 
ENDROOT
BRANCH   1   2
ATOM      2  C   UNL A   1      35.751  23.969  25.332  1.00  0.00     0.116 C 
BRANCH   2   3
ATOM      3  N   UNL A   1      35.370  23.304  26.557  1.00  0.00    -0.356 N 
ATOM      4  C   UNL A   1      34.129  23.011  27.039  1.00  0.00     0.227 C 
ATOM      5  O   UNL A   1      34.088  22.546  28.181  1.00  0.00    -0.274 OA
ATOM      6  H   UNL A   1      36.118  23.021  27.130  1.00  0.00     0.163 HD
BRANCH   4   7
ATOM      7  C   UNL A   1      32.881  23.215  26.151  1.00  0.00     0.106 C 
ATOM      8  C   UNL A   1      31.617  23.544  26.953  1.00  0.00     0.023 C 
BRANCH   7   9
ATOM      9  C   UNL A   1      32.645  21.988  25.268  1.00  0.00    -0.028 A 
ATOM     10  C   UNL A   1      32.696  20.720  25.880  1.00  0.00     0.005 A 
ATOM     11  C   UNL A   1      32.418  22.066  23.874  1.00  0.00    -0.014 A 
ATOM     12  C   UNL A   1      32.574  19.554  25.141  1.00  0.00     0.004 A 
ATOM     13  C   UNL A   1      32.383  20.862  23.135  1.00  0.00     0.012 A 
ATOM     14  C   UNL A   1      32.506  19.607  23.753  1.00  0.00    -0.047 A 
BRANCH  11  15
ATOM     15  C   UNL A   1      32.136  23.336  23.181  1.00  0.00    -0.018 A 
ATOM     16  C   UNL A   1      30.917  23.995  23.422  1.00  0.00     0.012 A 
ATOM     17  C   UNL A   1      33.061  23.949  22.319  1.00  0.00     0.012 A 
ATOM     18  C   UNL A   1      30.645  25.241  22.853  1.00  0.00     0.047 A 
ATOM     19  C   UNL A   1      32.797  25.205  21.759  1.00  0.00     0.047 A 
ATOM     20  C   UNL A   1      31.593  25.843  22.039  1.00  0.00     0.115 A 
BRANCH  20  21
ATOM     21  O   UNL A   1      31.302  27.077  21.537  1.00  0.00    -0.508 OA
ATOM     22  H   UNL A   1      30.490  27.223  21.092  1.00  0.00     0.293 HD
ENDBRANCH  20  21
ENDBRANCH  11  15
BRANCH  14  23
ATOM     23  C   UNL A   1      32.596  18.331  22.958  1.00  0.00     0.041 C 
BRANCH  23  24
ATOM     24  C   UNL A   1      33.594  17.263  23.449  1.00  0.00     0.022 C 
ATOM     25  C   UNL A   1      34.807  17.798  24.229  1.00  0.00     0.007 C 
ATOM     26  C   UNL A   1      33.085  16.078  24.288  1.00  0.00     0.117 C 
ATOM     27  C   UNL A   1      35.233  16.671  25.175  1.00  0.00     0.003 C 
ATOM     28  C   UNL A   1      34.380  15.462  24.806  1.00  0.00     0.032 C 
BRANCH  26  29
ATOM     29  O   UNL A   1      32.285  16.411  25.406  1.00  0.00    -0.393 OA
ATOM     30  H   UNL A   1      32.651  15.994  26.202  1.00  0.00     0.210 HD
ENDBRANCH  26  29
ENDBRANCH  23  24
ENDBRANCH  14  23
ENDBRANCH   7   9
ENDBRANCH   4   7
ENDBRANCH   2   3
ENDBRANCH   1   2
BRANCH   1  31
ATOM     31  C   UNL A   1      36.175  21.500  24.763  1.00  0.00     0.002 C 
BRANCH  31  32
ATOM     32  C   UNL A   1      37.388  20.719  24.245  1.00  0.00     0.002 C 
BRANCH  32  33
ATOM     33  C   UNL A   1      37.995  19.738  25.250  1.00  0.00     0.021 C 
BRANCH  33  34
ATOM     34  C   UNL A   1      39.346  20.167  25.813  1.00  0.00     0.116 C 
BRANCH  34  35
ATOM     35  N   UNL A   1      40.287  19.060  25.870  1.00  0.00    -0.352 N 
ATOM     36  C   UNL A   1      41.646  19.081  26.075  1.00  0.00     0.251 C 
ATOM     37  H   UNL A   1      39.896  18.166  25.743  1.00  0.00     0.163 HD
ATOM     38  O   UNL A   1      42.318  18.076  25.883  1.00  0.00    -0.269 OA
BRANCH  36  39
ATOM     39  C   UNL A   1      42.299  20.337  26.503  1.00  0.00     0.039 A 
ATOM     40  C   UNL A   1      43.035  21.067  25.567  1.00  0.00     0.014 A 
ATOM     41  C   UNL A   1      42.167  20.801  27.815  1.00  0.00     0.014 A 
ATOM     42  C   UNL A   1      43.563  22.309  25.924  1.00  0.00     0.010 A 
ATOM     43  C   UNL A   1      42.636  22.068  28.150  1.00  0.00     0.010 A 
ATOM     44  C   UNL A   1      43.322  22.843  27.201  1.00  0.00    -0.014 A 
BRANCH  44  45
ATOM     45  C   UNL A   1      43.717  24.234  27.540  1.00  0.00     0.031 A 
ATOM     46  C   UNL A   1      42.682  25.254  27.920  1.00  0.00     0.074 A 
ATOM     47  C   UNL A   1      45.010  24.597  27.412  1.00  0.00     0.049 A 
ATOM     48  N   UNL A   1      42.832  26.533  28.151  1.00  0.00    -0.248 NA
ATOM     49  C   UNL A   1      41.292  24.783  28.036  1.00  0.00     0.031 C 
ATOM     50  C   UNL A   1      46.102  23.710  27.001  1.00  0.00     0.029 A 
ATOM     51  N   UNL A   1      45.625  25.812  27.591  1.00  0.00    -0.354 N 
ATOM     52  C   UNL A   1      41.560  27.022  28.421  1.00  0.00     0.074 A 
ATOM     53  C   UNL A   1      40.645  25.910  28.296  1.00  0.00     0.031 C 
ATOM     54  C   UNL A   1      47.248  24.406  26.965  1.00  0.00     0.029 A 
ATOM     55  C   UNL A   1      46.969  25.797  27.301  1.00  0.00     0.049 A 
ATOM     56  H   UNL A   1      45.148  26.617  27.898  1.00  0.00     0.167 HD
ATOM     57  C   UNL A   1      41.198  28.283  28.756  1.00  0.00     0.037 A 
ATOM     58  C   UNL A   1      47.871  26.798  27.279  1.00  0.00     0.037 A 
ATOM     59  C   UNL A   1      42.119  29.379  28.910  1.00  0.00     0.049 A 
ATOM     60  C   UNL A   1      47.430  28.192  27.634  1.00  0.00     0.074 A 
ATOM     61  C   UNL A   1      41.856  30.666  29.346  1.00  0.00     0.029 A 
ATOM     62  N   UNL A   1      43.473  29.322  28.620  1.00  0.00    -0.354 N 
ATOM     63  N   UNL A   1      46.242  28.615  27.993  1.00  0.00    -0.248 NA
ATOM     64  C   UNL A   1      48.450  29.248  27.577  1.00  0.00     0.031 C 
ATOM     65  C   UNL A   1      43.037  31.407  29.255  1.00  0.00     0.029 A 
ATOM     66  C   UNL A   1      44.048  30.567  28.818  1.00  0.00     0.049 A 
ATOM     67  H   UNL A   1      43.954  28.518  28.319  1.00  0.00     0.167 HD
ATOM     68  C   UNL A   1      46.377  29.978  28.221  1.00  0.00     0.074 A 
ATOM     69  C   UNL A   1      47.767  30.308  27.987  1.00  0.00     0.031 C 
ATOM     70  C   UNL A   1      45.433  30.880  28.583  1.00  0.00     0.037 A 
BRANCH  57  71
ATOM     71  C   UNL A   1      39.741  28.567  28.980  1.00  0.00     0.057 A 
ATOM     72  C   UNL A   1      39.139  28.401  30.233  1.00  0.00     0.134 A 
ATOM     73  C   UNL A   1      38.959  29.111  27.952  1.00  0.00     0.134 A 
ATOM     74  F   UNL A   1      39.831  27.880  31.258  1.00  0.00    -0.206 F 
ATOM     75  C   UNL A   1      37.808  28.763  30.455  1.00  0.00     0.040 A 
ATOM     76  C   UNL A   1      37.637  29.498  28.168  1.00  0.00     0.040 A 
ATOM     77  F   UNL A   1      39.479  29.303  26.730  1.00  0.00    -0.206 F 
ATOM     78  C   UNL A   1      37.058  29.324  29.424  1.00  0.00     0.006 A 
ENDBRANCH  57  71
BRANCH  58  79
ATOM     79  C   UNL A   1      49.278  26.535  26.876  1.00  0.00     0.057 A 
ATOM     80  C   UNL A   1      49.695  26.692  25.549  1.00  0.00     0.134 A 
ATOM     81  C   UNL A   1      50.227  26.074  27.797  1.00  0.00     0.134 A 
ATOM     82  F   UNL A   1      48.829  27.112  24.614  1.00  0.00    -0.206 F 
ATOM     83  C   UNL A   1      50.992  26.366  25.146  1.00  0.00     0.040 A 
ATOM     84  C   UNL A   1      51.535  25.775  27.414  1.00  0.00     0.040 A 
ATOM     85  F   UNL A   1      49.896  25.908  29.086  1.00  0.00    -0.206 F 
ATOM     86  C   UNL A   1      51.917  25.907  26.082  1.00  0.00     0.006 A 
ENDBRANCH  58  79
BRANCH  70  87
ATOM     87  C   UNL A   1      45.870  32.305  28.760  1.00  0.00     0.057 A 
ATOM     88  C   UNL A   1      45.785  33.233  27.715  1.00  0.00     0.134 A 
ATOM     89  C   UNL A   1      46.329  32.765  30.000  1.00  0.00     0.134 A 
ATOM     90  F   UNL A   1      45.367  32.853  26.499  1.00  0.00    -0.206 F 
ATOM     91  C   UNL A   1      46.157  34.567  27.895  1.00  0.00     0.040 A 
ATOM     92  C   UNL A   1      46.677  34.101  30.200  1.00  0.00     0.040 A 
ATOM     93  F   UNL A   1      46.426  31.928  31.045  1.00  0.00    -0.206 F 
ATOM     94  C   UNL A   1      46.595  35.006  29.142  1.00  0.00     0.006 A 
ENDBRANCH  70  87
ENDBRANCH  44  45
ENDBRANCH  36  39
ENDBRANCH  34  35
ENDBRANCH  33  34
ENDBRANCH  32  33
ENDBRANCH  31  32
ENDBRANCH   1  31
TORSDOF 19
ENDMDL
MODEL 2
REMARK VINA RESULT:     -12.4      0.290      5.915
REMARK SMILES C[C@@H](C(=O)NCCCCCCNC(=O)c1ccc(-c2c3nc(c(-c4c(F)cccc4F)c4ccc([nH]4)c(-c4c(F)cccc4F)c4nc(c(-c5c(F)cccc5F)c5ccc2[nH]5)C=C4)C=C3)cc1)c1ccc(C[C@H]2CCC[C@H]2O)cc1-c1ccc(O)cc1
REMARK SMILES IDX 7 1 6 2 5 3 3 4 4 5 2 7 1 8 69 9 70 10 81 11 71 12 80 13
REMARK SMILES IDX 72 14 82 15 83 16 88 17 84 18 87 19 85 20 86 21 73 23 74 24
REMARK SMILES IDX 75 25 78 26 76 27 77 28 79 29 8 31 9 32 10 33 11 34 12 35
REMARK SMILES IDX 13 36 14 38 15 39 16 40 68 41 17 42 67 43 18 44 19 45 20 46
REMARK SMILES IDX 61 47 21 48 66 49 60 50 62 51 22 52 65 53 59 54 58 55 23 57
REMARK SMILES IDX 49 58 32 59 48 60 33 61 36 62 47 63 63 64 34 65 35 66 46 68
REMARK SMILES IDX 64 69 37 70 24 71 25 72 30 73 26 74 27 75 29 76 31 77 28 78
REMARK SMILES IDX 50 79 51 80 56 81 52 82 53 83 55 84 57 85 54 86 38 87 39 88
REMARK SMILES IDX 44 89 40 90 41 91 43 92 45 93 42 94
REMARK H PARENT 5 6 86 22 79 30 12 37 62 56 36 67
REMARK Flexibility Score: inf
ROOT
ATOM      1  C   UNL A   1      36.212  22.548  24.266  1.00  0.00     0.021 C 
ENDROOT
BRANCH   1   2
ATOM      2  C   UNL A   1      36.007  23.669  25.286  1.00  0.00     0.116 C 
BRANCH   2   3
ATOM      3  N   UNL A   1      35.555  23.124  26.545  1.00  0.00    -0.356 N 
ATOM      4  C   UNL A   1      34.288  22.979  27.027  1.00  0.00     0.227 C 
ATOM      5  O   UNL A   1      34.194  22.595  28.196  1.00  0.00    -0.274 OA
ATOM      6  H   UNL A   1      36.268  22.811  27.146  1.00  0.00     0.163 HD
BRANCH   4   7
ATOM      7  C   UNL A   1      33.072  23.238  26.110  1.00  0.00     0.106 C 
ATOM      8  C   UNL A   1      31.816  23.665  26.878  1.00  0.00     0.023 C 
BRANCH   7   9
ATOM      9  C   UNL A   1      32.776  22.007  25.250  1.00  0.00    -0.028 A 
ATOM     10  C   UNL A   1      32.815  20.746  25.877  1.00  0.00     0.005 A 
ATOM     11  C   UNL A   1      32.506  22.074  23.864  1.00  0.00    -0.014 A 
ATOM     12  C   UNL A   1      32.639  19.575  25.157  1.00  0.00     0.004 A 
ATOM     13  C   UNL A   1      32.416  20.863  23.141  1.00  0.00     0.012 A 
ATOM     14  C   UNL A   1      32.528  19.612  23.772  1.00  0.00    -0.047 A 
BRANCH  11  15
ATOM     15  C   UNL A   1      32.234  23.343  23.163  1.00  0.00    -0.018 A 
ATOM     16  C   UNL A   1      30.982  23.963  23.325  1.00  0.00     0.012 A 
ATOM     17  C   UNL A   1      33.197  23.992  22.373  1.00  0.00     0.012 A 
ATOM     18  C   UNL A   1      30.712  25.207  22.750  1.00  0.00     0.047 A 
ATOM     19  C   UNL A   1      32.934  25.246  21.807  1.00  0.00     0.047 A 
ATOM     20  C   UNL A   1      31.695  25.845  22.009  1.00  0.00     0.115 A 
BRANCH  20  21
ATOM     21  O   UNL A   1      31.403  27.075  21.498  1.00  0.00    -0.508 OA
ATOM     22  H   UNL A   1      30.816  27.154  20.772  1.00  0.00     0.293 HD
ENDBRANCH  20  21
ENDBRANCH  11  15
BRANCH  14  23
ATOM     23  C   UNL A   1      32.559  18.325  22.990  1.00  0.00     0.041 C 
BRANCH  23  24
ATOM     24  C   UNL A   1      33.524  17.227  23.480  1.00  0.00     0.022 C 
ATOM     25  C   UNL A   1      34.759  17.724  24.250  1.00  0.00     0.007 C 
ATOM     26  C   UNL A   1      32.981  16.063  24.328  1.00  0.00     0.117 C 
ATOM     27  C   UNL A   1      35.153  16.587  25.199  1.00  0.00     0.003 C 
ATOM     28  C   UNL A   1      34.257  15.406  24.840  1.00  0.00     0.032 C 
BRANCH  26  29
ATOM     29  O   UNL A   1      32.199  16.427  25.449  1.00  0.00    -0.393 OA
ATOM     30  H   UNL A   1      32.768  16.831  26.123  1.00  0.00     0.210 HD
ENDBRANCH  26  29
ENDBRANCH  23  24
ENDBRANCH  14  23
ENDBRANCH   7   9
ENDBRANCH   4   7
ENDBRANCH   2   3
ENDBRANCH   1   2
BRANCH   1  31
ATOM     31  C   UNL A   1      36.323  21.151  24.890  1.00  0.00     0.002 C 
BRANCH  31  32
ATOM     32  C   UNL A   1      37.404  20.253  24.280  1.00  0.00     0.002 C 
BRANCH  32  33
ATOM     33  C   UNL A   1      38.135  19.358  25.283  1.00  0.00     0.021 C 
BRANCH  33  34
ATOM     34  C   UNL A   1      39.481  19.902  25.751  1.00  0.00     0.116 C 
BRANCH  34  35
ATOM     35  N   UNL A   1      40.473  18.848  25.892  1.00  0.00    -0.352 N 
ATOM     36  C   UNL A   1      41.832  18.949  26.077  1.00  0.00     0.251 C 
ATOM     37  H   UNL A   1      40.122  17.930  25.851  1.00  0.00     0.163 HD
ATOM     38  O   UNL A   1      42.547  17.963  25.965  1.00  0.00    -0.269 OA
BRANCH  36  39
ATOM     39  C   UNL A   1      42.429  20.266  26.382  1.00  0.00     0.039 A 
ATOM     40  C   UNL A   1      43.125  20.940  25.376  1.00  0.00     0.014 A 
ATOM     41  C   UNL A   1      42.284  20.842  27.647  1.00  0.00     0.014 A 
ATOM     42  C   UNL A   1      43.599  22.232  25.613  1.00  0.00     0.010 A 
ATOM     43  C   UNL A   1      42.698  22.154  27.861  1.00  0.00     0.010 A 
ATOM     44  C   UNL A   1      43.341  22.869  26.839  1.00  0.00    -0.014 A 
BRANCH  44  45
ATOM     45  C   UNL A   1      43.676  24.301  27.046  1.00  0.00     0.031 A 
ATOM     46  C   UNL A   1      45.099  24.774  26.969  1.00  0.00     0.074 A 
ATOM     47  C   UNL A   1      42.695  25.159  27.395  1.00  0.00     0.049 A 
ATOM     48  N   UNL A   1      45.586  25.964  27.218  1.00  0.00    -0.248 NA
ATOM     49  C   UNL A   1      46.114  23.779  26.584  1.00  0.00     0.031 C 
ATOM     50  C   UNL A   1      41.280  24.809  27.552  1.00  0.00     0.029 A 
ATOM     51  N   UNL A   1      42.738  26.496  27.706  1.00  0.00    -0.354 N 
ATOM     52  C   UNL A   1      46.959  25.857  27.038  1.00  0.00     0.074 A 
ATOM     53  C   UNL A   1      47.234  24.481  26.689  1.00  0.00     0.031 C 
ATOM     54  C   UNL A   1      40.593  25.901  27.922  1.00  0.00     0.029 A 
ATOM     55  C   UNL A   1      41.520  27.015  28.078  1.00  0.00     0.049 A 
ATOM     56  H   UNL A   1      43.563  27.032  27.667  1.00  0.00     0.167 HD
ATOM     57  C   UNL A   1      47.899  26.826  27.142  1.00  0.00     0.037 A 
ATOM     58  C   UNL A   1      41.191  28.244  28.523  1.00  0.00     0.037 A 
ATOM     59  C   UNL A   1      47.615  28.202  27.458  1.00  0.00     0.049 A 
ATOM     60  C   UNL A   1      42.264  29.290  28.649  1.00  0.00     0.074 A 
ATOM     61  C   UNL A   1      48.489  29.274  27.486  1.00  0.00     0.029 A 
ATOM     62  N   UNL A   1      46.369  28.691  27.816  1.00  0.00    -0.354 N 
ATOM     63  N   UNL A   1      43.541  29.200  28.370  1.00  0.00    -0.248 NA
ATOM     64  C   UNL A   1      41.853  30.607  29.156  1.00  0.00     0.031 C 
ATOM     65  C   UNL A   1      47.788  30.399  27.926  1.00  0.00     0.029 A 
ATOM     66  C   UNL A   1      46.463  30.040  28.116  1.00  0.00     0.049 A 
ATOM     67  H   UNL A   1      45.541  28.160  27.851  1.00  0.00     0.167 HD
ATOM     68  C   UNL A   1      44.080  30.450  28.650  1.00  0.00     0.074 A 
ATOM     69  C   UNL A   1      42.988  31.288  29.094  1.00  0.00     0.031 C 
ATOM     70  C   UNL A   1      45.367  30.863  28.556  1.00  0.00     0.037 A 
BRANCH  57  71
ATOM     71  C   UNL A   1      49.334  26.449  26.918  1.00  0.00     0.057 A 
ATOM     72  C   UNL A   1      50.159  26.021  27.965  1.00  0.00     0.134 A 
ATOM     73  C   UNL A   1      49.864  26.417  25.621  1.00  0.00     0.134 A 
ATOM     74  F   UNL A   1      49.715  26.034  29.231  1.00  0.00    -0.206 F 
ATOM     75  C   UNL A   1      51.463  25.578  27.731  1.00  0.00     0.040 A 
ATOM     76  C   UNL A   1      51.156  25.953  25.372  1.00  0.00     0.040 A 
ATOM     77  F   UNL A   1      49.123  26.805  24.573  1.00  0.00    -0.206 F 
ATOM     78  C   UNL A   1      51.959  25.532  26.430  1.00  0.00     0.006 A 
ENDBRANCH  57  71
BRANCH  58  79
ATOM     79  C   UNL A   1      39.791  28.551  28.917  1.00  0.00     0.057 A 
ATOM     80  C   UNL A   1      38.882  29.097  28.003  1.00  0.00     0.134 A 
ATOM     81  C   UNL A   1      39.342  28.354  30.229  1.00  0.00     0.134 A 
ATOM     82  F   UNL A   1      39.256  29.330  26.736  1.00  0.00    -0.206 F 
ATOM     83  C   UNL A   1      37.591  29.469  28.387  1.00  0.00     0.040 A 
ATOM     84  C   UNL A   1      38.045  28.690  30.618  1.00  0.00     0.040 A 
ATOM     85  F   UNL A   1      40.159  27.828  31.153  1.00  0.00    -0.206 F 
ATOM     86  C   UNL A   1      37.169  29.263  29.699  1.00  0.00     0.006 A 
ENDBRANCH  58  79
BRANCH  70  87
ATOM     87  C   UNL A   1      45.664  32.286  28.928  1.00  0.00     0.057 A 
ATOM     88  C   UNL A   1      46.110  32.631  30.210  1.00  0.00     0.134 A 
ATOM     89  C   UNL A   1      45.555  33.313  27.982  1.00  0.00     0.134 A 
ATOM     90  F   UNL A   1      46.222  31.697  31.167  1.00  0.00    -0.206 F 
ATOM     91  C   UNL A   1      46.422  33.951  30.542  1.00  0.00     0.040 A 
ATOM     92  C   UNL A   1      45.891  34.631  28.294  1.00  0.00     0.040 A 
ATOM     93  F   UNL A   1      45.142  33.048  26.734  1.00  0.00    -0.206 F 
ATOM     94  C   UNL A   1      46.321  34.953  29.580  1.00  0.00     0.006 A 
ENDBRANCH  70  87
ENDBRANCH  44  45
ENDBRANCH  36  39
ENDBRANCH  34  35
ENDBRANCH  33  34
ENDBRANCH  32  33
ENDBRANCH  31  32
ENDBRANCH   1  31
TORSDOF 19
ENDMDL
MODEL 3
REMARK VINA RESULT:     -12.1      1.680      6.130
REMARK SMILES C[C@@H](C(=O)NCCCCCCNC(=O)c1ccc(-c2c3nc(c(-c4c(F)cccc4F)c4ccc([nH]4)c(-c4c(F)cccc4F)c4nc(c(-c5c(F)cccc5F)c5ccc2[nH]5)C=C4)C=C3)cc1)c1ccc(C[C@H]2CCC[C@H]2O)cc1-c1ccc(O)cc1
REMARK SMILES IDX 7 1 6 2 5 3 3 4 4 5 2 7 1 8 69 9 70 10 81 11 71 12 80 13
REMARK SMILES IDX 72 14 82 15 83 16 88 17 84 18 87 19 85 20 86 21 73 23 74 24
REMARK SMILES IDX 75 25 78 26 76 27 77 28 79 29 8 31 9 32 10 33 11 34 12 35
REMARK SMILES IDX 13 36 14 38 15 39 16 40 68 41 17 42 67 43 18 44 19 45 20 46
REMARK SMILES IDX 61 47 21 48 66 49 60 50 62 51 22 52 65 53 59 54 58 55 23 57
REMARK SMILES IDX 49 58 32 59 48 60 33 61 36 62 47 63 63 64 34 65 35 66 46 68
REMARK SMILES IDX 64 69 37 70 24 71 25 72 30 73 26 74 27 75 29 76 31 77 28 78
REMARK SMILES IDX 50 79 51 80 56 81 52 82 53 83 55 84 57 85 54 86 38 87 39 88
REMARK SMILES IDX 44 89 40 90 41 91 43 92 45 93 42 94
REMARK H PARENT 5 6 86 22 79 30 12 37 62 56 36 67
REMARK Flexibility Score: inf
ROOT
ATOM      1  C   UNL A   1      36.274  22.454  24.159  1.00  0.00     0.021 C 
ENDROOT
BRANCH   1   2
ATOM      2  C   UNL A   1      36.119  23.640  25.112  1.00  0.00     0.116 C 
BRANCH   2   3
ATOM      3  N   UNL A   1      35.725  23.180  26.424  1.00  0.00    -0.356 N 
ATOM      4  C   UNL A   1      34.483  23.083  26.976  1.00  0.00     0.227 C 
ATOM      5  O   UNL A   1      34.444  22.773  28.170  1.00  0.00    -0.274 OA
ATOM      6  H   UNL A   1      36.465  22.894  27.006  1.00  0.00     0.163 HD
BRANCH   4   7
ATOM      7  C   UNL A   1      33.225  23.303  26.106  1.00  0.00     0.106 C 
ATOM      8  C   UNL A   1      32.013  23.789  26.909  1.00  0.00     0.023 C 
BRANCH   7   9
ATOM      9  C   UNL A   1      32.875  22.027  25.337  1.00  0.00    -0.028 A 
ATOM     10  C   UNL A   1      32.921  20.806  26.038  1.00  0.00     0.005 A 
ATOM     11  C   UNL A   1      32.547  22.014  23.961  1.00  0.00    -0.014 A 
ATOM     12  C   UNL A   1      32.698  19.596  25.400  1.00  0.00     0.004 A 
ATOM     13  C   UNL A   1      32.409  20.763  23.320  1.00  0.00     0.012 A 
ATOM     14  C   UNL A   1      32.528  19.551  24.021  1.00  0.00    -0.047 A 
BRANCH  11  15
ATOM     15  C   UNL A   1      32.265  23.243  23.196  1.00  0.00    -0.018 A 
ATOM     16  C   UNL A   1      31.055  23.925  23.413  1.00  0.00     0.012 A 
ATOM     17  C   UNL A   1      33.183  23.795  22.287  1.00  0.00     0.012 A 
ATOM     18  C   UNL A   1      30.784  25.136  22.774  1.00  0.00     0.047 A 
ATOM     19  C   UNL A   1      32.920  25.017  21.655  1.00  0.00     0.047 A 
ATOM     20  C   UNL A   1      31.725  25.680  21.912  1.00  0.00     0.115 A 
BRANCH  20  21
ATOM     21  O   UNL A   1      31.436  26.884  21.340  1.00  0.00    -0.508 OA
ATOM     22  H   UNL A   1      30.555  27.088  21.097  1.00  0.00     0.293 HD
ENDBRANCH  20  21
ENDBRANCH  11  15
BRANCH  14  23
ATOM     23  C   UNL A   1      32.508  18.218  23.319  1.00  0.00     0.041 C 
BRANCH  23  24
ATOM     24  C   UNL A   1      33.589  17.194  23.720  1.00  0.00     0.022 C 
ATOM     25  C   UNL A   1      34.905  17.791  24.244  1.00  0.00     0.007 C 
ATOM     26  C   UNL A   1      33.242  16.078  24.722  1.00  0.00     0.117 C 
ATOM     27  C   UNL A   1      35.498  16.743  25.192  1.00  0.00     0.003 C 
ATOM     28  C   UNL A   1      34.614  15.507  25.064  1.00  0.00     0.032 C 
BRANCH  26  29
ATOM     29  O   UNL A   1      32.633  16.498  25.927  1.00  0.00    -0.393 OA
ATOM     30  H   UNL A   1      32.128  15.763  26.308  1.00  0.00     0.210 HD
ENDBRANCH  26  29
ENDBRANCH  23  24
ENDBRANCH  14  23
ENDBRANCH   7   9
ENDBRANCH   4   7
ENDBRANCH   2   3
ENDBRANCH   1   2
BRANCH   1  31
ATOM     31  C   UNL A   1      36.735  21.160  24.843  1.00  0.00     0.002 C 
BRANCH  31  32
ATOM     32  C   UNL A   1      38.223  21.116  25.207  1.00  0.00     0.002 C 
BRANCH  32  33
ATOM     33  C   UNL A   1      38.888  19.751  25.017  1.00  0.00     0.021 C 
BRANCH  33  34
ATOM     34  C   UNL A   1      39.624  19.231  26.247  1.00  0.00     0.116 C 
BRANCH  34  35
ATOM     35  N   UNL A   1      40.974  18.793  25.928  1.00  0.00    -0.352 N 
ATOM     36  C   UNL A   1      42.136  19.525  25.866  1.00  0.00     0.251 C 
ATOM     37  H   UNL A   1      41.071  17.835  25.728  1.00  0.00     0.163 HD
ATOM     38  O   UNL A   1      43.148  19.042  25.377  1.00  0.00    -0.269 OA
BRANCH  36  39
ATOM     39  C   UNL A   1      42.149  20.915  26.369  1.00  0.00     0.039 A 
ATOM     40  C   UNL A   1      42.010  21.138  27.741  1.00  0.00     0.014 A 
ATOM     41  C   UNL A   1      42.318  21.992  25.494  1.00  0.00     0.014 A 
ATOM     42  C   UNL A   1      42.131  22.434  28.245  1.00  0.00     0.010 A 
ATOM     43  C   UNL A   1      42.505  23.274  26.003  1.00  0.00     0.010 A 
ATOM     44  C   UNL A   1      42.434  23.504  27.386  1.00  0.00    -0.014 A 
BRANCH  44  45
ATOM     45  C   UNL A   1      42.745  24.854  27.921  1.00  0.00     0.031 A 
ATOM     46  C   UNL A   1      44.133  25.192  28.385  1.00  0.00     0.074 A 
ATOM     47  C   UNL A   1      41.744  25.746  28.071  1.00  0.00     0.049 A 
ATOM     48  N   UNL A   1      44.564  26.282  28.968  1.00  0.00    -0.248 NA
ATOM     49  C   UNL A   1      45.171  24.166  28.190  1.00  0.00     0.031 C 
ATOM     50  C   UNL A   1      40.344  25.517  27.705  1.00  0.00     0.029 A 
ATOM     51  N   UNL A   1      41.743  27.016  28.594  1.00  0.00    -0.354 N 
ATOM     52  C   UNL A   1      45.912  26.068  29.224  1.00  0.00     0.074 A 
ATOM     53  C   UNL A   1      46.224  24.734  28.763  1.00  0.00     0.031 C 
ATOM     54  C   UNL A   1      39.624  26.608  28.008  1.00  0.00     0.029 A 
ATOM     55  C   UNL A   1      40.497  27.595  28.634  1.00  0.00     0.049 A 
ATOM     56  H   UNL A   1      42.558  27.469  28.910  1.00  0.00     0.167 HD
ATOM     57  C   UNL A   1      46.807  26.917  29.783  1.00  0.00     0.037 A 
ATOM     58  C   UNL A   1      40.094  28.775  29.144  1.00  0.00     0.037 A 
ATOM     59  C   UNL A   1      46.497  28.257  30.211  1.00  0.00     0.049 A 
ATOM     60  C   UNL A   1      41.111  29.685  29.778  1.00  0.00     0.074 A 
ATOM     61  C   UNL A   1      47.361  29.224  30.694  1.00  0.00     0.029 A 
ATOM     62  N   UNL A   1      45.228  28.810  30.224  1.00  0.00    -0.354 N 
ATOM     63  N   UNL A   1      42.403  29.511  29.914  1.00  0.00    -0.248 NA
ATOM     64  C   UNL A   1      40.616  30.952  30.334  1.00  0.00     0.031 C 
ATOM     65  C   UNL A   1      46.606  30.340  31.062  1.00  0.00     0.029 A 
ATOM     66  C   UNL A   1      45.278  30.089  30.755  1.00  0.00     0.049 A 
ATOM     67  H   UNL A   1      44.412  28.363  29.903  1.00  0.00     0.167 HD
ATOM     68  C   UNL A   1      42.875  30.650  30.553  1.00  0.00     0.074 A 
ATOM     69  C   UNL A   1      41.737  31.521  30.753  1.00  0.00     0.031 C 
ATOM     70  C   UNL A   1      44.137  30.946  30.947  1.00  0.00     0.037 A 
BRANCH  57  71
ATOM     71  C   UNL A   1      48.216  26.438  29.974  1.00  0.00     0.057 A 
ATOM     72  C   UNL A   1      49.211  26.663  29.015  1.00  0.00     0.134 A 
ATOM     73  C   UNL A   1      48.602  25.835  31.179  1.00  0.00     0.134 A 
ATOM     74  F   UNL A   1      48.908  27.231  27.839  1.00  0.00    -0.206 F 
ATOM     75  C   UNL A   1      50.540  26.301  29.247  1.00  0.00     0.040 A 
ATOM     76  C   UNL A   1      49.930  25.492  31.431  1.00  0.00     0.040 A 
ATOM     77  F   UNL A   1      47.698  25.599  32.142  1.00  0.00    -0.206 F 
ATOM     78  C   UNL A   1      50.904  25.725  30.462  1.00  0.00     0.006 A 
ENDBRANCH  57  71
BRANCH  58  79
ATOM     79  C   UNL A   1      38.659  29.160  29.111  1.00  0.00     0.057 A 
ATOM     80  C   UNL A   1      38.069  29.669  27.948  1.00  0.00     0.134 A 
ATOM     81  C   UNL A   1      37.854  29.076  30.255  1.00  0.00     0.134 A 
ATOM     82  F   UNL A   1      38.791  29.795  26.824  1.00  0.00    -0.206 F 
ATOM     83  C   UNL A   1      36.745  30.112  27.932  1.00  0.00     0.040 A 
ATOM     84  C   UNL A   1      36.521  29.485  30.244  1.00  0.00     0.040 A 
ATOM     85  F   UNL A   1      38.354  28.591  31.400  1.00  0.00    -0.206 F 
ATOM     86  C   UNL A   1      35.966  30.018  29.083  1.00  0.00     0.006 A 
ENDBRANCH  58  79
BRANCH  70  87
ATOM     87  C   UNL A   1      44.358  32.267  31.623  1.00  0.00     0.057 A 
ATOM     88  C   UNL A   1      44.619  33.432  30.889  1.00  0.00     0.134 A 
ATOM     89  C   UNL A   1      44.257  32.387  33.014  1.00  0.00     0.134 A 
ATOM     90  F   UNL A   1      44.744  33.382  29.554  1.00  0.00    -0.206 F 
ATOM     91  C   UNL A   1      44.788  34.666  31.519  1.00  0.00     0.040 A 
ATOM     92  C   UNL A   1      44.394  33.620  33.652  1.00  0.00     0.040 A 
ATOM     93  F   UNL A   1      44.000  31.312  33.774  1.00  0.00    -0.206 F 
ATOM     94  C   UNL A   1      44.665  34.764  32.903  1.00  0.00     0.006 A 
ENDBRANCH  70  87
ENDBRANCH  44  45
ENDBRANCH  36  39
ENDBRANCH  34  35
ENDBRANCH  33  34
ENDBRANCH  32  33
ENDBRANCH  31  32
ENDBRANCH   1  31
TORSDOF 19
ENDMDL
