MODEL 1
REMARK VINA RESULT:     -11.6      0.000      0.000
REMARK SMILES Cc1ccc(Cl)c(Nc2ccccc2C(=O)NCCCCCCNC(=O)c2ccc(-c3c4nc(c(-c5c(F)cccc5F)c5ccc([nH]5)c(-c5c(F)cccc5F)c5nc(c(-c6c(F)cccc6F)c6ccc3[nH]6)C=C5)C=C4)cc2)c1Cl
REMARK SMILES IDX 20 1 19 2 18 3 17 4 15 5 16 6 14 8 9 9 10 10 11 11 13 12
REMARK SMILES IDX 12 13 8 14 7 16 1 17 2 18 3 19 81 20 4 21 82 22 5 23 6 24
REMARK SMILES IDX 21 25 22 26 23 27 24 28 25 29 26 31 27 32 28 33 80 34 29 35
REMARK SMILES IDX 79 36 30 37 31 38 32 39 73 40 33 41 78 42 72 43 74 44 34 45
REMARK SMILES IDX 77 46 71 47 70 48 35 50 61 51 44 52 60 53 45 54 48 55 59 56
REMARK SMILES IDX 75 57 46 58 47 59 58 61 76 62 49 63 36 64 37 65 42 66 38 67
REMARK SMILES IDX 39 68 41 69 43 70 40 71 62 72 63 73 68 74 64 75 65 76 67 77
REMARK SMILES IDX 69 78 66 79 50 80 51 81 56 82 52 83 53 84 55 85 57 86 54 87
REMARK H PARENT 17 7 8 15 24 30 74 49 48 60
REMARK Flexibility Score: inf
ROOT
ATOM      1  C   UNL A   1      31.777  29.218  26.666  1.00  0.00     0.002 C 
ENDROOT
BRANCH   1   2
ATOM      2  C   UNL A   1      32.851  28.253  26.139  1.00  0.00     0.021 C 
BRANCH   2   3
ATOM      3  C   UNL A   1      32.617  26.760  26.359  1.00  0.00     0.116 C 
BRANCH   3   4
ATOM      4  N   UNL A   1      31.237  26.392  26.556  1.00  0.00    -0.352 N 
ATOM      5  C   UNL A   1      30.569  25.233  26.246  1.00  0.00     0.253 C 
ATOM      6  O   UNL A   1      29.383  25.165  26.580  1.00  0.00    -0.269 OA
ATOM      7  H   UNL A   1      30.683  27.085  26.983  1.00  0.00     0.163 HD
BRANCH   5   8
ATOM      8  C   UNL A   1      31.153  24.120  25.434  1.00  0.00     0.063 A 
ATOM      9  C   UNL A   1      31.205  24.002  24.030  1.00  0.00     0.051 A 
ATOM     10  C   UNL A   1      31.777  22.824  23.487  1.00  0.00     0.027 A 
ATOM     11  C   UNL A   1      32.340  21.830  24.286  1.00  0.00     0.002 A 
ATOM     12  C   UNL A   1      31.750  23.111  26.228  1.00  0.00     0.016 A 
ATOM     13  C   UNL A   1      32.345  21.984  25.662  1.00  0.00     0.001 A 
BRANCH   9  14
ATOM     14  N   UNL A   1      30.863  24.977  23.071  1.00  0.00    -0.352 N 
ATOM     15  H   UNL A   1      30.501  24.584  22.243  1.00  0.00     0.167 HD
BRANCH  14  16
ATOM     16  C   UNL A   1      30.921  26.389  23.025  1.00  0.00     0.077 A 
ATOM     17  C   UNL A   1      28.739  29.548  22.879  1.00  0.00     0.046 C 
ATOM     18  C   UNL A   1      29.929  28.629  22.837  1.00  0.00    -0.030 A 
ATOM     19  C   UNL A   1      31.180  29.157  22.489  1.00  0.00     0.006 A 
ATOM     20  C   UNL A   1      29.816  27.255  23.151  1.00  0.00     0.069 A 
ATOM     21  C   UNL A   1      32.307  28.344  22.473  1.00  0.00     0.023 A 
ATOM     22  Cl  UNL A   1      28.332  26.703  23.876  1.00  0.00    -0.082 Cl
ATOM     23  C   UNL A   1      32.175  26.982  22.738  1.00  0.00     0.066 A 
ATOM     24  Cl  UNL A   1      33.613  26.007  22.659  1.00  0.00    -0.082 Cl
ENDBRANCH  14  16
ENDBRANCH   9  14
ENDBRANCH   5   8
ENDBRANCH   3   4
ENDBRANCH   2   3
ENDBRANCH   1   2
BRANCH   1  25
ATOM     25  C   UNL A   1      31.403  30.429  25.802  1.00  0.00     0.002 C 
BRANCH  25  26
ATOM     26  C   UNL A   1      31.288  31.783  26.501  1.00  0.00     0.021 C 
BRANCH  26  27
ATOM     27  C   UNL A   1      32.588  32.492  26.856  1.00  0.00     0.116 C 
BRANCH  27  28
ATOM     28  N   UNL A   1      32.386  33.824  27.396  1.00  0.00    -0.352 N 
ATOM     29  C   UNL A   1      33.049  34.483  28.401  1.00  0.00     0.251 C 
ATOM     30  H   UNL A   1      31.658  34.336  26.976  1.00  0.00     0.163 HD
ATOM     31  O   UNL A   1      32.628  35.580  28.780  1.00  0.00    -0.269 OA
BRANCH  29  32
ATOM     32  C   UNL A   1      34.242  33.902  29.065  1.00  0.00     0.039 A 
ATOM     33  C   UNL A   1      34.050  32.903  30.027  1.00  0.00     0.014 A 
ATOM     34  C   UNL A   1      35.536  34.358  28.800  1.00  0.00     0.014 A 
ATOM     35  C   UNL A   1      35.147  32.327  30.678  1.00  0.00     0.010 A 
ATOM     36  C   UNL A   1      36.635  33.737  29.400  1.00  0.00     0.010 A 
ATOM     37  C   UNL A   1      36.453  32.722  30.351  1.00  0.00    -0.014 A 
BRANCH  37  38
ATOM     38  C   UNL A   1      37.635  32.103  31.007  1.00  0.00     0.031 A 
ATOM     39  C   UNL A   1      38.400  31.007  30.314  1.00  0.00     0.074 A 
ATOM     40  C   UNL A   1      37.988  32.475  32.253  1.00  0.00     0.049 A 
ATOM     41  N   UNL A   1      39.396  30.282  30.758  1.00  0.00    -0.248 NA
ATOM     42  C   UNL A   1      37.970  30.665  28.949  1.00  0.00     0.031 C 
ATOM     43  C   UNL A   1      37.312  33.497  33.054  1.00  0.00     0.029 A 
ATOM     44  N   UNL A   1      38.995  32.025  33.070  1.00  0.00    -0.354 N 
ATOM     45  C   UNL A   1      39.692  29.383  29.742  1.00  0.00     0.074 A 
ATOM     46  C   UNL A   1      38.749  29.629  28.672  1.00  0.00     0.031 C 
ATOM     47  C   UNL A   1      37.929  33.602  34.242  1.00  0.00     0.029 A 
ATOM     48  C   UNL A   1      39.021  32.634  34.301  1.00  0.00     0.049 A 
ATOM     49  H   UNL A   1      39.638  31.330  32.800  1.00  0.00     0.167 HD
ATOM     50  C   UNL A   1      40.673  28.449  29.695  1.00  0.00     0.037 A 
ATOM     51  C   UNL A   1      39.825  32.430  35.362  1.00  0.00     0.037 A 
ATOM     52  C   UNL A   1      41.638  28.228  30.738  1.00  0.00     0.049 A 
ATOM     53  C   UNL A   1      40.914  31.398  35.281  1.00  0.00     0.074 A 
ATOM     54  C   UNL A   1      42.714  27.355  30.749  1.00  0.00     0.029 A 
ATOM     55  N   UNL A   1      41.646  28.887  31.958  1.00  0.00    -0.354 N 
ATOM     56  N   UNL A   1      41.219  30.596  34.291  1.00  0.00    -0.248 NA
ATOM     57  C   UNL A   1      41.773  31.245  36.464  1.00  0.00     0.031 C 
ATOM     58  C   UNL A   1      43.352  27.462  31.989  1.00  0.00     0.029 A 
ATOM     59  C   UNL A   1      42.696  28.427  32.736  1.00  0.00     0.049 A 
ATOM     60  H   UNL A   1      41.002  29.579  32.231  1.00  0.00     0.167 HD
ATOM     61  C   UNL A   1      42.317  29.861  34.720  1.00  0.00     0.074 A 
ATOM     62  C   UNL A   1      42.631  30.319  36.058  1.00  0.00     0.031 C 
ATOM     63  C   UNL A   1      43.001  28.894  34.064  1.00  0.00     0.037 A 
BRANCH  50  64
ATOM     64  C   UNL A   1      40.748  27.591  28.466  1.00  0.00     0.057 A 
ATOM     65  C   UNL A   1      40.031  26.392  28.356  1.00  0.00     0.134 A 
ATOM     66  C   UNL A   1      41.523  27.982  27.367  1.00  0.00     0.134 A 
ATOM     67  F   UNL A   1      39.278  25.955  29.378  1.00  0.00    -0.206 F 
ATOM     68  C   UNL A   1      40.105  25.599  27.210  1.00  0.00     0.040 A 
ATOM     69  C   UNL A   1      41.586  27.210  26.205  1.00  0.00     0.040 A 
ATOM     70  F   UNL A   1      42.229  29.122  27.403  1.00  0.00    -0.206 F 
ATOM     71  C   UNL A   1      40.880  26.011  26.128  1.00  0.00     0.006 A 
ENDBRANCH  50  64
BRANCH  51  72
ATOM     72  C   UNL A   1      39.641  33.239  36.592  1.00  0.00     0.057 A 
ATOM     73  C   UNL A   1      38.747  32.838  37.590  1.00  0.00     0.134 A 
ATOM     74  C   UNL A   1      40.356  34.424  36.802  1.00  0.00     0.134 A 
ATOM     75  F   UNL A   1      38.019  31.722  37.435  1.00  0.00    -0.206 F 
ATOM     76  C   UNL A   1      38.560  33.592  38.750  1.00  0.00     0.040 A 
ATOM     77  C   UNL A   1      40.195  35.177  37.965  1.00  0.00     0.040 A 
ATOM     78  F   UNL A   1      41.231  34.858  35.884  1.00  0.00    -0.206 F 
ATOM     79  C   UNL A   1      39.291  34.763  38.942  1.00  0.00     0.006 A 
ENDBRANCH  51  72
BRANCH  63  80
ATOM     80  C   UNL A   1      44.175  28.283  34.769  1.00  0.00     0.057 A 
ATOM     81  C   UNL A   1      45.451  28.856  34.709  1.00  0.00     0.134 A 
ATOM     82  C   UNL A   1      44.016  27.133  35.553  1.00  0.00     0.134 A 
ATOM     83  F   UNL A   1      45.670  29.950  33.965  1.00  0.00    -0.206 F 
ATOM     84  C   UNL A   1      46.531  28.299  35.395  1.00  0.00     0.040 A 
ATOM     85  C   UNL A   1      45.085  26.579  36.259  1.00  0.00     0.040 A 
ATOM     86  F   UNL A   1      42.818  26.540  35.657  1.00  0.00    -0.206 F 
ATOM     87  C   UNL A   1      46.348  27.160  36.177  1.00  0.00     0.006 A 
ENDBRANCH  63  80
ENDBRANCH  37  38
ENDBRANCH  29  32
ENDBRANCH  27  28
ENDBRANCH  26  27
ENDBRANCH  25  26
ENDBRANCH   1  25
TORSDOF 15
ENDMDL
MODEL 2
REMARK VINA RESULT:     -11.5      1.795      2.429
REMARK SMILES Cc1ccc(Cl)c(Nc2ccccc2C(=O)NCCCCCCNC(=O)c2ccc(-c3c4nc(c(-c5c(F)cccc5F)c5ccc([nH]5)c(-c5c(F)cccc5F)c5nc(c(-c6c(F)cccc6F)c6ccc3[nH]6)C=C5)C=C4)cc2)c1Cl
REMARK SMILES IDX 20 1 19 2 18 3 17 4 15 5 16 6 14 8 9 9 10 10 11 11 13 12
REMARK SMILES IDX 12 13 8 14 7 16 1 17 2 18 3 19 81 20 4 21 82 22 5 23 6 24
REMARK SMILES IDX 21 25 22 26 23 27 24 28 25 29 26 31 27 32 28 33 80 34 29 35
REMARK SMILES IDX 79 36 30 37 31 38 32 39 73 40 33 41 78 42 72 43 74 44 34 45
REMARK SMILES IDX 77 46 71 47 70 48 35 50 61 51 44 52 60 53 45 54 48 55 59 56
REMARK SMILES IDX 75 57 46 58 47 59 58 61 76 62 49 63 36 64 37 65 42 66 38 67
REMARK SMILES IDX 39 68 41 69 43 70 40 71 62 72 63 73 68 74 64 75 65 76 67 77
REMARK SMILES IDX 69 78 66 79 50 80 51 81 56 82 52 83 53 84 55 85 57 86 54 87
REMARK H PARENT 17 7 8 15 24 30 74 49 48 60
REMARK Flexibility Score: inf
ROOT
ATOM      1  C   UNL A   1      33.664  28.538  26.744  1.00  0.00     0.002 C 
ENDROOT
BRANCH   1   2
ATOM      2  C   UNL A   1      32.326  27.793  26.869  1.00  0.00     0.021 C 
BRANCH   2   3
ATOM      3  C   UNL A   1      32.300  26.325  26.447  1.00  0.00     0.116 C 
BRANCH   3   4
ATOM      4  N   UNL A   1      31.096  25.619  26.809  1.00  0.00    -0.352 N 
ATOM      5  C   UNL A   1      30.637  24.382  26.426  1.00  0.00     0.253 C 
ATOM      6  O   UNL A   1      29.584  23.994  26.938  1.00  0.00    -0.269 OA
ATOM      7  H   UNL A   1      30.506  26.102  27.432  1.00  0.00     0.163 HD
BRANCH   5   8
ATOM      8  C   UNL A   1      31.267  23.549  25.355  1.00  0.00     0.063 A 
ATOM      9  C   UNL A   1      31.211  23.739  23.959  1.00  0.00     0.051 A 
ATOM     10  C   UNL A   1      31.858  22.785  23.135  1.00  0.00     0.027 A 
ATOM     11  C   UNL A   1      32.593  21.722  23.659  1.00  0.00     0.002 A 
ATOM     12  C   UNL A   1      32.037  22.478  25.868  1.00  0.00     0.016 A 
ATOM     13  C   UNL A   1      32.701  21.580  25.032  1.00  0.00     0.001 A 
BRANCH   9  14
ATOM     14  N   UNL A   1      30.683  24.844  23.262  1.00  0.00    -0.352 N 
ATOM     15  H   UNL A   1      29.926  24.600  22.680  1.00  0.00     0.167 HD
BRANCH  14  16
ATOM     16  C   UNL A   1      30.991  26.224  23.205  1.00  0.00     0.077 A 
ATOM     17  C   UNL A   1      33.901  28.706  22.848  1.00  0.00     0.046 C 
ATOM     18  C   UNL A   1      32.533  28.133  23.101  1.00  0.00    -0.030 A 
ATOM     19  C   UNL A   1      31.515  28.984  23.553  1.00  0.00     0.006 A 
ATOM     20  C   UNL A   1      32.252  26.765  22.883  1.00  0.00     0.069 A 
ATOM     21  C   UNL A   1      30.232  28.495  23.765  1.00  0.00     0.023 A 
ATOM     22  Cl  UNL A   1      33.436  25.814  22.032  1.00  0.00    -0.082 Cl
ATOM     23  C   UNL A   1      29.978  27.135  23.593  1.00  0.00     0.066 A 
ATOM     24  Cl  UNL A   1      28.364  26.574  23.917  1.00  0.00    -0.082 Cl
ENDBRANCH  14  16
ENDBRANCH   9  14
ENDBRANCH   5   8
ENDBRANCH   3   4
ENDBRANCH   2   3
ENDBRANCH   1   2
BRANCH   1  25
ATOM     25  C   UNL A   1      33.774  29.939  27.358  1.00  0.00     0.002 C 
BRANCH  25  26
ATOM     26  C   UNL A   1      32.517  30.807  27.361  1.00  0.00     0.021 C 
BRANCH  26  27
ATOM     27  C   UNL A   1      32.530  32.049  26.478  1.00  0.00     0.116 C 
BRANCH  27  28
ATOM     28  N   UNL A   1      32.233  33.270  27.202  1.00  0.00    -0.352 N 
ATOM     29  C   UNL A   1      32.942  33.915  28.185  1.00  0.00     0.251 C 
ATOM     30  H   UNL A   1      31.387  33.706  26.949  1.00  0.00     0.163 HD
ATOM     31  O   UNL A   1      32.438  34.889  28.750  1.00  0.00    -0.269 OA
BRANCH  29  32
ATOM     32  C   UNL A   1      34.290  33.456  28.606  1.00  0.00     0.039 A 
ATOM     33  C   UNL A   1      34.407  32.748  29.809  1.00  0.00     0.014 A 
ATOM     34  C   UNL A   1      35.440  33.755  27.872  1.00  0.00     0.014 A 
ATOM     35  C   UNL A   1      35.658  32.297  30.244  1.00  0.00     0.010 A 
ATOM     36  C   UNL A   1      36.679  33.248  28.272  1.00  0.00     0.010 A 
ATOM     37  C   UNL A   1      36.804  32.521  29.466  1.00  0.00    -0.014 A 
BRANCH  37  38
ATOM     38  C   UNL A   1      38.138  32.024  29.893  1.00  0.00     0.031 A 
ATOM     39  C   UNL A   1      38.655  30.705  29.386  1.00  0.00     0.074 A 
ATOM     40  C   UNL A   1      38.864  32.724  30.788  1.00  0.00     0.049 A 
ATOM     41  N   UNL A   1      39.747  30.061  29.713  1.00  0.00    -0.248 NA
ATOM     42  C   UNL A   1      37.818  30.006  28.398  1.00  0.00     0.031 C 
ATOM     43  C   UNL A   1      38.466  33.997  31.389  1.00  0.00     0.029 A 
ATOM     44  N   UNL A   1      40.082  32.452  31.359  1.00  0.00    -0.354 N 
ATOM     45  C   UNL A   1      39.715  28.872  28.994  1.00  0.00     0.074 A 
ATOM     46  C   UNL A   1      38.479  28.868  28.241  1.00  0.00     0.031 C 
ATOM     47  C   UNL A   1      39.426  34.401  32.236  1.00  0.00     0.029 A 
ATOM     48  C   UNL A   1      40.490  33.401  32.265  1.00  0.00     0.049 A 
ATOM     49  H   UNL A   1      40.613  31.652  31.142  1.00  0.00     0.167 HD
ATOM     50  C   UNL A   1      40.639  27.882  28.950  1.00  0.00     0.037 A 
ATOM     51  C   UNL A   1      41.591  33.456  33.039  1.00  0.00     0.037 A 
ATOM     52  C   UNL A   1      41.888  27.901  29.665  1.00  0.00     0.049 A 
ATOM     53  C   UNL A   1      42.608  32.353  32.963  1.00  0.00     0.074 A 
ATOM     54  C   UNL A   1      42.919  26.978  29.626  1.00  0.00     0.029 A 
ATOM     55  N   UNL A   1      42.275  28.895  30.550  1.00  0.00    -0.354 N 
ATOM     56  N   UNL A   1      42.592  31.264  32.235  1.00  0.00    -0.248 NA
ATOM     57  C   UNL A   1      43.799  32.487  33.815  1.00  0.00     0.031 C 
ATOM     58  C   UNL A   1      43.916  27.397  30.513  1.00  0.00     0.029 A 
ATOM     59  C   UNL A   1      43.521  28.599  31.077  1.00  0.00     0.049 A 
ATOM     60  H   UNL A   1      41.744  29.694  30.772  1.00  0.00     0.167 HD
ATOM     61  C   UNL A   1      43.776  30.596  32.521  1.00  0.00     0.074 A 
ATOM     62  C   UNL A   1      44.493  31.407  33.483  1.00  0.00     0.031 C 
ATOM     63  C   UNL A   1      44.227  29.417  32.030  1.00  0.00     0.037 A 
BRANCH  50  64
ATOM     64  C   UNL A   1      40.330  26.688  28.096  1.00  0.00     0.057 A 
ATOM     65  C   UNL A   1      39.457  25.679  28.523  1.00  0.00     0.134 A 
ATOM     66  C   UNL A   1      40.887  26.561  26.817  1.00  0.00     0.134 A 
ATOM     67  F   UNL A   1      38.898  25.736  29.741  1.00  0.00    -0.206 F 
ATOM     68  C   UNL A   1      39.173  24.572  27.722  1.00  0.00     0.040 A 
ATOM     69  C   UNL A   1      40.592  25.471  25.996  1.00  0.00     0.040 A 
ATOM     70  F   UNL A   1      41.726  27.496  26.343  1.00  0.00    -0.206 F 
ATOM     71  C   UNL A   1      39.738  24.469  26.452  1.00  0.00     0.006 A 
ENDBRANCH  50  64
BRANCH  51  72
ATOM     72  C   UNL A   1      41.798  34.613  33.944  1.00  0.00     0.057 A 
ATOM     73  C   UNL A   1      41.365  34.573  35.273  1.00  0.00     0.134 A 
ATOM     74  C   UNL A   1      42.437  35.780  33.506  1.00  0.00     0.134 A 
ATOM     75  F   UNL A   1      40.729  33.490  35.744  1.00  0.00    -0.206 F 
ATOM     76  C   UNL A   1      41.549  35.657  36.134  1.00  0.00     0.040 A 
ATOM     77  C   UNL A   1      42.645  36.862  34.360  1.00  0.00     0.040 A 
ATOM     78  F   UNL A   1      42.879  35.876  32.243  1.00  0.00    -0.206 F 
ATOM     79  C   UNL A   1      42.197  36.804  35.679  1.00  0.00     0.006 A 
ENDBRANCH  51  72
BRANCH  63  80
ATOM     80  C   UNL A   1      45.569  28.943  32.502  1.00  0.00     0.057 A 
ATOM     81  C   UNL A   1      46.752  29.317  31.853  1.00  0.00     0.134 A 
ATOM     82  C   UNL A   1      45.681  28.141  33.645  1.00  0.00     0.134 A 
ATOM     83  F   UNL A   1      46.710  30.073  30.745  1.00  0.00    -0.206 F 
ATOM     84  C   UNL A   1      48.000  28.898  32.317  1.00  0.00     0.040 A 
ATOM     85  C   UNL A   1      46.925  27.734  34.130  1.00  0.00     0.040 A 
ATOM     86  F   UNL A   1      44.586  27.755  34.315  1.00  0.00    -0.206 F 
ATOM     87  C   UNL A   1      48.088  28.109  33.463  1.00  0.00     0.006 A 
ENDBRANCH  63  80
ENDBRANCH  37  38
ENDBRANCH  29  32
ENDBRANCH  27  28
ENDBRANCH  26  27
ENDBRANCH  25  26
ENDBRANCH   1  25
TORSDOF 15
ENDMDL
MODEL 3
REMARK VINA RESULT:     -11.4      4.608      9.397
REMARK SMILES Cc1ccc(Cl)c(Nc2ccccc2C(=O)NCCCCCCNC(=O)c2ccc(-c3c4nc(c(-c5c(F)cccc5F)c5ccc([nH]5)c(-c5c(F)cccc5F)c5nc(c(-c6c(F)cccc6F)c6ccc3[nH]6)C=C5)C=C4)cc2)c1Cl
REMARK SMILES IDX 20 1 19 2 18 3 17 4 15 5 16 6 14 8 9 9 10 10 11 11 13 12
REMARK SMILES IDX 12 13 8 14 7 16 1 17 2 18 3 19 81 20 4 21 82 22 5 23 6 24
REMARK SMILES IDX 21 25 22 26 23 27 24 28 25 29 26 31 27 32 28 33 80 34 29 35
REMARK SMILES IDX 79 36 30 37 31 38 32 39 73 40 33 41 78 42 72 43 74 44 34 45
REMARK SMILES IDX 77 46 71 47 70 48 35 50 61 51 44 52 60 53 45 54 48 55 59 56
REMARK SMILES IDX 75 57 46 58 47 59 58 61 76 62 49 63 36 64 37 65 42 66 38 67
REMARK SMILES IDX 39 68 41 69 43 70 40 71 62 72 63 73 68 74 64 75 65 76 67 77
REMARK SMILES IDX 69 78 66 79 50 80 51 81 56 82 52 83 53 84 55 85 57 86 54 87
REMARK H PARENT 17 7 8 15 24 30 74 49 48 60
REMARK Flexibility Score: inf
ROOT
ATOM      1  C   UNL A   1      36.768  22.145  25.672  1.00  0.00     0.002 C 
ENDROOT
BRANCH   1   2
ATOM      2  C   UNL A   1      36.645  23.598  25.187  1.00  0.00     0.021 C 
BRANCH   2   3
ATOM      3  C   UNL A   1      35.313  24.305  25.430  1.00  0.00     0.116 C 
BRANCH   3   4
ATOM      4  N   UNL A   1      34.742  24.925  24.259  1.00  0.00    -0.352 N 
ATOM      5  C   UNL A   1      33.885  25.991  24.142  1.00  0.00     0.253 C 
ATOM      6  O   UNL A   1      33.594  26.352  22.998  1.00  0.00    -0.269 OA
ATOM      7  H   UNL A   1      35.012  24.518  23.404  1.00  0.00     0.163 HD
BRANCH   5   8
ATOM      8  C   UNL A   1      33.201  26.648  25.299  1.00  0.00     0.063 A 
ATOM      9  C   UNL A   1      32.012  26.254  25.945  1.00  0.00     0.051 A 
ATOM     10  C   UNL A   1      31.532  27.068  27.002  1.00  0.00     0.027 A 
ATOM     11  C   UNL A   1      32.227  28.188  27.456  1.00  0.00     0.002 A 
ATOM     12  C   UNL A   1      33.905  27.775  25.790  1.00  0.00     0.016 A 
ATOM     13  C   UNL A   1      33.430  28.531  26.862  1.00  0.00     0.001 A 
BRANCH   9  14
ATOM     14  N   UNL A   1      31.281  25.065  25.752  1.00  0.00    -0.352 N 
ATOM     15  H   UNL A   1      30.344  25.142  26.047  1.00  0.00     0.167 HD
BRANCH  14  16
ATOM     16  C   UNL A   1      31.585  23.784  25.232  1.00  0.00     0.077 A 
ATOM     17  C   UNL A   1      33.460  20.523  26.009  1.00  0.00     0.046 C 
ATOM     18  C   UNL A   1      32.708  21.600  25.276  1.00  0.00    -0.030 A 
ATOM     19  C   UNL A   1      32.483  21.453  23.901  1.00  0.00     0.006 A 
ATOM     20  C   UNL A   1      32.214  22.743  25.945  1.00  0.00     0.069 A 
ATOM     21  C   UNL A   1      31.763  22.412  23.200  1.00  0.00     0.023 A 
ATOM     22  Cl  UNL A   1      32.233  22.744  27.686  1.00  0.00    -0.082 Cl
ATOM     23  C   UNL A   1      31.322  23.559  23.858  1.00  0.00     0.066 A 
ATOM     24  Cl  UNL A   1      30.465  24.744  22.918  1.00  0.00    -0.082 Cl
ENDBRANCH  14  16
ENDBRANCH   9  14
ENDBRANCH   5   8
ENDBRANCH   3   4
ENDBRANCH   2   3
ENDBRANCH   1   2
BRANCH   1  25
ATOM     25  C   UNL A   1      36.789  21.029  24.621  1.00  0.00     0.002 C 
BRANCH  25  26
ATOM     26  C   UNL A   1      37.900  19.983  24.727  1.00  0.00     0.021 C 
BRANCH  26  27
ATOM     27  C   UNL A   1      38.827  20.076  25.931  1.00  0.00     0.116 C 
BRANCH  27  28
ATOM     28  N   UNL A   1      40.013  19.250  25.808  1.00  0.00    -0.352 N 
ATOM     29  C   UNL A   1      41.332  19.552  26.038  1.00  0.00     0.251 C 
ATOM     30  H   UNL A   1      39.845  18.326  25.511  1.00  0.00     0.163 HD
ATOM     31  O   UNL A   1      42.198  18.720  25.752  1.00  0.00    -0.269 OA
BRANCH  29  32
ATOM     32  C   UNL A   1      41.750  20.862  26.596  1.00  0.00     0.039 A 
ATOM     33  C   UNL A   1      42.134  21.873  25.707  1.00  0.00     0.014 A 
ATOM     34  C   UNL A   1      41.822  21.095  27.972  1.00  0.00     0.014 A 
ATOM     35  C   UNL A   1      42.535  23.125  26.190  1.00  0.00     0.010 A 
ATOM     36  C   UNL A   1      42.158  22.364  28.452  1.00  0.00     0.010 A 
ATOM     37  C   UNL A   1      42.526  23.390  27.567  1.00  0.00    -0.014 A 
BRANCH  37  38
ATOM     38  C   UNL A   1      42.918  24.720  28.101  1.00  0.00     0.031 A 
ATOM     39  C   UNL A   1      41.872  25.769  28.369  1.00  0.00     0.074 A 
ATOM     40  C   UNL A   1      44.220  25.016  28.287  1.00  0.00     0.049 A 
ATOM     41  N   UNL A   1      42.023  27.014  28.745  1.00  0.00    -0.248 NA
ATOM     42  C   UNL A   1      40.471  25.370  28.162  1.00  0.00     0.031 C 
ATOM     43  C   UNL A   1      45.338  24.108  28.032  1.00  0.00     0.029 A 
ATOM     44  N   UNL A   1      44.822  26.172  28.719  1.00  0.00    -0.354 N 
ATOM     45  C   UNL A   1      40.744  27.553  28.793  1.00  0.00     0.074 A 
ATOM     46  C   UNL A   1      39.831  26.511  28.373  1.00  0.00     0.031 C 
ATOM     47  C   UNL A   1      46.489  24.737  28.321  1.00  0.00     0.029 A 
ATOM     48  C   UNL A   1      46.193  26.101  28.749  1.00  0.00     0.049 A 
ATOM     49  H   UNL A   1      44.319  26.976  28.982  1.00  0.00     0.167 HD
ATOM     50  C   UNL A   1      40.361  28.797  29.169  1.00  0.00     0.037 A 
ATOM     51  C   UNL A   1      47.111  27.032  29.075  1.00  0.00     0.037 A 
ATOM     52  C   UNL A   1      41.260  29.823  29.625  1.00  0.00     0.049 A 
ATOM     53  C   UNL A   1      46.661  28.401  29.502  1.00  0.00     0.074 A 
ATOM     54  C   UNL A   1      40.957  31.090  30.097  1.00  0.00     0.029 A 
ATOM     55  N   UNL A   1      42.640  29.701  29.668  1.00  0.00    -0.354 N 
ATOM     56  N   UNL A   1      45.444  28.877  29.598  1.00  0.00    -0.248 NA
ATOM     57  C   UNL A   1      47.712  29.361  29.869  1.00  0.00     0.031 C 
ATOM     58  C   UNL A   1      42.156  31.745  30.394  1.00  0.00     0.029 A 
ATOM     59  C   UNL A   1      43.204  30.875  30.140  1.00  0.00     0.049 A 
ATOM     60  H   UNL A   1      43.145  28.899  29.402  1.00  0.00     0.167 HD
ATOM     61  C   UNL A   1      45.581  30.181  30.058  1.00  0.00     0.074 A 
ATOM     62  C   UNL A   1      46.999  30.418  30.231  1.00  0.00     0.031 C 
ATOM     63  C   UNL A   1      44.616  31.097  30.313  1.00  0.00     0.037 A 
BRANCH  50  64
ATOM     64  C   UNL A   1      38.896  29.117  29.100  1.00  0.00     0.057 A 
ATOM     65  C   UNL A   1      38.065  29.022  30.224  1.00  0.00     0.134 A 
ATOM     66  C   UNL A   1      38.316  29.556  27.903  1.00  0.00     0.134 A 
ATOM     67  F   UNL A   1      38.556  28.598  31.398  1.00  0.00    -0.206 F 
ATOM     68  C   UNL A   1      36.704  29.322  30.152  1.00  0.00     0.040 A 
ATOM     69  C   UNL A   1      36.961  29.883  27.825  1.00  0.00     0.040 A 
ATOM     70  F   UNL A   1      39.057  29.676  26.791  1.00  0.00    -0.206 F 
ATOM     71  C   UNL A   1      36.149  29.760  28.951  1.00  0.00     0.006 A 
ENDBRANCH  50  64
BRANCH  51  72
ATOM     72  C   UNL A   1      48.554  26.692  29.027  1.00  0.00     0.057 A 
ATOM     73  C   UNL A   1      49.322  26.972  27.892  1.00  0.00     0.134 A 
ATOM     74  C   UNL A   1      49.200  26.088  30.113  1.00  0.00     0.134 A 
ATOM     75  F   UNL A   1      48.754  27.531  26.814  1.00  0.00    -0.206 F 
ATOM     76  C   UNL A   1      50.680  26.652  27.832  1.00  0.00     0.040 A 
ATOM     77  C   UNL A   1      50.560  25.782  30.075  1.00  0.00     0.040 A 
ATOM     78  F   UNL A   1      48.518  25.800  31.231  1.00  0.00    -0.206 F 
ATOM     79  C   UNL A   1      51.304  26.061  28.929  1.00  0.00     0.006 A 
ENDBRANCH  51  72
BRANCH  63  80
ATOM     80  C   UNL A   1      45.057  32.433  30.832  1.00  0.00     0.057 A 
ATOM     81  C   UNL A   1      45.234  32.670  32.200  1.00  0.00     0.134 A 
ATOM     82  C   UNL A   1      45.351  33.480  29.949  1.00  0.00     0.134 A 
ATOM     83  F   UNL A   1      44.956  31.712  33.097  1.00  0.00    -0.206 F 
ATOM     84  C   UNL A   1      45.675  33.907  32.674  1.00  0.00     0.040 A 
ATOM     85  C   UNL A   1      45.813  34.714  30.409  1.00  0.00     0.040 A 
ATOM     86  F   UNL A   1      45.209  33.315  28.626  1.00  0.00    -0.206 F 
ATOM     87  C   UNL A   1      45.971  34.931  31.776  1.00  0.00     0.006 A 
ENDBRANCH  63  80
ENDBRANCH  37  38
ENDBRANCH  29  32
ENDBRANCH  27  28
ENDBRANCH  26  27
ENDBRANCH  25  26
ENDBRANCH   1  25
TORSDOF 15
ENDMDL
