MODEL 1
REMARK VINA RESULT:      -9.3      0.000      0.000
REMARK SMILES O=C(COc1ccccc1/C=C1\C(=O)Nc2ccccc21)NCCCCCCNC(=O)c1ccc(-c2c3nc(c(-c4c(F)cccc4F)c4ccc([nH]4)c(-c4c(F)cccc4F)c4nc(c(-c5c(F)cccc5F)c5ccc2[nH]5)C=C4)C=C3)cc1
REMARK SMILES IDX 25 1 24 2 23 3 22 4 1 5 2 6 3 8 4 9 5 10 6 11 10 12 7 13
REMARK SMILES IDX 9 14 8 15 11 16 12 17 13 18 21 19 14 20 15 21 16 22 20 23
REMARK SMILES IDX 17 25 19 26 18 27 26 28 27 29 28 30 29 31 30 32 31 34 32 35
REMARK SMILES IDX 33 36 85 37 34 38 84 39 35 40 36 41 37 42 78 43 38 44 83 45
REMARK SMILES IDX 77 46 79 47 39 48 82 49 76 50 75 51 40 53 66 54 49 55 65 56
REMARK SMILES IDX 50 57 53 58 64 59 80 60 51 61 52 62 63 64 81 65 54 66 41 67
REMARK SMILES IDX 42 68 47 69 43 70 44 71 46 72 48 73 45 74 67 75 68 76 73 77
REMARK SMILES IDX 69 78 70 79 72 80 74 81 71 82 55 83 56 84 61 85 57 86 58 87
REMARK SMILES IDX 60 88 62 89 59 90
REMARK H PARENT 22 7 15 24 29 33 79 52 53 63
REMARK Flexibility Score: inf
ROOT
ATOM      1  C   UNL A   1      46.165  22.167  24.262  1.00  0.00     0.002 C 
ENDROOT
BRANCH   1   2
ATOM      2  C   UNL A   1      45.916  23.607  24.721  1.00  0.00     0.021 C 
BRANCH   2   3
ATOM      3  C   UNL A   1      47.097  24.298  25.379  1.00  0.00     0.116 C 
BRANCH   3   4
ATOM      4  N   UNL A   1      46.950  25.717  25.568  1.00  0.00    -0.353 N 
ATOM      5  O   UNL A   1      47.866  26.385  23.557  1.00  0.00    -0.271 OA
ATOM      6  C   UNL A   1      47.163  26.618  24.535  1.00  0.00     0.257 C 
ATOM      7  H   UNL A   1      46.690  26.057  26.455  1.00  0.00     0.163 HD
BRANCH   6   8
ATOM      8  C   UNL A   1      46.405  27.930  24.720  1.00  0.00     0.329 C 
BRANCH   8   9
ATOM      9  O   UNL A   1      46.137  28.007  26.126  1.00  0.00    -0.483 OA
BRANCH   9  10
ATOM     10  C   UNL A   1      44.866  28.417  26.434  1.00  0.00     0.127 A 
ATOM     11  C   UNL A   1      43.824  27.589  25.999  1.00  0.00     0.047 A 
ATOM     12  C   UNL A   1      44.623  29.713  26.939  1.00  0.00     0.017 A 
ATOM     13  C   UNL A   1      42.515  28.059  26.006  1.00  0.00     0.004 A 
ATOM     14  C   UNL A   1      43.315  30.196  26.812  1.00  0.00     0.012 A 
ATOM     15  C   UNL A   1      42.268  29.376  26.375  1.00  0.00     0.001 A 
BRANCH  12  16
ATOM     16  C   UNL A   1      45.705  30.547  27.530  1.00  0.00     0.026 C 
ATOM     17  C   UNL A   1      46.157  31.766  27.162  1.00  0.00     0.050 C 
ATOM     18  C   UNL A   1      45.740  32.634  25.988  1.00  0.00     0.256 C 
ATOM     19  C   UNL A   1      47.204  32.545  27.868  1.00  0.00     0.011 A 
ATOM     20  O   UNL A   1      44.856  32.462  25.167  1.00  0.00    -0.269 OA
ATOM     21  N   UNL A   1      46.581  33.730  26.016  1.00  0.00    -0.321 N 
ATOM     22  C   UNL A   1      47.421  33.702  27.117  1.00  0.00     0.049 A 
ATOM     23  C   UNL A   1      47.894  32.382  29.054  1.00  0.00     0.011 A 
ATOM     24  H   UNL A   1      46.583  34.443  25.337  1.00  0.00     0.170 HD
ATOM     25  C   UNL A   1      48.319  34.689  27.481  1.00  0.00     0.027 A 
ATOM     26  C   UNL A   1      48.802  33.372  29.460  1.00  0.00     0.001 A 
ATOM     27  C   UNL A   1      49.017  34.515  28.675  1.00  0.00     0.002 A 
ENDBRANCH  12  16
ENDBRANCH   9  10
ENDBRANCH   8   9
ENDBRANCH   6   8
ENDBRANCH   3   4
ENDBRANCH   2   3
ENDBRANCH   1   2
BRANCH   1  28
ATOM     28  C   UNL A   1      45.754  21.049  25.226  1.00  0.00     0.002 C 
BRANCH  28  29
ATOM     29  C   UNL A   1      44.753  20.017  24.704  1.00  0.00     0.021 C 
BRANCH  29  30
ATOM     30  C   UNL A   1      44.157  19.066  25.737  1.00  0.00     0.116 C 
BRANCH  30  31
ATOM     31  N   UNL A   1      42.744  18.801  25.539  1.00  0.00    -0.352 N 
ATOM     32  C   UNL A   1      41.656  19.572  25.869  1.00  0.00     0.251 C 
ATOM     33  H   UNL A   1      42.533  17.942  25.104  1.00  0.00     0.163 HD
ATOM     34  O   UNL A   1      40.520  19.142  25.687  1.00  0.00    -0.269 OA
BRANCH  32  35
ATOM     35  C   UNL A   1      41.843  20.906  26.484  1.00  0.00     0.039 A 
ATOM     36  C   UNL A   1      41.736  21.023  27.873  1.00  0.00     0.014 A 
ATOM     37  C   UNL A   1      42.117  22.037  25.709  1.00  0.00     0.014 A 
ATOM     38  C   UNL A   1      41.971  22.254  28.490  1.00  0.00     0.010 A 
ATOM     39  C   UNL A   1      42.413  23.250  26.329  1.00  0.00     0.010 A 
ATOM     40  C   UNL A   1      42.347  23.370  27.725  1.00  0.00    -0.014 A 
BRANCH  40  41
ATOM     41  C   UNL A   1      42.688  24.665  28.370  1.00  0.00     0.031 A 
ATOM     42  C   UNL A   1      41.628  25.712  28.575  1.00  0.00     0.074 A 
ATOM     43  C   UNL A   1      43.967  24.928  28.703  1.00  0.00     0.049 A 
ATOM     44  N   UNL A   1      41.749  26.929  29.042  1.00  0.00    -0.248 NA
ATOM     45  C   UNL A   1      40.257  25.355  28.179  1.00  0.00     0.031 C 
ATOM     46  C   UNL A   1      45.097  24.015  28.515  1.00  0.00     0.029 A 
ATOM     47  N   UNL A   1      44.536  26.047  29.259  1.00  0.00    -0.354 N 
ATOM     48  C   UNL A   1      40.480  27.489  28.974  1.00  0.00     0.074 A 
ATOM     49  C   UNL A   1      39.609  26.493  28.387  1.00  0.00     0.031 C 
ATOM     50  C   UNL A   1      46.218  24.604  28.960  1.00  0.00     0.029 A 
ATOM     51  C   UNL A   1      45.895  25.947  29.432  1.00  0.00     0.049 A 
ATOM     52  H   UNL A   1      44.018  26.847  29.508  1.00  0.00     0.167 HD
ATOM     53  C   UNL A   1      40.073  28.715  29.380  1.00  0.00     0.037 A 
ATOM     54  C   UNL A   1      46.783  26.840  29.909  1.00  0.00     0.037 A 
ATOM     55  C   UNL A   1      40.928  29.690  30.003  1.00  0.00     0.049 A 
ATOM     56  C   UNL A   1      46.301  28.191  30.360  1.00  0.00     0.074 A 
ATOM     57  C   UNL A   1      40.588  30.924  30.529  1.00  0.00     0.029 A 
ATOM     58  N   UNL A   1      42.294  29.541  30.185  1.00  0.00    -0.354 N 
ATOM     59  N   UNL A   1      45.083  28.675  30.363  1.00  0.00    -0.248 NA
ATOM     60  C   UNL A   1      47.317  29.120  30.877  1.00  0.00     0.031 C 
ATOM     61  C   UNL A   1      41.755  31.541  30.991  1.00  0.00     0.029 A 
ATOM     62  C   UNL A   1      42.815  30.672  30.792  1.00  0.00     0.049 A 
ATOM     63  H   UNL A   1      42.816  28.749  29.923  1.00  0.00     0.167 HD
ATOM     64  C   UNL A   1      45.182  29.948  30.911  1.00  0.00     0.074 A 
ATOM     65  C   UNL A   1      46.577  30.158  31.237  1.00  0.00     0.031 C 
ATOM     66  C   UNL A   1      44.203  30.861  31.124  1.00  0.00     0.037 A 
BRANCH  53  67
ATOM     67  C   UNL A   1      38.633  29.079  29.164  1.00  0.00     0.057 A 
ATOM     68  C   UNL A   1      37.695  29.034  30.204  1.00  0.00     0.134 A 
ATOM     69  C   UNL A   1      38.192  29.536  27.915  1.00  0.00     0.134 A 
ATOM     70  F   UNL A   1      38.051  28.597  31.421  1.00  0.00    -0.206 F 
ATOM     71  C   UNL A   1      36.366  29.410  30.003  1.00  0.00     0.040 A 
ATOM     72  C   UNL A   1      36.872  29.938  27.708  1.00  0.00     0.040 A 
ATOM     73  F   UNL A   1      39.042  29.611  26.879  1.00  0.00    -0.206 F 
ATOM     74  C   UNL A   1      35.953  29.872  28.755  1.00  0.00     0.006 A 
ENDBRANCH  53  67
BRANCH  54  75
ATOM     75  C   UNL A   1      48.223  26.488  30.003  1.00  0.00     0.057 A 
ATOM     76  C   UNL A   1      49.102  26.766  28.949  1.00  0.00     0.134 A 
ATOM     77  C   UNL A   1      48.748  25.841  31.128  1.00  0.00     0.134 A 
ATOM     78  F   UNL A   1      48.652  27.365  27.836  1.00  0.00    -0.206 F 
ATOM     79  C   UNL A   1      50.446  26.393  29.000  1.00  0.00     0.040 A 
ATOM     80  C   UNL A   1      50.096  25.484  31.202  1.00  0.00     0.040 A 
ATOM     81  F   UNL A   1      47.959  25.551  32.173  1.00  0.00    -0.206 F 
ATOM     82  C   UNL A   1      50.947  25.752  30.131  1.00  0.00     0.006 A 
ENDBRANCH  54  75
BRANCH  66  83
ATOM     83  C   UNL A   1      44.599  32.153  31.775  1.00  0.00     0.057 A 
ATOM     84  C   UNL A   1      44.772  32.259  33.160  1.00  0.00     0.134 A 
ATOM     85  C   UNL A   1      44.849  33.293  31.000  1.00  0.00     0.134 A 
ATOM     86  F   UNL A   1      44.535  31.207  33.958  1.00  0.00    -0.206 F 
ATOM     87  C   UNL A   1      45.159  33.461  33.755  1.00  0.00     0.040 A 
ATOM     88  C   UNL A   1      45.261  34.493  31.581  1.00  0.00     0.040 A 
ATOM     89  F   UNL A   1      44.709  33.255  29.667  1.00  0.00    -0.206 F 
ATOM     90  C   UNL A   1      45.413  34.580  32.964  1.00  0.00     0.006 A 
ENDBRANCH  66  83
ENDBRANCH  40  41
ENDBRANCH  32  35
ENDBRANCH  30  31
ENDBRANCH  29  30
ENDBRANCH  28  29
ENDBRANCH   1  28
TORSDOF 16
ENDMDL
MODEL 2
REMARK VINA RESULT:      -9.3      6.629     12.906
REMARK SMILES O=C(COc1ccccc1/C=C1\C(=O)Nc2ccccc21)NCCCCCCNC(=O)c1ccc(-c2c3nc(c(-c4c(F)cccc4F)c4ccc([nH]4)c(-c4c(F)cccc4F)c4nc(c(-c5c(F)cccc5F)c5ccc2[nH]5)C=C4)C=C3)cc1
REMARK SMILES IDX 25 1 24 2 23 3 22 4 1 5 2 6 3 8 4 9 5 10 6 11 10 12 7 13
REMARK SMILES IDX 9 14 8 15 11 16 12 17 13 18 21 19 14 20 15 21 16 22 20 23
REMARK SMILES IDX 17 25 19 26 18 27 26 28 27 29 28 30 29 31 30 32 31 34 32 35
REMARK SMILES IDX 33 36 85 37 34 38 84 39 35 40 36 41 37 42 78 43 38 44 83 45
REMARK SMILES IDX 77 46 79 47 39 48 82 49 76 50 75 51 40 53 66 54 49 55 65 56
REMARK SMILES IDX 50 57 53 58 64 59 80 60 51 61 52 62 63 64 81 65 54 66 41 67
REMARK SMILES IDX 42 68 47 69 43 70 44 71 46 72 48 73 45 74 67 75 68 76 73 77
REMARK SMILES IDX 69 78 70 79 72 80 74 81 71 82 55 83 56 84 61 85 57 86 58 87
REMARK SMILES IDX 60 88 62 89 59 90
REMARK H PARENT 22 7 15 24 29 33 79 52 53 63
REMARK Flexibility Score: inf
ROOT
ATOM      1  C   UNL A   1      35.149  32.975  28.091  1.00  0.00     0.002 C 
ENDROOT
BRANCH   1   2
ATOM      2  C   UNL A   1      34.899  31.472  27.940  1.00  0.00     0.021 C 
BRANCH   2   3
ATOM      3  C   UNL A   1      33.479  31.078  27.574  1.00  0.00     0.116 C 
BRANCH   3   4
ATOM      4  N   UNL A   1      33.201  29.667  27.623  1.00  0.00    -0.353 N 
ATOM      5  O   UNL A   1      31.679  29.601  25.889  1.00  0.00    -0.271 OA
ATOM      6  C   UNL A   1      32.475  29.030  26.626  1.00  0.00     0.257 C 
ATOM      7  H   UNL A   1      33.537  29.139  28.383  1.00  0.00     0.163 HD
BRANCH   6   8
ATOM      8  C   UNL A   1      32.792  27.541  26.515  1.00  0.00     0.329 C 
BRANCH   8   9
ATOM      9  O   UNL A   1      33.705  27.439  25.415  1.00  0.00    -0.483 OA
BRANCH   9  10
ATOM     10  C   UNL A   1      33.652  26.242  24.749  1.00  0.00     0.127 A 
ATOM     11  C   UNL A   1      34.433  25.205  25.273  1.00  0.00     0.047 A 
ATOM     12  C   UNL A   1      33.040  26.144  23.480  1.00  0.00     0.017 A 
ATOM     13  C   UNL A   1      34.669  24.064  24.514  1.00  0.00     0.004 A 
ATOM     14  C   UNL A   1      33.404  25.041  22.698  1.00  0.00     0.012 A 
ATOM     15  C   UNL A   1      34.187  24.001  23.213  1.00  0.00     0.001 A 
BRANCH  12  16
ATOM     16  C   UNL A   1      32.099  27.180  22.973  1.00  0.00     0.026 C 
ATOM     17  C   UNL A   1      30.780  27.343  23.215  1.00  0.00     0.050 C 
ATOM     18  C   UNL A   1      29.837  26.479  24.031  1.00  0.00     0.256 C 
ATOM     19  C   UNL A   1      29.944  28.460  22.708  1.00  0.00     0.011 A 
ATOM     20  O   UNL A   1      30.072  25.495  24.710  1.00  0.00    -0.269 OA
ATOM     21  N   UNL A   1      28.584  27.040  23.872  1.00  0.00    -0.321 N 
ATOM     22  C   UNL A   1      28.637  28.205  23.125  1.00  0.00     0.049 A 
ATOM     23  C   UNL A   1      30.208  29.628  22.020  1.00  0.00     0.011 A 
ATOM     24  H   UNL A   1      27.755  26.658  24.245  1.00  0.00     0.170 HD
ATOM     25  C   UNL A   1      27.574  29.049  22.858  1.00  0.00     0.027 A 
ATOM     26  C   UNL A   1      29.155  30.514  21.744  1.00  0.00     0.001 A 
ATOM     27  C   UNL A   1      27.845  30.222  22.156  1.00  0.00     0.002 A 
ENDBRANCH  12  16
ENDBRANCH   9  10
ENDBRANCH   8   9
ENDBRANCH   6   8
ENDBRANCH   3   4
ENDBRANCH   2   3
ENDBRANCH   1   2
BRANCH   1  28
ATOM     28  C   UNL A   1      34.480  33.675  29.280  1.00  0.00     0.002 C 
BRANCH  28  29
ATOM     29  C   UNL A   1      33.283  34.576  28.969  1.00  0.00     0.021 C 
BRANCH  29  30
ATOM     30  C   UNL A   1      33.345  35.998  29.517  1.00  0.00     0.116 C 
BRANCH  30  31
ATOM     31  N   UNL A   1      32.433  36.237  30.622  1.00  0.00    -0.352 N 
ATOM     32  C   UNL A   1      32.537  35.855  31.937  1.00  0.00     0.251 C 
ATOM     33  H   UNL A   1      31.621  36.746  30.395  1.00  0.00     0.163 HD
ATOM     34  O   UNL A   1      31.618  36.088  32.719  1.00  0.00    -0.269 OA
BRANCH  32  35
ATOM     35  C   UNL A   1      33.735  35.126  32.414  1.00  0.00     0.039 A 
ATOM     36  C   UNL A   1      33.579  33.815  32.876  1.00  0.00     0.014 A 
ATOM     37  C   UNL A   1      35.001  35.718  32.412  1.00  0.00     0.014 A 
ATOM     38  C   UNL A   1      34.697  33.078  33.271  1.00  0.00     0.010 A 
ATOM     39  C   UNL A   1      36.123  34.962  32.746  1.00  0.00     0.010 A 
ATOM     40  C   UNL A   1      35.984  33.633  33.175  1.00  0.00    -0.014 A 
BRANCH  40  41
ATOM     41  C   UNL A   1      37.193  32.836  33.505  1.00  0.00     0.031 A 
ATOM     42  C   UNL A   1      37.952  33.098  34.776  1.00  0.00     0.074 A 
ATOM     43  C   UNL A   1      37.652  31.924  32.624  1.00  0.00     0.049 A 
ATOM     44  N   UNL A   1      39.071  32.565  35.197  1.00  0.00    -0.248 NA
ATOM     45  C   UNL A   1      37.394  34.114  35.683  1.00  0.00     0.031 C 
ATOM     46  C   UNL A   1      37.034  31.605  31.335  1.00  0.00     0.029 A 
ATOM     47  N   UNL A   1      38.754  31.106  32.674  1.00  0.00    -0.354 N 
ATOM     48  C   UNL A   1      39.363  33.194  36.400  1.00  0.00     0.074 A 
ATOM     49  C   UNL A   1      38.323  34.175  36.627  1.00  0.00     0.031 C 
ATOM     50  C   UNL A   1      37.756  30.652  30.724  1.00  0.00     0.029 A 
ATOM     51  C   UNL A   1      38.906  30.317  31.559  1.00  0.00     0.049 A 
ATOM     52  H   UNL A   1      39.376  31.087  33.436  1.00  0.00     0.167 HD
ATOM     53  C   UNL A   1      40.394  32.963  37.247  1.00  0.00     0.037 A 
ATOM     54  C   UNL A   1      39.868  29.430  31.242  1.00  0.00     0.037 A 
ATOM     55  C   UNL A   1      41.403  31.958  37.044  1.00  0.00     0.049 A 
ATOM     56  C   UNL A   1      40.995  29.188  32.206  1.00  0.00     0.074 A 
ATOM     57  C   UNL A   1      42.435  31.590  37.889  1.00  0.00     0.029 A 
ATOM     58  N   UNL A   1      41.508  31.161  35.915  1.00  0.00    -0.354 N 
ATOM     59  N   UNL A   1      41.213  29.734  33.378  1.00  0.00    -0.248 NA
ATOM     60  C   UNL A   1      42.011  28.203  31.806  1.00  0.00     0.031 C 
ATOM     61  C   UNL A   1      43.190  30.599  37.253  1.00  0.00     0.029 A 
ATOM     62  C   UNL A   1      42.602  30.320  36.031  1.00  0.00     0.049 A 
ATOM     63  H   UNL A   1      40.895  31.188  35.145  1.00  0.00     0.167 HD
ATOM     64  C   UNL A   1      42.368  29.137  33.867  1.00  0.00     0.074 A 
ATOM     65  C   UNL A   1      42.800  28.180  32.870  1.00  0.00     0.031 C 
ATOM     66  C   UNL A   1      43.013  29.362  35.038  1.00  0.00     0.037 A 
BRANCH  53  67
ATOM     67  C   UNL A   1      40.486  33.813  38.481  1.00  0.00     0.057 A 
ATOM     68  C   UNL A   1      39.812  33.478  39.662  1.00  0.00     0.134 A 
ATOM     69  C   UNL A   1      41.306  34.949  38.504  1.00  0.00     0.134 A 
ATOM     70  F   UNL A   1      39.004  32.408  39.703  1.00  0.00    -0.206 F 
ATOM     71  C   UNL A   1      39.935  34.254  40.816  1.00  0.00     0.040 A 
ATOM     72  C   UNL A   1      41.456  35.719  39.657  1.00  0.00     0.040 A 
ATOM     73  F   UNL A   1      41.986  35.321  37.407  1.00  0.00    -0.206 F 
ATOM     74  C   UNL A   1      40.765  35.373  40.818  1.00  0.00     0.006 A 
ENDBRANCH  53  67
BRANCH  54  75
ATOM     75  C   UNL A   1      39.806  28.687  29.957  1.00  0.00     0.057 A 
ATOM     76  C   UNL A   1      39.136  27.461  29.866  1.00  0.00     0.134 A 
ATOM     77  C   UNL A   1      40.437  29.165  28.803  1.00  0.00     0.134 A 
ATOM     78  F   UNL A   1      38.531  26.942  30.945  1.00  0.00    -0.206 F 
ATOM     79  C   UNL A   1      39.115  26.725  28.680  1.00  0.00     0.040 A 
ATOM     80  C   UNL A   1      40.402  28.452  27.603  1.00  0.00     0.040 A 
ATOM     81  F   UNL A   1      41.091  30.336  28.823  1.00  0.00    -0.206 F 
ATOM     82  C   UNL A   1      39.747  27.223  27.543  1.00  0.00     0.006 A 
ENDBRANCH  54  75
BRANCH  66  83
ATOM     83  C   UNL A   1      44.229  28.532  35.323  1.00  0.00     0.057 A 
ATOM     84  C   UNL A   1      44.142  27.291  35.963  1.00  0.00     0.134 A 
ATOM     85  C   UNL A   1      45.497  28.966  34.914  1.00  0.00     0.134 A 
ATOM     86  F   UNL A   1      42.959  26.828  36.392  1.00  0.00    -0.206 F 
ATOM     87  C   UNL A   1      45.279  26.517  36.207  1.00  0.00     0.040 A 
ATOM     88  C   UNL A   1      46.636  28.190  35.130  1.00  0.00     0.040 A 
ATOM     89  F   UNL A   1      45.646  30.142  34.287  1.00  0.00    -0.206 F 
ATOM     90  C   UNL A   1      46.529  26.963  35.782  1.00  0.00     0.006 A 
ENDBRANCH  66  83
ENDBRANCH  40  41
ENDBRANCH  32  35
ENDBRANCH  30  31
ENDBRANCH  29  30
ENDBRANCH  28  29
ENDBRANCH   1  28
TORSDOF 16
ENDMDL
MODEL 3
REMARK VINA RESULT:      -9.2      5.013      9.131
REMARK SMILES O=C(COc1ccccc1/C=C1\C(=O)Nc2ccccc21)NCCCCCCNC(=O)c1ccc(-c2c3nc(c(-c4c(F)cccc4F)c4ccc([nH]4)c(-c4c(F)cccc4F)c4nc(c(-c5c(F)cccc5F)c5ccc2[nH]5)C=C4)C=C3)cc1
REMARK SMILES IDX 25 1 24 2 23 3 22 4 1 5 2 6 3 8 4 9 5 10 6 11 10 12 7 13
REMARK SMILES IDX 9 14 8 15 11 16 12 17 13 18 21 19 14 20 15 21 16 22 20 23
REMARK SMILES IDX 17 25 19 26 18 27 26 28 27 29 28 30 29 31 30 32 31 34 32 35
REMARK SMILES IDX 33 36 85 37 34 38 84 39 35 40 36 41 37 42 78 43 38 44 83 45
REMARK SMILES IDX 77 46 79 47 39 48 82 49 76 50 75 51 40 53 66 54 49 55 65 56
REMARK SMILES IDX 50 57 53 58 64 59 80 60 51 61 52 62 63 64 81 65 54 66 41 67
REMARK SMILES IDX 42 68 47 69 43 70 44 71 46 72 48 73 45 74 67 75 68 76 73 77
REMARK SMILES IDX 69 78 70 79 72 80 74 81 71 82 55 83 56 84 61 85 57 86 58 87
REMARK SMILES IDX 60 88 62 89 59 90
REMARK H PARENT 22 7 15 24 29 33 79 52 53 63
REMARK Flexibility Score: inf
ROOT
ATOM      1  C   UNL A   1      36.020  21.855  24.247  1.00  0.00     0.002 C 
ENDROOT
BRANCH   1   2
ATOM      2  C   UNL A   1      36.539  23.191  24.787  1.00  0.00     0.021 C 
BRANCH   2   3
ATOM      3  C   UNL A   1      35.488  24.108  25.386  1.00  0.00     0.116 C 
BRANCH   3   4
ATOM      4  N   UNL A   1      34.671  24.811  24.433  1.00  0.00    -0.353 N 
ATOM      5  O   UNL A   1      33.786  26.369  25.889  1.00  0.00    -0.271 OA
ATOM      6  C   UNL A   1      34.055  26.014  24.746  1.00  0.00     0.257 C 
ATOM      7  H   UNL A   1      34.547  24.429  23.534  1.00  0.00     0.163 HD
BRANCH   6   8
ATOM      8  C   UNL A   1      33.772  26.878  23.519  1.00  0.00     0.329 C 
BRANCH   8   9
ATOM      9  O   UNL A   1      32.971  26.054  22.663  1.00  0.00    -0.483 OA
BRANCH   9  10
ATOM     10  C   UNL A   1      31.621  26.179  22.866  1.00  0.00     0.127 A 
ATOM     11  C   UNL A   1      31.103  27.478  22.808  1.00  0.00     0.047 A 
ATOM     12  C   UNL A   1      30.855  25.093  23.345  1.00  0.00     0.017 A 
ATOM     13  C   UNL A   1      29.821  27.734  23.282  1.00  0.00     0.004 A 
ATOM     14  C   UNL A   1      29.623  25.411  23.928  1.00  0.00     0.012 A 
ATOM     15  C   UNL A   1      29.098  26.708  23.877  1.00  0.00     0.001 A 
BRANCH  12  16
ATOM     16  C   UNL A   1      31.347  23.690  23.283  1.00  0.00     0.026 C 
ATOM     17  C   UNL A   1      31.712  22.855  24.281  1.00  0.00     0.050 C 
ATOM     18  C   UNL A   1      31.793  23.119  25.774  1.00  0.00     0.256 C 
ATOM     19  C   UNL A   1      32.126  21.441  24.112  1.00  0.00     0.011 A 
ATOM     20  O   UNL A   1      31.475  24.108  26.410  1.00  0.00    -0.269 OA
ATOM     21  N   UNL A   1      32.314  21.965  26.328  1.00  0.00    -0.321 N 
ATOM     22  C   UNL A   1      32.490  20.974  25.376  1.00  0.00     0.049 A 
ATOM     23  C   UNL A   1      32.153  20.563  23.045  1.00  0.00     0.011 A 
ATOM     24  H   UNL A   1      32.534  21.860  27.283  1.00  0.00     0.170 HD
ATOM     25  C   UNL A   1      32.911  19.679  25.618  1.00  0.00     0.027 A 
ATOM     26  C   UNL A   1      32.562  19.238  23.258  1.00  0.00     0.001 A 
ATOM     27  C   UNL A   1      32.944  18.801  24.535  1.00  0.00     0.002 A 
ENDBRANCH  12  16
ENDBRANCH   9  10
ENDBRANCH   8   9
ENDBRANCH   6   8
ENDBRANCH   3   4
ENDBRANCH   2   3
ENDBRANCH   1   2
BRANCH   1  28
ATOM     28  C   UNL A   1      36.396  20.594  25.034  1.00  0.00     0.002 C 
BRANCH  28  29
ATOM     29  C   UNL A   1      37.748  19.955  24.714  1.00  0.00     0.021 C 
BRANCH  29  30
ATOM     30  C   UNL A   1      38.872  20.208  25.713  1.00  0.00     0.116 C 
BRANCH  30  31
ATOM     31  N   UNL A   1      39.867  19.151  25.751  1.00  0.00    -0.352 N 
ATOM     32  C   UNL A   1      41.208  19.225  26.042  1.00  0.00     0.251 C 
ATOM     33  H   UNL A   1      39.533  18.250  25.537  1.00  0.00     0.163 HD
ATOM     34  O   UNL A   1      41.913  18.223  25.950  1.00  0.00    -0.269 OA
BRANCH  32  35
ATOM     35  C   UNL A   1      41.821  20.516  26.428  1.00  0.00     0.039 A 
ATOM     36  C   UNL A   1      42.274  21.369  25.416  1.00  0.00     0.014 A 
ATOM     37  C   UNL A   1      41.957  20.891  27.767  1.00  0.00     0.014 A 
ATOM     38  C   UNL A   1      42.797  22.622  25.742  1.00  0.00     0.010 A 
ATOM     39  C   UNL A   1      42.420  22.166  28.090  1.00  0.00     0.010 A 
ATOM     40  C   UNL A   1      42.841  23.046  27.081  1.00  0.00    -0.014 A 
BRANCH  40  41
ATOM     41  C   UNL A   1      43.311  24.408  27.442  1.00  0.00     0.031 A 
ATOM     42  C   UNL A   1      42.328  25.462  27.869  1.00  0.00     0.074 A 
ATOM     43  C   UNL A   1      44.617  24.719  27.314  1.00  0.00     0.049 A 
ATOM     44  N   UNL A   1      42.536  26.726  28.143  1.00  0.00    -0.248 NA
ATOM     45  C   UNL A   1      40.919  25.050  27.977  1.00  0.00     0.031 C 
ATOM     46  C   UNL A   1      45.667  23.801  26.867  1.00  0.00     0.029 A 
ATOM     47  N   UNL A   1      45.282  25.899  27.537  1.00  0.00    -0.354 N 
ATOM     48  C   UNL A   1      41.288  27.262  28.431  1.00  0.00     0.074 A 
ATOM     49  C   UNL A   1      40.321  26.198  28.264  1.00  0.00     0.031 C 
ATOM     50  C   UNL A   1      46.844  24.447  26.862  1.00  0.00     0.029 A 
ATOM     51  C   UNL A   1      46.629  25.831  27.271  1.00  0.00     0.049 A 
ATOM     52  H   UNL A   1      44.837  26.717  27.856  1.00  0.00     0.167 HD
ATOM     53  C   UNL A   1      40.978  28.523  28.817  1.00  0.00     0.037 A 
ATOM     54  C   UNL A   1      47.582  26.781  27.340  1.00  0.00     0.037 A 
ATOM     55  C   UNL A   1      41.943  29.570  29.025  1.00  0.00     0.049 A 
ATOM     56  C   UNL A   1      47.209  28.169  27.779  1.00  0.00     0.074 A 
ATOM     57  C   UNL A   1      41.734  30.852  29.501  1.00  0.00     0.029 A 
ATOM     58  N   UNL A   1      43.301  29.454  28.770  1.00  0.00    -0.354 N 
ATOM     59  N   UNL A   1      46.035  28.640  28.126  1.00  0.00    -0.248 NA
ATOM     60  C   UNL A   1      48.294  29.160  27.841  1.00  0.00     0.031 C 
ATOM     61  C   UNL A   1      42.959  31.527  29.494  1.00  0.00     0.029 A 
ATOM     62  C   UNL A   1      43.937  30.651  29.055  1.00  0.00     0.049 A 
ATOM     63  H   UNL A   1      43.746  28.643  28.437  1.00  0.00     0.167 HD
ATOM     64  C   UNL A   1      46.247  29.967  28.477  1.00  0.00     0.074 A 
ATOM     65  C   UNL A   1      47.662  30.225  28.311  1.00  0.00     0.031 C 
ATOM     66  C   UNL A   1      45.348  30.890  28.899  1.00  0.00     0.037 A 
BRANCH  53  67
ATOM     67  C   UNL A   1      39.530  28.847  29.042  1.00  0.00     0.057 A 
ATOM     68  C   UNL A   1      38.933  28.730  30.304  1.00  0.00     0.134 A 
ATOM     69  C   UNL A   1      38.738  29.336  27.995  1.00  0.00     0.134 A 
ATOM     70  F   UNL A   1      39.634  28.258  31.346  1.00  0.00    -0.206 F 
ATOM     71  C   UNL A   1      37.595  29.070  30.512  1.00  0.00     0.040 A 
ATOM     72  C   UNL A   1      37.407  29.702  28.196  1.00  0.00     0.040 A 
ATOM     73  F   UNL A   1      39.250  29.480  26.763  1.00  0.00    -0.206 F 
ATOM     74  C   UNL A   1      36.830  29.565  29.458  1.00  0.00     0.006 A 
ENDBRANCH  53  67
BRANCH  54  75
ATOM     75  C   UNL A   1      48.990  26.454  26.999  1.00  0.00     0.057 A 
ATOM     76  C   UNL A   1      49.892  26.040  27.987  1.00  0.00     0.134 A 
ATOM     77  C   UNL A   1      49.474  26.574  25.691  1.00  0.00     0.134 A 
ATOM     78  F   UNL A   1      49.491  25.928  29.261  1.00  0.00    -0.206 F 
ATOM     79  C   UNL A   1      51.231  25.781  27.691  1.00  0.00     0.040 A 
ATOM     80  C   UNL A   1      50.806  26.294  25.377  1.00  0.00     0.040 A 
ATOM     81  F   UNL A   1      48.659  26.961  24.699  1.00  0.00    -0.206 F 
ATOM     82  C   UNL A   1      51.690  25.905  26.381  1.00  0.00     0.006 A 
ENDBRANCH  54  75
BRANCH  66  83
ATOM     83  C   UNL A   1      45.873  32.250  29.249  1.00  0.00     0.057 A 
ATOM     84  C   UNL A   1      45.886  33.298  28.322  1.00  0.00     0.134 A 
ATOM     85  C   UNL A   1      46.334  32.522  30.544  1.00  0.00     0.134 A 
ATOM     86  F   UNL A   1      45.471  33.097  27.063  1.00  0.00    -0.206 F 
ATOM     87  C   UNL A   1      46.359  34.566  28.664  1.00  0.00     0.040 A 
ATOM     88  C   UNL A   1      46.786  33.792  30.904  1.00  0.00     0.040 A 
ATOM     89  F   UNL A   1      46.340  31.563  31.482  1.00  0.00    -0.206 F 
ATOM     90  C   UNL A   1      46.803  34.818  29.960  1.00  0.00     0.006 A 
ENDBRANCH  66  83
ENDBRANCH  40  41
ENDBRANCH  32  35
ENDBRANCH  30  31
ENDBRANCH  29  30
ENDBRANCH  28  29
ENDBRANCH   1  28
TORSDOF 16
ENDMDL
