MODEL 1
REMARK VINA RESULT:     -11.5      0.000      0.000
REMARK SMILES O=C(CCc1cccnc1)Nc1cccc(F)c1C(=O)NCCCCCCNC(=O)c1ccc(-c2c3nc(c(-c4c(F)cccc4F)c4ccc([nH]4)c(-c4c(F)cccc4F)c4nc(c(-c5c(F)cccc5F)c5ccc2[nH]5)C=C4)C=C3)cc1
REMARK SMILES IDX 23 1 22 2 21 3 19 4 20 5 18 7 12 8 13 9 14 10 16 11 15 12
REMARK SMILES IDX 17 13 11 14 1 15 2 16 3 18 4 19 5 20 6 21 10 22 7 23 9 24
REMARK SMILES IDX 8 25 24 26 25 27 26 28 27 29 28 30 29 31 30 33 31 34 32 35
REMARK SMILES IDX 84 36 33 37 83 38 34 39 35 40 36 41 77 42 37 43 82 44 76 45
REMARK SMILES IDX 78 46 38 47 81 48 75 49 74 50 39 52 65 53 48 54 64 55 49 56
REMARK SMILES IDX 52 57 63 58 79 59 50 60 51 61 62 63 80 64 53 65 40 66 41 67
REMARK SMILES IDX 46 68 42 69 43 70 45 71 47 72 44 73 66 74 67 75 72 76 68 77
REMARK SMILES IDX 69 78 71 79 73 80 70 81 54 82 55 83 60 84 56 85 57 86 59 87
REMARK SMILES IDX 61 88 58 89
REMARK H PARENT 21 6 11 17 28 32 78 51 52 62
REMARK Flexibility Score: inf
ROOT
ATOM      1  C   UNL A   1      36.605  22.716  23.178  1.00  0.00     0.021 C 
ENDROOT
BRANCH   1   2
ATOM      2  C   UNL A   1      35.103  22.999  23.152  1.00  0.00     0.116 C 
BRANCH   2   3
ATOM      3  N   UNL A   1      34.725  24.353  23.508  1.00  0.00    -0.352 N 
ATOM      4  C   UNL A   1      34.218  24.881  24.678  1.00  0.00     0.256 C 
ATOM      5  O   UNL A   1      34.086  26.107  24.728  1.00  0.00    -0.269 OA
ATOM      6  H   UNL A   1      34.851  25.013  22.788  1.00  0.00     0.163 HD
BRANCH   4   7
ATOM      7  C   UNL A   1      33.748  24.067  25.838  1.00  0.00     0.099 A 
ATOM      8  C   UNL A   1      32.363  23.994  26.146  1.00  0.00     0.056 A 
ATOM      9  C   UNL A   1      31.932  23.105  27.148  1.00  0.00     0.027 A 
ATOM     10  C   UNL A   1      32.840  22.365  27.901  1.00  0.00     0.005 A 
ATOM     11  C   UNL A   1      34.638  23.414  26.698  1.00  0.00     0.138 A 
ATOM     12  C   UNL A   1      34.197  22.549  27.699  1.00  0.00     0.040 A 
ATOM     13  F   UNL A   1      35.959  23.639  26.640  1.00  0.00    -0.206 F 
BRANCH   8  14
ATOM     14  N   UNL A   1      31.415  24.808  25.462  1.00  0.00    -0.325 N 
ATOM     15  O   UNL A   1      30.729  23.332  23.820  1.00  0.00    -0.275 OA
ATOM     16  C   UNL A   1      30.731  24.462  24.314  1.00  0.00     0.224 C 
ATOM     17  H   UNL A   1      31.231  25.698  25.842  1.00  0.00     0.169 HD
BRANCH  16  18
ATOM     18  C   UNL A   1      30.007  25.576  23.566  1.00  0.00     0.105 C 
BRANCH  18  19
ATOM     19  C   UNL A   1      30.198  27.016  24.028  1.00  0.00     0.047 C 
BRANCH  19  20
ATOM     20  C   UNL A   1      29.595  28.104  23.177  1.00  0.00    -0.029 A 
ATOM     21  C   UNL A   1      28.223  28.362  23.272  1.00  0.00     0.007 A 
ATOM     22  C   UNL A   1      30.325  28.895  22.292  1.00  0.00     0.114 A 
ATOM     23  C   UNL A   1      27.662  29.414  22.556  1.00  0.00     0.020 A 
ATOM     24  N   UNL A   1      29.807  29.925  21.587  1.00  0.00    -0.264 NA
ATOM     25  C   UNL A   1      28.491  30.169  21.747  1.00  0.00     0.111 A 
ENDBRANCH  19  20
ENDBRANCH  18  19
ENDBRANCH  16  18
ENDBRANCH   8  14
ENDBRANCH   4   7
ENDBRANCH   2   3
ENDBRANCH   1   2
BRANCH   1  26
ATOM     26  C   UNL A   1      37.169  21.985  24.399  1.00  0.00     0.002 C 
BRANCH  26  27
ATOM     27  C   UNL A   1      36.781  20.518  24.582  1.00  0.00     0.002 C 
BRANCH  27  28
ATOM     28  C   UNL A   1      37.913  19.534  24.886  1.00  0.00     0.021 C 
BRANCH  28  29
ATOM     29  C   UNL A   1      39.025  20.049  25.792  1.00  0.00     0.116 C 
BRANCH  29  30
ATOM     30  N   UNL A   1      40.213  19.215  25.768  1.00  0.00    -0.352 N 
ATOM     31  C   UNL A   1      41.518  19.537  26.053  1.00  0.00     0.251 C 
ATOM     32  H   UNL A   1      40.061  18.277  25.508  1.00  0.00     0.163 HD
ATOM     33  O   UNL A   1      42.408  18.720  25.840  1.00  0.00    -0.269 OA
BRANCH  31  34
ATOM     34  C   UNL A   1      41.866  20.871  26.597  1.00  0.00     0.039 A 
ATOM     35  C   UNL A   1      42.215  21.889  25.704  1.00  0.00     0.014 A 
ATOM     36  C   UNL A   1      41.894  21.116  27.973  1.00  0.00     0.014 A 
ATOM     37  C   UNL A   1      42.553  23.156  26.187  1.00  0.00     0.010 A 
ATOM     38  C   UNL A   1      42.154  22.400  28.449  1.00  0.00     0.010 A 
ATOM     39  C   UNL A   1      42.508  23.429  27.563  1.00  0.00    -0.014 A 
BRANCH  39  40
ATOM     40  C   UNL A   1      42.871  24.770  28.091  1.00  0.00     0.031 A 
ATOM     41  C   UNL A   1      41.805  25.811  28.306  1.00  0.00     0.074 A 
ATOM     42  C   UNL A   1      44.160  25.064  28.351  1.00  0.00     0.049 A 
ATOM     43  N   UNL A   1      41.927  27.044  28.729  1.00  0.00    -0.248 NA
ATOM     44  C   UNL A   1      40.423  25.425  27.980  1.00  0.00     0.031 C 
ATOM     45  C   UNL A   1      45.291  24.157  28.151  1.00  0.00     0.029 A 
ATOM     46  N   UNL A   1      44.736  26.209  28.843  1.00  0.00    -0.354 N 
ATOM     47  C   UNL A   1      40.644  27.579  28.711  1.00  0.00     0.074 A 
ATOM     48  C   UNL A   1      39.768  26.560  28.177  1.00  0.00     0.031 C 
ATOM     49  C   UNL A   1      46.419  24.767  28.549  1.00  0.00     0.029 A 
ATOM     50  C   UNL A   1      46.098  26.118  28.999  1.00  0.00     0.049 A 
ATOM     51  H   UNL A   1      44.222  27.019  29.063  1.00  0.00     0.167 HD
ATOM     52  C   UNL A   1      40.229  28.797  29.129  1.00  0.00     0.037 A 
ATOM     53  C   UNL A   1      46.988  27.020  29.459  1.00  0.00     0.037 A 
ATOM     54  C   UNL A   1      41.096  29.799  29.688  1.00  0.00     0.049 A 
ATOM     55  C   UNL A   1      46.502  28.366  29.919  1.00  0.00     0.074 A 
ATOM     56  C   UNL A   1      40.764  31.052  30.174  1.00  0.00     0.029 A 
ATOM     57  N   UNL A   1      42.468  29.662  29.839  1.00  0.00    -0.354 N 
ATOM     58  N   UNL A   1      45.281  28.842  29.935  1.00  0.00    -0.248 NA
ATOM     59  C   UNL A   1      47.515  29.296  30.439  1.00  0.00     0.031 C 
ATOM     60  C   UNL A   1      41.939  31.690  30.581  1.00  0.00     0.029 A 
ATOM     61  C   UNL A   1      42.996  30.812  30.403  1.00  0.00     0.049 A 
ATOM     62  H   UNL A   1      42.989  28.867  29.584  1.00  0.00     0.167 HD
ATOM     63  C   UNL A   1      45.372  30.109  30.497  1.00  0.00     0.074 A 
ATOM     64  C   UNL A   1      46.768  30.325  30.816  1.00  0.00     0.031 C 
ATOM     65  C   UNL A   1      44.386  31.009  30.731  1.00  0.00     0.037 A 
BRANCH  52  66
ATOM     66  C   UNL A   1      38.764  29.112  29.019  1.00  0.00     0.057 A 
ATOM     67  C   UNL A   1      38.217  29.570  27.813  1.00  0.00     0.134 A 
ATOM     68  C   UNL A   1      37.905  29.021  30.123  1.00  0.00     0.134 A 
ATOM     69  F   UNL A   1      38.983  29.687  26.718  1.00  0.00    -0.206 F 
ATOM     70  C   UNL A   1      36.875  29.938  27.713  1.00  0.00     0.040 A 
ATOM     71  C   UNL A   1      36.554  29.358  30.027  1.00  0.00     0.040 A 
ATOM     72  F   UNL A   1      38.360  28.577  31.304  1.00  0.00    -0.206 F 
ATOM     73  C   UNL A   1      36.037  29.829  28.821  1.00  0.00     0.006 A 
ENDBRANCH  52  66
BRANCH  53  74
ATOM     74  C   UNL A   1      48.425  26.653  29.554  1.00  0.00     0.057 A 
ATOM     75  C   UNL A   1      49.329  26.953  28.529  1.00  0.00     0.134 A 
ATOM     76  C   UNL A   1      48.922  25.968  30.670  1.00  0.00     0.134 A 
ATOM     77  F   UNL A   1      48.914  27.600  27.428  1.00  0.00    -0.206 F 
ATOM     78  C   UNL A   1      50.670  26.574  28.602  1.00  0.00     0.040 A 
ATOM     79  C   UNL A   1      50.266  25.606  30.768  1.00  0.00     0.040 A 
ATOM     80  F   UNL A   1      48.109  25.667  31.694  1.00  0.00    -0.206 F 
ATOM     81  C   UNL A   1      51.143  25.903  29.727  1.00  0.00     0.006 A 
ENDBRANCH  53  74
BRANCH  65  82
ATOM     82  C   UNL A   1      44.761  32.296  31.408  1.00  0.00     0.057 A 
ATOM     83  C   UNL A   1      44.714  32.401  32.805  1.00  0.00     0.134 A 
ATOM     84  C   UNL A   1      45.102  33.445  30.685  1.00  0.00     0.134 A 
ATOM     85  F   UNL A   1      44.383  31.341  33.557  1.00  0.00    -0.206 F 
ATOM     86  C   UNL A   1      44.979  33.606  33.457  1.00  0.00     0.040 A 
ATOM     87  C   UNL A   1      45.398  34.649  31.327  1.00  0.00     0.040 A 
ATOM     88  F   UNL A   1      45.173  33.410  29.345  1.00  0.00    -0.206 F 
ATOM     89  C   UNL A   1      45.328  34.733  32.717  1.00  0.00     0.006 A 
ENDBRANCH  65  82
ENDBRANCH  39  40
ENDBRANCH  31  34
ENDBRANCH  29  30
ENDBRANCH  28  29
ENDBRANCH  27  28
ENDBRANCH  26  27
ENDBRANCH   1  26
TORSDOF 17
ENDMDL
MODEL 2
REMARK VINA RESULT:     -11.5      1.496      2.308
REMARK SMILES O=C(CCc1cccnc1)Nc1cccc(F)c1C(=O)NCCCCCCNC(=O)c1ccc(-c2c3nc(c(-c4c(F)cccc4F)c4ccc([nH]4)c(-c4c(F)cccc4F)c4nc(c(-c5c(F)cccc5F)c5ccc2[nH]5)C=C4)C=C3)cc1
REMARK SMILES IDX 23 1 22 2 21 3 19 4 20 5 18 7 12 8 13 9 14 10 16 11 15 12
REMARK SMILES IDX 17 13 11 14 1 15 2 16 3 18 4 19 5 20 6 21 10 22 7 23 9 24
REMARK SMILES IDX 8 25 24 26 25 27 26 28 27 29 28 30 29 31 30 33 31 34 32 35
REMARK SMILES IDX 84 36 33 37 83 38 34 39 35 40 36 41 77 42 37 43 82 44 76 45
REMARK SMILES IDX 78 46 38 47 81 48 75 49 74 50 39 52 65 53 48 54 64 55 49 56
REMARK SMILES IDX 52 57 63 58 79 59 50 60 51 61 62 63 80 64 53 65 40 66 41 67
REMARK SMILES IDX 46 68 42 69 43 70 45 71 47 72 44 73 66 74 67 75 72 76 68 77
REMARK SMILES IDX 69 78 71 79 73 80 70 81 54 82 55 83 60 84 56 85 57 86 59 87
REMARK SMILES IDX 61 88 58 89
REMARK H PARENT 21 6 11 17 28 32 78 51 52 62
REMARK Flexibility Score: inf
ROOT
ATOM      1  C   UNL A   1      35.876  22.910  25.671  1.00  0.00     0.021 C 
ENDROOT
BRANCH   1   2
ATOM      2  C   UNL A   1      35.156  24.148  25.139  1.00  0.00     0.116 C 
BRANCH   2   3
ATOM      3  N   UNL A   1      33.835  24.378  25.692  1.00  0.00    -0.352 N 
ATOM      4  C   UNL A   1      32.671  23.642  25.610  1.00  0.00     0.256 C 
ATOM      5  O   UNL A   1      31.712  24.036  26.279  1.00  0.00    -0.269 OA
ATOM      6  H   UNL A   1      33.754  25.206  26.220  1.00  0.00     0.163 HD
BRANCH   4   7
ATOM      7  C   UNL A   1      32.477  22.467  24.710  1.00  0.00     0.099 A 
ATOM      8  C   UNL A   1      32.023  22.654  23.377  1.00  0.00     0.056 A 
ATOM      9  C   UNL A   1      31.991  21.550  22.505  1.00  0.00     0.027 A 
ATOM     10  C   UNL A   1      32.307  20.268  22.946  1.00  0.00     0.005 A 
ATOM     11  C   UNL A   1      32.657  21.153  25.154  1.00  0.00     0.138 A 
ATOM     12  C   UNL A   1      32.604  20.065  24.283  1.00  0.00     0.040 A 
ATOM     13  F   UNL A   1      32.828  20.870  26.454  1.00  0.00    -0.206 F 
BRANCH   8  14
ATOM     14  N   UNL A   1      31.600  23.934  22.918  1.00  0.00    -0.325 N 
ATOM     15  O   UNL A   1      33.487  24.589  21.754  1.00  0.00    -0.275 OA
ATOM     16  C   UNL A   1      32.373  24.839  22.220  1.00  0.00     0.224 C 
ATOM     17  H   UNL A   1      30.672  24.198  23.118  1.00  0.00     0.169 HD
BRANCH  16  18
ATOM     18  C   UNL A   1      31.847  26.265  22.096  1.00  0.00     0.105 C 
BRANCH  18  19
ATOM     19  C   UNL A   1      31.028  26.847  23.243  1.00  0.00     0.047 C 
BRANCH  19  20
ATOM     20  C   UNL A   1      31.767  27.236  24.497  1.00  0.00    -0.029 A 
ATOM     21  C   UNL A   1      31.065  27.316  25.705  1.00  0.00     0.007 A 
ATOM     22  C   UNL A   1      33.131  27.518  24.542  1.00  0.00     0.114 A 
ATOM     23  C   UNL A   1      31.743  27.594  26.887  1.00  0.00     0.020 A 
ATOM     24  N   UNL A   1      33.816  27.787  25.675  1.00  0.00    -0.264 NA
ATOM     25  C   UNL A   1      33.108  27.805  26.823  1.00  0.00     0.111 A 
ENDBRANCH  19  20
ENDBRANCH  18  19
ENDBRANCH  16  18
ENDBRANCH   8  14
ENDBRANCH   4   7
ENDBRANCH   2   3
ENDBRANCH   1   2
BRANCH   1  26
ATOM     26  C   UNL A   1      36.457  21.931  24.647  1.00  0.00     0.002 C 
BRANCH  26  27
ATOM     27  C   UNL A   1      36.313  20.437  24.940  1.00  0.00     0.002 C 
BRANCH  27  28
ATOM     28  C   UNL A   1      37.595  19.603  24.936  1.00  0.00     0.021 C 
BRANCH  28  29
ATOM     29  C   UNL A   1      38.789  20.202  25.671  1.00  0.00     0.116 C 
BRANCH  29  30
ATOM     30  N   UNL A   1      39.924  19.300  25.746  1.00  0.00    -0.352 N 
ATOM     31  C   UNL A   1      41.232  19.560  26.077  1.00  0.00     0.251 C 
ATOM     32  H   UNL A   1      39.727  18.360  25.528  1.00  0.00     0.163 HD
ATOM     33  O   UNL A   1      42.079  18.682  25.949  1.00  0.00    -0.269 OA
BRANCH  31  34
ATOM     34  C   UNL A   1      41.636  20.899  26.568  1.00  0.00     0.039 A 
ATOM     35  C   UNL A   1      41.511  21.178  27.932  1.00  0.00     0.014 A 
ATOM     36  C   UNL A   1      42.093  21.892  25.696  1.00  0.00     0.014 A 
ATOM     37  C   UNL A   1      41.878  22.433  28.425  1.00  0.00     0.010 A 
ATOM     38  C   UNL A   1      42.534  23.115  26.199  1.00  0.00     0.010 A 
ATOM     39  C   UNL A   1      42.410  23.407  27.565  1.00  0.00    -0.014 A 
BRANCH  39  40
ATOM     40  C   UNL A   1      42.800  24.748  28.075  1.00  0.00     0.031 A 
ATOM     41  C   UNL A   1      41.753  25.811  28.282  1.00  0.00     0.074 A 
ATOM     42  C   UNL A   1      44.095  25.023  28.325  1.00  0.00     0.049 A 
ATOM     43  N   UNL A   1      41.899  27.047  28.689  1.00  0.00    -0.248 NA
ATOM     44  C   UNL A   1      40.363  25.445  27.968  1.00  0.00     0.031 C 
ATOM     45  C   UNL A   1      45.209  24.094  28.130  1.00  0.00     0.029 A 
ATOM     46  N   UNL A   1      44.693  26.164  28.800  1.00  0.00    -0.354 N 
ATOM     47  C   UNL A   1      40.625  27.604  28.670  1.00  0.00     0.074 A 
ATOM     48  C   UNL A   1      39.729  26.594  28.154  1.00  0.00     0.031 C 
ATOM     49  C   UNL A   1      46.349  24.688  28.515  1.00  0.00     0.029 A 
ATOM     50  C   UNL A   1      46.054  26.051  28.950  1.00  0.00     0.049 A 
ATOM     51  H   UNL A   1      44.194  26.986  29.012  1.00  0.00     0.167 HD
ATOM     52  C   UNL A   1      40.234  28.834  29.075  1.00  0.00     0.037 A 
ATOM     53  C   UNL A   1      46.963  26.942  29.394  1.00  0.00     0.037 A 
ATOM     54  C   UNL A   1      41.122  29.828  29.616  1.00  0.00     0.049 A 
ATOM     55  C   UNL A   1      46.502  28.302  29.840  1.00  0.00     0.074 A 
ATOM     56  C   UNL A   1      40.814  31.092  30.089  1.00  0.00     0.029 A 
ATOM     57  N   UNL A   1      42.492  29.668  29.763  1.00  0.00    -0.354 N 
ATOM     58  N   UNL A   1      45.290  28.800  29.856  1.00  0.00    -0.248 NA
ATOM     59  C   UNL A   1      47.534  29.221  30.343  1.00  0.00     0.031 C 
ATOM     60  C   UNL A   1      42.002  31.715  30.482  1.00  0.00     0.029 A 
ATOM     61  C   UNL A   1      43.043  30.816  30.309  1.00  0.00     0.049 A 
ATOM     62  H   UNL A   1      42.997  28.861  29.516  1.00  0.00     0.167 HD
ATOM     63  C   UNL A   1      45.407  30.072  30.401  1.00  0.00     0.074 A 
ATOM     64  C   UNL A   1      46.808  30.268  30.710  1.00  0.00     0.031 C 
ATOM     65  C   UNL A   1      44.437  30.992  30.629  1.00  0.00     0.037 A 
BRANCH  52  66
ATOM     66  C   UNL A   1      38.774  29.174  28.967  1.00  0.00     0.057 A 
ATOM     67  C   UNL A   1      37.926  29.055  30.076  1.00  0.00     0.134 A 
ATOM     68  C   UNL A   1      38.195  29.559  27.750  1.00  0.00     0.134 A 
ATOM     69  F   UNL A   1      38.412  28.685  31.271  1.00  0.00    -0.206 F 
ATOM     70  C   UNL A   1      36.555  29.295  29.975  1.00  0.00     0.040 A 
ATOM     71  C   UNL A   1      36.830  29.831  27.644  1.00  0.00     0.040 A 
ATOM     72  F   UNL A   1      38.952  29.705  26.653  1.00  0.00    -0.206 F 
ATOM     73  C   UNL A   1      36.003  29.687  28.757  1.00  0.00     0.006 A 
ENDBRANCH  52  66
BRANCH  53  74
ATOM     74  C   UNL A   1      48.393  26.551  29.487  1.00  0.00     0.057 A 
ATOM     75  C   UNL A   1      49.290  26.795  28.441  1.00  0.00     0.134 A 
ATOM     76  C   UNL A   1      48.890  25.899  30.622  1.00  0.00     0.134 A 
ATOM     77  F   UNL A   1      48.875  27.409  27.322  1.00  0.00    -0.206 F 
ATOM     78  C   UNL A   1      50.625  26.393  28.513  1.00  0.00     0.040 A 
ATOM     79  C   UNL A   1      50.228  25.514  30.718  1.00  0.00     0.040 A 
ATOM     80  F   UNL A   1      48.083  25.652  31.665  1.00  0.00    -0.206 F 
ATOM     81  C   UNL A   1      51.098  25.755  29.657  1.00  0.00     0.006 A 
ENDBRANCH  53  74
BRANCH  65  82
ATOM     82  C   UNL A   1      44.839  32.281  31.288  1.00  0.00     0.057 A 
ATOM     83  C   UNL A   1      44.787  32.409  32.682  1.00  0.00     0.134 A 
ATOM     84  C   UNL A   1      45.208  33.410  30.549  1.00  0.00     0.134 A 
ATOM     85  F   UNL A   1      44.429  31.368  33.449  1.00  0.00    -0.206 F 
ATOM     86  C   UNL A   1      45.076  33.617  33.317  1.00  0.00     0.040 A 
ATOM     87  C   UNL A   1      45.529  34.617  31.174  1.00  0.00     0.040 A 
ATOM     88  F   UNL A   1      45.285  33.353  29.210  1.00  0.00    -0.206 F 
ATOM     89  C   UNL A   1      45.455  34.724  32.561  1.00  0.00     0.006 A 
ENDBRANCH  65  82
ENDBRANCH  39  40
ENDBRANCH  31  34
ENDBRANCH  29  30
ENDBRANCH  28  29
ENDBRANCH  27  28
ENDBRANCH  26  27
ENDBRANCH   1  26
TORSDOF 17
ENDMDL
MODEL 3
REMARK VINA RESULT:     -11.5      1.832      4.068
REMARK SMILES O=C(CCc1cccnc1)Nc1cccc(F)c1C(=O)NCCCCCCNC(=O)c1ccc(-c2c3nc(c(-c4c(F)cccc4F)c4ccc([nH]4)c(-c4c(F)cccc4F)c4nc(c(-c5c(F)cccc5F)c5ccc2[nH]5)C=C4)C=C3)cc1
REMARK SMILES IDX 23 1 22 2 21 3 19 4 20 5 18 7 12 8 13 9 14 10 16 11 15 12
REMARK SMILES IDX 17 13 11 14 1 15 2 16 3 18 4 19 5 20 6 21 10 22 7 23 9 24
REMARK SMILES IDX 8 25 24 26 25 27 26 28 27 29 28 30 29 31 30 33 31 34 32 35
REMARK SMILES IDX 84 36 33 37 83 38 34 39 35 40 36 41 77 42 37 43 82 44 76 45
REMARK SMILES IDX 78 46 38 47 81 48 75 49 74 50 39 52 65 53 48 54 64 55 49 56
REMARK SMILES IDX 52 57 63 58 79 59 50 60 51 61 62 63 80 64 53 65 40 66 41 67
REMARK SMILES IDX 46 68 42 69 43 70 45 71 47 72 44 73 66 74 67 75 72 76 68 77
REMARK SMILES IDX 69 78 71 79 73 80 70 81 54 82 55 83 60 84 56 85 57 86 59 87
REMARK SMILES IDX 61 88 58 89
REMARK H PARENT 21 6 11 17 28 32 78 51 52 62
REMARK Flexibility Score: inf
ROOT
ATOM      1  C   UNL A   1      36.982  23.217  25.572  1.00  0.00     0.021 C 
ENDROOT
BRANCH   1   2
ATOM      2  C   UNL A   1      35.730  24.086  25.449  1.00  0.00     0.116 C 
BRANCH   2   3
ATOM      3  N   UNL A   1      35.137  24.127  24.126  1.00  0.00    -0.352 N 
ATOM      4  C   UNL A   1      34.011  24.767  23.651  1.00  0.00     0.256 C 
ATOM      5  O   UNL A   1      33.803  24.706  22.436  1.00  0.00    -0.269 OA
ATOM      6  H   UNL A   1      35.623  23.605  23.447  1.00  0.00     0.163 HD
BRANCH   4   7
ATOM      7  C   UNL A   1      32.998  25.445  24.513  1.00  0.00     0.099 A 
ATOM      8  C   UNL A   1      31.935  24.700  25.091  1.00  0.00     0.056 A 
ATOM      9  C   UNL A   1      31.083  25.330  26.017  1.00  0.00     0.027 A 
ATOM     10  C   UNL A   1      31.204  26.686  26.307  1.00  0.00     0.005 A 
ATOM     11  C   UNL A   1      33.008  26.828  24.724  1.00  0.00     0.138 A 
ATOM     12  C   UNL A   1      32.145  27.444  25.631  1.00  0.00     0.040 A 
ATOM     13  F   UNL A   1      33.807  27.639  24.016  1.00  0.00    -0.206 F 
BRANCH   8  14
ATOM     14  N   UNL A   1      31.722  23.335  24.743  1.00  0.00    -0.325 N 
ATOM     15  O   UNL A   1      32.808  22.298  26.501  1.00  0.00    -0.275 OA
ATOM     16  C   UNL A   1      32.233  22.241  25.412  1.00  0.00     0.224 C 
ATOM     17  H   UNL A   1      31.160  23.156  23.954  1.00  0.00     0.169 HD
BRANCH  16  18
ATOM     18  C   UNL A   1      32.156  20.890  24.709  1.00  0.00     0.105 C 
BRANCH  18  19
ATOM     19  C   UNL A   1      33.451  20.151  24.394  1.00  0.00     0.047 C 
BRANCH  19  20
ATOM     20  C   UNL A   1      33.504  18.677  24.708  1.00  0.00    -0.029 A 
ATOM     21  C   UNL A   1      34.607  17.929  24.282  1.00  0.00     0.007 A 
ATOM     22  C   UNL A   1      32.516  17.996  25.416  1.00  0.00     0.114 A 
ATOM     23  C   UNL A   1      34.714  16.587  24.631  1.00  0.00     0.020 A 
ATOM     24  N   UNL A   1      32.595  16.695  25.772  1.00  0.00    -0.264 NA
ATOM     25  C   UNL A   1      33.699  16.025  25.383  1.00  0.00     0.111 A 
ENDBRANCH  19  20
ENDBRANCH  18  19
ENDBRANCH  16  18
ENDBRANCH   8  14
ENDBRANCH   4   7
ENDBRANCH   2   3
ENDBRANCH   1   2
BRANCH   1  26
ATOM     26  C   UNL A   1      37.226  22.165  24.487  1.00  0.00     0.002 C 
BRANCH  26  27
ATOM     27  C   UNL A   1      36.917  20.709  24.837  1.00  0.00     0.002 C 
BRANCH  27  28
ATOM     28  C   UNL A   1      38.102  19.743  24.890  1.00  0.00     0.021 C 
BRANCH  28  29
ATOM     29  C   UNL A   1      39.124  19.992  25.994  1.00  0.00     0.116 C 
BRANCH  29  30
ATOM     30  N   UNL A   1      40.327  19.193  25.849  1.00  0.00    -0.352 N 
ATOM     31  C   UNL A   1      41.644  19.554  25.998  1.00  0.00     0.251 C 
ATOM     32  H   UNL A   1      40.177  18.250  25.607  1.00  0.00     0.163 HD
ATOM     33  O   UNL A   1      42.531  18.762  25.696  1.00  0.00    -0.269 OA
BRANCH  31  34
ATOM     34  C   UNL A   1      42.007  20.900  26.502  1.00  0.00     0.039 A 
ATOM     35  C   UNL A   1      42.010  21.120  27.883  1.00  0.00     0.014 A 
ATOM     36  C   UNL A   1      42.300  21.954  25.631  1.00  0.00     0.014 A 
ATOM     37  C   UNL A   1      42.342  22.379  28.388  1.00  0.00     0.010 A 
ATOM     38  C   UNL A   1      42.708  23.186  26.138  1.00  0.00     0.010 A 
ATOM     39  C   UNL A   1      42.712  23.420  27.521  1.00  0.00    -0.014 A 
BRANCH  39  40
ATOM     40  C   UNL A   1      43.063  24.766  28.045  1.00  0.00     0.031 A 
ATOM     41  C   UNL A   1      41.984  25.793  28.272  1.00  0.00     0.074 A 
ATOM     42  C   UNL A   1      44.350  25.079  28.290  1.00  0.00     0.049 A 
ATOM     43  N   UNL A   1      42.093  27.027  28.694  1.00  0.00    -0.248 NA
ATOM     44  C   UNL A   1      40.604  25.386  27.962  1.00  0.00     0.031 C 
ATOM     45  C   UNL A   1      45.491  24.188  28.077  1.00  0.00     0.029 A 
ATOM     46  N   UNL A   1      44.915  26.232  28.776  1.00  0.00    -0.354 N 
ATOM     47  C   UNL A   1      40.803  27.543  28.690  1.00  0.00     0.074 A 
ATOM     48  C   UNL A   1      39.935  26.512  28.167  1.00  0.00     0.031 C 
ATOM     49  C   UNL A   1      46.615  24.813  28.462  1.00  0.00     0.029 A 
ATOM     50  C   UNL A   1      46.280  26.161  28.916  1.00  0.00     0.049 A 
ATOM     51  H   UNL A   1      44.392  27.035  29.001  1.00  0.00     0.167 HD
ATOM     52  C   UNL A   1      40.375  28.755  29.113  1.00  0.00     0.037 A 
ATOM     53  C   UNL A   1      47.163  27.075  29.366  1.00  0.00     0.037 A 
ATOM     54  C   UNL A   1      41.235  29.770  29.661  1.00  0.00     0.049 A 
ATOM     55  C   UNL A   1      46.662  28.414  29.831  1.00  0.00     0.074 A 
ATOM     56  C   UNL A   1      40.890  31.018  30.151  1.00  0.00     0.029 A 
ATOM     57  N   UNL A   1      42.610  29.653  29.797  1.00  0.00    -0.354 N 
ATOM     58  N   UNL A   1      45.435  28.873  29.861  1.00  0.00    -0.248 NA
ATOM     59  C   UNL A   1      47.668  29.359  30.339  1.00  0.00     0.031 C 
ATOM     60  C   UNL A   1      42.060  31.673  30.544  1.00  0.00     0.029 A 
ATOM     61  C   UNL A   1      43.128  30.810  30.354  1.00  0.00     0.049 A 
ATOM     62  H   UNL A   1      43.139  28.865  29.536  1.00  0.00     0.167 HD
ATOM     63  C   UNL A   1      45.515  30.141  30.421  1.00  0.00     0.074 A 
ATOM     64  C   UNL A   1      46.911  30.377  30.724  1.00  0.00     0.031 C 
ATOM     65  C   UNL A   1      44.518  31.027  30.667  1.00  0.00     0.037 A 
BRANCH  52  66
ATOM     66  C   UNL A   1      38.905  29.050  29.019  1.00  0.00     0.057 A 
ATOM     67  C   UNL A   1      38.335  29.483  27.815  1.00  0.00     0.134 A 
ATOM     68  C   UNL A   1      38.063  28.963  30.137  1.00  0.00     0.134 A 
ATOM     69  F   UNL A   1      39.083  29.595  26.707  1.00  0.00    -0.206 F 
ATOM     70  C   UNL A   1      36.986  29.832  27.729  1.00  0.00     0.040 A 
ATOM     71  C   UNL A   1      36.706  29.281  30.056  1.00  0.00     0.040 A 
ATOM     72  F   UNL A   1      38.541  28.542  31.317  1.00  0.00    -0.206 F 
ATOM     73  C   UNL A   1      36.166  29.728  28.851  1.00  0.00     0.006 A 
ENDBRANCH  52  66
BRANCH  53  74
ATOM     74  C   UNL A   1      48.605  26.728  29.444  1.00  0.00     0.057 A 
ATOM     75  C   UNL A   1      49.148  26.091  30.566  1.00  0.00     0.134 A 
ATOM     76  C   UNL A   1      49.481  27.050  28.400  1.00  0.00     0.134 A 
ATOM     77  F   UNL A   1      48.363  25.764  31.604  1.00  0.00    -0.206 F 
ATOM     78  C   UNL A   1      50.510  25.801  30.655  1.00  0.00     0.040 A 
ATOM     79  C   UNL A   1      50.841  26.742  28.465  1.00  0.00     0.040 A 
ATOM     80  F   UNL A   1      49.018  27.645  27.290  1.00  0.00    -0.206 F 
ATOM     81  C   UNL A   1      51.360  26.122  29.599  1.00  0.00     0.006 A 
ENDBRANCH  53  74
BRANCH  65  82
ATOM     82  C   UNL A   1      44.883  32.319  31.339  1.00  0.00     0.057 A 
ATOM     83  C   UNL A   1      44.857  32.422  32.736  1.00  0.00     0.134 A 
ATOM     84  C   UNL A   1      45.192  33.475  30.612  1.00  0.00     0.134 A 
ATOM     85  F   UNL A   1      44.557  31.355  33.493  1.00  0.00    -0.206 F 
ATOM     86  C   UNL A   1      45.112  33.630  33.386  1.00  0.00     0.040 A 
ATOM     87  C   UNL A   1      45.478  34.683  31.251  1.00  0.00     0.040 A 
ATOM     88  F   UNL A   1      45.241  33.443  29.271  1.00  0.00    -0.206 F 
ATOM     89  C   UNL A   1      45.430  34.764  32.642  1.00  0.00     0.006 A 
ENDBRANCH  65  82
ENDBRANCH  39  40
ENDBRANCH  31  34
ENDBRANCH  29  30
ENDBRANCH  28  29
ENDBRANCH  27  28
ENDBRANCH  26  27
ENDBRANCH   1  26
TORSDOF 17
ENDMDL
