MODEL 1
REMARK VINA RESULT:     -13.2      0.000      0.000
REMARK SMILES COc1ccc(NC(=O)N[C@@H]2C=C[C@H](C(=O)NCCCCCCNC(=O)c3ccc(-c4c5nc(c(-c6c(F)cccc6F)c6ccc([nH]6)c(-c6c(F)cccc6F)c6nc(c(-c7c(F)cccc7F)c7ccc4[nH]7)C=C6)C=C5)cc3)C2)c(C)c1
REMARK SMILES IDX 20 1 19 2 18 3 17 4 15 5 16 6 14 8 11 9 12 10 81 11 13 12
REMARK SMILES IDX 10 13 7 14 8 15 9 17 6 19 3 20 4 21 84 22 5 23 82 24 83 25
REMARK SMILES IDX 2 26 1 27 21 28 22 29 23 30 24 31 25 32 26 34 27 35 28 36
REMARK SMILES IDX 80 37 29 38 79 39 30 40 31 41 32 42 73 43 33 44 78 45 72 46
REMARK SMILES IDX 74 47 34 48 77 49 71 50 70 51 35 53 61 54 44 55 60 56 45 57
REMARK SMILES IDX 48 58 59 59 75 60 46 61 47 62 58 64 76 65 49 66 36 67 37 68
REMARK SMILES IDX 42 69 38 70 39 71 41 72 43 73 40 74 62 75 63 76 68 77 64 78
REMARK SMILES IDX 65 79 67 80 69 81 66 82 50 83 51 84 56 85 52 86 53 87 55 88
REMARK SMILES IDX 57 89 54 90
REMARK H PARENT 17 7 7 16 10 18 24 33 74 52 48 63
REMARK Flexibility Score: inf
ROOT
ATOM      1  C   UNL A   1      41.062  19.654  26.130  1.00  0.00     0.002 C 
ENDROOT
BRANCH   1   2
ATOM      2  C   UNL A   1      40.404  20.791  26.883  1.00  0.00     0.021 C 
BRANCH   2   3
ATOM      3  C   UNL A   1      39.354  21.621  26.065  1.00  0.00     0.116 C 
BRANCH   3   4
ATOM      4  N   UNL A   1      37.890  21.225  25.706  1.00  0.00    -0.356 N 
ATOM      5  C   UNL A   1      36.759  21.546  24.912  1.00  0.00     0.227 C 
ATOM      6  O   UNL A   1      35.911  20.629  24.923  1.00  0.00    -0.274 OA
ATOM      7  H   UNL A   1      37.657  20.437  26.247  1.00  0.00     0.163 HD
BRANCH   5   8
ATOM      8  C   UNL A   1      36.262  23.026  23.890  1.00  0.00     0.103 C 
ATOM      9  C   UNL A   1      33.560  24.463  24.942  1.00  0.00     0.107 C 
ATOM     10  C   UNL A   1      33.346  24.113  23.078  1.00  0.00    -0.006 C 
ATOM     11  C   UNL A   1      35.513  24.159  25.492  1.00  0.00     0.047 C 
ATOM     12  C   UNL A   1      34.569  23.329  22.494  1.00  0.00    -0.016 C 
BRANCH   9  13
ATOM     13  N   UNL A   1      32.539  23.186  25.401  1.00  0.00    -0.332 N 
ATOM     14  N   UNL A   1      30.456  24.231  26.496  1.00  0.00    -0.308 N 
ATOM     15  C   UNL A   1      31.233  23.087  26.016  1.00  0.00     0.319 C 
ATOM     16  H   UNL A   1      29.687  24.027  27.075  1.00  0.00     0.171 HD
ATOM     17  O   UNL A   1      30.728  21.962  26.108  1.00  0.00    -0.248 OA
ATOM     18  H   UNL A   1      32.928  22.303  25.202  1.00  0.00     0.165 HD
BRANCH  14  19
ATOM     19  C   UNL A   1      30.700  25.652  26.209  1.00  0.00     0.046 A 
ATOM     20  C   UNL A   1      31.695  28.121  23.662  1.00  0.00     0.119 A 
ATOM     21  C   UNL A   1      30.570  26.877  23.315  1.00  0.00     0.048 A 
ATOM     22  C   UNL A   1      32.217  28.213  25.228  1.00  0.00     0.052 A 
ATOM     23  C   UNL A   1      30.050  25.642  24.840  1.00  0.00     0.030 A 
ATOM     24  C   UNL A   1      31.727  27.092  26.519  1.00  0.00    -0.024 A 
ATOM     25  C   UNL A   1      31.402  28.368  27.473  1.00  0.00     0.047 C 
BRANCH  20  26
ATOM     26  O   UNL A   1      32.227  28.967  22.752  1.00  0.00    -0.497 OA
ATOM     27  C   UNL A   1      33.523  28.543  22.364  1.00  0.00     0.278 C 
ENDBRANCH  20  26
ENDBRANCH  14  19
ENDBRANCH   9  13
ENDBRANCH   5   8
ENDBRANCH   3   4
ENDBRANCH   2   3
ENDBRANCH   1   2
BRANCH   1  28
ATOM     28  C   UNL A   1      42.288  19.091  26.842  1.00  0.00     0.002 C 
BRANCH  28  29
ATOM     29  C   UNL A   1      43.306  18.378  25.938  1.00  0.00     0.021 C 
BRANCH  29  30
ATOM     30  C   UNL A   1      43.960  19.291  24.914  1.00  0.00     0.116 C 
BRANCH  30  31
ATOM     31  N   UNL A   1      44.945  20.133  25.566  1.00  0.00    -0.352 N 
ATOM     32  C   UNL A   1      45.148  21.488  25.490  1.00  0.00     0.251 C 
ATOM     33  H   UNL A   1      45.568  19.656  26.161  1.00  0.00     0.163 HD
ATOM     34  O   UNL A   1      46.282  21.928  25.656  1.00  0.00    -0.269 OA
BRANCH  32  35
ATOM     35  C   UNL A   1      43.974  22.402  25.560  1.00  0.00     0.039 A 
ATOM     36  C   UNL A   1      44.128  23.507  24.704  1.00  0.00     0.014 A 
ATOM     37  C   UNL A   1      43.307  22.540  26.770  1.00  0.00     0.014 A 
ATOM     38  C   UNL A   1      44.005  24.778  25.229  1.00  0.00     0.010 A 
ATOM     39  C   UNL A   1      43.326  23.780  27.346  1.00  0.00     0.010 A 
ATOM     40  C   UNL A   1      43.747  24.876  26.587  1.00  0.00    -0.014 A 
BRANCH  40  41
ATOM     41  C   UNL A   1      43.708  26.116  27.313  1.00  0.00     0.031 A 
ATOM     42  C   UNL A   1      42.411  26.800  27.280  1.00  0.00     0.074 A 
ATOM     43  C   UNL A   1      44.744  26.400  28.129  1.00  0.00     0.049 A 
ATOM     44  N   UNL A   1      42.211  27.985  27.711  1.00  0.00    -0.248 NA
ATOM     45  C   UNL A   1      41.210  26.197  26.694  1.00  0.00     0.031 C 
ATOM     46  C   UNL A   1      44.815  27.344  29.235  1.00  0.00     0.029 A 
ATOM     47  N   UNL A   1      46.074  25.993  27.945  1.00  0.00    -0.354 N 
ATOM     48  C   UNL A   1      40.847  28.159  27.796  1.00  0.00     0.074 A 
ATOM     49  C   UNL A   1      40.280  27.099  27.012  1.00  0.00     0.031 C 
ATOM     50  C   UNL A   1      46.102  27.696  29.421  1.00  0.00     0.029 A 
ATOM     51  C   UNL A   1      46.860  27.102  28.331  1.00  0.00     0.049 A 
ATOM     52  H   UNL A   1      46.392  25.120  27.618  1.00  0.00     0.167 HD
ATOM     53  C   UNL A   1      40.402  29.095  28.676  1.00  0.00     0.037 A 
ATOM     54  C   UNL A   1      47.525  27.817  27.372  1.00  0.00     0.037 A 
ATOM     55  C   UNL A   1      41.543  29.897  29.126  1.00  0.00     0.049 A 
ATOM     56  C   UNL A   1      46.982  29.227  27.247  1.00  0.00     0.074 A 
ATOM     57  C   UNL A   1      42.328  29.865  30.266  1.00  0.00     0.029 A 
ATOM     58  N   UNL A   1      42.268  30.599  28.167  1.00  0.00    -0.354 N 
ATOM     59  N   UNL A   1      45.754  29.576  27.539  1.00  0.00    -0.248 NA
ATOM     60  C   UNL A   1      47.815  30.367  26.883  1.00  0.00     0.031 C 
ATOM     61  C   UNL A   1      43.580  30.466  29.942  1.00  0.00     0.029 A 
ATOM     62  C   UNL A   1      43.538  30.890  28.622  1.00  0.00     0.049 A 
ATOM     63  H   UNL A   1      41.921  30.854  27.282  1.00  0.00     0.167 HD
ATOM     64  C   UNL A   1      45.633  30.944  27.459  1.00  0.00     0.074 A 
ATOM     65  C   UNL A   1      46.953  31.386  27.046  1.00  0.00     0.031 C 
ATOM     66  C   UNL A   1      44.475  31.611  27.766  1.00  0.00     0.037 A 
BRANCH  53  67
ATOM     67  C   UNL A   1      39.029  29.156  29.307  1.00  0.00     0.057 A 
ATOM     68  C   UNL A   1      37.934  29.591  28.534  1.00  0.00     0.134 A 
ATOM     69  C   UNL A   1      38.713  28.918  30.661  1.00  0.00     0.134 A 
ATOM     70  F   UNL A   1      38.061  29.854  27.226  1.00  0.00    -0.206 F 
ATOM     71  C   UNL A   1      36.653  29.799  29.064  1.00  0.00     0.040 A 
ATOM     72  C   UNL A   1      37.430  29.099  31.198  1.00  0.00     0.040 A 
ATOM     73  F   UNL A   1      39.618  28.529  31.560  1.00  0.00    -0.206 F 
ATOM     74  C   UNL A   1      36.394  29.551  30.402  1.00  0.00     0.006 A 
ENDBRANCH  53  67
BRANCH  54  75
ATOM     75  C   UNL A   1      48.012  26.930  26.268  1.00  0.00     0.057 A 
ATOM     76  C   UNL A   1      47.322  26.999  25.037  1.00  0.00     0.134 A 
ATOM     77  C   UNL A   1      49.327  26.459  26.222  1.00  0.00     0.134 A 
ATOM     78  F   UNL A   1      46.045  27.412  25.006  1.00  0.00    -0.206 F 
ATOM     79  C   UNL A   1      47.970  26.814  23.812  1.00  0.00     0.040 A 
ATOM     80  C   UNL A   1      49.973  26.231  24.997  1.00  0.00     0.040 A 
ATOM     81  F   UNL A   1      50.052  26.342  27.344  1.00  0.00    -0.206 F 
ATOM     82  C   UNL A   1      49.318  26.477  23.790  1.00  0.00     0.006 A 
ENDBRANCH  54  75
BRANCH  66  83
ATOM     83  C   UNL A   1      44.121  33.036  27.362  1.00  0.00     0.057 A 
ATOM     84  C   UNL A   1      43.819  33.447  26.056  1.00  0.00     0.134 A 
ATOM     85  C   UNL A   1      43.913  34.038  28.346  1.00  0.00     0.134 A 
ATOM     86  F   UNL A   1      43.823  32.598  25.023  1.00  0.00    -0.206 F 
ATOM     87  C   UNL A   1      43.427  34.757  25.744  1.00  0.00     0.040 A 
ATOM     88  C   UNL A   1      43.439  35.320  28.055  1.00  0.00     0.040 A 
ATOM     89  F   UNL A   1      44.129  33.821  29.651  1.00  0.00    -0.206 F 
ATOM     90  C   UNL A   1      43.217  35.695  26.745  1.00  0.00     0.006 A 
ENDBRANCH  66  83
ENDBRANCH  40  41
ENDBRANCH  32  35
ENDBRANCH  30  31
ENDBRANCH  29  30
ENDBRANCH  28  29
ENDBRANCH   1  28
TORSDOF 16
ENDMDL
MODEL 2
REMARK VINA RESULT:     -12.8      4.849     10.972
REMARK SMILES COc1ccc(NC(=O)N[C@@H]2C=C[C@H](C(=O)NCCCCCCNC(=O)c3ccc(-c4c5nc(c(-c6c(F)cccc6F)c6ccc([nH]6)c(-c6c(F)cccc6F)c6nc(c(-c7c(F)cccc7F)c7ccc4[nH]7)C=C6)C=C5)cc3)C2)c(C)c1
REMARK SMILES IDX 20 1 19 2 18 3 17 4 15 5 16 6 14 8 11 9 12 10 81 11 13 12
REMARK SMILES IDX 10 13 7 14 8 15 9 17 6 19 3 20 4 21 84 22 5 23 82 24 83 25
REMARK SMILES IDX 2 26 1 27 21 28 22 29 23 30 24 31 25 32 26 34 27 35 28 36
REMARK SMILES IDX 80 37 29 38 79 39 30 40 31 41 32 42 73 43 33 44 78 45 72 46
REMARK SMILES IDX 74 47 34 48 77 49 71 50 70 51 35 53 61 54 44 55 60 56 45 57
REMARK SMILES IDX 48 58 59 59 75 60 46 61 47 62 58 64 76 65 49 66 36 67 37 68
REMARK SMILES IDX 42 69 38 70 39 71 41 72 43 73 40 74 62 75 63 76 68 77 64 78
REMARK SMILES IDX 65 79 67 80 69 81 66 82 50 83 51 84 56 85 52 86 53 87 55 88
REMARK SMILES IDX 57 89 54 90
REMARK H PARENT 17 7 7 16 10 18 24 33 74 52 48 63
REMARK Flexibility Score: inf
ROOT
ATOM      1  C   UNL A   1      34.579  34.635  28.026  1.00  0.00     0.002 C 
ENDROOT
BRANCH   1   2
ATOM      2  C   UNL A   1      34.903  33.178  27.772  1.00  0.00     0.021 C 
BRANCH   2   3
ATOM      3  C   UNL A   1      33.711  32.178  27.977  1.00  0.00     0.116 C 
BRANCH   3   4
ATOM      4  N   UNL A   1      32.841  31.489  26.883  1.00  0.00    -0.356 N 
ATOM      5  C   UNL A   1      32.106  30.324  26.545  1.00  0.00     0.227 C 
ATOM      6  O   UNL A   1      31.394  30.504  25.533  1.00  0.00    -0.274 OA
ATOM      7  H   UNL A   1      32.775  32.111  26.124  1.00  0.00     0.163 HD
BRANCH   5   8
ATOM      8  C   UNL A   1      31.991  28.602  27.255  1.00  0.00     0.103 C 
ATOM      9  C   UNL A   1      33.686  26.408  25.586  1.00  0.00     0.107 C 
ATOM     10  C   UNL A   1      31.909  25.743  25.787  1.00  0.00    -0.006 C 
ATOM     11  C   UNL A   1      33.963  28.042  26.796  1.00  0.00     0.047 C 
ATOM     12  C   UNL A   1      30.981  26.780  26.502  1.00  0.00    -0.016 C 
BRANCH   9  13
ATOM     13  N   UNL A   1      33.452  26.827  23.956  1.00  0.00    -0.332 N 
ATOM     14  N   UNL A   1      33.909  24.716  22.554  1.00  0.00    -0.308 N 
ATOM     15  C   UNL A   1      33.510  26.118  22.697  1.00  0.00     0.319 C 
ATOM     16  H   UNL A   1      34.108  24.407  21.641  1.00  0.00     0.171 HD
ATOM     17  O   UNL A   1      33.166  26.730  21.679  1.00  0.00    -0.248 OA
ATOM     18  H   UNL A   1      33.222  27.778  23.841  1.00  0.00     0.165 HD
BRANCH  14  19
ATOM     19  C   UNL A   1      34.046  23.719  23.626  1.00  0.00     0.046 A 
ATOM     20  C   UNL A   1      35.815  20.697  24.771  1.00  0.00     0.119 A 
ATOM     21  C   UNL A   1      36.655  22.023  24.085  1.00  0.00     0.048 A 
ATOM     22  C   UNL A   1      34.188  20.900  24.988  1.00  0.00     0.052 A 
ATOM     23  C   UNL A   1      35.559  23.656  23.580  1.00  0.00     0.030 A 
ATOM     24  C   UNL A   1      33.285  22.358  24.515  1.00  0.00    -0.024 A 
ATOM     25  C   UNL A   1      32.598  22.382  25.988  1.00  0.00     0.047 C 
BRANCH  20  26
ATOM     26  O   UNL A   1      36.362  19.499  25.073  1.00  0.00    -0.497 OA
ATOM     27  C   UNL A   1      35.536  18.438  24.626  1.00  0.00     0.278 C 
ENDBRANCH  20  26
ENDBRANCH  14  19
ENDBRANCH   9  13
ENDBRANCH   5   8
ENDBRANCH   3   4
ENDBRANCH   2   3
ENDBRANCH   1   2
BRANCH   1  28
ATOM     28  C   UNL A   1      33.269  34.836  28.780  1.00  0.00     0.002 C 
BRANCH  28  29
ATOM     29  C   UNL A   1      33.185  36.116  29.628  1.00  0.00     0.021 C 
BRANCH  29  30
ATOM     30  C   UNL A   1      32.927  35.856  31.103  1.00  0.00     0.116 C 
BRANCH  30  31
ATOM     31  N   UNL A   1      34.156  36.035  31.854  1.00  0.00    -0.352 N 
ATOM     32  C   UNL A   1      34.867  35.147  32.620  1.00  0.00     0.251 C 
ATOM     33  H   UNL A   1      34.542  36.940  31.805  1.00  0.00     0.163 HD
ATOM     34  O   UNL A   1      35.528  35.575  33.563  1.00  0.00    -0.269 OA
BRANCH  32  35
ATOM     35  C   UNL A   1      35.107  33.771  32.103  1.00  0.00     0.039 A 
ATOM     36  C   UNL A   1      35.262  32.845  33.150  1.00  0.00     0.014 A 
ATOM     37  C   UNL A   1      35.818  33.618  30.920  1.00  0.00     0.014 A 
ATOM     38  C   UNL A   1      36.394  32.056  33.178  1.00  0.00     0.010 A 
ATOM     39  C   UNL A   1      37.013  32.959  31.001  1.00  0.00     0.010 A 
ATOM     40  C   UNL A   1      37.318  32.245  32.164  1.00  0.00    -0.014 A 
BRANCH  40  41
ATOM     41  C   UNL A   1      38.599  31.594  32.109  1.00  0.00     0.031 A 
ATOM     42  C   UNL A   1      38.607  30.326  31.372  1.00  0.00     0.074 A 
ATOM     43  C   UNL A   1      39.679  32.298  32.505  1.00  0.00     0.049 A 
ATOM     44  N   UNL A   1      39.591  29.513  31.349  1.00  0.00    -0.248 NA
ATOM     45  C   UNL A   1      37.448  29.840  30.616  1.00  0.00     0.031 C 
ATOM     46  C   UNL A   1      41.088  32.066  32.219  1.00  0.00     0.029 A 
ATOM     47  N   UNL A   1      39.694  33.306  33.481  1.00  0.00    -0.354 N 
ATOM     48  C   UNL A   1      39.350  28.617  30.331  1.00  0.00     0.074 A 
ATOM     49  C   UNL A   1      37.957  28.759  30.021  1.00  0.00     0.031 C 
ATOM     50  C   UNL A   1      41.826  32.637  33.189  1.00  0.00     0.029 A 
ATOM     51  C   UNL A   1      40.894  33.110  34.201  1.00  0.00     0.049 A 
ATOM     52  H   UNL A   1      39.014  34.002  33.631  1.00  0.00     0.167 HD
ATOM     53  C   UNL A   1      40.434  28.003  29.785  1.00  0.00     0.037 A 
ATOM     54  C   UNL A   1      40.836  32.634  35.483  1.00  0.00     0.037 A 
ATOM     55  C   UNL A   1      41.598  28.261  30.637  1.00  0.00     0.049 A 
ATOM     56  C   UNL A   1      41.450  31.253  35.596  1.00  0.00     0.074 A 
ATOM     57  C   UNL A   1      42.645  29.165  30.557  1.00  0.00     0.029 A 
ATOM     58  N   UNL A   1      41.550  27.830  31.960  1.00  0.00    -0.354 N 
ATOM     59  N   UNL A   1      41.509  30.386  34.615  1.00  0.00    -0.248 NA
ATOM     60  C   UNL A   1      42.137  30.787  36.795  1.00  0.00     0.031 C 
ATOM     61  C   UNL A   1      43.155  29.348  31.876  1.00  0.00     0.029 A 
ATOM     62  C   UNL A   1      42.442  28.534  32.743  1.00  0.00     0.049 A 
ATOM     63  H   UNL A   1      40.958  27.116  32.292  1.00  0.00     0.167 HD
ATOM     64  C   UNL A   1      42.257  29.300  35.006  1.00  0.00     0.074 A 
ATOM     65  C   UNL A   1      42.624  29.606  36.377  1.00  0.00     0.031 C 
ATOM     66  C   UNL A   1      42.543  28.251  34.171  1.00  0.00     0.037 A 
BRANCH  53  67
ATOM     67  C   UNL A   1      40.520  27.384  28.408  1.00  0.00     0.057 A 
ATOM     68  C   UNL A   1      39.926  26.125  28.180  1.00  0.00     0.134 A 
ATOM     69  C   UNL A   1      41.238  27.883  27.302  1.00  0.00     0.134 A 
ATOM     70  F   UNL A   1      39.201  25.512  29.127  1.00  0.00    -0.206 F 
ATOM     71  C   UNL A   1      40.059  25.418  26.978  1.00  0.00     0.040 A 
ATOM     72  C   UNL A   1      41.358  27.197  26.085  1.00  0.00     0.040 A 
ATOM     73  F   UNL A   1      41.894  29.044  27.328  1.00  0.00    -0.206 F 
ATOM     74  C   UNL A   1      40.778  25.954  25.921  1.00  0.00     0.006 A 
ENDBRANCH  53  67
BRANCH  54  75
ATOM     75  C   UNL A   1      39.632  33.155  36.205  1.00  0.00     0.057 A 
ATOM     76  C   UNL A   1      38.582  32.240  36.447  1.00  0.00     0.134 A 
ATOM     77  C   UNL A   1      39.697  34.268  37.047  1.00  0.00     0.134 A 
ATOM     78  F   UNL A   1      38.436  31.163  35.658  1.00  0.00    -0.206 F 
ATOM     79  C   UNL A   1      37.779  32.317  37.589  1.00  0.00     0.040 A 
ATOM     80  C   UNL A   1      38.866  34.374  38.174  1.00  0.00     0.040 A 
ATOM     81  F   UNL A   1      40.648  35.198  36.880  1.00  0.00    -0.206 F 
ATOM     82  C   UNL A   1      37.956  33.364  38.485  1.00  0.00     0.006 A 
ENDBRANCH  54  75
BRANCH  66  83
ATOM     83  C   UNL A   1      43.021  26.867  34.592  1.00  0.00     0.057 A 
ATOM     84  C   UNL A   1      44.364  26.476  34.678  1.00  0.00     0.134 A 
ATOM     85  C   UNL A   1      42.105  25.904  35.091  1.00  0.00     0.134 A 
ATOM     86  F   UNL A   1      45.370  27.309  34.385  1.00  0.00    -0.206 F 
ATOM     87  C   UNL A   1      44.759  25.212  35.141  1.00  0.00     0.040 A 
ATOM     88  C   UNL A   1      42.495  24.676  35.635  1.00  0.00     0.040 A 
ATOM     89  F   UNL A   1      40.782  26.111  35.108  1.00  0.00    -0.206 F 
ATOM     90  C   UNL A   1      43.827  24.313  35.638  1.00  0.00     0.006 A 
ENDBRANCH  66  83
ENDBRANCH  40  41
ENDBRANCH  32  35
ENDBRANCH  30  31
ENDBRANCH  29  30
ENDBRANCH  28  29
ENDBRANCH   1  28
TORSDOF 16
ENDMDL
MODEL 3
REMARK VINA RESULT:     -12.5      5.348     11.190
REMARK SMILES COc1ccc(NC(=O)N[C@@H]2C=C[C@H](C(=O)NCCCCCCNC(=O)c3ccc(-c4c5nc(c(-c6c(F)cccc6F)c6ccc([nH]6)c(-c6c(F)cccc6F)c6nc(c(-c7c(F)cccc7F)c7ccc4[nH]7)C=C6)C=C5)cc3)C2)c(C)c1
REMARK SMILES IDX 20 1 19 2 18 3 17 4 15 5 16 6 14 8 11 9 12 10 81 11 13 12
REMARK SMILES IDX 10 13 7 14 8 15 9 17 6 19 3 20 4 21 84 22 5 23 82 24 83 25
REMARK SMILES IDX 2 26 1 27 21 28 22 29 23 30 24 31 25 32 26 34 27 35 28 36
REMARK SMILES IDX 80 37 29 38 79 39 30 40 31 41 32 42 73 43 33 44 78 45 72 46
REMARK SMILES IDX 74 47 34 48 77 49 71 50 70 51 35 53 61 54 44 55 60 56 45 57
REMARK SMILES IDX 48 58 59 59 75 60 46 61 47 62 58 64 76 65 49 66 36 67 37 68
REMARK SMILES IDX 42 69 38 70 39 71 41 72 43 73 40 74 62 75 63 76 68 77 64 78
REMARK SMILES IDX 65 79 67 80 69 81 66 82 50 83 51 84 56 85 52 86 53 87 55 88
REMARK SMILES IDX 57 89 54 90
REMARK H PARENT 17 7 7 16 10 18 24 33 74 52 48 63
REMARK Flexibility Score: inf
ROOT
ATOM      1  C   UNL A   1      33.362  34.617  29.073  1.00  0.00     0.002 C 
ENDROOT
BRANCH   1   2
ATOM      2  C   UNL A   1      34.513  33.643  29.203  1.00  0.00     0.021 C 
BRANCH   2   3
ATOM      3  C   UNL A   1      34.588  32.538  28.092  1.00  0.00     0.116 C 
BRANCH   3   4
ATOM      4  N   UNL A   1      33.418  31.944  27.252  1.00  0.00    -0.356 N 
ATOM      5  C   UNL A   1      32.602  30.803  27.038  1.00  0.00     0.227 C 
ATOM      6  O   UNL A   1      31.617  31.068  26.316  1.00  0.00    -0.274 OA
ATOM      7  H   UNL A   1      33.129  32.636  26.616  1.00  0.00     0.163 HD
BRANCH   5   8
ATOM      8  C   UNL A   1      32.691  29.017  27.572  1.00  0.00     0.103 C 
ATOM      9  C   UNL A   1      33.075  26.957  25.106  1.00  0.00     0.107 C 
ATOM     10  C   UNL A   1      31.588  26.357  26.141  1.00  0.00    -0.006 C 
ATOM     11  C   UNL A   1      34.090  28.423  26.122  1.00  0.00     0.047 C 
ATOM     12  C   UNL A   1      31.261  27.346  27.309  1.00  0.00    -0.016 C 
BRANCH   9  13
ATOM     13  N   UNL A   1      32.090  27.574  23.866  1.00  0.00    -0.332 N 
ATOM     14  N   UNL A   1      31.880  25.738  22.074  1.00  0.00    -0.308 N 
ATOM     15  C   UNL A   1      31.563  27.059  22.622  1.00  0.00     0.319 C 
ATOM     16  H   UNL A   1      31.632  25.582  21.134  1.00  0.00     0.171 HD
ATOM     17  O   UNL A   1      30.766  27.770  22.000  1.00  0.00    -0.248 OA
ATOM     18  H   UNL A   1      31.812  28.504  24.035  1.00  0.00     0.165 HD
BRANCH  14  19
ATOM     19  C   UNL A   1      32.528  24.620  22.773  1.00  0.00     0.046 A 
ATOM     20  C   UNL A   1      32.600  22.567  25.832  1.00  0.00     0.119 A 
ATOM     21  C   UNL A   1      31.129  22.960  25.049  1.00  0.00     0.048 A 
ATOM     22  C   UNL A   1      33.983  23.066  25.075  1.00  0.00     0.052 A 
ATOM     23  C   UNL A   1      31.249  24.025  23.325  1.00  0.00     0.030 A 
ATOM     24  C   UNL A   1      34.019  24.006  23.564  1.00  0.00    -0.024 A 
ATOM     25  C   UNL A   1      35.113  22.961  22.967  1.00  0.00     0.047 C 
BRANCH  20  26
ATOM     26  O   UNL A   1      32.706  21.954  27.031  1.00  0.00    -0.497 OA
ATOM     27  C   UNL A   1      34.049  21.961  27.487  1.00  0.00     0.278 C 
ENDBRANCH  20  26
ENDBRANCH  14  19
ENDBRANCH   9  13
ENDBRANCH   5   8
ENDBRANCH   3   4
ENDBRANCH   2   3
ENDBRANCH   1   2
BRANCH   1  28
ATOM     28  C   UNL A   1      33.545  35.879  29.909  1.00  0.00     0.002 C 
BRANCH  28  29
ATOM     29  C   UNL A   1      32.408  36.188  30.897  1.00  0.00     0.021 C 
BRANCH  29  30
ATOM     30  C   UNL A   1      32.848  36.195  32.352  1.00  0.00     0.116 C 
BRANCH  30  31
ATOM     31  N   UNL A   1      32.880  34.836  32.861  1.00  0.00    -0.352 N 
ATOM     32  C   UNL A   1      33.911  33.934  32.920  1.00  0.00     0.251 C 
ATOM     33  H   UNL A   1      32.024  34.510  33.222  1.00  0.00     0.163 HD
ATOM     34  O   UNL A   1      33.652  32.734  32.872  1.00  0.00    -0.269 OA
BRANCH  32  35
ATOM     35  C   UNL A   1      35.250  34.390  33.388  1.00  0.00     0.039 A 
ATOM     36  C   UNL A   1      36.048  34.830  32.317  1.00  0.00     0.014 A 
ATOM     37  C   UNL A   1      35.827  33.756  34.479  1.00  0.00     0.014 A 
ATOM     38  C   UNL A   1      37.300  34.273  32.148  1.00  0.00     0.010 A 
ATOM     39  C   UNL A   1      36.996  33.084  34.253  1.00  0.00     0.010 A 
ATOM     40  C   UNL A   1      37.682  33.297  33.054  1.00  0.00    -0.014 A 
BRANCH  40  41
ATOM     41  C   UNL A   1      38.897  32.535  32.953  1.00  0.00     0.031 A 
ATOM     42  C   UNL A   1      38.747  31.235  32.290  1.00  0.00     0.074 A 
ATOM     43  C   UNL A   1      40.057  33.161  33.237  1.00  0.00     0.049 A 
ATOM     44  N   UNL A   1      39.655  30.338  32.249  1.00  0.00    -0.248 NA
ATOM     45  C   UNL A   1      37.501  30.813  31.641  1.00  0.00     0.031 C 
ATOM     46  C   UNL A   1      41.418  32.792  32.873  1.00  0.00     0.029 A 
ATOM     47  N   UNL A   1      40.224  34.213  34.151  1.00  0.00    -0.354 N 
ATOM     48  C   UNL A   1      39.270  29.416  31.302  1.00  0.00     0.074 A 
ATOM     49  C   UNL A   1      37.875  29.664  31.076  1.00  0.00     0.031 C 
ATOM     50  C   UNL A   1      42.268  33.346  33.759  1.00  0.00     0.029 A 
ATOM     51  C   UNL A   1      41.451  33.950  34.800  1.00  0.00     0.049 A 
ATOM     52  H   UNL A   1      39.617  34.971  34.305  1.00  0.00     0.167 HD
ATOM     53  C   UNL A   1      40.258  28.683  30.722  1.00  0.00     0.037 A 
ATOM     54  C   UNL A   1      41.443  33.546  36.108  1.00  0.00     0.037 A 
ATOM     55  C   UNL A   1      41.496  28.882  31.481  1.00  0.00     0.049 A 
ATOM     56  C   UNL A   1      41.946  32.124  36.260  1.00  0.00     0.074 A 
ATOM     57  C   UNL A   1      42.606  29.685  31.281  1.00  0.00     0.029 A 
ATOM     58  N   UNL A   1      41.505  28.524  32.826  1.00  0.00    -0.354 N 
ATOM     59  N   UNL A   1      41.863  31.207  35.329  1.00  0.00    -0.248 NA
ATOM     60  C   UNL A   1      42.674  31.663  37.436  1.00  0.00     0.031 C 
ATOM     61  C   UNL A   1      43.221  29.890  32.551  1.00  0.00     0.029 A 
ATOM     62  C   UNL A   1      42.505  29.187  33.507  1.00  0.00     0.049 A 
ATOM     63  H   UNL A   1      40.880  27.883  33.236  1.00  0.00     0.167 HD
ATOM     64  C   UNL A   1      42.543  30.081  35.730  1.00  0.00     0.074 A 
ATOM     65  C   UNL A   1      43.030  30.424  37.055  1.00  0.00     0.031 C 
ATOM     66  C   UNL A   1      42.682  28.970  34.940  1.00  0.00     0.037 A 
BRANCH  53  67
ATOM     67  C   UNL A   1      40.195  27.989  29.380  1.00  0.00     0.057 A 
ATOM     68  C   UNL A   1      39.470  26.785  29.260  1.00  0.00     0.134 A 
ATOM     69  C   UNL A   1      40.884  28.358  28.207  1.00  0.00     0.134 A 
ATOM     70  F   UNL A   1      38.752  26.296  30.281  1.00  0.00    -0.206 F 
ATOM     71  C   UNL A   1      39.458  26.008  28.094  1.00  0.00     0.040 A 
ATOM     72  C   UNL A   1      40.860  27.602  27.026  1.00  0.00     0.040 A 
ATOM     73  F   UNL A   1      41.649  29.448  28.128  1.00  0.00    -0.206 F 
ATOM     74  C   UNL A   1      40.154  26.415  26.968  1.00  0.00     0.006 A 
ENDBRANCH  53  67
BRANCH  54  75
ATOM     75  C   UNL A   1      40.340  34.207  36.877  1.00  0.00     0.057 A 
ATOM     76  C   UNL A   1      39.267  33.387  37.294  1.00  0.00     0.134 A 
ATOM     77  C   UNL A   1      40.544  35.385  37.600  1.00  0.00     0.134 A 
ATOM     78  F   UNL A   1      38.991  32.254  36.628  1.00  0.00    -0.206 F 
ATOM     79  C   UNL A   1      38.577  33.618  38.487  1.00  0.00     0.040 A 
ATOM     80  C   UNL A   1      39.825  35.646  38.778  1.00  0.00     0.040 A 
ATOM     81  F   UNL A   1      41.526  36.234  37.264  1.00  0.00    -0.206 F 
ATOM     82  C   UNL A   1      38.892  34.728  39.261  1.00  0.00     0.006 A 
ENDBRANCH  54  75
BRANCH  66  83
ATOM     83  C   UNL A   1      43.070  27.573  35.407  1.00  0.00     0.057 A 
ATOM     84  C   UNL A   1      44.254  26.911  35.052  1.00  0.00     0.134 A 
ATOM     85  C   UNL A   1      42.303  26.897  36.391  1.00  0.00     0.134 A 
ATOM     86  F   UNL A   1      45.166  27.464  34.245  1.00  0.00    -0.206 F 
ATOM     87  C   UNL A   1      44.603  25.653  35.565  1.00  0.00     0.040 A 
ATOM     88  C   UNL A   1      42.686  25.685  36.972  1.00  0.00     0.040 A 
ATOM     89  F   UNL A   1      41.151  27.389  36.868  1.00  0.00    -0.206 F 
ATOM     90  C   UNL A   1      43.830  25.043  36.541  1.00  0.00     0.006 A 
ENDBRANCH  66  83
ENDBRANCH  40  41
ENDBRANCH  32  35
ENDBRANCH  30  31
ENDBRANCH  29  30
ENDBRANCH  28  29
ENDBRANCH   1  28
TORSDOF 16
ENDMDL
