MODEL 1
REMARK VINA RESULT:     -12.2      0.000      0.000
REMARK SMILES Cc1ccccc1OCc1nc2cc(C(=O)NCCCCCCNC(=O)c3ccc(-c4c5nc(c(-c6c(F)cccc6F)c6ccc([nH]6)c(-c6c(F)cccc6F)c6nc(c(-c7c(F)cccc7F)c7ccc4[nH]7)C=C6)C=C5)cc3)ccc2n1C[C@H](C)O
REMARK SMILES IDX 20 1 19 2 18 3 17 4 15 5 16 6 14 8 10 9 11 10 84 11 12 12
REMARK SMILES IDX 83 13 13 14 82 15 81 16 9 17 8 18 7 19 1 20 2 21 3 22 4 23
REMARK SMILES IDX 6 24 5 25 85 26 86 27 87 28 88 29 21 31 22 32 23 33 24 34
REMARK SMILES IDX 25 35 26 37 27 38 28 39 80 40 29 41 79 42 30 43 31 44 32 45
REMARK SMILES IDX 73 46 33 47 78 48 72 49 74 50 34 51 77 52 71 53 70 54 35 56
REMARK SMILES IDX 61 57 44 58 60 59 45 60 48 61 59 62 75 63 46 64 47 65 58 67
REMARK SMILES IDX 76 68 49 69 36 70 37 71 42 72 38 73 39 74 41 75 43 76 40 77
REMARK SMILES IDX 62 78 63 79 68 80 64 81 65 82 67 83 69 84 66 85 50 86 51 87
REMARK SMILES IDX 56 88 52 89 53 90 55 91 57 92 54 93
REMARK H PARENT 17 7 88 30 24 36 74 55 48 66
REMARK Flexibility Score: inf
ROOT
ATOM      1  C   UNL A   1      36.575  23.346  25.259  1.00  0.00     0.002 C 
ENDROOT
BRANCH   1   2
ATOM      2  C   UNL A   1      35.542  22.314  25.719  1.00  0.00     0.021 C 
BRANCH   2   3
ATOM      3  C   UNL A   1      35.099  21.367  24.607  1.00  0.00     0.116 C 
BRANCH   3   4
ATOM      4  N   UNL A   1      34.585  20.108  25.142  1.00  0.00    -0.352 N 
ATOM      5  C   UNL A   1      33.263  19.735  25.310  1.00  0.00     0.251 C 
ATOM      6  O   UNL A   1      32.940  18.657  25.786  1.00  0.00    -0.269 OA
ATOM      7  H   UNL A   1      35.260  19.447  25.417  1.00  0.00     0.163 HD
BRANCH   5   8
ATOM      8  C   UNL A   1      32.260  20.657  24.750  1.00  0.00     0.042 A 
ATOM      9  C   UNL A   1      30.953  24.886  24.394  1.00  0.00     0.148 A 
ATOM     10  N   UNL A   1      30.875  24.060  25.433  1.00  0.00    -0.229 NA
ATOM     11  N   UNL A   1      31.908  24.395  23.542  1.00  0.00    -0.322 N 
ATOM     12  C   UNL A   1      31.416  22.875  24.964  1.00  0.00     0.090 A 
ATOM     13  C   UNL A   1      31.778  23.027  23.628  1.00  0.00     0.068 A 
ATOM     14  C   UNL A   1      31.704  21.653  25.581  1.00  0.00     0.044 A 
ATOM     15  C   UNL A   1      32.109  21.992  22.757  1.00  0.00     0.029 A 
ATOM     16  C   UNL A   1      32.316  20.761  23.353  1.00  0.00     0.016 A 
BRANCH   9  17
ATOM     17  C   UNL A   1      29.916  25.835  23.862  1.00  0.00     0.304 C 
BRANCH  17  18
ATOM     18  O   UNL A   1      30.600  27.108  23.814  1.00  0.00    -0.485 OA
BRANCH  18  19
ATOM     19  C   UNL A   1      29.818  28.220  23.686  1.00  0.00     0.122 A 
ATOM     20  C   UNL A   1      31.692  29.667  24.662  1.00  0.00     0.048 C 
ATOM     21  C   UNL A   1      30.331  29.476  24.065  1.00  0.00    -0.009 A 
ATOM     22  C   UNL A   1      29.579  30.629  23.802  1.00  0.00     0.007 A 
ATOM     23  C   UNL A   1      28.353  30.540  23.149  1.00  0.00     0.001 A 
ATOM     24  C   UNL A   1      28.591  28.135  23.028  1.00  0.00     0.047 A 
ATOM     25  C   UNL A   1      27.864  29.296  22.757  1.00  0.00     0.004 A 
ENDBRANCH  18  19
ENDBRANCH  17  18
ENDBRANCH   9  17
BRANCH  11  26
ATOM     26  C   UNL A   1      33.160  25.035  23.152  1.00  0.00     0.155 C 
BRANCH  26  27
ATOM     27  C   UNL A   1      33.155  25.784  21.818  1.00  0.00     0.131 C 
ATOM     28  C   UNL A   1      33.410  27.271  22.030  1.00  0.00     0.040 C 
BRANCH  27  29
ATOM     29  O   UNL A   1      31.879  25.622  21.196  1.00  0.00    -0.392 OA
ATOM     30  H   UNL A   1      31.324  25.043  21.742  1.00  0.00     0.211 HD
ENDBRANCH  27  29
ENDBRANCH  26  27
ENDBRANCH  11  26
ENDBRANCH   5   8
ENDBRANCH   3   4
ENDBRANCH   2   3
ENDBRANCH   1   2
BRANCH   1  31
ATOM     31  C   UNL A   1      37.848  23.455  26.119  1.00  0.00     0.002 C 
BRANCH  31  32
ATOM     32  C   UNL A   1      38.882  22.342  25.931  1.00  0.00     0.021 C 
BRANCH  32  33
ATOM     33  C   UNL A   1      39.930  22.285  27.037  1.00  0.00     0.116 C 
BRANCH  33  34
ATOM     34  N   UNL A   1      41.226  22.817  26.633  1.00  0.00    -0.352 N 
ATOM     35  C   UNL A   1      41.645  24.127  26.462  1.00  0.00     0.251 C 
ATOM     36  H   UNL A   1      41.915  22.136  26.453  1.00  0.00     0.163 HD
ATOM     37  O   UNL A   1      42.770  24.355  26.052  1.00  0.00    -0.269 OA
BRANCH  35  38
ATOM     38  C   UNL A   1      40.788  25.241  26.942  1.00  0.00     0.039 A 
ATOM     39  C   UNL A   1      40.782  26.408  26.165  1.00  0.00     0.014 A 
ATOM     40  C   UNL A   1      40.256  25.250  28.225  1.00  0.00     0.014 A 
ATOM     41  C   UNL A   1      40.543  27.629  26.781  1.00  0.00     0.010 A 
ATOM     42  C   UNL A   1      40.120  26.463  28.865  1.00  0.00     0.010 A 
ATOM     43  C   UNL A   1      40.360  27.646  28.159  1.00  0.00    -0.014 A 
BRANCH  43  44
ATOM     44  C   UNL A   1      40.542  28.838  28.971  1.00  0.00     0.031 A 
ATOM     45  C   UNL A   1      39.471  29.843  29.051  1.00  0.00     0.074 A 
ATOM     46  C   UNL A   1      41.658  28.956  29.722  1.00  0.00     0.049 A 
ATOM     47  N   UNL A   1      39.634  31.035  29.508  1.00  0.00    -0.248 NA
ATOM     48  C   UNL A   1      38.131  29.608  28.523  1.00  0.00     0.031 C 
ATOM     49  C   UNL A   1      41.900  29.882  30.825  1.00  0.00     0.029 A 
ATOM     50  N   UNL A   1      42.916  28.389  29.463  1.00  0.00    -0.354 N 
ATOM     51  C   UNL A   1      38.394  31.614  29.619  1.00  0.00     0.074 A 
ATOM     52  C   UNL A   1      37.525  30.749  28.864  1.00  0.00     0.031 C 
ATOM     53  C   UNL A   1      43.224  30.055  30.962  1.00  0.00     0.029 A 
ATOM     54  C   UNL A   1      43.856  29.369  29.850  1.00  0.00     0.049 A 
ATOM     55  H   UNL A   1      43.103  27.497  29.090  1.00  0.00     0.167 HD
ATOM     56  C   UNL A   1      38.254  32.677  30.461  1.00  0.00     0.037 A 
ATOM     57  C   UNL A   1      44.676  29.967  28.939  1.00  0.00     0.037 A 
ATOM     58  C   UNL A   1      39.573  33.201  30.840  1.00  0.00     0.049 A 
ATOM     59  C   UNL A   1      44.544  31.472  28.880  1.00  0.00     0.074 A 
ATOM     60  C   UNL A   1      40.341  33.134  31.991  1.00  0.00     0.029 A 
ATOM     61  N   UNL A   1      40.415  33.683  29.840  1.00  0.00    -0.354 N 
ATOM     62  N   UNL A   1      43.516  32.140  29.326  1.00  0.00    -0.248 NA
ATOM     63  C   UNL A   1      45.564  32.341  28.305  1.00  0.00     0.031 C 
ATOM     64  C   UNL A   1      41.666  33.536  31.662  1.00  0.00     0.029 A 
ATOM     65  C   UNL A   1      41.696  33.877  30.319  1.00  0.00     0.049 A 
ATOM     66  H   UNL A   1      40.135  33.863  28.914  1.00  0.00     0.167 HD
ATOM     67  C   UNL A   1      43.702  33.485  29.107  1.00  0.00     0.074 A 
ATOM     68  C   UNL A   1      45.017  33.554  28.494  1.00  0.00     0.031 C 
ATOM     69  C   UNL A   1      42.741  34.404  29.444  1.00  0.00     0.037 A 
BRANCH  56  70
ATOM     70  C   UNL A   1      36.956  33.107  31.133  1.00  0.00     0.057 A 
ATOM     71  C   UNL A   1      36.659  32.671  32.443  1.00  0.00     0.134 A 
ATOM     72  C   UNL A   1      35.908  33.838  30.537  1.00  0.00     0.134 A 
ATOM     73  F   UNL A   1      37.550  31.996  33.180  1.00  0.00    -0.206 F 
ATOM     74  C   UNL A   1      35.417  32.887  33.066  1.00  0.00     0.040 A 
ATOM     75  C   UNL A   1      34.669  34.072  31.154  1.00  0.00     0.040 A 
ATOM     76  F   UNL A   1      35.993  34.371  29.319  1.00  0.00    -0.206 F 
ATOM     77  C   UNL A   1      34.411  33.582  32.418  1.00  0.00     0.006 A 
ENDBRANCH  56  70
BRANCH  57  78
ATOM     78  C   UNL A   1      45.031  29.085  27.796  1.00  0.00     0.057 A 
ATOM     79  C   UNL A   1      46.061  28.143  27.969  1.00  0.00     0.134 A 
ATOM     80  C   UNL A   1      44.160  28.883  26.722  1.00  0.00     0.134 A 
ATOM     81  F   UNL A   1      46.935  28.279  28.979  1.00  0.00    -0.206 F 
ATOM     82  C   UNL A   1      46.148  26.989  27.187  1.00  0.00     0.040 A 
ATOM     83  C   UNL A   1      44.247  27.736  25.921  1.00  0.00     0.040 A 
ATOM     84  F   UNL A   1      43.139  29.724  26.503  1.00  0.00    -0.206 F 
ATOM     85  C   UNL A   1      45.216  26.767  26.179  1.00  0.00     0.006 A 
ENDBRANCH  57  78
BRANCH  69  86
ATOM     86  C   UNL A   1      42.674  35.880  29.064  1.00  0.00     0.057 A 
ATOM     87  C   UNL A   1      43.405  36.919  29.661  1.00  0.00     0.134 A 
ATOM     88  C   UNL A   1      41.916  36.292  27.935  1.00  0.00     0.134 A 
ATOM     89  F   UNL A   1      44.256  36.704  30.668  1.00  0.00    -0.206 F 
ATOM     90  C   UNL A   1      43.349  38.251  29.214  1.00  0.00     0.040 A 
ATOM     91  C   UNL A   1      41.901  37.603  27.443  1.00  0.00     0.040 A 
ATOM     92  F   UNL A   1      41.165  35.437  27.227  1.00  0.00    -0.206 F 
ATOM     93  C   UNL A   1      42.609  38.595  28.092  1.00  0.00     0.006 A 
ENDBRANCH  69  86
ENDBRANCH  43  44
ENDBRANCH  35  38
ENDBRANCH  33  34
ENDBRANCH  32  33
ENDBRANCH  31  32
ENDBRANCH   1  31
TORSDOF 19
ENDMDL
MODEL 2
REMARK VINA RESULT:     -12.2      3.738      9.541
REMARK SMILES Cc1ccccc1OCc1nc2cc(C(=O)NCCCCCCNC(=O)c3ccc(-c4c5nc(c(-c6c(F)cccc6F)c6ccc([nH]6)c(-c6c(F)cccc6F)c6nc(c(-c7c(F)cccc7F)c7ccc4[nH]7)C=C6)C=C5)cc3)ccc2n1C[C@H](C)O
REMARK SMILES IDX 20 1 19 2 18 3 17 4 15 5 16 6 14 8 10 9 11 10 84 11 12 12
REMARK SMILES IDX 83 13 13 14 82 15 81 16 9 17 8 18 7 19 1 20 2 21 3 22 4 23
REMARK SMILES IDX 6 24 5 25 85 26 86 27 87 28 88 29 21 31 22 32 23 33 24 34
REMARK SMILES IDX 25 35 26 37 27 38 28 39 80 40 29 41 79 42 30 43 31 44 32 45
REMARK SMILES IDX 73 46 33 47 78 48 72 49 74 50 34 51 77 52 71 53 70 54 35 56
REMARK SMILES IDX 61 57 44 58 60 59 45 60 48 61 59 62 75 63 46 64 47 65 58 67
REMARK SMILES IDX 76 68 49 69 36 70 37 71 42 72 38 73 39 74 41 75 43 76 40 77
REMARK SMILES IDX 62 78 63 79 68 80 64 81 65 82 67 83 69 84 66 85 50 86 51 87
REMARK SMILES IDX 56 88 52 89 53 90 55 91 57 92 54 93
REMARK H PARENT 17 7 88 30 24 36 74 55 48 66
REMARK Flexibility Score: inf
ROOT
ATOM      1  C   UNL A   1      33.335  34.074  28.388  1.00  0.00     0.002 C 
ENDROOT
BRANCH   1   2
ATOM      2  C   UNL A   1      34.352  32.930  28.435  1.00  0.00     0.021 C 
BRANCH   2   3
ATOM      3  C   UNL A   1      33.775  31.592  27.980  1.00  0.00     0.116 C 
BRANCH   3   4
ATOM      4  N   UNL A   1      32.607  31.771  27.122  1.00  0.00    -0.352 N 
ATOM      5  C   UNL A   1      32.007  30.835  26.298  1.00  0.00     0.251 C 
ATOM      6  O   UNL A   1      31.036  31.096  25.603  1.00  0.00    -0.269 OA
ATOM      7  H   UNL A   1      32.197  32.666  27.129  1.00  0.00     0.163 HD
BRANCH   5   8
ATOM      8  C   UNL A   1      32.520  29.459  26.411  1.00  0.00     0.042 A 
ATOM      9  C   UNL A   1      31.596  25.142  25.930  1.00  0.00     0.148 A 
ATOM     10  N   UNL A   1      31.203  25.993  26.874  1.00  0.00    -0.229 NA
ATOM     11  N   UNL A   1      31.990  25.879  24.843  1.00  0.00    -0.322 N 
ATOM     12  C   UNL A   1      31.809  27.188  26.525  1.00  0.00     0.090 A 
ATOM     13  C   UNL A   1      32.581  27.000  25.381  1.00  0.00     0.068 A 
ATOM     14  C   UNL A   1      31.730  28.482  27.051  1.00  0.00     0.044 A 
ATOM     15  C   UNL A   1      33.529  27.894  24.889  1.00  0.00     0.029 A 
ATOM     16  C   UNL A   1      33.509  29.153  25.465  1.00  0.00     0.016 A 
BRANCH   9  17
ATOM     17  C   UNL A   1      32.093  23.732  26.077  1.00  0.00     0.304 C 
BRANCH  17  18
ATOM     18  O   UNL A   1      33.532  23.859  25.998  1.00  0.00    -0.485 OA
BRANCH  18  19
ATOM     19  C   UNL A   1      34.221  22.760  25.572  1.00  0.00     0.122 A 
ATOM     20  C   UNL A   1      36.423  24.054  25.756  1.00  0.00     0.048 C 
ATOM     21  C   UNL A   1      35.625  22.819  25.471  1.00  0.00    -0.009 A 
ATOM     22  C   UNL A   1      36.338  21.650  25.170  1.00  0.00     0.007 A 
ATOM     23  C   UNL A   1      35.674  20.440  25.001  1.00  0.00     0.001 A 
ATOM     24  C   UNL A   1      33.558  21.544  25.406  1.00  0.00     0.047 A 
ATOM     25  C   UNL A   1      34.287  20.386  25.126  1.00  0.00     0.004 A 
ENDBRANCH  18  19
ENDBRANCH  17  18
ENDBRANCH   9  17
BRANCH  11  26
ATOM     26  C   UNL A   1      31.400  25.874  23.509  1.00  0.00     0.155 C 
BRANCH  26  27
ATOM     27  C   UNL A   1      30.890  27.218  22.985  1.00  0.00     0.131 C 
ATOM     28  C   UNL A   1      29.419  27.413  23.334  1.00  0.00     0.040 C 
BRANCH  27  29
ATOM     29  O   UNL A   1      31.032  27.249  21.564  1.00  0.00    -0.392 OA
ATOM     30  H   UNL A   1      30.164  27.383  21.155  1.00  0.00     0.211 HD
ENDBRANCH  27  29
ENDBRANCH  26  27
ENDBRANCH  11  26
ENDBRANCH   5   8
ENDBRANCH   3   4
ENDBRANCH   2   3
ENDBRANCH   1   2
BRANCH   1  31
ATOM     31  C   UNL A   1      33.912  35.494  28.534  1.00  0.00     0.002 C 
BRANCH  31  32
ATOM     32  C   UNL A   1      33.277  36.369  29.618  1.00  0.00     0.021 C 
BRANCH  32  33
ATOM     33  C   UNL A   1      32.941  35.613  30.898  1.00  0.00     0.116 C 
BRANCH  33  34
ATOM     34  N   UNL A   1      33.806  35.960  32.020  1.00  0.00    -0.352 N 
ATOM     35  C   UNL A   1      34.862  35.266  32.587  1.00  0.00     0.251 C 
ATOM     36  H   UNL A   1      33.607  36.828  32.443  1.00  0.00     0.163 HD
ATOM     37  O   UNL A   1      35.421  35.712  33.573  1.00  0.00    -0.269 OA
BRANCH  35  38
ATOM     38  C   UNL A   1      35.419  34.078  31.890  1.00  0.00     0.039 A 
ATOM     39  C   UNL A   1      35.386  32.866  32.593  1.00  0.00     0.014 A 
ATOM     40  C   UNL A   1      36.191  34.202  30.742  1.00  0.00     0.014 A 
ATOM     41  C   UNL A   1      36.355  31.906  32.332  1.00  0.00     0.010 A 
ATOM     42  C   UNL A   1      37.216  33.303  30.546  1.00  0.00     0.010 A 
ATOM     43  C   UNL A   1      37.348  32.209  31.407  1.00  0.00    -0.014 A 
BRANCH  43  44
ATOM     44  C   UNL A   1      38.628  31.521  31.360  1.00  0.00     0.031 A 
ATOM     45  C   UNL A   1      38.743  30.228  30.669  1.00  0.00     0.074 A 
ATOM     46  C   UNL A   1      39.720  32.133  31.869  1.00  0.00     0.049 A 
ATOM     47  N   UNL A   1      39.740  29.426  30.803  1.00  0.00    -0.248 NA
ATOM     48  C   UNL A   1      37.678  29.687  29.832  1.00  0.00     0.031 C 
ATOM     49  C   UNL A   1      41.122  31.785  31.653  1.00  0.00     0.029 A 
ATOM     50  N   UNL A   1      39.753  33.080  32.904  1.00  0.00    -0.354 N 
ATOM     51  C   UNL A   1      39.604  28.429  29.867  1.00  0.00     0.074 A 
ATOM     52  C   UNL A   1      38.248  28.559  29.400  1.00  0.00     0.031 C 
ATOM     53  C   UNL A   1      41.847  32.253  32.680  1.00  0.00     0.029 A 
ATOM     54  C   UNL A   1      40.908  32.773  33.657  1.00  0.00     0.049 A 
ATOM     55  H   UNL A   1      39.109  33.806  33.070  1.00  0.00     0.167 HD
ATOM     56  C   UNL A   1      40.715  27.721  29.518  1.00  0.00     0.037 A 
ATOM     57  C   UNL A   1      40.821  32.345  34.950  1.00  0.00     0.037 A 
ATOM     58  C   UNL A   1      41.796  27.962  30.483  1.00  0.00     0.049 A 
ATOM     59  C   UNL A   1      41.448  30.993  35.198  1.00  0.00     0.074 A 
ATOM     60  C   UNL A   1      42.968  28.701  30.450  1.00  0.00     0.029 A 
ATOM     61  N   UNL A   1      41.592  27.617  31.817  1.00  0.00    -0.354 N 
ATOM     62  N   UNL A   1      41.702  30.115  34.267  1.00  0.00    -0.248 NA
ATOM     63  C   UNL A   1      41.835  30.524  36.524  1.00  0.00     0.031 C 
ATOM     64  C   UNL A   1      43.442  28.834  31.785  1.00  0.00     0.029 A 
ATOM     65  C   UNL A   1      42.576  28.152  32.625  1.00  0.00     0.049 A 
ATOM     66  H   UNL A   1      40.846  27.062  32.142  1.00  0.00     0.167 HD
ATOM     67  C   UNL A   1      42.256  28.988  34.826  1.00  0.00     0.074 A 
ATOM     68  C   UNL A   1      42.345  29.314  36.239  1.00  0.00     0.031 C 
ATOM     69  C   UNL A   1      42.574  27.893  34.063  1.00  0.00     0.037 A 
BRANCH  56  70
ATOM     70  C   UNL A   1      40.920  26.997  28.193  1.00  0.00     0.057 A 
ATOM     71  C   UNL A   1      40.231  25.793  27.930  1.00  0.00     0.134 A 
ATOM     72  C   UNL A   1      41.845  27.341  27.186  1.00  0.00     0.134 A 
ATOM     73  F   UNL A   1      39.284  25.328  28.756  1.00  0.00    -0.206 F 
ATOM     74  C   UNL A   1      40.488  24.984  26.808  1.00  0.00     0.040 A 
ATOM     75  C   UNL A   1      42.101  26.550  26.055  1.00  0.00     0.040 A 
ATOM     76  F   UNL A   1      42.575  28.455  27.218  1.00  0.00    -0.206 F 
ATOM     77  C   UNL A   1      41.434  25.356  25.870  1.00  0.00     0.006 A 
ENDBRANCH  56  70
BRANCH  57  78
ATOM     78  C   UNL A   1      39.650  32.903  35.677  1.00  0.00     0.057 A 
ATOM     79  C   UNL A   1      38.497  32.107  35.804  1.00  0.00     0.134 A 
ATOM     80  C   UNL A   1      39.772  33.987  36.549  1.00  0.00     0.134 A 
ATOM     81  F   UNL A   1      38.315  31.051  34.996  1.00  0.00    -0.206 F 
ATOM     82  C   UNL A   1      37.569  32.306  36.829  1.00  0.00     0.040 A 
ATOM     83  C   UNL A   1      38.839  34.207  37.572  1.00  0.00     0.040 A 
ATOM     84  F   UNL A   1      40.852  34.780  36.506  1.00  0.00    -0.206 F 
ATOM     85  C   UNL A   1      37.758  33.341  37.739  1.00  0.00     0.006 A 
ENDBRANCH  57  78
BRANCH  69  86
ATOM     86  C   UNL A   1      42.965  26.496  34.537  1.00  0.00     0.057 A 
ATOM     87  C   UNL A   1      42.089  25.523  35.043  1.00  0.00     0.134 A 
ATOM     88  C   UNL A   1      44.296  26.031  34.366  1.00  0.00     0.134 A 
ATOM     89  F   UNL A   1      40.778  25.742  35.173  1.00  0.00    -0.206 F 
ATOM     90  C   UNL A   1      42.505  24.227  35.395  1.00  0.00     0.040 A 
ATOM     91  C   UNL A   1      44.708  24.725  34.656  1.00  0.00     0.040 A 
ATOM     92  F   UNL A   1      45.271  26.815  33.881  1.00  0.00    -0.206 F 
ATOM     93  C   UNL A   1      43.814  23.818  35.188  1.00  0.00     0.006 A 
ENDBRANCH  69  86
ENDBRANCH  43  44
ENDBRANCH  35  38
ENDBRANCH  33  34
ENDBRANCH  32  33
ENDBRANCH  31  32
ENDBRANCH   1  31
TORSDOF 19
ENDMDL
MODEL 3
REMARK VINA RESULT:     -12.2      3.471      9.342
REMARK SMILES Cc1ccccc1OCc1nc2cc(C(=O)NCCCCCCNC(=O)c3ccc(-c4c5nc(c(-c6c(F)cccc6F)c6ccc([nH]6)c(-c6c(F)cccc6F)c6nc(c(-c7c(F)cccc7F)c7ccc4[nH]7)C=C6)C=C5)cc3)ccc2n1C[C@H](C)O
REMARK SMILES IDX 20 1 19 2 18 3 17 4 15 5 16 6 14 8 10 9 11 10 84 11 12 12
REMARK SMILES IDX 83 13 13 14 82 15 81 16 9 17 8 18 7 19 1 20 2 21 3 22 4 23
REMARK SMILES IDX 6 24 5 25 85 26 86 27 87 28 88 29 21 31 22 32 23 33 24 34
REMARK SMILES IDX 25 35 26 37 27 38 28 39 80 40 29 41 79 42 30 43 31 44 32 45
REMARK SMILES IDX 73 46 33 47 78 48 72 49 74 50 34 51 77 52 71 53 70 54 35 56
REMARK SMILES IDX 61 57 44 58 60 59 45 60 48 61 59 62 75 63 46 64 47 65 58 67
REMARK SMILES IDX 76 68 49 69 36 70 37 71 42 72 38 73 39 74 41 75 43 76 40 77
REMARK SMILES IDX 62 78 63 79 68 80 64 81 65 82 67 83 69 84 66 85 50 86 51 87
REMARK SMILES IDX 56 88 52 89 53 90 55 91 57 92 54 93
REMARK H PARENT 17 7 88 30 24 36 74 55 48 66
REMARK Flexibility Score: inf
ROOT
ATOM      1  C   UNL A   1      31.958  29.626  25.877  1.00  0.00     0.002 C 
ENDROOT
BRANCH   1   2
ATOM      2  C   UNL A   1      31.072  29.922  24.665  1.00  0.00     0.021 C 
BRANCH   2   3
ATOM      3  C   UNL A   1      30.873  28.714  23.753  1.00  0.00     0.116 C 
BRANCH   3   4
ATOM      4  N   UNL A   1      32.013  28.517  22.862  1.00  0.00    -0.352 N 
ATOM      5  C   UNL A   1      32.913  27.466  22.853  1.00  0.00     0.251 C 
ATOM      6  O   UNL A   1      33.848  27.406  22.069  1.00  0.00    -0.269 OA
ATOM      7  H   UNL A   1      32.160  29.217  22.185  1.00  0.00     0.163 HD
BRANCH   5   8
ATOM      8  C   UNL A   1      32.597  26.345  23.755  1.00  0.00     0.042 A 
ATOM      9  C   UNL A   1      32.820  21.953  24.374  1.00  0.00     0.148 A 
ATOM     10  N   UNL A   1      32.030  22.656  23.568  1.00  0.00    -0.229 NA
ATOM     11  N   UNL A   1      33.896  22.741  24.694  1.00  0.00    -0.322 N 
ATOM     12  C   UNL A   1      32.388  23.972  23.807  1.00  0.00     0.090 A 
ATOM     13  C   UNL A   1      33.378  24.013  24.787  1.00  0.00     0.068 A 
ATOM     14  C   UNL A   1      32.000  25.183  23.223  1.00  0.00     0.044 A 
ATOM     15  C   UNL A   1      33.796  25.154  25.466  1.00  0.00     0.029 A 
ATOM     16  C   UNL A   1      33.347  26.353  24.939  1.00  0.00     0.016 A 
BRANCH   9  17
ATOM     17  C   UNL A   1      32.471  20.796  25.266  1.00  0.00     0.304 C 
BRANCH  17  18
ATOM     18  O   UNL A   1      31.956  19.796  24.357  1.00  0.00    -0.485 OA
BRANCH  18  19
ATOM     19  C   UNL A   1      32.510  18.551  24.437  1.00  0.00     0.122 A 
ATOM     20  C   UNL A   1      32.477  18.357  21.884  1.00  0.00     0.048 C 
ATOM     21  C   UNL A   1      32.796  17.842  23.254  1.00  0.00    -0.009 A 
ATOM     22  C   UNL A   1      33.492  16.628  23.337  1.00  0.00     0.007 A 
ATOM     23  C   UNL A   1      33.919  16.139  24.567  1.00  0.00     0.001 A 
ATOM     24  C   UNL A   1      32.943  18.061  25.669  1.00  0.00     0.047 A 
ATOM     25  C   UNL A   1      33.651  16.859  25.730  1.00  0.00     0.004 A 
ENDBRANCH  18  19
ENDBRANCH  17  18
ENDBRANCH   9  17
BRANCH  11  26
ATOM     26  C   UNL A   1      35.299  22.493  24.381  1.00  0.00     0.155 C 
BRANCH  26  27
ATOM     27  C   UNL A   1      36.080  21.641  25.384  1.00  0.00     0.131 C 
ATOM     28  C   UNL A   1      36.078  20.175  24.967  1.00  0.00     0.040 C 
BRANCH  27  29
ATOM     29  O   UNL A   1      35.466  21.752  26.669  1.00  0.00    -0.392 OA
ATOM     30  H   UNL A   1      34.507  21.644  26.580  1.00  0.00     0.211 HD
ENDBRANCH  27  29
ENDBRANCH  26  27
ENDBRANCH  11  26
ENDBRANCH   5   8
ENDBRANCH   3   4
ENDBRANCH   2   3
ENDBRANCH   1   2
BRANCH   1  31
ATOM     31  C   UNL A   1      32.298  30.830  26.775  1.00  0.00     0.002 C 
BRANCH  31  32
ATOM     32  C   UNL A   1      33.537  30.679  27.661  1.00  0.00     0.021 C 
BRANCH  32  33
ATOM     33  C   UNL A   1      34.453  31.897  27.649  1.00  0.00     0.116 C 
BRANCH  33  34
ATOM     34  N   UNL A   1      34.935  32.271  28.973  1.00  0.00    -0.352 N 
ATOM     35  C   UNL A   1      35.783  31.603  29.841  1.00  0.00     0.251 C 
ATOM     36  H   UNL A   1      34.604  33.138  29.304  1.00  0.00     0.163 HD
ATOM     37  O   UNL A   1      36.013  32.068  30.944  1.00  0.00    -0.269 OA
BRANCH  35  38
ATOM     38  C   UNL A   1      36.542  30.420  29.361  1.00  0.00     0.039 A 
ATOM     39  C   UNL A   1      36.756  29.392  30.290  1.00  0.00     0.014 A 
ATOM     40  C   UNL A   1      37.253  30.445  28.167  1.00  0.00     0.014 A 
ATOM     41  C   UNL A   1      37.886  28.593  30.167  1.00  0.00     0.010 A 
ATOM     42  C   UNL A   1      38.427  29.728  28.092  1.00  0.00     0.010 A 
ATOM     43  C   UNL A   1      38.783  28.877  29.143  1.00  0.00    -0.014 A 
BRANCH  43  44
ATOM     44  C   UNL A   1      40.170  28.440  29.157  1.00  0.00     0.031 A 
ATOM     45  C   UNL A   1      40.515  27.077  28.728  1.00  0.00     0.074 A 
ATOM     46  C   UNL A   1      41.135  29.332  29.472  1.00  0.00     0.049 A 
ATOM     47  N   UNL A   1      41.650  26.515  28.959  1.00  0.00    -0.248 NA
ATOM     48  C   UNL A   1      39.556  26.191  28.077  1.00  0.00     0.031 C 
ATOM     49  C   UNL A   1      42.573  29.210  29.246  1.00  0.00     0.029 A 
ATOM     50  N   UNL A   1      41.007  30.461  30.297  1.00  0.00    -0.354 N 
ATOM     51  C   UNL A   1      41.688  25.341  28.246  1.00  0.00     0.074 A 
ATOM     52  C   UNL A   1      40.323  25.122  27.842  1.00  0.00     0.031 C 
ATOM     53  C   UNL A   1      43.216  30.003  30.117  1.00  0.00     0.029 A 
ATOM     54  C   UNL A   1      42.215  30.530  31.027  1.00  0.00     0.049 A 
ATOM     55  H   UNL A   1      40.239  31.074  30.354  1.00  0.00     0.167 HD
ATOM     56  C   UNL A   1      42.907  24.792  27.978  1.00  0.00     0.037 A 
ATOM     57  C   UNL A   1      42.237  30.366  32.381  1.00  0.00     0.037 A 
ATOM     58  C   UNL A   1      43.941  25.419  28.812  1.00  0.00     0.049 A 
ATOM     59  C   UNL A   1      43.117  29.231  32.852  1.00  0.00     0.074 A 
ATOM     60  C   UNL A   1      44.949  26.337  28.567  1.00  0.00     0.029 A 
ATOM     61  N   UNL A   1      43.834  25.321  30.197  1.00  0.00    -0.354 N 
ATOM     62  N   UNL A   1      43.514  28.243  32.098  1.00  0.00    -0.248 NA
ATOM     63  C   UNL A   1      43.612  29.121  34.219  1.00  0.00     0.031 C 
ATOM     64  C   UNL A   1      45.416  26.825  29.819  1.00  0.00     0.029 A 
ATOM     65  C   UNL A   1      44.714  26.181  30.825  1.00  0.00     0.049 A 
ATOM     66  H   UNL A   1      43.215  24.717  30.668  1.00  0.00     0.167 HD
ATOM     67  C   UNL A   1      44.285  27.374  32.835  1.00  0.00     0.074 A 
ATOM     68  C   UNL A   1      44.339  27.992  34.148  1.00  0.00     0.031 C 
ATOM     69  C   UNL A   1      44.791  26.225  32.284  1.00  0.00     0.037 A 
BRANCH  56  70
ATOM     70  C   UNL A   1      43.219  23.863  26.811  1.00  0.00     0.057 A 
ATOM     71  C   UNL A   1      43.014  22.472  26.939  1.00  0.00     0.134 A 
ATOM     72  C   UNL A   1      43.823  24.228  25.591  1.00  0.00     0.134 A 
ATOM     73  F   UNL A   1      42.417  21.944  28.015  1.00  0.00    -0.206 F 
ATOM     74  C   UNL A   1      43.430  21.538  25.974  1.00  0.00     0.040 A 
ATOM     75  C   UNL A   1      44.230  23.307  24.613  1.00  0.00     0.040 A 
ATOM     76  F   UNL A   1      44.073  25.492  25.251  1.00  0.00    -0.206 F 
ATOM     77  C   UNL A   1      44.050  21.952  24.808  1.00  0.00     0.006 A 
ENDBRANCH  56  70
BRANCH  57  78
ATOM     78  C   UNL A   1      40.996  30.836  33.052  1.00  0.00     0.057 A 
ATOM     79  C   UNL A   1      40.011  29.888  33.383  1.00  0.00     0.134 A 
ATOM     80  C   UNL A   1      40.932  32.071  33.701  1.00  0.00     0.134 A 
ATOM     81  F   UNL A   1      40.013  28.681  32.794  1.00  0.00    -0.206 F 
ATOM     82  C   UNL A   1      39.080  30.111  34.400  1.00  0.00     0.040 A 
ATOM     83  C   UNL A   1      39.992  32.313  34.712  1.00  0.00     0.040 A 
ATOM     84  F   UNL A   1      41.847  33.020  33.457  1.00  0.00    -0.206 F 
ATOM     85  C   UNL A   1      39.091  31.318  35.092  1.00  0.00     0.006 A 
ENDBRANCH  57  78
BRANCH  69  86
ATOM     86  C   UNL A   1      45.451  25.048  32.999  1.00  0.00     0.057 A 
ATOM     87  C   UNL A   1      46.734  25.046  33.568  1.00  0.00     0.134 A 
ATOM     88  C   UNL A   1      44.713  23.861  33.250  1.00  0.00     0.134 A 
ATOM     89  F   UNL A   1      47.534  26.114  33.529  1.00  0.00    -0.206 F 
ATOM     90  C   UNL A   1      47.255  23.948  34.277  1.00  0.00     0.040 A 
ATOM     91  C   UNL A   1      45.199  22.787  34.005  1.00  0.00     0.040 A 
ATOM     92  F   UNL A   1      43.463  23.686  32.796  1.00  0.00    -0.206 F 
ATOM     93  C   UNL A   1      46.483  22.820  34.511  1.00  0.00     0.006 A 
ENDBRANCH  69  86
ENDBRANCH  43  44
ENDBRANCH  35  38
ENDBRANCH  33  34
ENDBRANCH  32  33
ENDBRANCH  31  32
ENDBRANCH   1  31
TORSDOF 19
ENDMDL
