MODEL 1
REMARK VINA RESULT:     -10.8      0.000      0.000
REMARK SMILES O=C(NCCCCCCNC(=O)[C@@H]1CC[C@]2(CC[NH2+]C2)C1)c1ccc(-c2c3nc(c(-c4c(F)cccc4F)c4ccc([nH]4)c(-c4c(F)cccc4F)c4nc(c(-c5c(F)cccc5F)c5ccc2[nH]5)C=C4)C=C3)cc1
REMARK SMILES IDX 5 1 4 2 3 3 1 4 2 5 22 7 23 8 75 9 24 10 74 11 25 12 26 13
REMARK SMILES IDX 27 14 68 15 28 16 73 17 67 18 69 19 29 20 72 21 66 22 65 23
REMARK SMILES IDX 30 25 56 26 39 27 55 28 40 29 43 30 54 31 70 32 41 33 42 34
REMARK SMILES IDX 53 36 71 37 44 38 31 39 32 40 37 41 33 42 34 43 36 44 38 45
REMARK SMILES IDX 35 46 57 47 58 48 63 49 59 50 60 51 62 52 64 53 61 54 45 55
REMARK SMILES IDX 46 56 51 57 47 58 48 59 50 60 52 61 49 62 6 63 7 64 8 65
REMARK SMILES IDX 9 66 10 67 11 68 12 70 13 71 14 72 21 73 15 74 16 75 17 76
REMARK SMILES IDX 20 77 18 78 19 79
REMARK H PARENT 3 6 69 24 43 35 10 69 19 80 19 81
REMARK Flexibility Score: inf
ROOT
ATOM      1  C   UNL A   1      38.460  19.920  24.842  1.00  0.00     0.021 C 
ENDROOT
BRANCH   1   2
ATOM      2  C   UNL A   1      39.246  19.520  26.084  1.00  0.00     0.116 C 
BRANCH   2   3
ATOM      3  N   UNL A   1      40.546  18.948  25.772  1.00  0.00    -0.352 N 
ATOM      4  O   UNL A   1      42.781  18.942  25.432  1.00  0.00    -0.269 OA
ATOM      5  C   UNL A   1      41.791  19.525  25.865  1.00  0.00     0.251 C 
ATOM      6  H   UNL A   1      40.534  18.018  25.450  1.00  0.00     0.163 HD
BRANCH   5   7
ATOM      7  C   UNL A   1      41.928  20.874  26.456  1.00  0.00     0.039 A 
ATOM      8  C   UNL A   1      42.108  21.993  25.643  1.00  0.00     0.014 A 
ATOM      9  C   UNL A   1      41.898  21.014  27.847  1.00  0.00     0.014 A 
ATOM     10  C   UNL A   1      42.421  23.220  26.219  1.00  0.00     0.010 A 
ATOM     11  C   UNL A   1      42.127  22.268  28.424  1.00  0.00     0.010 A 
ATOM     12  C   UNL A   1      42.434  23.372  27.615  1.00  0.00    -0.014 A 
BRANCH  12  13
ATOM     13  C   UNL A   1      42.748  24.704  28.194  1.00  0.00     0.031 A 
ATOM     14  C   UNL A   1      44.164  25.105  28.504  1.00  0.00     0.074 A 
ATOM     15  C   UNL A   1      41.743  25.578  28.394  1.00  0.00     0.049 A 
ATOM     16  N   UNL A   1      44.616  26.249  28.955  1.00  0.00    -0.248 NA
ATOM     17  C   UNL A   1      45.211  24.093  28.290  1.00  0.00     0.031 C 
ATOM     18  C   UNL A   1      40.325  25.300  28.146  1.00  0.00     0.029 A 
ATOM     19  N   UNL A   1      41.756  26.879  28.823  1.00  0.00    -0.354 N 
ATOM     20  C   UNL A   1      45.988  26.087  29.104  1.00  0.00     0.074 A 
ATOM     21  C   UNL A   1      46.295  24.728  28.714  1.00  0.00     0.031 C 
ATOM     22  C   UNL A   1      39.614  26.415  28.368  1.00  0.00     0.029 A 
ATOM     23  C   UNL A   1      40.515  27.467  28.826  1.00  0.00     0.049 A 
ATOM     24  H   UNL A   1      42.576  27.348  29.101  1.00  0.00     0.167 HD
ATOM     25  C   UNL A   1      46.907  26.992  29.520  1.00  0.00     0.037 A 
ATOM     26  C   UNL A   1      40.139  28.714  29.162  1.00  0.00     0.037 A 
ATOM     27  C   UNL A   1      46.605  28.353  29.880  1.00  0.00     0.049 A 
ATOM     28  C   UNL A   1      41.180  29.696  29.613  1.00  0.00     0.074 A 
ATOM     29  C   UNL A   1      47.476  29.357  30.271  1.00  0.00     0.029 A 
ATOM     30  N   UNL A   1      45.332  28.904  29.894  1.00  0.00    -0.354 N 
ATOM     31  N   UNL A   1      42.477  29.538  29.710  1.00  0.00    -0.248 NA
ATOM     32  C   UNL A   1      40.703  31.030  30.002  1.00  0.00     0.031 C 
ATOM     33  C   UNL A   1      46.726  30.503  30.556  1.00  0.00     0.029 A 
ATOM     34  C   UNL A   1      45.392  30.226  30.303  1.00  0.00     0.049 A 
ATOM     35  H   UNL A   1      44.507  28.425  29.650  1.00  0.00     0.167 HD
ATOM     36  C   UNL A   1      42.975  30.755  30.154  1.00  0.00     0.074 A 
ATOM     37  C   UNL A   1      41.840  31.647  30.287  1.00  0.00     0.031 C 
ATOM     38  C   UNL A   1      44.255  31.102  30.427  1.00  0.00     0.037 A 
BRANCH  25  39
ATOM     39  C   UNL A   1      48.333  26.534  29.627  1.00  0.00     0.057 A 
ATOM     40  C   UNL A   1      49.255  26.726  28.590  1.00  0.00     0.134 A 
ATOM     41  C   UNL A   1      48.802  25.934  30.803  1.00  0.00     0.134 A 
ATOM     42  F   UNL A   1      48.869  27.284  27.433  1.00  0.00    -0.206 F 
ATOM     43  C   UNL A   1      50.586  26.319  28.711  1.00  0.00     0.040 A 
ATOM     44  C   UNL A   1      50.135  25.544  30.945  1.00  0.00     0.040 A 
ATOM     45  F   UNL A   1      47.974  25.728  31.838  1.00  0.00    -0.206 F 
ATOM     46  C   UNL A   1      51.030  25.732  29.894  1.00  0.00     0.006 A 
ENDBRANCH  25  39
BRANCH  26  47
ATOM     47  C   UNL A   1      38.712  29.105  29.066  1.00  0.00     0.057 A 
ATOM     48  C   UNL A   1      37.868  29.037  30.179  1.00  0.00     0.134 A 
ATOM     49  C   UNL A   1      38.162  29.566  27.865  1.00  0.00     0.134 A 
ATOM     50  F   UNL A   1      38.335  28.586  31.354  1.00  0.00    -0.206 F 
ATOM     51  C   UNL A   1      36.523  29.401  30.101  1.00  0.00     0.040 A 
ATOM     52  C   UNL A   1      36.825  29.959  27.777  1.00  0.00     0.040 A 
ATOM     53  F   UNL A   1      38.922  29.663  26.764  1.00  0.00    -0.206 F 
ATOM     54  C   UNL A   1      36.000  29.871  28.896  1.00  0.00     0.006 A 
ENDBRANCH  26  47
BRANCH  38  55
ATOM     55  C   UNL A   1      44.496  32.515  30.866  1.00  0.00     0.057 A 
ATOM     56  C   UNL A   1      44.502  32.877  32.219  1.00  0.00     0.134 A 
ATOM     57  C   UNL A   1      44.736  33.523  29.923  1.00  0.00     0.134 A 
ATOM     58  F   UNL A   1      44.263  31.961  33.169  1.00  0.00    -0.206 F 
ATOM     59  C   UNL A   1      44.713  34.198  32.618  1.00  0.00     0.040 A 
ATOM     60  C   UNL A   1      44.971  34.842  30.311  1.00  0.00     0.040 A 
ATOM     61  F   UNL A   1      44.748  33.240  28.612  1.00  0.00    -0.206 F 
ATOM     62  C   UNL A   1      44.953  35.184  31.662  1.00  0.00     0.006 A 
ENDBRANCH  38  55
ENDBRANCH  12  13
ENDBRANCH   5   7
ENDBRANCH   2   3
ENDBRANCH   1   2
BRANCH   1  63
ATOM     63  C   UNL A   1      37.944  21.358  24.837  1.00  0.00     0.002 C 
BRANCH  63  64
ATOM     64  C   UNL A   1      38.378  22.216  26.030  1.00  0.00     0.002 C 
BRANCH  64  65
ATOM     65  C   UNL A   1      37.732  23.604  26.121  1.00  0.00     0.021 C 
BRANCH  65  66
ATOM     66  C   UNL A   1      36.243  23.645  25.777  1.00  0.00     0.116 C 
BRANCH  66  67
ATOM     67  N   UNL A   1      35.475  22.783  26.653  1.00  0.00    -0.356 N 
ATOM     68  C   UNL A   1      34.627  21.762  26.345  1.00  0.00     0.223 C 
ATOM     69  H   UNL A   1      35.583  22.962  27.615  1.00  0.00     0.163 HD
ATOM     70  O   UNL A   1      34.083  21.163  27.272  1.00  0.00    -0.275 OA
BRANCH  68  71
ATOM     71  C   UNL A   1      34.400  21.407  24.880  1.00  0.00     0.079 C 
ATOM     72  C   UNL A   1      33.023  21.837  24.384  1.00  0.00     0.014 C 
ATOM     73  C   UNL A   1      34.408  19.893  24.637  1.00  0.00     0.026 C 
ATOM     74  C   UNL A   1      32.101  20.719  24.848  1.00  0.00     0.014 C 
ATOM     75  C   UNL A   1      32.929  19.428  24.738  1.00  0.00     0.026 C 
ATOM     76  C   UNL A   1      32.696  18.471  25.923  1.00  0.00     0.074 C 
ATOM     77  C   UNL A   1      32.533  18.570  23.527  1.00  0.00     0.267 C 
ATOM     78  C   UNL A   1      32.435  17.106  25.301  1.00  0.00     0.261 C 
ATOM     79  N   UNL A   1      32.913  17.208  23.920  1.00  0.00    -0.346 N 
ATOM     80  H   UNL A   1      32.459  16.517  23.324  1.00  0.00     0.346 HD
ATOM     81  H   UNL A   1      33.915  17.034  23.832  1.00  0.00     0.346 HD
ENDBRANCH  68  71
ENDBRANCH  66  67
ENDBRANCH  65  66
ENDBRANCH  64  65
ENDBRANCH  63  64
ENDBRANCH   1  63
TORSDOF 13
ENDMDL
MODEL 2
REMARK VINA RESULT:     -10.6      5.559     10.151
REMARK SMILES O=C(NCCCCCCNC(=O)[C@@H]1CC[C@]2(CC[NH2+]C2)C1)c1ccc(-c2c3nc(c(-c4c(F)cccc4F)c4ccc([nH]4)c(-c4c(F)cccc4F)c4nc(c(-c5c(F)cccc5F)c5ccc2[nH]5)C=C4)C=C3)cc1
REMARK SMILES IDX 5 1 4 2 3 3 1 4 2 5 22 7 23 8 75 9 24 10 74 11 25 12 26 13
REMARK SMILES IDX 27 14 68 15 28 16 73 17 67 18 69 19 29 20 72 21 66 22 65 23
REMARK SMILES IDX 30 25 56 26 39 27 55 28 40 29 43 30 54 31 70 32 41 33 42 34
REMARK SMILES IDX 53 36 71 37 44 38 31 39 32 40 37 41 33 42 34 43 36 44 38 45
REMARK SMILES IDX 35 46 57 47 58 48 63 49 59 50 60 51 62 52 64 53 61 54 45 55
REMARK SMILES IDX 46 56 51 57 47 58 48 59 50 60 52 61 49 62 6 63 7 64 8 65
REMARK SMILES IDX 9 66 10 67 11 68 12 70 13 71 14 72 21 73 15 74 16 75 17 76
REMARK SMILES IDX 20 77 18 78 19 79
REMARK H PARENT 3 6 69 24 43 35 10 69 19 80 19 81
REMARK Flexibility Score: inf
ROOT
ATOM      1  C   UNL A   1      31.666  31.865  27.069  1.00  0.00     0.021 C 
ENDROOT
BRANCH   1   2
ATOM      2  C   UNL A   1      32.546  33.056  26.714  1.00  0.00     0.116 C 
BRANCH   2   3
ATOM      3  N   UNL A   1      32.310  34.210  27.567  1.00  0.00    -0.352 N 
ATOM      4  O   UNL A   1      32.565  35.535  29.380  1.00  0.00    -0.269 OA
ATOM      5  C   UNL A   1      32.981  34.600  28.701  1.00  0.00     0.251 C 
ATOM      6  H   UNL A   1      31.566  34.794  27.293  1.00  0.00     0.163 HD
BRANCH   5   7
ATOM      7  C   UNL A   1      34.192  33.864  29.124  1.00  0.00     0.039 A 
ATOM      8  C   UNL A   1      34.090  32.734  29.937  1.00  0.00     0.014 A 
ATOM      9  C   UNL A   1      35.447  34.324  28.716  1.00  0.00     0.014 A 
ATOM     10  C   UNL A   1      35.240  32.167  30.475  1.00  0.00     0.010 A 
ATOM     11  C   UNL A   1      36.605  33.697  29.189  1.00  0.00     0.010 A 
ATOM     12  C   UNL A   1      36.511  32.641  30.107  1.00  0.00    -0.014 A 
BRANCH  12  13
ATOM     13  C   UNL A   1      37.718  31.993  30.683  1.00  0.00     0.031 A 
ATOM     14  C   UNL A   1      38.188  32.318  32.075  1.00  0.00     0.074 A 
ATOM     15  C   UNL A   1      38.366  31.065  29.954  1.00  0.00     0.049 A 
ATOM     16  N   UNL A   1      39.185  31.800  32.749  1.00  0.00    -0.248 NA
ATOM     17  C   UNL A   1      37.454  33.363  32.805  1.00  0.00     0.031 C 
ATOM     18  C   UNL A   1      38.015  30.674  28.585  1.00  0.00     0.029 A 
ATOM     19  N   UNL A   1      39.432  30.262  30.265  1.00  0.00    -0.354 N 
ATOM     20  C   UNL A   1      39.215  32.471  33.966  1.00  0.00     0.074 A 
ATOM     21  C   UNL A   1      38.148  33.448  33.931  1.00  0.00     0.031 C 
ATOM     22  C   UNL A   1      38.811  29.667  28.199  1.00  0.00     0.029 A 
ATOM     23  C   UNL A   1      39.761  29.378  29.267  1.00  0.00     0.049 A 
ATOM     24  H   UNL A   1      39.915  30.314  31.122  1.00  0.00     0.167 HD
ATOM     25  C   UNL A   1      40.050  32.283  35.016  1.00  0.00     0.037 A 
ATOM     26  C   UNL A   1      40.722  28.438  29.213  1.00  0.00     0.037 A 
ATOM     27  C   UNL A   1      41.092  31.290  35.060  1.00  0.00     0.049 A 
ATOM     28  C   UNL A   1      41.628  28.249  30.395  1.00  0.00     0.074 A 
ATOM     29  C   UNL A   1      41.960  30.995  36.098  1.00  0.00     0.029 A 
ATOM     30  N   UNL A   1      41.410  30.431  34.019  1.00  0.00    -0.354 N 
ATOM     31  N   UNL A   1      41.617  28.865  31.551  1.00  0.00    -0.248 NA
ATOM     32  C   UNL A   1      42.681  27.234  30.261  1.00  0.00     0.031 C 
ATOM     33  C   UNL A   1      42.827  29.982  35.672  1.00  0.00     0.029 A 
ATOM     34  C   UNL A   1      42.471  29.617  34.384  1.00  0.00     0.049 A 
ATOM     35  H   UNL A   1      40.950  30.403  33.149  1.00  0.00     0.167 HD
ATOM     36  C   UNL A   1      42.646  28.301  32.290  1.00  0.00     0.074 A 
ATOM     37  C   UNL A   1      43.249  27.280  31.457  1.00  0.00     0.031 C 
ATOM     38  C   UNL A   1      43.057  28.602  33.546  1.00  0.00     0.037 A 
BRANCH  25  39
ATOM     39  C   UNL A   1      39.883  33.184  36.205  1.00  0.00     0.057 A 
ATOM     40  C   UNL A   1      40.587  34.388  36.330  1.00  0.00     0.134 A 
ATOM     41  C   UNL A   1      38.969  32.863  37.218  1.00  0.00     0.134 A 
ATOM     42  F   UNL A   1      41.485  34.750  35.402  1.00  0.00    -0.206 F 
ATOM     43  C   UNL A   1      40.404  35.230  37.430  1.00  0.00     0.040 A 
ATOM     44  C   UNL A   1      38.761  33.707  38.311  1.00  0.00     0.040 A 
ATOM     45  F   UNL A   1      38.256  31.727  37.157  1.00  0.00    -0.206 F 
ATOM     46  C   UNL A   1      39.484  34.893  38.420  1.00  0.00     0.006 A 
ENDBRANCH  25  39
BRANCH  26  47
ATOM     47  C   UNL A   1      40.862  27.595  28.001  1.00  0.00     0.057 A 
ATOM     48  C   UNL A   1      41.668  27.998  26.931  1.00  0.00     0.134 A 
ATOM     49  C   UNL A   1      40.204  26.365  27.889  1.00  0.00     0.134 A 
ATOM     50  F   UNL A   1      42.310  29.175  26.974  1.00  0.00    -0.206 F 
ATOM     51  C   UNL A   1      41.806  27.213  25.785  1.00  0.00     0.040 A 
ATOM     52  C   UNL A   1      40.354  25.558  26.761  1.00  0.00     0.040 A 
ATOM     53  F   UNL A   1      39.425  25.920  28.886  1.00  0.00    -0.206 F 
ATOM     54  C   UNL A   1      41.152  25.984  25.702  1.00  0.00     0.006 A 
ENDBRANCH  26  47
BRANCH  38  55
ATOM     55  C   UNL A   1      44.191  27.795  34.101  1.00  0.00     0.057 A 
ATOM     56  C   UNL A   1      45.521  28.223  34.002  1.00  0.00     0.134 A 
ATOM     57  C   UNL A   1      43.948  26.579  34.752  1.00  0.00     0.134 A 
ATOM     58  F   UNL A   1      45.821  29.371  33.376  1.00  0.00    -0.206 F 
ATOM     59  C   UNL A   1      46.572  27.458  34.509  1.00  0.00     0.040 A 
ATOM     60  C   UNL A   1      44.988  25.817  35.283  1.00  0.00     0.040 A 
ATOM     61  F   UNL A   1      42.695  26.116  34.884  1.00  0.00    -0.206 F 
ATOM     62  C   UNL A   1      46.306  26.253  35.157  1.00  0.00     0.006 A 
ENDBRANCH  38  55
ENDBRANCH  12  13
ENDBRANCH   5   7
ENDBRANCH   2   3
ENDBRANCH   1   2
BRANCH   1  63
ATOM     63  C   UNL A   1      32.410  30.546  27.267  1.00  0.00     0.002 C 
BRANCH  63  64
ATOM     64  C   UNL A   1      33.936  30.627  27.146  1.00  0.00     0.002 C 
BRANCH  64  65
ATOM     65  C   UNL A   1      34.659  29.291  26.938  1.00  0.00     0.021 C 
BRANCH  65  66
ATOM     66  C   UNL A   1      33.893  28.268  26.099  1.00  0.00     0.116 C 
BRANCH  66  67
ATOM     67  N   UNL A   1      33.793  28.688  24.716  1.00  0.00    -0.356 N 
ATOM     68  C   UNL A   1      32.687  28.896  23.948  1.00  0.00     0.223 C 
ATOM     69  H   UNL A   1      34.652  28.848  24.264  1.00  0.00     0.163 HD
ATOM     70  O   UNL A   1      32.852  29.259  22.784  1.00  0.00    -0.275 OA
BRANCH  68  71
ATOM     71  C   UNL A   1      31.309  28.678  24.562  1.00  0.00     0.079 C 
ATOM     72  C   UNL A   1      30.667  27.373  24.104  1.00  0.00     0.014 C 
ATOM     73  C   UNL A   1      30.298  29.744  24.123  1.00  0.00     0.026 C 
ATOM     74  C   UNL A   1      30.062  27.717  22.751  1.00  0.00     0.014 C 
ATOM     75  C   UNL A   1      29.574  29.170  22.874  1.00  0.00     0.026 C 
ATOM     76  C   UNL A   1      29.853  29.998  21.605  1.00  0.00     0.074 C 
ATOM     77  C   UNL A   1      28.049  29.275  23.019  1.00  0.00     0.267 C 
ATOM     78  C   UNL A   1      28.540  30.697  21.276  1.00  0.00     0.261 C 
ATOM     79  N   UNL A   1      27.735  30.610  22.498  1.00  0.00    -0.346 N 
ATOM     80  H   UNL A   1      26.741  30.695  22.288  1.00  0.00     0.346 HD
ATOM     81  H   UNL A   1      27.942  31.355  23.165  1.00  0.00     0.346 HD
ENDBRANCH  68  71
ENDBRANCH  66  67
ENDBRANCH  65  66
ENDBRANCH  64  65
ENDBRANCH  63  64
ENDBRANCH   1  63
TORSDOF 13
ENDMDL
MODEL 3
REMARK VINA RESULT:     -10.5      4.842      9.529
REMARK SMILES O=C(NCCCCCCNC(=O)[C@@H]1CC[C@]2(CC[NH2+]C2)C1)c1ccc(-c2c3nc(c(-c4c(F)cccc4F)c4ccc([nH]4)c(-c4c(F)cccc4F)c4nc(c(-c5c(F)cccc5F)c5ccc2[nH]5)C=C4)C=C3)cc1
REMARK SMILES IDX 5 1 4 2 3 3 1 4 2 5 22 7 23 8 75 9 24 10 74 11 25 12 26 13
REMARK SMILES IDX 27 14 68 15 28 16 73 17 67 18 69 19 29 20 72 21 66 22 65 23
REMARK SMILES IDX 30 25 56 26 39 27 55 28 40 29 43 30 54 31 70 32 41 33 42 34
REMARK SMILES IDX 53 36 71 37 44 38 31 39 32 40 37 41 33 42 34 43 36 44 38 45
REMARK SMILES IDX 35 46 57 47 58 48 63 49 59 50 60 51 62 52 64 53 61 54 45 55
REMARK SMILES IDX 46 56 51 57 47 58 48 59 50 60 52 61 49 62 6 63 7 64 8 65
REMARK SMILES IDX 9 66 10 67 11 68 12 70 13 71 14 72 21 73 15 74 16 75 17 76
REMARK SMILES IDX 20 77 18 78 19 79
REMARK H PARENT 3 6 69 24 43 35 10 69 19 80 19 81
REMARK Flexibility Score: inf
ROOT
ATOM      1  C   UNL A   1      31.410  31.855  26.501  1.00  0.00     0.021 C 
ENDROOT
BRANCH   1   2
ATOM      2  C   UNL A   1      32.606  32.509  27.181  1.00  0.00     0.116 C 
BRANCH   2   3
ATOM      3  N   UNL A   1      32.364  33.897  27.541  1.00  0.00    -0.352 N 
ATOM      4  O   UNL A   1      32.581  35.793  28.752  1.00  0.00    -0.269 OA
ATOM      5  C   UNL A   1      33.002  34.672  28.480  1.00  0.00     0.251 C 
ATOM      6  H   UNL A   1      31.642  34.345  27.043  1.00  0.00     0.163 HD
BRANCH   5   7
ATOM      7  C   UNL A   1      34.181  34.134  29.192  1.00  0.00     0.039 A 
ATOM      8  C   UNL A   1      35.473  34.486  28.798  1.00  0.00     0.014 A 
ATOM      9  C   UNL A   1      33.989  33.248  30.256  1.00  0.00     0.014 A 
ATOM     10  C   UNL A   1      36.565  33.830  29.354  1.00  0.00     0.010 A 
ATOM     11  C   UNL A   1      35.095  32.653  30.874  1.00  0.00     0.010 A 
ATOM     12  C   UNL A   1      36.390  32.907  30.398  1.00  0.00    -0.014 A 
BRANCH  12  13
ATOM     13  C   UNL A   1      37.584  32.244  30.985  1.00  0.00     0.031 A 
ATOM     14  C   UNL A   1      38.048  32.567  32.379  1.00  0.00     0.074 A 
ATOM     15  C   UNL A   1      38.223  31.303  30.264  1.00  0.00     0.049 A 
ATOM     16  N   UNL A   1      39.033  32.038  33.062  1.00  0.00    -0.248 NA
ATOM     17  C   UNL A   1      37.324  33.625  33.100  1.00  0.00     0.031 C 
ATOM     18  C   UNL A   1      37.877  30.913  28.894  1.00  0.00     0.029 A 
ATOM     19  N   UNL A   1      39.275  30.486  30.586  1.00  0.00    -0.354 N 
ATOM     20  C   UNL A   1      39.063  32.712  34.276  1.00  0.00     0.074 A 
ATOM     21  C   UNL A   1      38.011  33.705  34.230  1.00  0.00     0.031 C 
ATOM     22  C   UNL A   1      38.660  29.892  28.518  1.00  0.00     0.029 A 
ATOM     23  C   UNL A   1      39.598  29.594  29.594  1.00  0.00     0.049 A 
ATOM     24  H   UNL A   1      39.753  30.534  31.446  1.00  0.00     0.167 HD
ATOM     25  C   UNL A   1      39.888  32.516  35.333  1.00  0.00     0.037 A 
ATOM     26  C   UNL A   1      40.546  28.640  29.551  1.00  0.00     0.037 A 
ATOM     27  C   UNL A   1      40.916  31.509  35.389  1.00  0.00     0.049 A 
ATOM     28  C   UNL A   1      41.440  28.442  30.739  1.00  0.00     0.074 A 
ATOM     29  C   UNL A   1      41.772  31.205  36.435  1.00  0.00     0.029 A 
ATOM     30  N   UNL A   1      41.229  30.641  34.354  1.00  0.00    -0.354 N 
ATOM     31  N   UNL A   1      41.430  29.062  31.893  1.00  0.00    -0.248 NA
ATOM     32  C   UNL A   1      42.479  27.411  30.617  1.00  0.00     0.031 C 
ATOM     33  C   UNL A   1      42.626  30.178  36.019  1.00  0.00     0.029 A 
ATOM     34  C   UNL A   1      42.275  29.813  34.729  1.00  0.00     0.049 A 
ATOM     35  H   UNL A   1      40.775  30.616  33.481  1.00  0.00     0.167 HD
ATOM     36  C   UNL A   1      42.446  28.486  32.642  1.00  0.00     0.074 A 
ATOM     37  C   UNL A   1      43.039  27.453  31.817  1.00  0.00     0.031 C 
ATOM     38  C   UNL A   1      42.852  28.787  33.899  1.00  0.00     0.037 A 
BRANCH  25  39
ATOM     39  C   UNL A   1      39.726  33.424  36.518  1.00  0.00     0.057 A 
ATOM     40  C   UNL A   1      40.431  34.629  36.634  1.00  0.00     0.134 A 
ATOM     41  C   UNL A   1      38.816  33.109  37.536  1.00  0.00     0.134 A 
ATOM     42  F   UNL A   1      41.326  34.985  35.700  1.00  0.00    -0.206 F 
ATOM     43  C   UNL A   1      40.253  35.478  37.729  1.00  0.00     0.040 A 
ATOM     44  C   UNL A   1      38.612  33.960  38.624  1.00  0.00     0.040 A 
ATOM     45  F   UNL A   1      38.102  31.974  37.484  1.00  0.00    -0.206 F 
ATOM     46  C   UNL A   1      39.336  35.147  38.725  1.00  0.00     0.006 A 
ENDBRANCH  25  39
BRANCH  26  47
ATOM     47  C   UNL A   1      40.682  27.790  28.343  1.00  0.00     0.057 A 
ATOM     48  C   UNL A   1      41.474  28.192  27.262  1.00  0.00     0.134 A 
ATOM     49  C   UNL A   1      40.034  26.553  28.245  1.00  0.00     0.134 A 
ATOM     50  F   UNL A   1      42.106  29.376  27.292  1.00  0.00    -0.206 F 
ATOM     51  C   UNL A   1      41.608  27.401  26.120  1.00  0.00     0.040 A 
ATOM     52  C   UNL A   1      40.180  25.740  27.121  1.00  0.00     0.040 A 
ATOM     53  F   UNL A   1      39.268  26.108  29.252  1.00  0.00    -0.206 F 
ATOM     54  C   UNL A   1      40.965  26.166  26.051  1.00  0.00     0.006 A 
ENDBRANCH  26  47
BRANCH  38  55
ATOM     55  C   UNL A   1      43.970  27.965  34.465  1.00  0.00     0.057 A 
ATOM     56  C   UNL A   1      45.304  28.384  34.393  1.00  0.00     0.134 A 
ATOM     57  C   UNL A   1      43.706  26.745  35.100  1.00  0.00     0.134 A 
ATOM     58  F   UNL A   1      45.624  29.535  33.784  1.00  0.00    -0.206 F 
ATOM     59  C   UNL A   1      46.340  27.605  34.911  1.00  0.00     0.040 A 
ATOM     60  C   UNL A   1      44.731  25.969  35.642  1.00  0.00     0.040 A 
ATOM     61  F   UNL A   1      42.448  26.290  35.207  1.00  0.00    -0.206 F 
ATOM     62  C   UNL A   1      46.054  26.395  35.542  1.00  0.00     0.006 A 
ENDBRANCH  38  55
ENDBRANCH  12  13
ENDBRANCH   5   7
ENDBRANCH   2   3
ENDBRANCH   1   2
BRANCH   1  63
ATOM     63  C   UNL A   1      31.614  30.397  26.093  1.00  0.00     0.002 C 
BRANCH  63  64
ATOM     64  C   UNL A   1      32.286  29.509  27.145  1.00  0.00     0.002 C 
BRANCH  64  65
ATOM     65  C   UNL A   1      31.567  28.190  27.460  1.00  0.00     0.021 C 
BRANCH  65  66
ATOM     66  C   UNL A   1      31.651  27.133  26.359  1.00  0.00     0.116 C 
BRANCH  66  67
ATOM     67  N   UNL A   1      31.136  25.857  26.813  1.00  0.00    -0.356 N 
ATOM     68  C   UNL A   1      31.724  24.628  26.803  1.00  0.00     0.223 C 
ATOM     69  H   UNL A   1      30.225  25.882  27.184  1.00  0.00     0.163 HD
ATOM     70  O   UNL A   1      31.084  23.677  27.251  1.00  0.00    -0.275 OA
BRANCH  68  71
ATOM     71  C   UNL A   1      33.138  24.490  26.251  1.00  0.00     0.079 C 
ATOM     72  C   UNL A   1      33.192  24.667  24.737  1.00  0.00     0.014 C 
ATOM     73  C   UNL A   1      33.715  23.086  26.465  1.00  0.00     0.026 C 
ATOM     74  C   UNL A   1      32.796  23.301  24.195  1.00  0.00     0.014 C 
ATOM     75  C   UNL A   1      33.385  22.278  25.179  1.00  0.00     0.026 C 
ATOM     76  C   UNL A   1      32.428  21.103  25.456  1.00  0.00     0.074 C 
ATOM     77  C   UNL A   1      34.635  21.576  24.629  1.00  0.00     0.267 C 
ATOM     78  C   UNL A   1      33.268  19.843  25.286  1.00  0.00     0.261 C 
ATOM     79  N   UNL A   1      34.662  20.293  25.341  1.00  0.00    -0.346 N 
ATOM     80  H   UNL A   1      35.278  19.629  24.874  1.00  0.00     0.346 HD
ATOM     81  H   UNL A   1      35.016  20.375  26.295  1.00  0.00     0.346 HD
ENDBRANCH  68  71
ENDBRANCH  66  67
ENDBRANCH  65  66
ENDBRANCH  64  65
ENDBRANCH  63  64
ENDBRANCH   1  63
TORSDOF 13
ENDMDL
