MODEL 1
REMARK VINA RESULT:     -11.5      0.000      0.000
REMARK SMILES O=C(NCCCCCCNC(=O)c1ccc(-c2c3nc(c(-c4c(F)cccc4F)c4ccc([nH]4)c(-c4c(F)cccc4F)c4nc(c(-c5c(F)cccc5F)c5ccc2[nH]5)C=C4)C=C3)cc1)C1=Cc2c(Cl)cc(Cl)cc2O[C@@H]1C(F)(F)F
REMARK SMILES IDX 7 1 6 2 5 3 4 4 3 5 1 6 2 7 67 9 68 10 78 11 69 12 77 13
REMARK SMILES IDX 70 14 76 15 71 16 72 17 75 18 73 19 74 20 79 21 80 22 81 23
REMARK SMILES IDX 82 24 8 25 9 26 10 27 11 28 12 30 13 31 14 32 66 33 15 34
REMARK SMILES IDX 65 35 16 36 17 37 18 38 59 39 19 40 64 41 58 42 60 43 20 44
REMARK SMILES IDX 63 45 57 46 56 47 21 49 47 50 30 51 46 52 31 53 34 54 45 55
REMARK SMILES IDX 61 56 32 57 33 58 44 60 62 61 35 62 22 63 23 64 28 65 24 66
REMARK SMILES IDX 25 67 27 68 29 69 26 70 48 71 49 72 54 73 50 74 51 75 53 76
REMARK SMILES IDX 55 77 52 78 36 79 37 80 42 81 38 82 39 83 41 84 43 85 40 86
REMARK H PARENT 3 8 10 29 60 48 34 59
REMARK Flexibility Score: inf
ROOT
ATOM      1  C   UNL A   1      36.356  19.288  24.869  1.00  0.00     0.002 C 
ENDROOT
BRANCH   1   2
ATOM      2  C   UNL A   1      35.112  20.180  24.975  1.00  0.00     0.002 C 
BRANCH   2   3
ATOM      3  C   UNL A   1      33.761  19.521  24.698  1.00  0.00     0.021 C 
BRANCH   3   4
ATOM      4  C   UNL A   1      32.522  20.396  24.889  1.00  0.00     0.116 C 
BRANCH   4   5
ATOM      5  N   UNL A   1      32.448  21.096  26.165  1.00  0.00    -0.352 N 
ATOM      6  O   UNL A   1      32.258  22.852  27.566  1.00  0.00    -0.270 OA
ATOM      7  C   UNL A   1      32.531  22.442  26.442  1.00  0.00     0.251 C 
ATOM      8  H   UNL A   1      32.319  20.518  26.950  1.00  0.00     0.163 HD
BRANCH   7   9
ATOM      9  C   UNL A   1      32.793  23.428  25.353  1.00  0.00     0.067 C 
ATOM     10  C   UNL A   1      31.844  24.272  24.930  1.00  0.00     0.027 C 
ATOM     11  C   UNL A   1      34.231  23.842  25.231  1.00  0.00     0.314 C 
ATOM     12  C   UNL A   1      32.106  25.694  25.169  1.00  0.00     0.036 A 
ATOM     13  O   UNL A   1      34.449  25.194  25.701  1.00  0.00    -0.475 OA
ATOM     14  C   UNL A   1      31.057  26.630  25.256  1.00  0.00     0.053 A 
ATOM     15  C   UNL A   1      33.380  26.057  25.642  1.00  0.00     0.130 A 
ATOM     16  Cl  UNL A   1      29.435  26.237  24.794  1.00  0.00    -0.083 Cl
ATOM     17  C   UNL A   1      31.267  27.872  25.859  1.00  0.00     0.042 A 
ATOM     18  C   UNL A   1      33.592  27.305  26.222  1.00  0.00     0.067 A 
ATOM     19  C   UNL A   1      32.528  28.192  26.355  1.00  0.00     0.046 A 
ATOM     20  Cl  UNL A   1      32.755  29.665  27.213  1.00  0.00    -0.084 Cl
BRANCH  11  21
ATOM     21  C   UNL A   1      34.714  23.671  23.774  1.00  0.00     0.429 C 
ATOM     22  F   UNL A   1      34.041  22.675  23.148  1.00  0.00    -0.167 F 
ATOM     23  F   UNL A   1      34.527  24.794  23.041  1.00  0.00    -0.167 F 
ATOM     24  F   UNL A   1      36.033  23.365  23.701  1.00  0.00    -0.167 F 
ENDBRANCH  11  21
ENDBRANCH   7   9
ENDBRANCH   4   5
ENDBRANCH   3   4
ENDBRANCH   2   3
ENDBRANCH   1   2
BRANCH   1  25
ATOM     25  C   UNL A   1      37.694  19.978  24.582  1.00  0.00     0.021 C 
BRANCH  25  26
ATOM     26  C   UNL A   1      38.631  20.181  25.772  1.00  0.00     0.116 C 
BRANCH  26  27
ATOM     27  N   UNL A   1      39.795  19.315  25.739  1.00  0.00    -0.352 N 
ATOM     28  C   UNL A   1      41.109  19.570  26.054  1.00  0.00     0.251 C 
ATOM     29  H   UNL A   1      39.614  18.395  25.441  1.00  0.00     0.163 HD
ATOM     30  O   UNL A   1      41.954  18.710  25.842  1.00  0.00    -0.269 OA
BRANCH  28  31
ATOM     31  C   UNL A   1      41.526  20.875  26.625  1.00  0.00     0.039 A 
ATOM     32  C   UNL A   1      41.933  21.883  25.742  1.00  0.00     0.014 A 
ATOM     33  C   UNL A   1      41.581  21.101  28.003  1.00  0.00     0.014 A 
ATOM     34  C   UNL A   1      42.342  23.125  26.234  1.00  0.00     0.010 A 
ATOM     35  C   UNL A   1      41.932  22.362  28.491  1.00  0.00     0.010 A 
ATOM     36  C   UNL A   1      42.321  23.385  27.612  1.00  0.00    -0.014 A 
BRANCH  36  37
ATOM     37  C   UNL A   1      42.708  24.719  28.145  1.00  0.00     0.031 A 
ATOM     38  C   UNL A   1      41.668  25.782  28.373  1.00  0.00     0.074 A 
ATOM     39  C   UNL A   1      44.006  24.993  28.382  1.00  0.00     0.049 A 
ATOM     40  N   UNL A   1      41.820  27.013  28.790  1.00  0.00    -0.248 NA
ATOM     41  C   UNL A   1      40.274  25.418  28.073  1.00  0.00     0.031 C 
ATOM     42  C   UNL A   1      45.117  24.064  28.171  1.00  0.00     0.029 A 
ATOM     43  N   UNL A   1      44.609  26.134  28.848  1.00  0.00    -0.354 N 
ATOM     44  C   UNL A   1      40.550  27.577  28.784  1.00  0.00     0.074 A 
ATOM     45  C   UNL A   1      39.645  26.565  28.282  1.00  0.00     0.031 C 
ATOM     46  C   UNL A   1      46.264  24.665  28.528  1.00  0.00     0.029 A 
ATOM     47  C   UNL A   1      45.974  26.029  28.960  1.00  0.00     0.049 A 
ATOM     48  H   UNL A   1      44.111  26.952  29.078  1.00  0.00     0.167 HD
ATOM     49  C   UNL A   1      40.169  28.817  29.177  1.00  0.00     0.037 A 
ATOM     50  C   UNL A   1      46.891  26.930  29.362  1.00  0.00     0.037 A 
ATOM     51  C   UNL A   1      41.065  29.813  29.704  1.00  0.00     0.049 A 
ATOM     52  C   UNL A   1      46.445  28.301  29.785  1.00  0.00     0.074 A 
ATOM     53  C   UNL A   1      40.762  31.071  30.197  1.00  0.00     0.029 A 
ATOM     54  N   UNL A   1      42.440  29.668  29.803  1.00  0.00    -0.354 N 
ATOM     55  N   UNL A   1      45.232  28.796  29.838  1.00  0.00    -0.248 NA
ATOM     56  C   UNL A   1      47.496  29.238  30.207  1.00  0.00     0.031 C 
ATOM     57  C   UNL A   1      41.958  31.703  30.552  1.00  0.00     0.029 A 
ATOM     58  C   UNL A   1      43.003  30.821  30.323  1.00  0.00     0.049 A 
ATOM     59  H   UNL A   1      42.943  28.862  29.542  1.00  0.00     0.167 HD
ATOM     60  C   UNL A   1      45.370  30.090  30.325  1.00  0.00     0.074 A 
ATOM     61  C   UNL A   1      46.784  30.299  30.560  1.00  0.00     0.031 C 
ATOM     62  C   UNL A   1      44.410  31.018  30.557  1.00  0.00     0.037 A 
BRANCH  49  63
ATOM     63  C   UNL A   1      38.716  29.167  29.046  1.00  0.00     0.057 A 
ATOM     64  C   UNL A   1      37.840  29.116  30.138  1.00  0.00     0.134 A 
ATOM     65  C   UNL A   1      38.191  29.591  27.818  1.00  0.00     0.134 A 
ATOM     66  F   UNL A   1      38.275  28.710  31.340  1.00  0.00    -0.206 F 
ATOM     67  C   UNL A   1      36.489  29.445  30.006  1.00  0.00     0.040 A 
ATOM     68  C   UNL A   1      36.849  29.948  27.681  1.00  0.00     0.040 A 
ATOM     69  F   UNL A   1      38.976  29.671  26.732  1.00  0.00    -0.206 F 
ATOM     70  C   UNL A   1      35.992  29.868  28.776  1.00  0.00     0.006 A 
ENDBRANCH  49  63
BRANCH  50  71
ATOM     71  C   UNL A   1      48.325  26.554  29.412  1.00  0.00     0.057 A 
ATOM     72  C   UNL A   1      49.179  26.833  28.339  1.00  0.00     0.134 A 
ATOM     73  C   UNL A   1      48.877  25.910  30.527  1.00  0.00     0.134 A 
ATOM     74  F   UNL A   1      48.703  27.429  27.236  1.00  0.00    -0.206 F 
ATOM     75  C   UNL A   1      50.527  26.474  28.365  1.00  0.00     0.040 A 
ATOM     76  C   UNL A   1      50.228  25.566  30.575  1.00  0.00     0.040 A 
ATOM     77  F   UNL A   1      48.112  25.620  31.588  1.00  0.00    -0.206 F 
ATOM     78  C   UNL A   1      51.056  25.842  29.489  1.00  0.00     0.006 A 
ENDBRANCH  50  71
BRANCH  62  79
ATOM     79  C   UNL A   1      44.853  32.336  31.123  1.00  0.00     0.057 A 
ATOM     80  C   UNL A   1      45.163  33.426  30.302  1.00  0.00     0.134 A 
ATOM     81  C   UNL A   1      44.936  32.524  32.509  1.00  0.00     0.134 A 
ATOM     82  F   UNL A   1      45.118  33.307  28.966  1.00  0.00    -0.206 F 
ATOM     83  C   UNL A   1      45.559  34.653  30.838  1.00  0.00     0.040 A 
ATOM     84  C   UNL A   1      45.306  33.752  33.057  1.00  0.00     0.040 A 
ATOM     85  F   UNL A   1      44.645  31.522  33.351  1.00  0.00    -0.206 F 
ATOM     86  C   UNL A   1      45.625  34.820  32.221  1.00  0.00     0.006 A 
ENDBRANCH  62  79
ENDBRANCH  36  37
ENDBRANCH  28  31
ENDBRANCH  26  27
ENDBRANCH  25  26
ENDBRANCH   1  25
TORSDOF 14
ENDMDL
MODEL 2
REMARK VINA RESULT:     -11.5      0.476      6.137
REMARK SMILES O=C(NCCCCCCNC(=O)c1ccc(-c2c3nc(c(-c4c(F)cccc4F)c4ccc([nH]4)c(-c4c(F)cccc4F)c4nc(c(-c5c(F)cccc5F)c5ccc2[nH]5)C=C4)C=C3)cc1)C1=Cc2c(Cl)cc(Cl)cc2O[C@@H]1C(F)(F)F
REMARK SMILES IDX 7 1 6 2 5 3 4 4 3 5 1 6 2 7 67 9 68 10 78 11 69 12 77 13
REMARK SMILES IDX 70 14 76 15 71 16 72 17 75 18 73 19 74 20 79 21 80 22 81 23
REMARK SMILES IDX 82 24 8 25 9 26 10 27 11 28 12 30 13 31 14 32 66 33 15 34
REMARK SMILES IDX 65 35 16 36 17 37 18 38 59 39 19 40 64 41 58 42 60 43 20 44
REMARK SMILES IDX 63 45 57 46 56 47 21 49 47 50 30 51 46 52 31 53 34 54 45 55
REMARK SMILES IDX 61 56 32 57 33 58 44 60 62 61 35 62 22 63 23 64 28 65 24 66
REMARK SMILES IDX 25 67 27 68 29 69 26 70 48 71 49 72 54 73 50 74 51 75 53 76
REMARK SMILES IDX 55 77 52 78 36 79 37 80 42 81 38 82 39 83 41 84 43 85 40 86
REMARK H PARENT 3 8 10 29 60 48 34 59
REMARK Flexibility Score: inf
ROOT
ATOM      1  C   UNL A   1      36.761  19.177  24.681  1.00  0.00     0.002 C 
ENDROOT
BRANCH   1   2
ATOM      2  C   UNL A   1      35.515  20.007  25.015  1.00  0.00     0.002 C 
BRANCH   2   3
ATOM      3  C   UNL A   1      34.158  19.364  24.732  1.00  0.00     0.021 C 
BRANCH   3   4
ATOM      4  C   UNL A   1      32.959  19.937  25.488  1.00  0.00     0.116 C 
BRANCH   4   5
ATOM      5  N   UNL A   1      33.288  20.708  26.680  1.00  0.00    -0.352 N 
ATOM      6  O   UNL A   1      33.492  22.535  27.984  1.00  0.00    -0.270 OA
ATOM      7  C   UNL A   1      33.385  22.070  26.853  1.00  0.00     0.251 C 
ATOM      8  H   UNL A   1      33.470  20.173  27.485  1.00  0.00     0.163 HD
BRANCH   7   9
ATOM      9  C   UNL A   1      33.200  22.999  25.700  1.00  0.00     0.067 C 
ATOM     10  C   UNL A   1      32.081  23.718  25.553  1.00  0.00     0.027 C 
ATOM     11  C   UNL A   1      34.481  23.537  25.132  1.00  0.00     0.314 C 
ATOM     12  C   UNL A   1      32.243  25.172  25.648  1.00  0.00     0.036 A 
ATOM     13  O   UNL A   1      34.679  24.934  25.463  1.00  0.00    -0.475 OA
ATOM     14  C   UNL A   1      31.170  26.008  26.013  1.00  0.00     0.053 A 
ATOM     15  C   UNL A   1      33.552  25.685  25.699  1.00  0.00     0.130 A 
ATOM     16  Cl  UNL A   1      29.538  25.433  26.080  1.00  0.00    -0.083 Cl
ATOM     17  C   UNL A   1      31.411  27.303  26.478  1.00  0.00     0.042 A 
ATOM     18  C   UNL A   1      33.787  26.985  26.140  1.00  0.00     0.067 A 
ATOM     19  C   UNL A   1      32.719  27.774  26.556  1.00  0.00     0.046 A 
ATOM     20  Cl  UNL A   1      33.026  29.318  27.250  1.00  0.00    -0.084 Cl
BRANCH  11  21
ATOM     21  C   UNL A   1      34.525  23.312  23.605  1.00  0.00     0.429 C 
ATOM     22  F   UNL A   1      33.676  22.325  23.230  1.00  0.00    -0.167 F 
ATOM     23  F   UNL A   1      34.166  24.423  22.917  1.00  0.00    -0.167 F 
ATOM     24  F   UNL A   1      35.761  22.960  23.171  1.00  0.00    -0.167 F 
ENDBRANCH  11  21
ENDBRANCH   7   9
ENDBRANCH   4   5
ENDBRANCH   3   4
ENDBRANCH   2   3
ENDBRANCH   1   2
BRANCH   1  25
ATOM     25  C   UNL A   1      38.105  19.913  24.629  1.00  0.00     0.021 C 
BRANCH  25  26
ATOM     26  C   UNL A   1      38.932  19.924  25.914  1.00  0.00     0.116 C 
BRANCH  26  27
ATOM     27  N   UNL A   1      40.163  19.163  25.808  1.00  0.00    -0.352 N 
ATOM     28  C   UNL A   1      41.465  19.531  26.048  1.00  0.00     0.251 C 
ATOM     29  H   UNL A   1      40.046  18.230  25.517  1.00  0.00     0.163 HD
ATOM     30  O   UNL A   1      42.369  18.748  25.784  1.00  0.00    -0.269 OA
BRANCH  28  31
ATOM     31  C   UNL A   1      41.800  20.867  26.602  1.00  0.00     0.039 A 
ATOM     32  C   UNL A   1      42.131  21.889  25.705  1.00  0.00     0.014 A 
ATOM     33  C   UNL A   1      41.852  21.112  27.977  1.00  0.00     0.014 A 
ATOM     34  C   UNL A   1      42.462  23.162  26.180  1.00  0.00     0.010 A 
ATOM     35  C   UNL A   1      42.123  22.399  28.448  1.00  0.00     0.010 A 
ATOM     36  C   UNL A   1      42.436  23.435  27.555  1.00  0.00    -0.014 A 
BRANCH  36  37
ATOM     37  C   UNL A   1      42.738  24.798  28.070  1.00  0.00     0.031 A 
ATOM     38  C   UNL A   1      44.147  25.183  28.431  1.00  0.00     0.074 A 
ATOM     39  C   UNL A   1      41.735  25.677  28.259  1.00  0.00     0.049 A 
ATOM     40  N   UNL A   1      44.595  26.306  28.933  1.00  0.00    -0.248 NA
ATOM     41  C   UNL A   1      45.186  24.164  28.219  1.00  0.00     0.031 C 
ATOM     42  C   UNL A   1      40.322  25.419  27.982  1.00  0.00     0.029 A 
ATOM     43  N   UNL A   1      41.752  26.965  28.732  1.00  0.00    -0.354 N 
ATOM     44  C   UNL A   1      45.960  26.124  29.115  1.00  0.00     0.074 A 
ATOM     45  C   UNL A   1      46.259  24.767  28.708  1.00  0.00     0.031 C 
ATOM     46  C   UNL A   1      39.610  26.522  28.268  1.00  0.00     0.029 A 
ATOM     47  C   UNL A   1      40.510  27.551  28.780  1.00  0.00     0.049 A 
ATOM     48  H   UNL A   1      42.575  27.426  29.012  1.00  0.00     0.167 HD
ATOM     49  C   UNL A   1      46.883  27.010  29.563  1.00  0.00     0.037 A 
ATOM     50  C   UNL A   1      40.137  28.777  29.192  1.00  0.00     0.037 A 
ATOM     51  C   UNL A   1      46.590  28.368  29.939  1.00  0.00     0.049 A 
ATOM     52  C   UNL A   1      41.178  29.739  29.691  1.00  0.00     0.074 A 
ATOM     53  C   UNL A   1      47.469  29.362  30.334  1.00  0.00     0.029 A 
ATOM     54  N   UNL A   1      45.320  28.923  29.973  1.00  0.00    -0.354 N 
ATOM     55  N   UNL A   1      42.474  29.575  29.793  1.00  0.00    -0.248 NA
ATOM     56  C   UNL A   1      40.703  31.059  30.132  1.00  0.00     0.031 C 
ATOM     57  C   UNL A   1      46.726  30.505  30.649  1.00  0.00     0.029 A 
ATOM     58  C   UNL A   1      45.388  30.237  30.407  1.00  0.00     0.049 A 
ATOM     59  H   UNL A   1      44.491  28.453  29.723  1.00  0.00     0.167 HD
ATOM     60  C   UNL A   1      42.973  30.776  30.281  1.00  0.00     0.074 A 
ATOM     61  C   UNL A   1      41.840  31.663  30.446  1.00  0.00     0.031 C 
ATOM     62  C   UNL A   1      44.255  31.112  30.563  1.00  0.00     0.037 A 
BRANCH  49  63
ATOM     63  C   UNL A   1      48.301  26.532  29.673  1.00  0.00     0.057 A 
ATOM     64  C   UNL A   1      48.776  25.876  30.817  1.00  0.00     0.134 A 
ATOM     65  C   UNL A   1      49.197  26.702  28.610  1.00  0.00     0.134 A 
ATOM     66  F   UNL A   1      47.973  25.689  31.875  1.00  0.00    -0.206 F 
ATOM     67  C   UNL A   1      50.097  25.434  30.910  1.00  0.00     0.040 A 
ATOM     68  C   UNL A   1      50.512  26.240  28.681  1.00  0.00     0.040 A 
ATOM     69  F   UNL A   1      48.807  27.314  27.481  1.00  0.00    -0.206 F 
ATOM     70  C   UNL A   1      50.967  25.610  29.838  1.00  0.00     0.006 A 
ENDBRANCH  49  63
BRANCH  50  71
ATOM     71  C   UNL A   1      38.710  29.179  29.122  1.00  0.00     0.057 A 
ATOM     72  C   UNL A   1      38.150  29.634  27.922  1.00  0.00     0.134 A 
ATOM     73  C   UNL A   1      37.874  29.118  30.243  1.00  0.00     0.134 A 
ATOM     74  F   UNL A   1      38.907  29.733  26.819  1.00  0.00    -0.206 F 
ATOM     75  C   UNL A   1      36.814  30.027  27.843  1.00  0.00     0.040 A 
ATOM     76  C   UNL A   1      36.531  29.487  30.172  1.00  0.00     0.040 A 
ATOM     77  F   UNL A   1      38.350  28.686  31.420  1.00  0.00    -0.206 F 
ATOM     78  C   UNL A   1      35.998  29.950  28.970  1.00  0.00     0.006 A 
ENDBRANCH  50  71
BRANCH  62  79
ATOM     79  C   UNL A   1      44.506  32.509  31.052  1.00  0.00     0.057 A 
ATOM     80  C   UNL A   1      44.532  32.822  32.416  1.00  0.00     0.134 A 
ATOM     81  C   UNL A   1      44.760  33.546  30.144  1.00  0.00     0.134 A 
ATOM     82  F   UNL A   1      44.283  31.877  33.336  1.00  0.00    -0.206 F 
ATOM     83  C   UNL A   1      44.782  34.121  32.861  1.00  0.00     0.040 A 
ATOM     84  C   UNL A   1      45.035  34.843  30.577  1.00  0.00     0.040 A 
ATOM     85  F   UNL A   1      44.757  33.311  28.824  1.00  0.00    -0.206 F 
ATOM     86  C   UNL A   1      45.041  35.135  31.939  1.00  0.00     0.006 A 
ENDBRANCH  62  79
ENDBRANCH  36  37
ENDBRANCH  28  31
ENDBRANCH  26  27
ENDBRANCH  25  26
ENDBRANCH   1  25
TORSDOF 14
ENDMDL
MODEL 3
REMARK VINA RESULT:     -11.4      2.412      7.122
REMARK SMILES O=C(NCCCCCCNC(=O)c1ccc(-c2c3nc(c(-c4c(F)cccc4F)c4ccc([nH]4)c(-c4c(F)cccc4F)c4nc(c(-c5c(F)cccc5F)c5ccc2[nH]5)C=C4)C=C3)cc1)C1=Cc2c(Cl)cc(Cl)cc2O[C@@H]1C(F)(F)F
REMARK SMILES IDX 7 1 6 2 5 3 4 4 3 5 1 6 2 7 67 9 68 10 78 11 69 12 77 13
REMARK SMILES IDX 70 14 76 15 71 16 72 17 75 18 73 19 74 20 79 21 80 22 81 23
REMARK SMILES IDX 82 24 8 25 9 26 10 27 11 28 12 30 13 31 14 32 66 33 15 34
REMARK SMILES IDX 65 35 16 36 17 37 18 38 59 39 19 40 64 41 58 42 60 43 20 44
REMARK SMILES IDX 63 45 57 46 56 47 21 49 47 50 30 51 46 52 31 53 34 54 45 55
REMARK SMILES IDX 61 56 32 57 33 58 44 60 62 61 35 62 22 63 23 64 28 65 24 66
REMARK SMILES IDX 25 67 27 68 29 69 26 70 48 71 49 72 54 73 50 74 51 75 53 76
REMARK SMILES IDX 55 77 52 78 36 79 37 80 42 81 38 82 39 83 41 84 43 85 40 86
REMARK H PARENT 3 8 10 29 60 48 34 59
REMARK Flexibility Score: inf
ROOT
ATOM      1  C   UNL A   1      38.528  21.952  25.769  1.00  0.00     0.002 C 
ENDROOT
BRANCH   1   2
ATOM      2  C   UNL A   1      37.379  22.676  25.053  1.00  0.00     0.002 C 
BRANCH   2   3
ATOM      3  C   UNL A   1      36.781  23.893  25.759  1.00  0.00     0.021 C 
BRANCH   3   4
ATOM      4  C   UNL A   1      35.257  24.008  25.749  1.00  0.00     0.116 C 
BRANCH   4   5
ATOM      5  N   UNL A   1      34.568  23.197  26.745  1.00  0.00    -0.352 N 
ATOM      6  O   UNL A   1      33.567  21.372  27.610  1.00  0.00    -0.270 OA
ATOM      7  C   UNL A   1      33.928  21.986  26.610  1.00  0.00     0.251 C 
ATOM      8  H   UNL A   1      34.559  23.573  27.654  1.00  0.00     0.163 HD
BRANCH   7   9
ATOM      9  C   UNL A   1      33.808  21.333  25.274  1.00  0.00     0.067 C 
ATOM     10  C   UNL A   1      34.687  20.410  24.865  1.00  0.00     0.027 C 
ATOM     11  C   UNL A   1      32.406  21.279  24.739  1.00  0.00     0.314 C 
ATOM     12  C   UNL A   1      34.147  19.062  24.666  1.00  0.00     0.036 A 
ATOM     13  O   UNL A   1      31.857  19.939  24.786  1.00  0.00    -0.475 OA
ATOM     14  C   UNL A   1      34.972  17.923  24.735  1.00  0.00     0.053 A 
ATOM     15  C   UNL A   1      32.752  18.896  24.740  1.00  0.00     0.130 A 
ATOM     16  Cl  UNL A   1      36.699  18.039  24.755  1.00  0.00    -0.083 Cl
ATOM     17  C   UNL A   1      34.413  16.658  24.937  1.00  0.00     0.042 A 
ATOM     18  C   UNL A   1      32.197  17.631  24.919  1.00  0.00     0.067 A 
ATOM     19  C   UNL A   1      33.032  16.525  25.047  1.00  0.00     0.046 A 
ATOM     20  Cl  UNL A   1      32.353  14.991  25.426  1.00  0.00    -0.084 Cl
BRANCH  11  21
ATOM     21  C   UNL A   1      32.359  21.854  23.307  1.00  0.00     0.429 C 
ATOM     22  F   UNL A   1      33.469  22.581  23.033  1.00  0.00    -0.167 F 
ATOM     23  F   UNL A   1      32.285  20.879  22.370  1.00  0.00    -0.167 F 
ATOM     24  F   UNL A   1      31.293  22.671  23.114  1.00  0.00    -0.167 F 
ENDBRANCH  11  21
ENDBRANCH   7   9
ENDBRANCH   4   5
ENDBRANCH   3   4
ENDBRANCH   2   3
ENDBRANCH   1   2
BRANCH   1  25
ATOM     25  C   UNL A   1      38.966  20.596  25.204  1.00  0.00     0.021 C 
BRANCH  25  26
ATOM     26  C   UNL A   1      39.460  19.560  26.213  1.00  0.00     0.116 C 
BRANCH  26  27
ATOM     27  N   UNL A   1      40.753  18.998  25.870  1.00  0.00    -0.352 N 
ATOM     28  C   UNL A   1      42.006  19.565  25.882  1.00  0.00     0.251 C 
ATOM     29  H   UNL A   1      40.730  18.058  25.581  1.00  0.00     0.163 HD
ATOM     30  O   UNL A   1      42.955  18.931  25.440  1.00  0.00    -0.269 OA
BRANCH  28  31
ATOM     31  C   UNL A   1      42.226  20.938  26.399  1.00  0.00     0.039 A 
ATOM     32  C   UNL A   1      42.152  21.143  27.783  1.00  0.00     0.014 A 
ATOM     33  C   UNL A   1      42.443  22.028  25.552  1.00  0.00     0.014 A 
ATOM     34  C   UNL A   1      42.345  22.420  28.316  1.00  0.00     0.010 A 
ATOM     35  C   UNL A   1      42.695  23.293  26.089  1.00  0.00     0.010 A 
ATOM     36  C   UNL A   1      42.644  23.503  27.476  1.00  0.00    -0.014 A 
BRANCH  36  37
ATOM     37  C   UNL A   1      42.899  24.858  28.035  1.00  0.00     0.031 A 
ATOM     38  C   UNL A   1      44.287  25.263  28.450  1.00  0.00     0.074 A 
ATOM     39  C   UNL A   1      41.872  25.711  28.214  1.00  0.00     0.049 A 
ATOM     40  N   UNL A   1      44.694  26.382  28.995  1.00  0.00    -0.248 NA
ATOM     41  C   UNL A   1      45.355  24.273  28.245  1.00  0.00     0.031 C 
ATOM     42  C   UNL A   1      40.474  25.429  27.886  1.00  0.00     0.029 A 
ATOM     43  N   UNL A   1      41.845  26.986  28.720  1.00  0.00    -0.354 N 
ATOM     44  C   UNL A   1      46.057  26.225  29.215  1.00  0.00     0.074 A 
ATOM     45  C   UNL A   1      46.399  24.886  28.783  1.00  0.00     0.031 C 
ATOM     46  C   UNL A   1      39.729  26.508  28.177  1.00  0.00     0.029 A 
ATOM     47  C   UNL A   1      40.590  27.543  28.743  1.00  0.00     0.049 A 
ATOM     48  H   UNL A   1      42.649  27.457  29.038  1.00  0.00     0.167 HD
ATOM     49  C   UNL A   1      46.946  27.118  29.714  1.00  0.00     0.037 A 
ATOM     50  C   UNL A   1      40.177  28.750  29.175  1.00  0.00     0.037 A 
ATOM     51  C   UNL A   1      46.611  28.459  30.115  1.00  0.00     0.049 A 
ATOM     52  C   UNL A   1      41.180  29.721  29.732  1.00  0.00     0.074 A 
ATOM     53  C   UNL A   1      47.455  29.461  30.563  1.00  0.00     0.029 A 
ATOM     54  N   UNL A   1      45.328  28.986  30.123  1.00  0.00    -0.354 N 
ATOM     55  N   UNL A   1      42.476  29.581  29.869  1.00  0.00    -0.248 NA
ATOM     56  C   UNL A   1      40.662  31.017  30.190  1.00  0.00     0.031 C 
ATOM     57  C   UNL A   1      46.678  30.579  30.884  1.00  0.00     0.029 A 
ATOM     58  C   UNL A   1      45.354  30.289  30.592  1.00  0.00     0.049 A 
ATOM     59  H   UNL A   1      44.519  28.505  29.835  1.00  0.00     0.167 HD
ATOM     60  C   UNL A   1      42.933  30.779  30.404  1.00  0.00     0.074 A 
ATOM     61  C   UNL A   1      41.776  31.638  30.555  1.00  0.00     0.031 C 
ATOM     62  C   UNL A   1      44.198  31.135  30.735  1.00  0.00     0.037 A 
BRANCH  49  63
ATOM     63  C   UNL A   1      48.370  26.668  29.858  1.00  0.00     0.057 A 
ATOM     64  C   UNL A   1      48.819  25.977  30.991  1.00  0.00     0.134 A 
ATOM     65  C   UNL A   1      49.299  26.901  28.835  1.00  0.00     0.134 A 
ATOM     66  F   UNL A   1      47.984  25.729  32.011  1.00  0.00    -0.206 F 
ATOM     67  C   UNL A   1      50.146  25.561  31.115  1.00  0.00     0.040 A 
ATOM     68  C   UNL A   1      50.621  26.466  28.936  1.00  0.00     0.040 A 
ATOM     69  F   UNL A   1      48.935  27.550  27.718  1.00  0.00    -0.206 F 
ATOM     70  C   UNL A   1      51.050  25.800  30.082  1.00  0.00     0.006 A 
ENDBRANCH  49  63
BRANCH  50  71
ATOM     71  C   UNL A   1      38.744  29.122  29.070  1.00  0.00     0.057 A 
ATOM     72  C   UNL A   1      38.203  29.557  27.854  1.00  0.00     0.134 A 
ATOM     73  C   UNL A   1      37.885  29.054  30.173  1.00  0.00     0.134 A 
ATOM     74  F   UNL A   1      38.982  29.663  26.768  1.00  0.00    -0.206 F 
ATOM     75  C   UNL A   1      36.861  29.924  27.742  1.00  0.00     0.040 A 
ATOM     76  C   UNL A   1      36.536  29.395  30.069  1.00  0.00     0.040 A 
ATOM     77  F   UNL A   1      38.343  28.641  31.363  1.00  0.00    -0.206 F 
ATOM     78  C   UNL A   1      36.022  29.838  28.851  1.00  0.00     0.006 A 
ENDBRANCH  50  71
BRANCH  62  79
ATOM     79  C   UNL A   1      44.402  32.524  31.267  1.00  0.00     0.057 A 
ATOM     80  C   UNL A   1      44.631  33.614  30.419  1.00  0.00     0.134 A 
ATOM     81  C   UNL A   1      44.333  32.777  32.644  1.00  0.00     0.134 A 
ATOM     82  F   UNL A   1      44.724  33.437  29.093  1.00  0.00    -0.206 F 
ATOM     83  C   UNL A   1      44.805  34.905  30.922  1.00  0.00     0.040 A 
ATOM     84  C   UNL A   1      44.480  34.066  33.157  1.00  0.00     0.040 A 
ATOM     85  F   UNL A   1      44.108  31.778  33.509  1.00  0.00    -0.206 F 
ATOM     86  C   UNL A   1      44.722  35.134  32.295  1.00  0.00     0.006 A 
ENDBRANCH  62  79
ENDBRANCH  36  37
ENDBRANCH  28  31
ENDBRANCH  26  27
ENDBRANCH  25  26
ENDBRANCH   1  25
TORSDOF 14
ENDMDL
