MODEL 1
REMARK VINA RESULT:     -12.7      0.000      0.000
REMARK SMILES CN1C(=O)C[C@@H](C(=O)NCCCCCCNC(=O)c2ccc(-c3c4nc(c(-c5c(F)cccc5F)c5ccc([nH]5)c(-c5c(F)cccc5F)c5nc(c(-c6c(F)cccc6F)c6ccc3[nH]6)C=C5)C=C4)cc2)C12CCN(c1ccc(Cl)cn1)CC2
REMARK SMILES IDX 13 1 12 2 11 3 10 4 9 5 7 6 8 7 6 9 1 10 2 11 3 12 73 13
REMARK SMILES IDX 4 14 5 15 74 16 85 17 75 18 84 19 76 20 77 21 78 22 83 23
REMARK SMILES IDX 79 24 82 25 80 26 81 27 14 28 15 29 16 30 17 31 18 33 19 34
REMARK SMILES IDX 20 35 72 36 21 37 71 38 22 39 23 40 24 41 65 42 25 43 70 44
REMARK SMILES IDX 64 45 66 46 26 47 69 48 63 49 62 50 27 52 53 53 36 54 52 55
REMARK SMILES IDX 37 56 40 57 51 58 67 59 38 60 39 61 50 63 68 64 41 65 28 66
REMARK SMILES IDX 29 67 34 68 30 69 31 70 33 71 35 72 32 73 54 74 55 75 60 76
REMARK SMILES IDX 56 77 57 78 59 79 61 80 58 81 42 82 43 83 48 84 44 85 45 86
REMARK SMILES IDX 47 87 49 88 46 89
REMARK H PARENT 9 8 16 32 66 51 40 62
REMARK Flexibility Score: inf
ROOT
ATOM      1  C   UNL A   1      36.768  20.810  24.671  1.00  0.00     0.002 C 
ENDROOT
BRANCH   1   2
ATOM      2  C   UNL A   1      35.468  20.704  25.466  1.00  0.00     0.002 C 
BRANCH   2   3
ATOM      3  C   UNL A   1      34.260  20.265  24.641  1.00  0.00     0.021 C 
BRANCH   3   4
ATOM      4  C   UNL A   1      33.222  21.363  24.400  1.00  0.00     0.116 C 
BRANCH   4   5
ATOM      5  N   UNL A   1      33.730  22.442  23.576  1.00  0.00    -0.356 N 
ATOM      6  C   UNL A   1      33.862  23.776  23.778  1.00  0.00     0.226 C 
ATOM      7  O   UNL A   1      34.347  24.418  22.839  1.00  0.00    -0.275 OA
ATOM      8  H   UNL A   1      34.042  22.147  22.691  1.00  0.00     0.163 HD
BRANCH   6   9
ATOM      9  C   UNL A   1      33.460  24.526  25.050  1.00  0.00     0.113 C 
ATOM     10  C   UNL A   1      30.271  23.509  26.756  1.00  0.00     0.147 C 
ATOM     11  N   UNL A   1      31.622  23.822  26.324  1.00  0.00    -0.339 N 
ATOM     12  C   UNL A   1      32.731  23.307  26.977  1.00  0.00     0.223 C 
ATOM     13  C   UNL A   1      31.962  24.835  25.308  1.00  0.00     0.058 C 
ATOM     14  O   UNL A   1      32.723  22.528  27.921  1.00  0.00    -0.275 OA
ATOM     15  C   UNL A   1      33.970  23.837  26.317  1.00  0.00     0.116 C 
ATOM     16  C   UNL A   1      31.077  24.741  24.048  1.00  0.00     0.051 C 
ATOM     17  C   UNL A   1      31.797  26.256  25.937  1.00  0.00     0.051 C 
ATOM     18  C   UNL A   1      31.321  25.882  23.079  1.00  0.00     0.120 C 
ATOM     19  C   UNL A   1      31.908  27.408  24.919  1.00  0.00     0.120 C 
ATOM     20  N   UNL A   1      31.027  27.094  23.810  1.00  0.00    -0.356 N 
BRANCH  20  21
ATOM     21  C   UNL A   1      30.271  28.062  23.192  1.00  0.00     0.128 A 
ATOM     22  C   UNL A   1      28.875  27.994  23.284  1.00  0.00     0.048 A 
ATOM     23  N   UNL A   1      30.880  29.054  22.515  1.00  0.00    -0.238 NA
ATOM     24  C   UNL A   1      28.082  28.948  22.655  1.00  0.00     0.026 A 
ATOM     25  C   UNL A   1      30.087  29.957  21.881  1.00  0.00     0.134 A 
ATOM     26  C   UNL A   1      28.702  29.946  21.925  1.00  0.00     0.059 A 
ATOM     27  Cl  UNL A   1      27.773  31.131  21.105  1.00  0.00    -0.083 Cl
ENDBRANCH  20  21
ENDBRANCH   6   9
ENDBRANCH   4   5
ENDBRANCH   3   4
ENDBRANCH   2   3
ENDBRANCH   1   2
BRANCH   1  28
ATOM     28  C   UNL A   1      37.797  19.720  24.981  1.00  0.00     0.021 C 
BRANCH  28  29
ATOM     29  C   UNL A   1      39.026  20.210  25.739  1.00  0.00     0.116 C 
BRANCH  29  30
ATOM     30  N   UNL A   1      40.042  19.178  25.842  1.00  0.00    -0.352 N 
ATOM     31  C   UNL A   1      41.391  19.315  26.047  1.00  0.00     0.251 C 
ATOM     32  H   UNL A   1      39.719  18.253  25.752  1.00  0.00     0.163 HD
ATOM     33  O   UNL A   1      42.145  18.363  25.881  1.00  0.00    -0.269 OA
BRANCH  31  34
ATOM     34  C   UNL A   1      41.929  20.625  26.460  1.00  0.00     0.039 A 
ATOM     35  C   UNL A   1      42.389  21.506  25.481  1.00  0.00     0.014 A 
ATOM     36  C   UNL A   1      41.979  20.979  27.813  1.00  0.00     0.014 A 
ATOM     37  C   UNL A   1      42.855  22.767  25.855  1.00  0.00     0.010 A 
ATOM     38  C   UNL A   1      42.370  22.263  28.176  1.00  0.00     0.010 A 
ATOM     39  C   UNL A   1      42.822  23.166  27.201  1.00  0.00    -0.014 A 
BRANCH  39  40
ATOM     40  C   UNL A   1      43.262  24.524  27.606  1.00  0.00     0.031 A 
ATOM     41  C   UNL A   1      42.249  25.562  27.997  1.00  0.00     0.074 A 
ATOM     42  C   UNL A   1      44.571  24.836  27.565  1.00  0.00     0.049 A 
ATOM     43  N   UNL A   1      42.435  26.814  28.330  1.00  0.00    -0.248 NA
ATOM     44  C   UNL A   1      40.837  25.149  27.983  1.00  0.00     0.031 C 
ATOM     45  C   UNL A   1      45.644  23.931  27.150  1.00  0.00     0.029 A 
ATOM     46  N   UNL A   1      45.221  26.007  27.864  1.00  0.00    -0.354 N 
ATOM     47  C   UNL A   1      41.167  27.338  28.552  1.00  0.00     0.074 A 
ATOM     48  C   UNL A   1      40.218  26.286  28.259  1.00  0.00     0.031 C 
ATOM     49  C   UNL A   1      46.820  24.573  27.239  1.00  0.00     0.029 A 
ATOM     50  C   UNL A   1      46.581  25.944  27.676  1.00  0.00     0.049 A 
ATOM     51  H   UNL A   1      44.758  26.814  28.182  1.00  0.00     0.167 HD
ATOM     52  C   UNL A   1      40.827  28.575  28.985  1.00  0.00     0.037 A 
ATOM     53  C   UNL A   1      47.527  26.890  27.829  1.00  0.00     0.037 A 
ATOM     54  C   UNL A   1      41.777  29.612  29.290  1.00  0.00     0.049 A 
ATOM     55  C   UNL A   1      47.125  28.259  28.303  1.00  0.00     0.074 A 
ATOM     56  C   UNL A   1      41.541  30.877  29.797  1.00  0.00     0.029 A 
ATOM     57  N   UNL A   1      43.148  29.505  29.107  1.00  0.00    -0.354 N 
ATOM     58  N   UNL A   1      45.930  28.717  28.589  1.00  0.00    -0.248 NA
ATOM     59  C   UNL A   1      48.203  29.240  28.485  1.00  0.00     0.031 C 
ATOM     60  C   UNL A   1      42.761  31.557  29.865  1.00  0.00     0.029 A 
ATOM     61  C   UNL A   1      43.768  30.695  29.460  1.00  0.00     0.049 A 
ATOM     62  H   UNL A   1      43.614  28.704  28.775  1.00  0.00     0.167 HD
ATOM     63  C   UNL A   1      46.113  30.028  29.007  1.00  0.00     0.074 A 
ATOM     64  C   UNL A   1      47.538  30.286  28.954  1.00  0.00     0.031 C 
ATOM     65  C   UNL A   1      45.187  30.936  29.402  1.00  0.00     0.037 A 
BRANCH  52  66
ATOM     66  C   UNL A   1      39.363  28.875  29.144  1.00  0.00     0.057 A 
ATOM     67  C   UNL A   1      38.694  28.688  30.363  1.00  0.00     0.134 A 
ATOM     68  C   UNL A   1      38.615  29.374  28.071  1.00  0.00     0.134 A 
ATOM     69  F   UNL A   1      39.347  28.201  31.430  1.00  0.00    -0.206 F 
ATOM     70  C   UNL A   1      37.330  28.954  30.496  1.00  0.00     0.040 A 
ATOM     71  C   UNL A   1      37.258  29.675  28.202  1.00  0.00     0.040 A 
ATOM     72  F   UNL A   1      39.190  29.584  26.878  1.00  0.00    -0.206 F 
ATOM     73  C   UNL A   1      36.610  29.455  29.415  1.00  0.00     0.006 A 
ENDBRANCH  52  66
BRANCH  53  74
ATOM     74  C   UNL A   1      48.947  26.568  27.538  1.00  0.00     0.057 A 
ATOM     75  C   UNL A   1      49.503  26.813  26.278  1.00  0.00     0.134 A 
ATOM     76  C   UNL A   1      49.783  26.013  28.515  1.00  0.00     0.134 A 
ATOM     77  F   UNL A   1      48.749  27.328  25.295  1.00  0.00    -0.206 F 
ATOM     78  C   UNL A   1      50.834  26.501  25.992  1.00  0.00     0.040 A 
ATOM     79  C   UNL A   1      51.123  25.723  28.252  1.00  0.00     0.040 A 
ATOM     80  F   UNL A   1      49.313  25.764  29.746  1.00  0.00    -0.206 F 
ATOM     81  C   UNL A   1      51.649  25.960  26.984  1.00  0.00     0.006 A 
ENDBRANCH  53  74
BRANCH  65  82
ATOM     82  C   UNL A   1      45.687  32.285  29.837  1.00  0.00     0.057 A 
ATOM     83  C   UNL A   1      46.072  32.544  31.159  1.00  0.00     0.134 A 
ATOM     84  C   UNL A   1      45.822  33.326  28.909  1.00  0.00     0.134 A 
ATOM     85  F   UNL A   1      45.958  31.594  32.099  1.00  0.00    -0.206 F 
ATOM     86  C   UNL A   1      46.549  33.798  31.546  1.00  0.00     0.040 A 
ATOM     87  C   UNL A   1      46.325  34.574  29.278  1.00  0.00     0.040 A 
ATOM     88  F   UNL A   1      45.480  33.143  27.624  1.00  0.00    -0.206 F 
ATOM     89  C   UNL A   1      46.684  34.814  30.603  1.00  0.00     0.006 A 
ENDBRANCH  65  82
ENDBRANCH  39  40
ENDBRANCH  31  34
ENDBRANCH  29  30
ENDBRANCH  28  29
ENDBRANCH   1  28
TORSDOF 14
ENDMDL
MODEL 2
REMARK VINA RESULT:     -12.7      3.172      8.091
REMARK SMILES CN1C(=O)C[C@@H](C(=O)NCCCCCCNC(=O)c2ccc(-c3c4nc(c(-c5c(F)cccc5F)c5ccc([nH]5)c(-c5c(F)cccc5F)c5nc(c(-c6c(F)cccc6F)c6ccc3[nH]6)C=C5)C=C4)cc2)C12CCN(c1ccc(Cl)cn1)CC2
REMARK SMILES IDX 13 1 12 2 11 3 10 4 9 5 7 6 8 7 6 9 1 10 2 11 3 12 73 13
REMARK SMILES IDX 4 14 5 15 74 16 85 17 75 18 84 19 76 20 77 21 78 22 83 23
REMARK SMILES IDX 79 24 82 25 80 26 81 27 14 28 15 29 16 30 17 31 18 33 19 34
REMARK SMILES IDX 20 35 72 36 21 37 71 38 22 39 23 40 24 41 65 42 25 43 70 44
REMARK SMILES IDX 64 45 66 46 26 47 69 48 63 49 62 50 27 52 53 53 36 54 52 55
REMARK SMILES IDX 37 56 40 57 51 58 67 59 38 60 39 61 50 63 68 64 41 65 28 66
REMARK SMILES IDX 29 67 34 68 30 69 31 70 33 71 35 72 32 73 54 74 55 75 60 76
REMARK SMILES IDX 56 77 57 78 59 79 61 80 58 81 42 82 43 83 48 84 44 85 45 86
REMARK SMILES IDX 47 87 49 88 46 89
REMARK H PARENT 9 8 16 32 66 51 40 62
REMARK Flexibility Score: inf
ROOT
ATOM      1  C   UNL A   1      31.577  28.553  25.918  1.00  0.00     0.002 C 
ENDROOT
BRANCH   1   2
ATOM      2  C   UNL A   1      31.525  27.995  24.497  1.00  0.00     0.002 C 
BRANCH   2   3
ATOM      3  C   UNL A   1      30.342  27.067  24.229  1.00  0.00     0.021 C 
BRANCH   3   4
ATOM      4  C   UNL A   1      30.713  25.589  24.092  1.00  0.00     0.116 C 
BRANCH   4   5
ATOM      5  N   UNL A   1      30.995  24.961  25.367  1.00  0.00    -0.356 N 
ATOM      6  C   UNL A   1      32.067  24.286  25.848  1.00  0.00     0.226 C 
ATOM      7  O   UNL A   1      31.969  23.876  27.010  1.00  0.00    -0.275 OA
ATOM      8  H   UNL A   1      30.259  25.042  26.015  1.00  0.00     0.163 HD
BRANCH   6   9
ATOM      9  C   UNL A   1      33.355  23.998  25.074  1.00  0.00     0.113 C 
ATOM     10  C   UNL A   1      33.081  23.357  21.382  1.00  0.00     0.147 C 
ATOM     11  N   UNL A   1      33.332  23.819  22.736  1.00  0.00    -0.339 N 
ATOM     12  C   UNL A   1      33.775  25.107  22.994  1.00  0.00     0.223 C 
ATOM     13  C   UNL A   1      33.336  22.951  23.928  1.00  0.00     0.058 C 
ATOM     14  O   UNL A   1      33.958  25.992  22.170  1.00  0.00    -0.275 OA
ATOM     15  C   UNL A   1      33.969  25.264  24.474  1.00  0.00     0.116 C 
ATOM     16  C   UNL A   1      32.127  21.993  23.976  1.00  0.00     0.051 C 
ATOM     17  C   UNL A   1      34.651  22.107  23.936  1.00  0.00     0.051 C 
ATOM     18  C   UNL A   1      32.220  20.996  25.115  1.00  0.00     0.120 C 
ATOM     19  C   UNL A   1      34.678  21.001  25.009  1.00  0.00     0.120 C 
ATOM     20  N   UNL A   1      33.441  20.254  24.895  1.00  0.00    -0.356 N 
BRANCH  20  21
ATOM     21  C   UNL A   1      33.407  18.887  25.035  1.00  0.00     0.128 A 
ATOM     22  C   UNL A   1      34.425  18.120  24.455  1.00  0.00     0.048 A 
ATOM     23  N   UNL A   1      32.405  18.310  25.725  1.00  0.00    -0.238 NA
ATOM     24  C   UNL A   1      34.411  16.734  24.563  1.00  0.00     0.026 A 
ATOM     25  C   UNL A   1      32.391  16.953  25.792  1.00  0.00     0.134 A 
ATOM     26  C   UNL A   1      33.361  16.135  25.236  1.00  0.00     0.059 A 
ATOM     27  Cl  UNL A   1      33.277  14.428  25.376  1.00  0.00    -0.083 Cl
ENDBRANCH  20  21
ENDBRANCH   6   9
ENDBRANCH   4   5
ENDBRANCH   3   4
ENDBRANCH   2   3
ENDBRANCH   1   2
BRANCH   1  28
ATOM     28  C   UNL A   1      32.558  27.838  26.850  1.00  0.00     0.021 C 
BRANCH  28  29
ATOM     29  C   UNL A   1      33.920  28.511  26.971  1.00  0.00     0.116 C 
BRANCH  29  30
ATOM     30  N   UNL A   1      33.808  29.867  27.478  1.00  0.00    -0.352 N 
ATOM     31  C   UNL A   1      34.701  30.580  28.236  1.00  0.00     0.251 C 
ATOM     32  H   UNL A   1      32.976  30.340  27.246  1.00  0.00     0.163 HD
ATOM     33  O   UNL A   1      34.362  31.628  28.775  1.00  0.00    -0.269 OA
BRANCH  31  34
ATOM     34  C   UNL A   1      36.074  30.068  28.406  1.00  0.00     0.039 A 
ATOM     35  C   UNL A   1      36.960  30.138  27.329  1.00  0.00     0.014 A 
ATOM     36  C   UNL A   1      36.484  29.522  29.627  1.00  0.00     0.014 A 
ATOM     37  C   UNL A   1      38.275  29.702  27.492  1.00  0.00     0.010 A 
ATOM     38  C   UNL A   1      37.814  29.161  29.809  1.00  0.00     0.010 A 
ATOM     39  C   UNL A   1      38.720  29.238  28.740  1.00  0.00    -0.014 A 
BRANCH  39  40
ATOM     40  C   UNL A   1      40.131  28.824  28.943  1.00  0.00     0.031 A 
ATOM     41  C   UNL A   1      41.129  29.792  29.510  1.00  0.00     0.074 A 
ATOM     42  C   UNL A   1      40.522  27.594  28.559  1.00  0.00     0.049 A 
ATOM     43  N   UNL A   1      42.412  29.633  29.713  1.00  0.00    -0.248 NA
ATOM     44  C   UNL A   1      40.626  31.127  29.872  1.00  0.00     0.031 C 
ATOM     45  C   UNL A   1      39.658  26.584  27.946  1.00  0.00     0.029 A 
ATOM     46  N   UNL A   1      41.752  26.988  28.618  1.00  0.00    -0.354 N 
ATOM     47  C   UNL A   1      42.870  30.847  30.210  1.00  0.00     0.074 A 
ATOM     48  C   UNL A   1      41.740  31.750  30.224  1.00  0.00     0.031 C 
ATOM     49  C   UNL A   1      40.379  25.478  27.702  1.00  0.00     0.029 A 
ATOM     50  C   UNL A   1      41.761  25.714  28.103  1.00  0.00     0.049 A 
ATOM     51  H   UNL A   1      42.550  27.424  28.993  1.00  0.00     0.167 HD
ATOM     52  C   UNL A   1      44.113  31.171  30.640  1.00  0.00     0.037 A 
ATOM     53  C   UNL A   1      42.775  24.839  27.960  1.00  0.00     0.037 A 
ATOM     54  C   UNL A   1      45.228  30.262  30.638  1.00  0.00     0.049 A 
ATOM     55  C   UNL A   1      44.148  25.223  28.437  1.00  0.00     0.074 A 
ATOM     56  C   UNL A   1      46.512  30.470  31.111  1.00  0.00     0.029 A 
ATOM     57  N   UNL A   1      45.196  28.973  30.127  1.00  0.00    -0.354 N 
ATOM     58  N   UNL A   1      44.549  26.346  28.982  1.00  0.00    -0.248 NA
ATOM     59  C   UNL A   1      45.206  24.216  28.287  1.00  0.00     0.031 C 
ATOM     60  C   UNL A   1      47.271  29.329  30.834  1.00  0.00     0.029 A 
ATOM     61  C   UNL A   1      46.446  28.384  30.244  1.00  0.00     0.049 A 
ATOM     62  H   UNL A   1      44.403  28.538  29.738  1.00  0.00     0.167 HD
ATOM     63  C   UNL A   1      45.898  26.173  29.264  1.00  0.00     0.074 A 
ATOM     64  C   UNL A   1      46.242  24.830  28.844  1.00  0.00     0.031 C 
ATOM     65  C   UNL A   1      46.773  27.046  29.821  1.00  0.00     0.037 A 
BRANCH  52  66
ATOM     66  C   UNL A   1      44.329  32.572  31.140  1.00  0.00     0.057 A 
ATOM     67  C   UNL A   1      44.734  33.611  30.289  1.00  0.00     0.134 A 
ATOM     68  C   UNL A   1      44.113  32.891  32.486  1.00  0.00     0.134 A 
ATOM     69  F   UNL A   1      44.970  33.373  28.989  1.00  0.00    -0.206 F 
ATOM     70  C   UNL A   1      44.948  34.905  30.766  1.00  0.00     0.040 A 
ATOM     71  C   UNL A   1      44.292  34.189  32.967  1.00  0.00     0.040 A 
ATOM     72  F   UNL A   1      43.718  31.949  33.355  1.00  0.00    -0.206 F 
ATOM     73  C   UNL A   1      44.721  35.198  32.109  1.00  0.00     0.006 A 
ENDBRANCH  52  66
BRANCH  53  74
ATOM     74  C   UNL A   1      42.522  23.511  27.346  1.00  0.00     0.057 A 
ATOM     75  C   UNL A   1      42.144  22.411  28.124  1.00  0.00     0.134 A 
ATOM     76  C   UNL A   1      42.647  23.311  25.965  1.00  0.00     0.134 A 
ATOM     77  F   UNL A   1      42.024  22.534  29.454  1.00  0.00    -0.206 F 
ATOM     78  C   UNL A   1      41.917  21.156  27.556  1.00  0.00     0.040 A 
ATOM     79  C   UNL A   1      42.396  22.069  25.380  1.00  0.00     0.040 A 
ATOM     80  F   UNL A   1      42.997  24.327  25.163  1.00  0.00    -0.206 F 
ATOM     81  C   UNL A   1      42.037  20.985  26.178  1.00  0.00     0.006 A 
ENDBRANCH  53  74
BRANCH  65  82
ATOM     82  C   UNL A   1      48.180  26.566  30.038  1.00  0.00     0.057 A 
ATOM     83  C   UNL A   1      49.187  26.760  29.083  1.00  0.00     0.134 A 
ATOM     84  C   UNL A   1      48.540  25.937  31.237  1.00  0.00     0.134 A 
ATOM     85  F   UNL A   1      48.907  27.345  27.908  1.00  0.00    -0.206 F 
ATOM     86  C   UNL A   1      50.494  26.322  29.303  1.00  0.00     0.040 A 
ATOM     87  C   UNL A   1      49.849  25.523  31.481  1.00  0.00     0.040 A 
ATOM     88  F   UNL A   1      47.626  25.729  32.198  1.00  0.00    -0.206 F 
ATOM     89  C   UNL A   1      50.829  25.708  30.509  1.00  0.00     0.006 A 
ENDBRANCH  65  82
ENDBRANCH  39  40
ENDBRANCH  31  34
ENDBRANCH  29  30
ENDBRANCH  28  29
ENDBRANCH   1  28
TORSDOF 14
ENDMDL
MODEL 3
REMARK VINA RESULT:     -12.6      4.160      8.208
REMARK SMILES CN1C(=O)C[C@@H](C(=O)NCCCCCCNC(=O)c2ccc(-c3c4nc(c(-c5c(F)cccc5F)c5ccc([nH]5)c(-c5c(F)cccc5F)c5nc(c(-c6c(F)cccc6F)c6ccc3[nH]6)C=C5)C=C4)cc2)C12CCN(c1ccc(Cl)cn1)CC2
REMARK SMILES IDX 13 1 12 2 11 3 10 4 9 5 7 6 8 7 6 9 1 10 2 11 3 12 73 13
REMARK SMILES IDX 4 14 5 15 74 16 85 17 75 18 84 19 76 20 77 21 78 22 83 23
REMARK SMILES IDX 79 24 82 25 80 26 81 27 14 28 15 29 16 30 17 31 18 33 19 34
REMARK SMILES IDX 20 35 72 36 21 37 71 38 22 39 23 40 24 41 65 42 25 43 70 44
REMARK SMILES IDX 64 45 66 46 26 47 69 48 63 49 62 50 27 52 53 53 36 54 52 55
REMARK SMILES IDX 37 56 40 57 51 58 67 59 38 60 39 61 50 63 68 64 41 65 28 66
REMARK SMILES IDX 29 67 34 68 30 69 31 70 33 71 35 72 32 73 54 74 55 75 60 76
REMARK SMILES IDX 56 77 57 78 59 79 61 80 58 81 42 82 43 83 48 84 44 85 45 86
REMARK SMILES IDX 47 87 49 88 46 89
REMARK H PARENT 9 8 16 32 66 51 40 62
REMARK Flexibility Score: inf
ROOT
ATOM      1  C   UNL A   1      31.575  28.486  25.748  1.00  0.00     0.002 C 
ENDROOT
BRANCH   1   2
ATOM      2  C   UNL A   1      31.512  28.015  24.296  1.00  0.00     0.002 C 
BRANCH   2   3
ATOM      3  C   UNL A   1      30.342  27.083  23.987  1.00  0.00     0.021 C 
BRANCH   3   4
ATOM      4  C   UNL A   1      30.713  25.601  23.916  1.00  0.00     0.116 C 
BRANCH   4   5
ATOM      5  N   UNL A   1      31.003  25.032  25.217  1.00  0.00    -0.356 N 
ATOM      6  C   UNL A   1      32.082  24.390  25.726  1.00  0.00     0.226 C 
ATOM      7  O   UNL A   1      31.989  24.030  26.905  1.00  0.00    -0.275 OA
ATOM      8  H   UNL A   1      30.266  25.133  25.862  1.00  0.00     0.163 HD
BRANCH   6   9
ATOM      9  C   UNL A   1      33.373  24.083  24.964  1.00  0.00     0.113 C 
ATOM     10  C   UNL A   1      33.121  23.416  21.276  1.00  0.00     0.147 C 
ATOM     11  N   UNL A   1      33.367  23.885  22.628  1.00  0.00    -0.339 N 
ATOM     12  C   UNL A   1      33.821  25.171  22.880  1.00  0.00     0.223 C 
ATOM     13  C   UNL A   1      33.351  23.027  23.827  1.00  0.00     0.058 C 
ATOM     14  O   UNL A   1      34.020  26.047  22.050  1.00  0.00    -0.275 OA
ATOM     15  C   UNL A   1      34.005  25.338  24.360  1.00  0.00     0.116 C 
ATOM     16  C   UNL A   1      32.133  22.083  23.873  1.00  0.00     0.051 C 
ATOM     17  C   UNL A   1      34.657  22.169  23.851  1.00  0.00     0.051 C 
ATOM     18  C   UNL A   1      32.206  21.094  25.021  1.00  0.00     0.120 C 
ATOM     19  C   UNL A   1      34.665  21.072  24.933  1.00  0.00     0.120 C 
ATOM     20  N   UNL A   1      33.420  20.337  24.816  1.00  0.00    -0.356 N 
BRANCH  20  21
ATOM     21  C   UNL A   1      33.371  18.971  24.965  1.00  0.00     0.128 A 
ATOM     22  C   UNL A   1      34.329  18.182  24.318  1.00  0.00     0.048 A 
ATOM     23  N   UNL A   1      32.411  18.417  25.731  1.00  0.00    -0.238 NA
ATOM     24  C   UNL A   1      34.297  16.797  24.435  1.00  0.00     0.026 A 
ATOM     25  C   UNL A   1      32.377  17.061  25.806  1.00  0.00     0.134 A 
ATOM     26  C   UNL A   1      33.288  16.221  25.186  1.00  0.00     0.059 A 
ATOM     27  Cl  UNL A   1      33.181  14.517  25.342  1.00  0.00    -0.083 Cl
ENDBRANCH  20  21
ENDBRANCH   6   9
ENDBRANCH   4   5
ENDBRANCH   3   4
ENDBRANCH   2   3
ENDBRANCH   1   2
BRANCH   1  28
ATOM     28  C   UNL A   1      32.798  27.995  26.526  1.00  0.00     0.021 C 
BRANCH  28  29
ATOM     29  C   UNL A   1      34.044  28.856  26.353  1.00  0.00     0.116 C 
BRANCH  29  30
ATOM     30  N   UNL A   1      33.794  30.243  26.705  1.00  0.00    -0.352 N 
ATOM     31  C   UNL A   1      34.432  31.024  27.633  1.00  0.00     0.251 C 
ATOM     32  H   UNL A   1      33.066  30.682  26.209  1.00  0.00     0.163 HD
ATOM     33  O   UNL A   1      33.955  32.102  27.972  1.00  0.00    -0.269 OA
BRANCH  31  34
ATOM     34  C   UNL A   1      35.697  30.552  28.229  1.00  0.00     0.039 A 
ATOM     35  C   UNL A   1      35.649  29.786  29.395  1.00  0.00     0.014 A 
ATOM     36  C   UNL A   1      36.924  30.864  27.635  1.00  0.00     0.014 A 
ATOM     37  C   UNL A   1      36.834  29.293  29.941  1.00  0.00     0.010 A 
ATOM     38  C   UNL A   1      38.095  30.307  28.136  1.00  0.00     0.010 A 
ATOM     39  C   UNL A   1      38.062  29.524  29.300  1.00  0.00    -0.014 A 
BRANCH  39  40
ATOM     40  C   UNL A   1      39.324  28.958  29.839  1.00  0.00     0.031 A 
ATOM     41  C   UNL A   1      39.962  29.560  31.059  1.00  0.00     0.074 A 
ATOM     42  C   UNL A   1      39.924  27.941  29.193  1.00  0.00     0.049 A 
ATOM     43  N   UNL A   1      41.085  29.239  31.648  1.00  0.00    -0.248 NA
ATOM     44  C   UNL A   1      39.258  30.690  31.686  1.00  0.00     0.031 C 
ATOM     45  C   UNL A   1      39.431  27.309  27.968  1.00  0.00     0.029 A 
ATOM     46  N   UNL A   1      41.086  27.267  29.470  1.00  0.00    -0.354 N 
ATOM     47  C   UNL A   1      41.229  30.133  32.701  1.00  0.00     0.074 A 
ATOM     48  C   UNL A   1      40.109  31.046  32.636  1.00  0.00     0.031 C 
ATOM     49  C   UNL A   1      40.275  26.328  27.609  1.00  0.00     0.029 A 
ATOM     50  C   UNL A   1      41.386  26.288  28.553  1.00  0.00     0.049 A 
ATOM     51  H   UNL A   1      41.652  27.466  30.250  1.00  0.00     0.167 HD
ATOM     52  C   UNL A   1      42.194  30.175  33.651  1.00  0.00     0.037 A 
ATOM     53  C   UNL A   1      42.444  25.459  28.477  1.00  0.00     0.037 A 
ATOM     54  C   UNL A   1      43.297  29.253  33.719  1.00  0.00     0.049 A 
ATOM     55  C   UNL A   1      43.508  25.528  29.538  1.00  0.00     0.074 A 
ATOM     56  C   UNL A   1      44.292  29.168  34.677  1.00  0.00     0.029 A 
ATOM     57  N   UNL A   1      43.557  28.262  32.784  1.00  0.00    -0.354 N 
ATOM     58  N   UNL A   1      43.589  26.325  30.576  1.00  0.00    -0.248 NA
ATOM     59  C   UNL A   1      44.620  24.577  29.422  1.00  0.00     0.031 C 
ATOM     60  C   UNL A   1      45.186  28.164  34.291  1.00  0.00     0.029 A 
ATOM     61  C   UNL A   1      44.716  27.580  33.125  1.00  0.00     0.049 A 
ATOM     62  H   UNL A   1      43.002  28.069  31.995  1.00  0.00     0.167 HD
ATOM     63  C   UNL A   1      44.745  25.957  31.251  1.00  0.00     0.074 A 
ATOM     64  C   UNL A   1      45.323  24.852  30.513  1.00  0.00     0.031 C 
ATOM     65  C   UNL A   1      45.279  26.483  32.380  1.00  0.00     0.037 A 
BRANCH  52  66
ATOM     66  C   UNL A   1      42.100  31.259  34.687  1.00  0.00     0.057 A 
ATOM     67  C   UNL A   1      41.360  31.098  35.867  1.00  0.00     0.134 A 
ATOM     68  C   UNL A   1      42.774  32.474  34.512  1.00  0.00     0.134 A 
ATOM     69  F   UNL A   1      40.680  29.963  36.094  1.00  0.00    -0.206 F 
ATOM     70  C   UNL A   1      41.265  32.117  36.816  1.00  0.00     0.040 A 
ATOM     71  C   UNL A   1      42.713  33.488  35.470  1.00  0.00     0.040 A 
ATOM     72  F   UNL A   1      43.506  32.696  33.411  1.00  0.00    -0.206 F 
ATOM     73  C   UNL A   1      41.949  33.315  36.621  1.00  0.00     0.006 A 
ENDBRANCH  52  66
BRANCH  53  74
ATOM     74  C   UNL A   1      42.542  24.488  27.358  1.00  0.00     0.057 A 
ATOM     75  C   UNL A   1      43.132  24.843  26.139  1.00  0.00     0.134 A 
ATOM     76  C   UNL A   1      42.055  23.181  27.483  1.00  0.00     0.134 A 
ATOM     77  F   UNL A   1      43.603  26.084  25.952  1.00  0.00    -0.206 F 
ATOM     78  C   UNL A   1      43.217  23.939  25.078  1.00  0.00     0.040 A 
ATOM     79  C   UNL A   1      42.158  22.259  26.440  1.00  0.00     0.040 A 
ATOM     80  F   UNL A   1      41.488  22.777  28.628  1.00  0.00    -0.206 F 
ATOM     81  C   UNL A   1      42.734  22.641  25.230  1.00  0.00     0.006 A 
ENDBRANCH  53  74
BRANCH  65  82
ATOM     82  C   UNL A   1      46.537  25.852  32.905  1.00  0.00     0.057 A 
ATOM     83  C   UNL A   1      47.808  26.342  32.578  1.00  0.00     0.134 A 
ATOM     84  C   UNL A   1      46.473  24.762  33.783  1.00  0.00     0.134 A 
ATOM     85  F   UNL A   1      47.941  27.377  31.733  1.00  0.00    -0.206 F 
ATOM     86  C   UNL A   1      48.969  25.755  33.084  1.00  0.00     0.040 A 
ATOM     87  C   UNL A   1      47.625  24.186  34.320  1.00  0.00     0.040 A 
ATOM     88  F   UNL A   1      45.287  24.248  34.146  1.00  0.00    -0.206 F 
ATOM     89  C   UNL A   1      48.878  24.679  33.964  1.00  0.00     0.006 A 
ENDBRANCH  65  82
ENDBRANCH  39  40
ENDBRANCH  31  34
ENDBRANCH  29  30
ENDBRANCH  28  29
ENDBRANCH   1  28
TORSDOF 14
ENDMDL
