MODEL 1
REMARK VINA RESULT:     -12.5      0.000      0.000
REMARK SMILES CCN(C(=O)Cc1c(C(=O)NCCCCCCNC(=O)c2ccc(-c3c4nc(c(-c5c(F)cccc5F)c5ccc([nH]5)c(-c5c(F)cccc5F)c5nc(c(-c6c(F)cccc6F)c6ccc3[nH]6)C=C5)C=C4)cc2)[nH]c2ccc(Cl)cc12)c1ccc(C)c(C)c1
REMARK SMILES IDX 13 1 12 2 11 3 9 4 10 5 8 7 7 8 82 9 75 10 76 11 81 12 77 14
REMARK SMILES IDX 79 15 78 16 80 17 6 18 4 19 5 20 3 21 2 22 1 23 83 24 84 25
REMARK SMILES IDX 90 26 85 27 88 28 86 29 89 30 87 31 14 32 15 33 16 34 17 35
REMARK SMILES IDX 18 36 19 37 20 39 21 40 22 41 74 42 23 43 73 44 24 45 25 46
REMARK SMILES IDX 26 47 67 48 27 49 72 50 66 51 68 52 28 53 71 54 65 55 64 56
REMARK SMILES IDX 29 58 55 59 38 60 54 61 39 62 42 63 53 64 69 65 40 66 41 67
REMARK SMILES IDX 52 69 70 70 43 71 30 72 31 73 36 74 32 75 33 76 35 77 37 78
REMARK SMILES IDX 34 79 56 80 57 81 62 82 58 83 59 84 61 85 63 86 60 87 44 88
REMARK SMILES IDX 45 89 50 90 46 91 47 92 49 93 51 94 48 95
REMARK H PARENT 11 6 75 13 18 38 68 57 42 68
REMARK Flexibility Score: inf
ROOT
ATOM      1  C   UNL A   1      32.970  28.594  26.621  1.00  0.00     0.021 C 
ENDROOT
BRANCH   1   2
ATOM      2  C   UNL A   1      31.881  28.082  27.554  1.00  0.00     0.116 C 
BRANCH   2   3
ATOM      3  N   UNL A   1      31.093  27.027  26.964  1.00  0.00    -0.351 N 
ATOM      4  C   UNL A   1      31.295  25.776  26.472  1.00  0.00     0.268 C 
ATOM      5  O   UNL A   1      30.243  25.146  26.300  1.00  0.00    -0.268 OA
ATOM      6  H   UNL A   1      30.146  27.285  26.900  1.00  0.00     0.163 HD
BRANCH   4   7
ATOM      7  C   UNL A   1      32.557  25.129  26.144  1.00  0.00     0.109 A 
ATOM      8  C   UNL A   1      33.624  25.218  25.237  1.00  0.00    -0.000 A 
ATOM      9  C   UNL A   1      34.432  24.027  25.416  1.00  0.00     0.005 A 
ATOM     10  N   UNL A   1      32.889  24.070  26.982  1.00  0.00    -0.350 N 
ATOM     11  C   UNL A   1      33.963  23.359  26.536  1.00  0.00     0.046 A 
ATOM     12  C   UNL A   1      35.511  23.453  24.706  1.00  0.00     0.031 A 
ATOM     13  H   UNL A   1      32.400  23.856  27.809  1.00  0.00     0.167 HD
ATOM     14  C   UNL A   1      34.529  22.178  27.028  1.00  0.00     0.028 A 
ATOM     15  C   UNL A   1      36.054  22.242  25.150  1.00  0.00     0.041 A 
ATOM     16  C   UNL A   1      35.584  21.621  26.303  1.00  0.00     0.022 A 
ATOM     17  Cl  UNL A   1      37.311  21.494  24.239  1.00  0.00    -0.084 Cl
BRANCH   8  18
ATOM     18  C   UNL A   1      33.930  26.198  24.151  1.00  0.00     0.139 C 
BRANCH  18  19
ATOM     19  C   UNL A   1      33.036  26.185  22.896  1.00  0.00     0.231 C 
ATOM     20  O   UNL A   1      33.643  26.157  21.813  1.00  0.00    -0.274 OA
BRANCH  19  21
ATOM     21  N   UNL A   1      31.633  26.157  22.951  1.00  0.00    -0.312 N 
BRANCH  21  22
ATOM     22  C   UNL A   1      30.782  24.977  22.718  1.00  0.00     0.122 C 
ATOM     23  C   UNL A   1      31.294  23.620  23.171  1.00  0.00     0.028 C 
ENDBRANCH  21  22
BRANCH  21  24
ATOM     24  C   UNL A   1      30.904  27.398  23.013  1.00  0.00     0.044 A 
ATOM     25  C   UNL A   1      31.536  28.631  22.839  1.00  0.00     0.026 A 
ATOM     26  C   UNL A   1      29.516  27.390  23.182  1.00  0.00     0.030 A 
ATOM     27  C   UNL A   1      30.789  29.814  22.825  1.00  0.00     0.006 A 
ATOM     28  C   UNL A   1      28.744  28.563  23.141  1.00  0.00    -0.046 A 
ATOM     29  C   UNL A   1      29.391  29.796  22.974  1.00  0.00    -0.048 A 
ATOM     30  C   UNL A   1      27.255  28.438  23.311  1.00  0.00     0.044 C 
ATOM     31  C   UNL A   1      28.664  31.111  22.999  1.00  0.00     0.044 C 
ENDBRANCH  21  24
ENDBRANCH  19  21
ENDBRANCH  18  19
ENDBRANCH   8  18
ENDBRANCH   4   7
ENDBRANCH   2   3
ENDBRANCH   1   2
BRANCH   1  32
ATOM     32  C   UNL A   1      32.926  30.118  26.504  1.00  0.00     0.002 C 
BRANCH  32  33
ATOM     33  C   UNL A   1      31.527  30.696  26.250  1.00  0.00     0.002 C 
BRANCH  33  34
ATOM     34  C   UNL A   1      31.365  32.177  26.597  1.00  0.00     0.021 C 
BRANCH  34  35
ATOM     35  C   UNL A   1      32.584  32.804  27.263  1.00  0.00     0.116 C 
BRANCH  35  36
ATOM     36  N   UNL A   1      32.371  34.212  27.570  1.00  0.00    -0.352 N 
ATOM     37  C   UNL A   1      32.954  34.995  28.528  1.00  0.00     0.251 C 
ATOM     38  H   UNL A   1      31.708  34.668  27.004  1.00  0.00     0.163 HD
ATOM     39  O   UNL A   1      32.484  36.104  28.792  1.00  0.00    -0.269 OA
BRANCH  37  40
ATOM     40  C   UNL A   1      34.140  34.506  29.252  1.00  0.00     0.039 A 
ATOM     41  C   UNL A   1      33.976  33.928  30.512  1.00  0.00     0.014 A 
ATOM     42  C   UNL A   1      35.412  34.625  28.684  1.00  0.00     0.014 A 
ATOM     43  C   UNL A   1      35.085  33.409  31.179  1.00  0.00     0.010 A 
ATOM     44  C   UNL A   1      36.504  34.043  29.317  1.00  0.00     0.010 A 
ATOM     45  C   UNL A   1      36.351  33.430  30.568  1.00  0.00    -0.014 A 
BRANCH  45  46
ATOM     46  C   UNL A   1      37.527  32.798  31.211  1.00  0.00     0.031 A 
ATOM     47  C   UNL A   1      38.176  31.600  30.581  1.00  0.00     0.074 A 
ATOM     48  C   UNL A   1      37.953  33.258  32.402  1.00  0.00     0.049 A 
ATOM     49  N   UNL A   1      39.147  30.851  31.038  1.00  0.00    -0.248 NA
ATOM     50  C   UNL A   1      37.649  31.172  29.275  1.00  0.00     0.031 C 
ATOM     51  C   UNL A   1      37.373  34.387  33.131  1.00  0.00     0.029 A 
ATOM     52  N   UNL A   1      38.963  32.819  33.220  1.00  0.00    -0.354 N 
ATOM     53  C   UNL A   1      39.336  29.858  30.086  1.00  0.00     0.074 A 
ATOM     54  C   UNL A   1      38.349  30.069  29.050  1.00  0.00     0.031 C 
ATOM     55  C   UNL A   1      38.045  34.562  34.279  1.00  0.00     0.029 A 
ATOM     56  C   UNL A   1      39.071  33.531  34.389  1.00  0.00     0.049 A 
ATOM     57  H   UNL A   1      39.554  32.065  32.990  1.00  0.00     0.167 HD
ATOM     58  C   UNL A   1      40.264  28.871  30.070  1.00  0.00     0.037 A 
ATOM     59  C   UNL A   1      39.893  33.359  35.441  1.00  0.00     0.037 A 
ATOM     60  C   UNL A   1      41.252  28.676  31.099  1.00  0.00     0.049 A 
ATOM     61  C   UNL A   1      40.893  32.236  35.412  1.00  0.00     0.074 A 
ATOM     62  C   UNL A   1      42.274  27.745  31.146  1.00  0.00     0.029 A 
ATOM     63  N   UNL A   1      41.333  29.420  32.267  1.00  0.00    -0.354 N 
ATOM     64  N   UNL A   1      41.111  31.348  34.472  1.00  0.00    -0.248 NA
ATOM     65  C   UNL A   1      41.761  32.093  36.589  1.00  0.00     0.031 C 
ATOM     66  C   UNL A   1      42.942  27.892  32.366  1.00  0.00     0.029 A 
ATOM     67  C   UNL A   1      42.369  28.947  33.057  1.00  0.00     0.049 A 
ATOM     68  H   UNL A   1      40.742  30.172  32.500  1.00  0.00     0.167 HD
ATOM     69  C   UNL A   1      42.151  30.553  34.935  1.00  0.00     0.074 A 
ATOM     70  C   UNL A   1      42.535  31.079  36.229  1.00  0.00     0.031 C 
ATOM     71  C   UNL A   1      42.735  29.482  34.344  1.00  0.00     0.037 A 
BRANCH  58  72
ATOM     72  C   UNL A   1      40.251  27.926  28.903  1.00  0.00     0.057 A 
ATOM     73  C   UNL A   1      40.969  28.190  27.729  1.00  0.00     0.134 A 
ATOM     74  C   UNL A   1      39.542  26.720  28.967  1.00  0.00     0.134 A 
ATOM     75  F   UNL A   1      41.660  29.333  27.597  1.00  0.00    -0.206 F 
ATOM     76  C   UNL A   1      40.962  27.303  26.652  1.00  0.00     0.040 A 
ATOM     77  C   UNL A   1      39.549  25.812  27.908  1.00  0.00     0.040 A 
ATOM     78  F   UNL A   1      38.836  26.401  30.063  1.00  0.00    -0.206 F 
ATOM     79  C   UNL A   1      40.256  26.105  26.744  1.00  0.00     0.006 A 
ENDBRANCH  58  72
BRANCH  59  80
ATOM     80  C   UNL A   1      39.808  34.271  36.609  1.00  0.00     0.057 A 
ATOM     81  C   UNL A   1      40.523  35.475  36.637  1.00  0.00     0.134 A 
ATOM     82  C   UNL A   1      39.018  33.963  37.723  1.00  0.00     0.134 A 
ATOM     83  F   UNL A   1      41.311  35.816  35.609  1.00  0.00    -0.206 F 
ATOM     84  C   UNL A   1      40.472  36.329  37.741  1.00  0.00     0.040 A 
ATOM     85  C   UNL A   1      38.936  34.822  38.820  1.00  0.00     0.040 A 
ATOM     86  F   UNL A   1      38.303  32.830  37.754  1.00  0.00    -0.206 F 
ATOM     87  C   UNL A   1      39.671  36.006  38.834  1.00  0.00     0.006 A 
ENDBRANCH  59  80
BRANCH  71  88
ATOM     88  C   UNL A   1      43.862  28.822  35.084  1.00  0.00     0.057 A 
ATOM     89  C   UNL A   1      43.641  27.749  35.957  1.00  0.00     0.134 A 
ATOM     90  C   UNL A   1      45.184  29.241  34.894  1.00  0.00     0.134 A 
ATOM     91  F   UNL A   1      42.396  27.310  36.195  1.00  0.00    -0.206 F 
ATOM     92  C   UNL A   1      44.695  27.131  36.633  1.00  0.00     0.040 A 
ATOM     93  C   UNL A   1      46.249  28.612  35.540  1.00  0.00     0.040 A 
ATOM     94  F   UNL A   1      45.465  30.256  34.064  1.00  0.00    -0.206 F 
ATOM     95  C   UNL A   1      46.005  27.557  36.419  1.00  0.00     0.006 A 
ENDBRANCH  71  88
ENDBRANCH  45  46
ENDBRANCH  37  40
ENDBRANCH  35  36
ENDBRANCH  34  35
ENDBRANCH  33  34
ENDBRANCH  32  33
ENDBRANCH   1  32
TORSDOF 18
ENDMDL
MODEL 2
REMARK VINA RESULT:     -12.3      0.530      5.873
REMARK SMILES CCN(C(=O)Cc1c(C(=O)NCCCCCCNC(=O)c2ccc(-c3c4nc(c(-c5c(F)cccc5F)c5ccc([nH]5)c(-c5c(F)cccc5F)c5nc(c(-c6c(F)cccc6F)c6ccc3[nH]6)C=C5)C=C4)cc2)[nH]c2ccc(Cl)cc12)c1ccc(C)c(C)c1
REMARK SMILES IDX 13 1 12 2 11 3 9 4 10 5 8 7 7 8 82 9 75 10 76 11 81 12 77 14
REMARK SMILES IDX 79 15 78 16 80 17 6 18 4 19 5 20 3 21 2 22 1 23 83 24 84 25
REMARK SMILES IDX 90 26 85 27 88 28 86 29 89 30 87 31 14 32 15 33 16 34 17 35
REMARK SMILES IDX 18 36 19 37 20 39 21 40 22 41 74 42 23 43 73 44 24 45 25 46
REMARK SMILES IDX 26 47 67 48 27 49 72 50 66 51 68 52 28 53 71 54 65 55 64 56
REMARK SMILES IDX 29 58 55 59 38 60 54 61 39 62 42 63 53 64 69 65 40 66 41 67
REMARK SMILES IDX 52 69 70 70 43 71 30 72 31 73 36 74 32 75 33 76 35 77 37 78
REMARK SMILES IDX 34 79 56 80 57 81 62 82 58 83 59 84 61 85 63 86 60 87 44 88
REMARK SMILES IDX 45 89 50 90 46 91 47 92 49 93 51 94 48 95
REMARK H PARENT 11 6 75 13 18 38 68 57 42 68
REMARK Flexibility Score: inf
ROOT
ATOM      1  C   UNL A   1      32.685  28.623  26.270  1.00  0.00     0.021 C 
ENDROOT
BRANCH   1   2
ATOM      2  C   UNL A   1      31.811  28.006  27.353  1.00  0.00     0.116 C 
BRANCH   2   3
ATOM      3  N   UNL A   1      31.029  26.893  26.871  1.00  0.00    -0.351 N 
ATOM      4  C   UNL A   1      31.243  25.613  26.467  1.00  0.00     0.268 C 
ATOM      5  O   UNL A   1      30.200  24.951  26.379  1.00  0.00    -0.268 OA
ATOM      6  H   UNL A   1      30.074  27.126  26.819  1.00  0.00     0.163 HD
BRANCH   4   7
ATOM      7  C   UNL A   1      32.509  24.970  26.145  1.00  0.00     0.109 A 
ATOM      8  C   UNL A   1      33.587  25.070  25.254  1.00  0.00    -0.000 A 
ATOM      9  C   UNL A   1      34.391  23.875  25.426  1.00  0.00     0.005 A 
ATOM     10  N   UNL A   1      32.828  23.897  26.972  1.00  0.00    -0.350 N 
ATOM     11  C   UNL A   1      33.907  23.191  26.529  1.00  0.00     0.046 A 
ATOM     12  C   UNL A   1      35.479  23.310  24.721  1.00  0.00     0.031 A 
ATOM     13  H   UNL A   1      32.328  23.672  27.790  1.00  0.00     0.167 HD
ATOM     14  C   UNL A   1      34.464  22.003  27.012  1.00  0.00     0.028 A 
ATOM     15  C   UNL A   1      36.014  22.092  25.154  1.00  0.00     0.041 A 
ATOM     16  C   UNL A   1      35.528  21.455  26.292  1.00  0.00     0.022 A 
ATOM     17  Cl  UNL A   1      37.282  21.355  24.249  1.00  0.00    -0.084 Cl
BRANCH   8  18
ATOM     18  C   UNL A   1      33.909  26.066  24.187  1.00  0.00     0.139 C 
BRANCH  18  19
ATOM     19  C   UNL A   1      33.031  26.072  22.920  1.00  0.00     0.231 C 
ATOM     20  O   UNL A   1      33.651  26.017  21.845  1.00  0.00    -0.274 OA
BRANCH  19  21
ATOM     21  N   UNL A   1      31.627  26.089  22.956  1.00  0.00    -0.312 N 
BRANCH  21  22
ATOM     22  C   UNL A   1      30.743  24.928  22.755  1.00  0.00     0.122 C 
ATOM     23  C   UNL A   1      31.265  23.552  23.133  1.00  0.00     0.028 C 
ENDBRANCH  21  22
BRANCH  21  24
ATOM     24  C   UNL A   1      30.936  27.353  22.963  1.00  0.00     0.044 A 
ATOM     25  C   UNL A   1      31.605  28.557  22.732  1.00  0.00     0.026 A 
ATOM     26  C   UNL A   1      29.549  27.395  23.134  1.00  0.00     0.030 A 
ATOM     27  C   UNL A   1      30.895  29.760  22.665  1.00  0.00     0.006 A 
ATOM     28  C   UNL A   1      28.814  28.588  23.040  1.00  0.00    -0.046 A 
ATOM     29  C   UNL A   1      29.497  29.792  22.816  1.00  0.00    -0.048 A 
ATOM     30  C   UNL A   1      27.322  28.517  23.217  1.00  0.00     0.044 C 
ATOM     31  C   UNL A   1      28.810  31.128  22.783  1.00  0.00     0.044 C 
ENDBRANCH  21  24
ENDBRANCH  19  21
ENDBRANCH  18  19
ENDBRANCH   8  18
ENDBRANCH   4   7
ENDBRANCH   2   3
ENDBRANCH   1   2
BRANCH   1  32
ATOM     32  C   UNL A   1      32.727  30.146  26.395  1.00  0.00     0.002 C 
BRANCH  32  33
ATOM     33  C   UNL A   1      31.403  30.848  26.062  1.00  0.00     0.002 C 
BRANCH  33  34
ATOM     34  C   UNL A   1      31.309  32.305  26.520  1.00  0.00     0.021 C 
BRANCH  34  35
ATOM     35  C   UNL A   1      32.548  32.818  27.243  1.00  0.00     0.116 C 
BRANCH  35  36
ATOM     36  N   UNL A   1      32.414  34.218  27.626  1.00  0.00    -0.352 N 
ATOM     37  C   UNL A   1      33.043  34.917  28.619  1.00  0.00     0.251 C 
ATOM     38  H   UNL A   1      31.774  34.738  27.089  1.00  0.00     0.163 HD
ATOM     39  O   UNL A   1      32.636  36.034  28.944  1.00  0.00    -0.269 OA
BRANCH  37  40
ATOM     40  C   UNL A   1      34.204  34.327  29.307  1.00  0.00     0.039 A 
ATOM     41  C   UNL A   1      34.002  33.620  30.494  1.00  0.00     0.014 A 
ATOM     42  C   UNL A   1      35.489  34.478  28.779  1.00  0.00     0.014 A 
ATOM     43  C   UNL A   1      35.087  33.007  31.121  1.00  0.00     0.010 A 
ATOM     44  C   UNL A   1      36.557  33.808  29.365  1.00  0.00     0.010 A 
ATOM     45  C   UNL A   1      36.365  33.067  30.540  1.00  0.00    -0.014 A 
BRANCH  45  46
ATOM     46  C   UNL A   1      37.515  32.344  31.132  1.00  0.00     0.031 A 
ATOM     47  C   UNL A   1      38.161  32.855  32.388  1.00  0.00     0.074 A 
ATOM     48  C   UNL A   1      38.022  31.275  30.491  1.00  0.00     0.049 A 
ATOM     49  N   UNL A   1      39.232  32.420  33.001  1.00  0.00    -0.248 NA
ATOM     50  C   UNL A   1      37.535  34.024  33.026  1.00  0.00     0.031 C 
ATOM     51  C   UNL A   1      37.505  30.713  29.241  1.00  0.00     0.029 A 
ATOM     52  N   UNL A   1      39.099  30.480  30.791  1.00  0.00    -0.354 N 
ATOM     53  C   UNL A   1      39.415  33.269  34.085  1.00  0.00     0.074 A 
ATOM     54  C   UNL A   1      38.376  34.272  34.019  1.00  0.00     0.031 C 
ATOM     55  C   UNL A   1      38.255  29.657  28.890  1.00  0.00     0.029 A 
ATOM     56  C   UNL A   1      39.330  29.495  29.862  1.00  0.00     0.049 A 
ATOM     57  H   UNL A   1      39.653  30.604  31.596  1.00  0.00     0.167 HD
ATOM     58  C   UNL A   1      40.356  33.203  35.057  1.00  0.00     0.037 A 
ATOM     59  C   UNL A   1      40.312  28.577  29.792  1.00  0.00     0.037 A 
ATOM     60  C   UNL A   1      41.379  32.192  35.123  1.00  0.00     0.049 A 
ATOM     61  C   UNL A   1      41.361  28.545  30.869  1.00  0.00     0.074 A 
ATOM     62  C   UNL A   1      42.340  32.002  36.100  1.00  0.00     0.029 A 
ATOM     63  N   UNL A   1      41.580  31.208  34.166  1.00  0.00    -0.354 N 
ATOM     64  N   UNL A   1      41.482  29.308  31.928  1.00  0.00    -0.248 NA
ATOM     65  C   UNL A   1      42.411  27.525  30.738  1.00  0.00     0.031 C 
ATOM     66  C   UNL A   1      43.155  30.934  35.708  1.00  0.00     0.029 A 
ATOM     67  C   UNL A   1      42.670  30.426  34.514  1.00  0.00     0.049 A 
ATOM     68  H   UNL A   1      41.030  31.084  33.359  1.00  0.00     0.167 HD
ATOM     69  C   UNL A   1      42.607  28.849  32.600  1.00  0.00     0.074 A 
ATOM     70  C   UNL A   1      43.120  27.727  31.840  1.00  0.00     0.031 C 
ATOM     71  C   UNL A   1      43.168  29.316  33.743  1.00  0.00     0.037 A 
BRANCH  58  72
ATOM     72  C   UNL A   1      40.321  34.255  36.128  1.00  0.00     0.057 A 
ATOM     73  C   UNL A   1      40.994  35.476  35.987  1.00  0.00     0.134 A 
ATOM     74  C   UNL A   1      39.577  34.061  37.298  1.00  0.00     0.134 A 
ATOM     75  F   UNL A   1      41.736  35.722  34.896  1.00  0.00    -0.206 F 
ATOM     76  C   UNL A   1      40.949  36.455  36.982  1.00  0.00     0.040 A 
ATOM     77  C   UNL A   1      39.501  35.042  38.287  1.00  0.00     0.040 A 
ATOM     78  F   UNL A   1      38.904  32.917  37.496  1.00  0.00    -0.206 F 
ATOM     79  C   UNL A   1      40.194  36.241  38.133  1.00  0.00     0.006 A 
ENDBRANCH  58  72
BRANCH  59  80
ATOM     80  C   UNL A   1      40.348  27.610  28.666  1.00  0.00     0.057 A 
ATOM     81  C   UNL A   1      41.096  27.874  27.513  1.00  0.00     0.134 A 
ATOM     82  C   UNL A   1      39.635  26.406  28.711  1.00  0.00     0.134 A 
ATOM     83  F   UNL A   1      41.785  29.019  27.402  1.00  0.00    -0.206 F 
ATOM     84  C   UNL A   1      41.118  26.985  26.436  1.00  0.00     0.040 A 
ATOM     85  C   UNL A   1      39.670  25.496  27.654  1.00  0.00     0.040 A 
ATOM     86  F   UNL A   1      38.906  26.090  29.791  1.00  0.00    -0.206 F 
ATOM     87  C   UNL A   1      40.408  25.789  26.508  1.00  0.00     0.006 A 
ENDBRANCH  59  80
BRANCH  71  88
ATOM     88  C   UNL A   1      44.388  28.601  34.247  1.00  0.00     0.057 A 
ATOM     89  C   UNL A   1      45.678  28.974  33.850  1.00  0.00     0.134 A 
ATOM     90  C   UNL A   1      44.272  27.552  35.167  1.00  0.00     0.134 A 
ATOM     91  F   UNL A   1      45.857  29.962  32.959  1.00  0.00    -0.206 F 
ATOM     92  C   UNL A   1      46.809  28.314  34.333  1.00  0.00     0.040 A 
ATOM     93  C   UNL A   1      45.396  26.903  35.680  1.00  0.00     0.040 A 
ATOM     94  F   UNL A   1      43.065  27.151  35.595  1.00  0.00    -0.206 F 
ATOM     95  C   UNL A   1      46.669  27.280  35.257  1.00  0.00     0.006 A 
ENDBRANCH  71  88
ENDBRANCH  45  46
ENDBRANCH  37  40
ENDBRANCH  35  36
ENDBRANCH  34  35
ENDBRANCH  33  34
ENDBRANCH  32  33
ENDBRANCH   1  32
TORSDOF 18
ENDMDL
MODEL 3
REMARK VINA RESULT:     -11.8      1.202      1.955
REMARK SMILES CCN(C(=O)Cc1c(C(=O)NCCCCCCNC(=O)c2ccc(-c3c4nc(c(-c5c(F)cccc5F)c5ccc([nH]5)c(-c5c(F)cccc5F)c5nc(c(-c6c(F)cccc6F)c6ccc3[nH]6)C=C5)C=C4)cc2)[nH]c2ccc(Cl)cc12)c1ccc(C)c(C)c1
REMARK SMILES IDX 13 1 12 2 11 3 9 4 10 5 8 7 7 8 82 9 75 10 76 11 81 12 77 14
REMARK SMILES IDX 79 15 78 16 80 17 6 18 4 19 5 20 3 21 2 22 1 23 83 24 84 25
REMARK SMILES IDX 90 26 85 27 88 28 86 29 89 30 87 31 14 32 15 33 16 34 17 35
REMARK SMILES IDX 18 36 19 37 20 39 21 40 22 41 74 42 23 43 73 44 24 45 25 46
REMARK SMILES IDX 26 47 67 48 27 49 72 50 66 51 68 52 28 53 71 54 65 55 64 56
REMARK SMILES IDX 29 58 55 59 38 60 54 61 39 62 42 63 53 64 69 65 40 66 41 67
REMARK SMILES IDX 52 69 70 70 43 71 30 72 31 73 36 74 32 75 33 76 35 77 37 78
REMARK SMILES IDX 34 79 56 80 57 81 62 82 58 83 59 84 61 85 63 86 60 87 44 88
REMARK SMILES IDX 45 89 50 90 46 91 47 92 49 93 51 94 48 95
REMARK H PARENT 11 6 75 13 18 38 68 57 42 68
REMARK Flexibility Score: inf
ROOT
ATOM      1  C   UNL A   1      31.419  28.917  25.828  1.00  0.00     0.021 C 
ENDROOT
BRANCH   1   2
ATOM      2  C   UNL A   1      31.473  28.013  27.052  1.00  0.00     0.116 C 
BRANCH   2   3
ATOM      3  N   UNL A   1      30.789  26.759  26.848  1.00  0.00    -0.351 N 
ATOM      4  C   UNL A   1      31.118  25.454  26.651  1.00  0.00     0.268 C 
ATOM      5  O   UNL A   1      30.154  24.687  26.781  1.00  0.00    -0.268 OA
ATOM      6  H   UNL A   1      29.813  26.882  26.850  1.00  0.00     0.163 HD
BRANCH   4   7
ATOM      7  C   UNL A   1      32.420  24.892  26.323  1.00  0.00     0.109 A 
ATOM      8  C   UNL A   1      33.552  25.152  25.537  1.00  0.00    -0.000 A 
ATOM      9  C   UNL A   1      34.376  23.959  25.576  1.00  0.00     0.005 A 
ATOM     10  N   UNL A   1      32.713  23.708  26.992  1.00  0.00    -0.350 N 
ATOM     11  C   UNL A   1      33.839  23.100  26.521  1.00  0.00     0.046 A 
ATOM     12  C   UNL A   1      35.525  23.532  24.871  1.00  0.00     0.031 A 
ATOM     13  H   UNL A   1      32.166  23.347  27.726  1.00  0.00     0.167 HD
ATOM     14  C   UNL A   1      34.396  21.860  26.849  1.00  0.00     0.028 A 
ATOM     15  C   UNL A   1      36.064  22.270  25.143  1.00  0.00     0.041 A 
ATOM     16  C   UNL A   1      35.521  21.452  26.130  1.00  0.00     0.022 A 
ATOM     17  Cl  UNL A   1      37.411  21.708  24.226  1.00  0.00    -0.084 Cl
BRANCH   8  18
ATOM     18  C   UNL A   1      33.917  26.310  24.666  1.00  0.00     0.139 C 
BRANCH  18  19
ATOM     19  C   UNL A   1      33.267  26.393  23.271  1.00  0.00     0.231 C 
ATOM     20  O   UNL A   1      33.927  27.002  22.413  1.00  0.00    -0.274 OA
BRANCH  19  21
ATOM     21  N   UNL A   1      32.039  25.788  22.956  1.00  0.00    -0.312 N 
BRANCH  21  22
ATOM     22  C   UNL A   1      31.859  24.445  22.379  1.00  0.00     0.122 C 
ATOM     23  C   UNL A   1      33.094  23.589  22.148  1.00  0.00     0.028 C 
ENDBRANCH  21  22
BRANCH  21  24
ATOM     24  C   UNL A   1      30.838  26.582  22.967  1.00  0.00     0.044 A 
ATOM     25  C   UNL A   1      29.665  26.133  23.578  1.00  0.00     0.026 A 
ATOM     26  C   UNL A   1      30.841  27.869  22.418  1.00  0.00     0.030 A 
ATOM     27  C   UNL A   1      28.539  26.960  23.643  1.00  0.00     0.006 A 
ATOM     28  C   UNL A   1      29.731  28.725  22.499  1.00  0.00    -0.046 A 
ATOM     29  C   UNL A   1      28.556  28.260  23.108  1.00  0.00    -0.048 A 
ATOM     30  C   UNL A   1      29.849  30.098  21.896  1.00  0.00     0.044 C 
ATOM     31  C   UNL A   1      27.291  29.070  23.169  1.00  0.00     0.044 C 
ENDBRANCH  21  24
ENDBRANCH  19  21
ENDBRANCH  18  19
ENDBRANCH   8  18
ENDBRANCH   4   7
ENDBRANCH   2   3
ENDBRANCH   1   2
BRANCH   1  32
ATOM     32  C   UNL A   1      32.706  29.732  25.686  1.00  0.00     0.002 C 
BRANCH  32  33
ATOM     33  C   UNL A   1      33.426  30.019  27.011  1.00  0.00     0.002 C 
BRANCH  33  34
ATOM     34  C   UNL A   1      32.992  31.303  27.720  1.00  0.00     0.021 C 
BRANCH  34  35
ATOM     35  C   UNL A   1      33.163  32.569  26.888  1.00  0.00     0.116 C 
BRANCH  35  36
ATOM     36  N   UNL A   1      32.709  33.755  27.603  1.00  0.00    -0.352 N 
ATOM     37  C   UNL A   1      33.178  34.309  28.762  1.00  0.00     0.251 C 
ATOM     38  H   UNL A   1      31.951  34.227  27.190  1.00  0.00     0.163 HD
ATOM     39  O   UNL A   1      32.525  35.179  29.340  1.00  0.00    -0.269 OA
BRANCH  37  40
ATOM     40  C   UNL A   1      34.462  33.856  29.323  1.00  0.00     0.039 A 
ATOM     41  C   UNL A   1      34.458  33.046  30.460  1.00  0.00     0.014 A 
ATOM     42  C   UNL A   1      35.667  34.236  28.726  1.00  0.00     0.014 A 
ATOM     43  C   UNL A   1      35.666  32.564  30.964  1.00  0.00     0.010 A 
ATOM     44  C   UNL A   1      36.863  33.697  29.185  1.00  0.00     0.010 A 
ATOM     45  C   UNL A   1      36.873  32.857  30.307  1.00  0.00    -0.014 A 
BRANCH  45  46
ATOM     46  C   UNL A   1      38.158  32.277  30.763  1.00  0.00     0.031 A 
ATOM     47  C   UNL A   1      38.676  31.011  30.142  1.00  0.00     0.074 A 
ATOM     48  C   UNL A   1      38.812  32.849  31.791  1.00  0.00     0.049 A 
ATOM     49  N   UNL A   1      39.723  30.299  30.470  1.00  0.00    -0.248 NA
ATOM     50  C   UNL A   1      37.900  30.459  29.020  1.00  0.00     0.031 C 
ATOM     51  C   UNL A   1      38.382  34.056  32.501  1.00  0.00     0.029 A 
ATOM     52  N   UNL A   1      39.968  32.482  32.430  1.00  0.00    -0.354 N 
ATOM     53  C   UNL A   1      39.724  29.212  29.607  1.00  0.00     0.074 A 
ATOM     54  C   UNL A   1      38.549  29.330  28.773  1.00  0.00     0.031 C 
ATOM     55  C   UNL A   1      39.270  34.337  33.466  1.00  0.00     0.029 A 
ATOM     56  C   UNL A   1      40.304  33.309  33.475  1.00  0.00     0.049 A 
ATOM     57  H   UNL A   1      40.506  31.701  32.166  1.00  0.00     0.167 HD
ATOM     58  C   UNL A   1      40.637  28.215  29.507  1.00  0.00     0.037 A 
ATOM     59  C   UNL A   1      41.322  33.233  34.353  1.00  0.00     0.037 A 
ATOM     60  C   UNL A   1      41.812  28.113  30.332  1.00  0.00     0.049 A 
ATOM     61  C   UNL A   1      42.303  32.100  34.239  1.00  0.00     0.074 A 
ATOM     62  C   UNL A   1      42.829  27.177  30.268  1.00  0.00     0.029 A 
ATOM     63  N   UNL A   1      42.121  28.971  31.377  1.00  0.00    -0.354 N 
ATOM     64  N   UNL A   1      42.333  31.117  33.372  1.00  0.00    -0.248 NA
ATOM     65  C   UNL A   1      43.390  32.065  35.227  1.00  0.00     0.031 C 
ATOM     66  C   UNL A   1      43.728  27.438  31.309  1.00  0.00     0.029 A 
ATOM     67  C   UNL A   1      43.298  28.567  31.988  1.00  0.00     0.049 A 
ATOM     68  H   UNL A   1      41.585  29.751  31.645  1.00  0.00     0.167 HD
ATOM     69  C   UNL A   1      43.451  30.359  33.696  1.00  0.00     0.074 A 
ATOM     70  C   UNL A   1      44.083  31.009  34.826  1.00  0.00     0.031 C 
ATOM     71  C   UNL A   1      43.911  29.224  33.113  1.00  0.00     0.037 A 
BRANCH  58  72
ATOM     72  C   UNL A   1      40.396  27.156  28.470  1.00  0.00     0.057 A 
ATOM     73  C   UNL A   1      39.520  26.087  28.694  1.00  0.00     0.134 A 
ATOM     74  C   UNL A   1      41.022  27.226  27.219  1.00  0.00     0.134 A 
ATOM     75  F   UNL A   1      38.898  25.953  29.876  1.00  0.00    -0.206 F 
ATOM     76  C   UNL A   1      39.293  25.111  27.722  1.00  0.00     0.040 A 
ATOM     77  C   UNL A   1      40.782  26.273  26.228  1.00  0.00     0.040 A 
ATOM     78  F   UNL A   1      41.869  28.226  26.935  1.00  0.00    -0.206 F 
ATOM     79  C   UNL A   1      39.919  25.208  26.481  1.00  0.00     0.006 A 
ENDBRANCH  58  72
BRANCH  59  80
ATOM     80  C   UNL A   1      41.467  34.262  35.414  1.00  0.00     0.057 A 
ATOM     81  C   UNL A   1      40.838  34.111  36.655  1.00  0.00     0.134 A 
ATOM     82  C   UNL A   1      42.230  35.418  35.212  1.00  0.00     0.134 A 
ATOM     83  F   UNL A   1      40.079  33.034  36.901  1.00  0.00    -0.206 F 
ATOM     84  C   UNL A   1      40.946  35.083  37.651  1.00  0.00     0.040 A 
ATOM     85  C   UNL A   1      42.369  36.384  36.209  1.00  0.00     0.040 A 
ATOM     86  F   UNL A   1      42.864  35.618  34.048  1.00  0.00    -0.206 F 
ATOM     87  C   UNL A   1      41.719  36.222  37.432  1.00  0.00     0.006 A 
ENDBRANCH  59  80
BRANCH  71  88
ATOM     88  C   UNL A   1      45.168  28.628  33.677  1.00  0.00     0.057 A 
ATOM     89  C   UNL A   1      45.135  27.663  34.692  1.00  0.00     0.134 A 
ATOM     90  C   UNL A   1      46.422  28.996  33.174  1.00  0.00     0.134 A 
ATOM     91  F   UNL A   1      43.966  27.279  35.228  1.00  0.00    -0.206 F 
ATOM     92  C   UNL A   1      46.307  27.103  35.202  1.00  0.00     0.040 A 
ATOM     93  C   UNL A   1      47.598  28.421  33.655  1.00  0.00     0.040 A 
ATOM     94  F   UNL A   1      46.523  29.908  32.195  1.00  0.00    -0.206 F 
ATOM     95  C   UNL A   1      47.543  27.476  34.678  1.00  0.00     0.006 A 
ENDBRANCH  71  88
ENDBRANCH  45  46
ENDBRANCH  37  40
ENDBRANCH  35  36
ENDBRANCH  34  35
ENDBRANCH  33  34
ENDBRANCH  32  33
ENDBRANCH   1  32
TORSDOF 18
ENDMDL
