MODEL 1
REMARK VINA RESULT:      -9.6      0.000      0.000
REMARK SMILES COc1ccc(N2C(=O)S[C@H](CC(=O)Nc3ccc(O)c(C(=O)NCCCCCCNC(=O)c4ccc(-c5c6nc(c(-c7c(F)cccc7F)c7ccc([nH]7)c(-c7c(F)cccc7F)c7nc(c(-c8c(F)cccc8F)c8ccc5[nH]8)C=C7)C=C6)cc4)c3)C2=O)c(OC)c1
REMARK SMILES IDX 26 1 25 2 24 3 22 4 23 5 21 7 16 8 17 9 88 10 18 11 19 12
REMARK SMILES IDX 15 13 13 14 14 15 12 17 11 18 7 19 8 20 89 21 9 22 10 23
REMARK SMILES IDX 90 24 6 25 3 26 4 27 94 28 5 29 91 30 2 31 1 32 92 33 93 34
REMARK SMILES IDX 20 35 27 37 28 38 29 39 30 40 31 41 32 42 33 44 34 45 35 46
REMARK SMILES IDX 87 47 36 48 86 49 37 50 38 51 39 52 80 53 40 54 85 55 79 56
REMARK SMILES IDX 81 57 41 58 84 59 78 60 77 61 42 63 68 64 51 65 67 66 52 67
REMARK SMILES IDX 55 68 66 69 82 70 53 71 54 72 65 74 83 75 56 76 43 77 44 78
REMARK SMILES IDX 49 79 45 80 46 81 48 82 50 83 47 84 69 85 70 86 75 87 71 88
REMARK SMILES IDX 72 89 74 90 76 91 73 92 57 93 58 94 63 95 59 96 60 97 62 98
REMARK SMILES IDX 64 99 61 100
REMARK H PARENT 24 6 15 16 20 36 31 43 81 62 55 73
REMARK Flexibility Score: inf
ROOT
ATOM      1  C   UNL A   1      42.295  22.907  28.729  1.00  0.00     0.021 C 
ENDROOT
BRANCH   1   2
ATOM      2  C   UNL A   1      41.832  22.949  27.280  1.00  0.00     0.116 C 
BRANCH   2   3
ATOM      3  N   UNL A   1      40.391  23.023  27.150  1.00  0.00    -0.352 N 
ATOM      4  C   UNL A   1      39.475  24.047  27.175  1.00  0.00     0.255 C 
ATOM      5  O   UNL A   1      38.325  23.768  26.821  1.00  0.00    -0.269 OA
ATOM      6  H   UNL A   1      39.974  22.141  27.012  1.00  0.00     0.163 HD
BRANCH   4   7
ATOM      7  C   UNL A   1      39.770  25.469  27.529  1.00  0.00     0.083 A 
ATOM      8  C   UNL A   1      39.961  27.302  29.126  1.00  0.00     0.042 A 
ATOM      9  C   UNL A   1      40.507  28.130  28.149  1.00  0.00     0.030 A 
ATOM     10  C   UNL A   1      39.461  26.044  28.767  1.00  0.00     0.043 A 
ATOM     11  C   UNL A   1      40.735  27.617  26.872  1.00  0.00     0.049 A 
ATOM     12  C   UNL A   1      40.414  26.287  26.581  1.00  0.00     0.128 A 
BRANCH   8  13
ATOM     13  N   UNL A   1      39.924  27.745  30.457  1.00  0.00    -0.326 N 
ATOM     14  C   UNL A   1      39.461  28.917  31.002  1.00  0.00     0.226 C 
ATOM     15  O   UNL A   1      40.017  29.313  32.035  1.00  0.00    -0.275 OA
ATOM     16  H   UNL A   1      40.292  27.107  31.110  1.00  0.00     0.169 HD
BRANCH  14  17
ATOM     17  C   UNL A   1      38.142  29.603  30.575  1.00  0.00     0.125 C 
BRANCH  17  18
ATOM     18  C   UNL A   1      38.007  31.089  30.764  1.00  0.00     0.156 C 
ATOM     19  N   UNL A   1      36.666  33.021  31.077  1.00  0.00    -0.236 N 
ATOM     20  C   UNL A   1      37.555  33.416  30.103  1.00  0.00     0.293 C 
ATOM     21  C   UNL A   1      36.823  31.714  31.521  1.00  0.00     0.248 C 
ATOM     22  O   UNL A   1      38.068  34.506  29.937  1.00  0.00    -0.261 OA
ATOM     23  S   UNL A   1      38.009  32.004  29.198  1.00  0.00    -0.050 SA
ATOM     24  O   UNL A   1      36.213  31.154  32.424  1.00  0.00    -0.273 OA
BRANCH  19  25
ATOM     25  C   UNL A   1      35.673  33.948  31.478  1.00  0.00     0.095 A 
ATOM     26  C   UNL A   1      33.656  35.815  32.031  1.00  0.00     0.122 A 
ATOM     27  C   UNL A   1      34.780  35.720  32.859  1.00  0.00     0.049 A 
ATOM     28  C   UNL A   1      33.541  35.001  30.910  1.00  0.00     0.095 A 
ATOM     29  C   UNL A   1      35.777  34.765  32.604  1.00  0.00     0.034 A 
ATOM     30  C   UNL A   1      34.533  34.066  30.649  1.00  0.00     0.146 A 
BRANCH  26  31
ATOM     31  O   UNL A   1      32.692  36.722  32.383  1.00  0.00    -0.497 OA
ATOM     32  C   UNL A   1      31.424  36.105  32.620  1.00  0.00     0.278 C 
ENDBRANCH  26  31
BRANCH  30  33
ATOM     33  O   UNL A   1      34.344  33.093  29.693  1.00  0.00    -0.494 OA
ATOM     34  C   UNL A   1      33.836  33.567  28.450  1.00  0.00     0.278 C 
ENDBRANCH  30  33
ENDBRANCH  19  25
ENDBRANCH  17  18
ENDBRANCH  14  17
ENDBRANCH   8  13
BRANCH  12  35
ATOM     35  O   UNL A   1      40.788  25.855  25.335  1.00  0.00    -0.507 OA
ATOM     36  H   UNL A   1      40.899  26.473  24.638  1.00  0.00     0.293 HD
ENDBRANCH  12  35
ENDBRANCH   4   7
ENDBRANCH   2   3
ENDBRANCH   1   2
BRANCH   1  37
ATOM     37  C   UNL A   1      43.813  22.873  28.890  1.00  0.00     0.002 C 
BRANCH  37  38
ATOM     38  C   UNL A   1      44.577  23.965  28.130  1.00  0.00     0.002 C 
BRANCH  38  39
ATOM     39  C   UNL A   1      45.505  23.486  27.013  1.00  0.00     0.021 C 
BRANCH  39  40
ATOM     40  C   UNL A   1      45.027  23.798  25.600  1.00  0.00     0.116 C 
BRANCH  40  41
ATOM     41  N   UNL A   1      45.982  24.599  24.850  1.00  0.00    -0.352 N 
ATOM     42  C   UNL A   1      46.332  25.915  25.013  1.00  0.00     0.251 C 
ATOM     43  H   UNL A   1      46.446  24.128  24.121  1.00  0.00     0.163 HD
ATOM     44  O   UNL A   1      47.050  26.473  24.189  1.00  0.00    -0.269 OA
BRANCH  42  45
ATOM     45  C   UNL A   1      45.815  26.666  26.174  1.00  0.00     0.039 A 
ATOM     46  C   UNL A   1      46.693  27.000  27.206  1.00  0.00     0.014 A 
ATOM     47  C   UNL A   1      44.473  27.054  26.231  1.00  0.00     0.014 A 
ATOM     48  C   UNL A   1      46.241  27.784  28.267  1.00  0.00     0.010 A 
ATOM     49  C   UNL A   1      44.045  27.900  27.247  1.00  0.00     0.010 A 
ATOM     50  C   UNL A   1      44.924  28.273  28.275  1.00  0.00    -0.014 A 
BRANCH  50  51
ATOM     51  C   UNL A   1      44.445  29.182  29.346  1.00  0.00     0.031 A 
ATOM     52  C   UNL A   1      44.052  28.624  30.686  1.00  0.00     0.074 A 
ATOM     53  C   UNL A   1      44.292  30.495  29.086  1.00  0.00     0.049 A 
ATOM     54  N   UNL A   1      43.527  29.239  31.715  1.00  0.00    -0.248 NA
ATOM     55  C   UNL A   1      44.248  27.180  30.885  1.00  0.00     0.031 C 
ATOM     56  C   UNL A   1      44.595  31.145  27.810  1.00  0.00     0.029 A 
ATOM     57  N   UNL A   1      43.827  31.515  29.877  1.00  0.00    -0.354 N 
ATOM     58  C   UNL A   1      43.315  28.255  32.673  1.00  0.00     0.074 A 
ATOM     59  C   UNL A   1      43.716  26.997  32.083  1.00  0.00     0.031 C 
ATOM     60  C   UNL A   1      44.325  32.456  27.911  1.00  0.00     0.029 A 
ATOM     61  C   UNL A   1      43.788  32.731  29.239  1.00  0.00     0.049 A 
ATOM     62  H   UNL A   1      43.548  31.387  30.812  1.00  0.00     0.167 HD
ATOM     63  C   UNL A   1      42.848  28.393  33.937  1.00  0.00     0.037 A 
ATOM     64  C   UNL A   1      43.354  33.930  29.672  1.00  0.00     0.037 A 
ATOM     65  C   UNL A   1      42.468  29.652  34.521  1.00  0.00     0.049 A 
ATOM     66  C   UNL A   1      42.823  34.054  31.074  1.00  0.00     0.074 A 
ATOM     67  C   UNL A   1      42.040  29.907  35.813  1.00  0.00     0.029 A 
ATOM     68  N   UNL A   1      42.459  30.865  33.850  1.00  0.00    -0.354 N 
ATOM     69  N   UNL A   1      42.696  33.129  31.995  1.00  0.00    -0.248 NA
ATOM     70  C   UNL A   1      42.380  35.389  31.500  1.00  0.00     0.031 C 
ATOM     71  C   UNL A   1      41.719  31.264  35.906  1.00  0.00     0.029 A 
ATOM     72  C   UNL A   1      42.007  31.868  34.692  1.00  0.00     0.049 A 
ATOM     73  H   UNL A   1      42.734  30.995  32.914  1.00  0.00     0.167 HD
ATOM     74  C   UNL A   1      42.191  33.775  33.117  1.00  0.00     0.074 A 
ATOM     75  C   UNL A   1      42.047  35.172  32.764  1.00  0.00     0.031 C 
ATOM     76  C   UNL A   1      41.877  33.257  34.330  1.00  0.00     0.037 A 
BRANCH  63  77
ATOM     77  C   UNL A   1      42.719  27.149  34.768  1.00  0.00     0.057 A 
ATOM     78  C   UNL A   1      43.757  26.697  35.595  1.00  0.00     0.134 A 
ATOM     79  C   UNL A   1      41.530  26.410  34.767  1.00  0.00     0.134 A 
ATOM     80  F   UNL A   1      44.927  27.352  35.637  1.00  0.00    -0.206 F 
ATOM     81  C   UNL A   1      43.627  25.540  36.366  1.00  0.00     0.040 A 
ATOM     82  C   UNL A   1      41.376  25.269  35.557  1.00  0.00     0.040 A 
ATOM     83  F   UNL A   1      40.492  26.788  34.005  1.00  0.00    -0.206 F 
ATOM     84  C   UNL A   1      42.430  24.828  36.354  1.00  0.00     0.006 A 
ENDBRANCH  63  77
BRANCH  64  85
ATOM     85  C   UNL A   1      43.411  35.111  28.774  1.00  0.00     0.057 A 
ATOM     86  C   UNL A   1      42.266  35.579  28.119  1.00  0.00     0.134 A 
ATOM     87  C   UNL A   1      44.610  35.797  28.541  1.00  0.00     0.134 A 
ATOM     88  F   UNL A   1      41.090  34.955  28.286  1.00  0.00    -0.206 F 
ATOM     89  C   UNL A   1      42.314  36.670  27.249  1.00  0.00     0.040 A 
ATOM     90  C   UNL A   1      44.667  36.907  27.698  1.00  0.00     0.040 A 
ATOM     91  F   UNL A   1      45.742  35.405  29.145  1.00  0.00    -0.206 F 
ATOM     92  C   UNL A   1      43.517  37.342  27.042  1.00  0.00     0.006 A 
ENDBRANCH  64  85
BRANCH  76  93
ATOM     93  C   UNL A   1      41.390  34.211  35.383  1.00  0.00     0.057 A 
ATOM     94  C   UNL A   1      42.268  34.881  36.243  1.00  0.00     0.134 A 
ATOM     95  C   UNL A   1      40.024  34.496  35.503  1.00  0.00     0.134 A 
ATOM     96  F   UNL A   1      43.588  34.645  36.188  1.00  0.00    -0.206 F 
ATOM     97  C   UNL A   1      41.803  35.785  37.199  1.00  0.00     0.040 A 
ATOM     98  C   UNL A   1      39.549  35.420  36.434  1.00  0.00     0.040 A 
ATOM     99  F   UNL A   1      39.129  33.896  34.703  1.00  0.00    -0.206 F 
ATOM    100  C   UNL A   1      40.439  36.063  37.291  1.00  0.00     0.006 A 
ENDBRANCH  76  93
ENDBRANCH  50  51
ENDBRANCH  42  45
ENDBRANCH  40  41
ENDBRANCH  39  40
ENDBRANCH  38  39
ENDBRANCH  37  38
ENDBRANCH   1  37
TORSDOF 20
ENDMDL
MODEL 2
REMARK VINA RESULT:      -9.5      0.625      5.838
REMARK SMILES COc1ccc(N2C(=O)S[C@H](CC(=O)Nc3ccc(O)c(C(=O)NCCCCCCNC(=O)c4ccc(-c5c6nc(c(-c7c(F)cccc7F)c7ccc([nH]7)c(-c7c(F)cccc7F)c7nc(c(-c8c(F)cccc8F)c8ccc5[nH]8)C=C7)C=C6)cc4)c3)C2=O)c(OC)c1
REMARK SMILES IDX 26 1 25 2 24 3 22 4 23 5 21 7 16 8 17 9 88 10 18 11 19 12
REMARK SMILES IDX 15 13 13 14 14 15 12 17 11 18 7 19 8 20 89 21 9 22 10 23
REMARK SMILES IDX 90 24 6 25 3 26 4 27 94 28 5 29 91 30 2 31 1 32 92 33 93 34
REMARK SMILES IDX 20 35 27 37 28 38 29 39 30 40 31 41 32 42 33 44 34 45 35 46
REMARK SMILES IDX 87 47 36 48 86 49 37 50 38 51 39 52 80 53 40 54 85 55 79 56
REMARK SMILES IDX 81 57 41 58 84 59 78 60 77 61 42 63 68 64 51 65 67 66 52 67
REMARK SMILES IDX 55 68 66 69 82 70 53 71 54 72 65 74 83 75 56 76 43 77 44 78
REMARK SMILES IDX 49 79 45 80 46 81 48 82 50 83 47 84 69 85 70 86 75 87 71 88
REMARK SMILES IDX 72 89 74 90 76 91 73 92 57 93 58 94 63 95 59 96 60 97 62 98
REMARK SMILES IDX 64 99 61 100
REMARK H PARENT 24 6 15 16 20 36 31 43 81 62 55 73
REMARK Flexibility Score: inf
ROOT
ATOM      1  C   UNL A   1      41.898  22.734  28.719  1.00  0.00     0.021 C 
ENDROOT
BRANCH   1   2
ATOM      2  C   UNL A   1      41.546  22.690  27.239  1.00  0.00     0.116 C 
BRANCH   2   3
ATOM      3  N   UNL A   1      40.133  22.884  26.989  1.00  0.00    -0.352 N 
ATOM      4  C   UNL A   1      39.300  23.978  26.982  1.00  0.00     0.255 C 
ATOM      5  O   UNL A   1      38.169  23.807  26.518  1.00  0.00    -0.269 OA
ATOM      6  H   UNL A   1      39.663  22.046  26.776  1.00  0.00     0.163 HD
BRANCH   4   7
ATOM      7  C   UNL A   1      39.671  25.357  27.424  1.00  0.00     0.083 A 
ATOM      8  C   UNL A   1      39.864  27.104  29.114  1.00  0.00     0.042 A 
ATOM      9  C   UNL A   1      40.553  27.923  28.225  1.00  0.00     0.030 A 
ATOM     10  C   UNL A   1      39.303  25.905  28.657  1.00  0.00     0.043 A 
ATOM     11  C   UNL A   1      40.851  27.445  26.948  1.00  0.00     0.049 A 
ATOM     12  C   UNL A   1      40.455  26.158  26.571  1.00  0.00     0.128 A 
BRANCH   8  13
ATOM     13  N   UNL A   1      39.748  27.496  30.456  1.00  0.00    -0.326 N 
ATOM     14  C   UNL A   1      39.186  28.614  31.022  1.00  0.00     0.226 C 
ATOM     15  O   UNL A   1      39.675  29.009  32.088  1.00  0.00    -0.275 OA
ATOM     16  H   UNL A   1      40.134  26.860  31.102  1.00  0.00     0.169 HD
BRANCH  14  17
ATOM     17  C   UNL A   1      37.839  29.224  30.565  1.00  0.00     0.125 C 
BRANCH  17  18
ATOM     18  C   UNL A   1      37.700  30.721  30.536  1.00  0.00     0.156 C 
ATOM     19  N   UNL A   1      36.351  32.672  30.444  1.00  0.00    -0.236 N 
ATOM     20  C   UNL A   1      37.338  32.935  29.522  1.00  0.00     0.293 C 
ATOM     21  C   UNL A   1      36.450  31.438  31.076  1.00  0.00     0.248 C 
ATOM     22  O   UNL A   1      37.876  33.995  29.263  1.00  0.00    -0.261 OA
ATOM     23  S   UNL A   1      37.870  31.415  28.869  1.00  0.00    -0.050 SA
ATOM     24  O   UNL A   1      35.745  31.003  31.978  1.00  0.00    -0.273 OA
BRANCH  19  25
ATOM     25  C   UNL A   1      35.330  33.639  30.611  1.00  0.00     0.095 A 
ATOM     26  C   UNL A   1      33.294  35.482  31.176  1.00  0.00     0.122 A 
ATOM     27  C   UNL A   1      33.391  34.900  29.907  1.00  0.00     0.049 A 
ATOM     28  C   UNL A   1      34.192  35.130  32.178  1.00  0.00     0.095 A 
ATOM     29  C   UNL A   1      34.428  34.001  29.610  1.00  0.00     0.034 A 
ATOM     30  C   UNL A   1      35.209  34.231  31.890  1.00  0.00     0.146 A 
BRANCH  26  31
ATOM     31  O   UNL A   1      32.299  36.402  31.371  1.00  0.00    -0.497 OA
ATOM     32  C   UNL A   1      31.538  36.140  32.554  1.00  0.00     0.278 C 
ENDBRANCH  26  31
BRANCH  30  33
ATOM     33  O   UNL A   1      36.246  34.039  32.774  1.00  0.00    -0.494 OA
ATOM     34  C   UNL A   1      36.059  34.636  34.054  1.00  0.00     0.278 C 
ENDBRANCH  30  33
ENDBRANCH  19  25
ENDBRANCH  17  18
ENDBRANCH  14  17
ENDBRANCH   8  13
BRANCH  12  35
ATOM     35  O   UNL A   1      40.899  25.746  25.341  1.00  0.00    -0.507 OA
ATOM     36  H   UNL A   1      40.735  26.273  24.583  1.00  0.00     0.293 HD
ENDBRANCH  12  35
ENDBRANCH   4   7
ENDBRANCH   2   3
ENDBRANCH   1   2
BRANCH   1  37
ATOM     37  C   UNL A   1      43.378  22.993  28.993  1.00  0.00     0.002 C 
BRANCH  37  38
ATOM     38  C   UNL A   1      44.032  24.059  28.104  1.00  0.00     0.002 C 
BRANCH  38  39
ATOM     39  C   UNL A   1      45.107  23.565  27.136  1.00  0.00     0.021 C 
BRANCH  39  40
ATOM     40  C   UNL A   1      44.790  23.772  25.660  1.00  0.00     0.116 C 
BRANCH  40  41
ATOM     41  N   UNL A   1      45.896  24.370  24.930  1.00  0.00    -0.352 N 
ATOM     42  C   UNL A   1      46.381  25.652  24.980  1.00  0.00     0.251 C 
ATOM     43  H   UNL A   1      46.366  23.768  24.309  1.00  0.00     0.163 HD
ATOM     44  O   UNL A   1      47.231  26.026  24.179  1.00  0.00    -0.269 OA
BRANCH  42  45
ATOM     45  C   UNL A   1      45.852  26.589  25.990  1.00  0.00     0.039 A 
ATOM     46  C   UNL A   1      44.533  27.032  25.875  1.00  0.00     0.014 A 
ATOM     47  C   UNL A   1      46.650  27.012  27.057  1.00  0.00     0.014 A 
ATOM     48  C   UNL A   1      43.991  27.848  26.868  1.00  0.00     0.010 A 
ATOM     49  C   UNL A   1      46.085  27.758  28.085  1.00  0.00     0.010 A 
ATOM     50  C   UNL A   1      44.751  28.184  28.000  1.00  0.00    -0.014 A 
BRANCH  50  51
ATOM     51  C   UNL A   1      44.169  28.976  29.112  1.00  0.00     0.031 A 
ATOM     52  C   UNL A   1      43.983  30.460  28.962  1.00  0.00     0.074 A 
ATOM     53  C   UNL A   1      43.883  28.370  30.281  1.00  0.00     0.049 A 
ATOM     54  N   UNL A   1      43.578  31.335  29.847  1.00  0.00    -0.248 NA
ATOM     55  C   UNL A   1      44.324  31.041  27.654  1.00  0.00     0.031 C 
ATOM     56  C   UNL A   1      44.065  26.946  30.563  1.00  0.00     0.029 A 
ATOM     57  N   UNL A   1      43.393  28.882  31.457  1.00  0.00    -0.354 N 
ATOM     58  C   UNL A   1      43.633  32.568  29.208  1.00  0.00     0.074 A 
ATOM     59  C   UNL A   1      44.162  32.335  27.882  1.00  0.00     0.031 C 
ATOM     60  C   UNL A   1      43.676  26.694  31.823  1.00  0.00     0.029 A 
ATOM     61  C   UNL A   1      43.261  27.944  32.452  1.00  0.00     0.049 A 
ATOM     62  H   UNL A   1      43.159  29.831  31.576  1.00  0.00     0.167 HD
ATOM     63  C   UNL A   1      43.256  33.781  29.678  1.00  0.00     0.037 A 
ATOM     64  C   UNL A   1      42.864  28.078  33.731  1.00  0.00     0.037 A 
ATOM     65  C   UNL A   1      42.715  34.002  30.993  1.00  0.00     0.049 A 
ATOM     66  C   UNL A   1      42.468  29.439  34.235  1.00  0.00     0.074 A 
ATOM     67  C   UNL A   1      42.246  35.182  31.545  1.00  0.00     0.029 A 
ATOM     68  N   UNL A   1      42.579  33.024  31.967  1.00  0.00    -0.354 N 
ATOM     69  N   UNL A   1      42.455  30.586  33.598  1.00  0.00    -0.248 NA
ATOM     70  C   UNL A   1      42.026  29.525  35.634  1.00  0.00     0.031 C 
ATOM     71  C   UNL A   1      41.881  34.929  32.870  1.00  0.00     0.029 A 
ATOM     72  C   UNL A   1      42.060  33.579  33.125  1.00  0.00     0.049 A 
ATOM     73  H   UNL A   1      42.816  32.075  31.852  1.00  0.00     0.167 HD
ATOM     74  C   UNL A   1      41.974  31.520  34.506  1.00  0.00     0.074 A 
ATOM     75  C   UNL A   1      41.695  30.804  35.734  1.00  0.00     0.031 C 
ATOM     76  C   UNL A   1      41.778  32.851  34.338  1.00  0.00     0.037 A 
BRANCH  63  77
ATOM     77  C   UNL A   1      43.423  34.962  28.766  1.00  0.00     0.057 A 
ATOM     78  C   UNL A   1      44.677  35.537  28.518  1.00  0.00     0.134 A 
ATOM     79  C   UNL A   1      42.320  35.513  28.101  1.00  0.00     0.134 A 
ATOM     80  F   UNL A   1      45.775  35.067  29.129  1.00  0.00    -0.206 F 
ATOM     81  C   UNL A   1      44.823  36.635  27.667  1.00  0.00     0.040 A 
ATOM     82  C   UNL A   1      42.458  36.590  27.223  1.00  0.00     0.040 A 
ATOM     83  F   UNL A   1      41.091  35.008  28.285  1.00  0.00    -0.206 F 
ATOM     84  C   UNL A   1      43.711  37.158  27.011  1.00  0.00     0.006 A 
ENDBRANCH  63  77
BRANCH  64  85
ATOM     85  C   UNL A   1      42.812  26.893  34.623  1.00  0.00     0.057 A 
ATOM     86  C   UNL A   1      43.967  26.402  35.244  1.00  0.00     0.134 A 
ATOM     87  C   UNL A   1      41.612  26.216  34.873  1.00  0.00     0.134 A 
ATOM     88  F   UNL A   1      45.151  26.995  35.032  1.00  0.00    -0.206 F 
ATOM     89  C   UNL A   1      43.935  25.270  36.061  1.00  0.00     0.040 A 
ATOM     90  C   UNL A   1      41.559  25.101  35.710  1.00  0.00     0.040 A 
ATOM     91  F   UNL A   1      40.467  26.639  34.316  1.00  0.00    -0.206 F 
ATOM     92  C   UNL A   1      42.727  24.620  36.301  1.00  0.00     0.006 A 
ENDBRANCH  64  85
BRANCH  76  93
ATOM     93  C   UNL A   1      41.194  33.616  35.491  1.00  0.00     0.057 A 
ATOM     94  C   UNL A   1      41.997  34.216  36.469  1.00  0.00     0.134 A 
ATOM     95  C   UNL A   1      39.808  33.791  35.595  1.00  0.00     0.134 A 
ATOM     96  F   UNL A   1      43.331  34.076  36.434  1.00  0.00    -0.206 F 
ATOM     97  C   UNL A   1      41.441  34.946  37.520  1.00  0.00     0.040 A 
ATOM     98  C   UNL A   1      39.242  34.545  36.624  1.00  0.00     0.040 A 
ATOM     99  F   UNL A   1      38.982  33.251  34.686  1.00  0.00    -0.206 F 
ATOM    100  C   UNL A   1      40.059  35.119  37.595  1.00  0.00     0.006 A 
ENDBRANCH  76  93
ENDBRANCH  50  51
ENDBRANCH  42  45
ENDBRANCH  40  41
ENDBRANCH  39  40
ENDBRANCH  38  39
ENDBRANCH  37  38
ENDBRANCH   1  37
TORSDOF 20
ENDMDL
MODEL 3
REMARK VINA RESULT:      -9.5      4.933      7.931
REMARK SMILES COc1ccc(N2C(=O)S[C@H](CC(=O)Nc3ccc(O)c(C(=O)NCCCCCCNC(=O)c4ccc(-c5c6nc(c(-c7c(F)cccc7F)c7ccc([nH]7)c(-c7c(F)cccc7F)c7nc(c(-c8c(F)cccc8F)c8ccc5[nH]8)C=C7)C=C6)cc4)c3)C2=O)c(OC)c1
REMARK SMILES IDX 26 1 25 2 24 3 22 4 23 5 21 7 16 8 17 9 88 10 18 11 19 12
REMARK SMILES IDX 15 13 13 14 14 15 12 17 11 18 7 19 8 20 89 21 9 22 10 23
REMARK SMILES IDX 90 24 6 25 3 26 4 27 94 28 5 29 91 30 2 31 1 32 92 33 93 34
REMARK SMILES IDX 20 35 27 37 28 38 29 39 30 40 31 41 32 42 33 44 34 45 35 46
REMARK SMILES IDX 87 47 36 48 86 49 37 50 38 51 39 52 80 53 40 54 85 55 79 56
REMARK SMILES IDX 81 57 41 58 84 59 78 60 77 61 42 63 68 64 51 65 67 66 52 67
REMARK SMILES IDX 55 68 66 69 82 70 53 71 54 72 65 74 83 75 56 76 43 77 44 78
REMARK SMILES IDX 49 79 45 80 46 81 48 82 50 83 47 84 69 85 70 86 75 87 71 88
REMARK SMILES IDX 72 89 74 90 76 91 73 92 57 93 58 94 63 95 59 96 60 97 62 98
REMARK SMILES IDX 64 99 61 100
REMARK H PARENT 24 6 15 16 20 36 31 43 81 62 55 73
REMARK Flexibility Score: inf
ROOT
ATOM      1  C   UNL A   1      36.993  23.760  24.466  1.00  0.00     0.021 C 
ENDROOT
BRANCH   1   2
ATOM      2  C   UNL A   1      36.435  22.514  23.793  1.00  0.00     0.116 C 
BRANCH   2   3
ATOM      3  N   UNL A   1      36.970  21.286  24.344  1.00  0.00    -0.352 N 
ATOM      4  C   UNL A   1      36.413  20.128  24.828  1.00  0.00     0.255 C 
ATOM      5  O   UNL A   1      37.186  19.187  25.033  1.00  0.00    -0.269 OA
ATOM      6  H   UNL A   1      37.954  21.280  24.379  1.00  0.00     0.163 HD
BRANCH   4   7
ATOM      7  C   UNL A   1      34.954  19.895  25.062  1.00  0.00     0.083 A 
ATOM      8  C   UNL A   1      32.727  20.638  25.718  1.00  0.00     0.042 A 
ATOM      9  C   UNL A   1      32.177  19.424  25.319  1.00  0.00     0.030 A 
ATOM     10  C   UNL A   1      34.118  20.797  25.728  1.00  0.00     0.043 A 
ATOM     11  C   UNL A   1      33.003  18.459  24.741  1.00  0.00     0.049 A 
ATOM     12  C   UNL A   1      34.367  18.713  24.572  1.00  0.00     0.128 A 
BRANCH   8  13
ATOM     13  N   UNL A   1      31.874  21.684  26.102  1.00  0.00    -0.326 N 
ATOM     14  C   UNL A   1      32.125  22.840  26.801  1.00  0.00     0.226 C 
ATOM     15  O   UNL A   1      31.198  23.296  27.482  1.00  0.00    -0.275 OA
ATOM     16  H   UNL A   1      30.937  21.571  25.822  1.00  0.00     0.169 HD
BRANCH  14  17
ATOM     17  C   UNL A   1      33.369  23.731  26.570  1.00  0.00     0.125 C 
BRANCH  17  18
ATOM     18  C   UNL A   1      33.282  24.842  25.559  1.00  0.00     0.156 C 
ATOM     19  N   UNL A   1      32.015  26.444  24.351  1.00  0.00    -0.236 N 
ATOM     20  C   UNL A   1      32.804  25.875  23.377  1.00  0.00     0.293 C 
ATOM     21  C   UNL A   1      32.195  25.928  25.629  1.00  0.00     0.248 C 
ATOM     22  O   UNL A   1      33.317  26.402  22.408  1.00  0.00    -0.261 OA
ATOM     23  S   UNL A   1      33.136  24.238  23.856  1.00  0.00    -0.050 SA
ATOM     24  O   UNL A   1      31.673  26.312  26.668  1.00  0.00    -0.273 OA
BRANCH  19  25
ATOM     25  C   UNL A   1      31.086  27.436  23.951  1.00  0.00     0.095 A 
ATOM     26  C   UNL A   1      29.325  29.532  23.351  1.00  0.00     0.122 A 
ATOM     27  C   UNL A   1      28.968  28.207  23.078  1.00  0.00     0.049 A 
ATOM     28  C   UNL A   1      30.546  29.820  23.949  1.00  0.00     0.095 A 
ATOM     29  C   UNL A   1      29.860  27.157  23.347  1.00  0.00     0.034 A 
ATOM     30  C   UNL A   1      31.423  28.781  24.228  1.00  0.00     0.146 A 
BRANCH  26  31
ATOM     31  O   UNL A   1      28.432  30.509  22.997  1.00  0.00    -0.497 OA
ATOM     32  C   UNL A   1      28.107  30.470  21.605  1.00  0.00     0.278 C 
ENDBRANCH  26  31
BRANCH  30  33
ATOM     33  O   UNL A   1      32.724  29.042  24.598  1.00  0.00    -0.494 OA
ATOM     34  C   UNL A   1      32.866  29.717  25.845  1.00  0.00     0.278 C 
ENDBRANCH  30  33
ENDBRANCH  19  25
ENDBRANCH  17  18
ENDBRANCH  14  17
ENDBRANCH   8  13
BRANCH  12  35
ATOM     35  O   UNL A   1      35.061  17.747  23.890  1.00  0.00    -0.507 OA
ATOM     36  H   UNL A   1      34.729  17.416  23.078  1.00  0.00     0.293 HD
ENDBRANCH  12  35
ENDBRANCH   4   7
ENDBRANCH   2   3
ENDBRANCH   1   2
BRANCH   1  37
ATOM     37  C   UNL A   1      37.162  23.619  25.978  1.00  0.00     0.002 C 
BRANCH  37  38
ATOM     38  C   UNL A   1      38.614  23.556  26.470  1.00  0.00     0.002 C 
BRANCH  38  39
ATOM     39  C   UNL A   1      39.267  22.173  26.471  1.00  0.00     0.021 C 
BRANCH  39  40
ATOM     40  C   UNL A   1      40.676  22.127  27.050  1.00  0.00     0.116 C 
BRANCH  40  41
ATOM     41  N   UNL A   1      41.702  22.077  26.021  1.00  0.00    -0.352 N 
ATOM     42  C   UNL A   1      42.497  23.084  25.535  1.00  0.00     0.251 C 
ATOM     43  H   UNL A   1      41.848  21.193  25.614  1.00  0.00     0.163 HD
ATOM     44  O   UNL A   1      43.209  22.893  24.554  1.00  0.00    -0.269 OA
BRANCH  42  45
ATOM     45  C   UNL A   1      42.470  24.409  26.185  1.00  0.00     0.039 A 
ATOM     46  C   UNL A   1      42.811  24.505  27.535  1.00  0.00     0.014 A 
ATOM     47  C   UNL A   1      42.129  25.552  25.457  1.00  0.00     0.014 A 
ATOM     48  C   UNL A   1      42.875  25.759  28.141  1.00  0.00     0.010 A 
ATOM     49  C   UNL A   1      42.271  26.806  26.040  1.00  0.00     0.010 A 
ATOM     50  C   UNL A   1      42.644  26.922  27.388  1.00  0.00    -0.014 A 
BRANCH  50  51
ATOM     51  C   UNL A   1      42.794  28.271  27.986  1.00  0.00     0.031 A 
ATOM     52  C   UNL A   1      44.152  28.910  28.073  1.00  0.00     0.074 A 
ATOM     53  C   UNL A   1      41.720  28.885  28.520  1.00  0.00     0.049 A 
ATOM     54  N   UNL A   1      44.501  30.037  28.640  1.00  0.00    -0.248 NA
ATOM     55  C   UNL A   1      45.271  28.170  27.468  1.00  0.00     0.031 C 
ATOM     56  C   UNL A   1      40.360  28.345  28.540  1.00  0.00     0.029 A 
ATOM     57  N   UNL A   1      41.608  30.092  29.165  1.00  0.00    -0.354 N 
ATOM     58  C   UNL A   1      45.877  30.131  28.474  1.00  0.00     0.074 A 
ATOM     59  C   UNL A   1      46.307  28.923  27.805  1.00  0.00     0.031 C 
ATOM     60  C   UNL A   1      39.547  29.224  29.148  1.00  0.00     0.029 A 
ATOM     61  C   UNL A   1      40.335  30.365  29.602  1.00  0.00     0.049 A 
ATOM     62  H   UNL A   1      42.368  30.702  29.302  1.00  0.00     0.167 HD
ATOM     63  C   UNL A   1      46.704  31.143  28.830  1.00  0.00     0.037 A 
ATOM     64  C   UNL A   1      39.859  31.412  30.303  1.00  0.00     0.037 A 
ATOM     65  C   UNL A   1      46.265  32.350  29.480  1.00  0.00     0.049 A 
ATOM     66  C   UNL A   1      40.800  32.515  30.701  1.00  0.00     0.074 A 
ATOM     67  C   UNL A   1      47.013  33.461  29.828  1.00  0.00     0.029 A 
ATOM     68  N   UNL A   1      44.964  32.599  29.890  1.00  0.00    -0.354 N 
ATOM     69  N   UNL A   1      42.087  32.626  30.474  1.00  0.00    -0.248 NA
ATOM     70  C   UNL A   1      40.223  33.641  31.448  1.00  0.00     0.031 C 
ATOM     71  C   UNL A   1      46.177  34.357  30.499  1.00  0.00     0.029 A 
ATOM     72  C   UNL A   1      44.894  33.835  30.513  1.00  0.00     0.049 A 
ATOM     73  H   UNL A   1      44.203  31.989  29.759  1.00  0.00     0.167 HD
ATOM     74  C   UNL A   1      42.466  33.846  31.021  1.00  0.00     0.074 A 
ATOM     75  C   UNL A   1      41.270  34.443  31.579  1.00  0.00     0.031 C 
ATOM     76  C   UNL A   1      43.694  34.421  31.055  1.00  0.00     0.037 A 
BRANCH  63  77
ATOM     77  C   UNL A   1      48.166  30.984  28.527  1.00  0.00     0.057 A 
ATOM     78  C   UNL A   1      48.734  31.462  27.338  1.00  0.00     0.134 A 
ATOM     79  C   UNL A   1      49.024  30.371  29.449  1.00  0.00     0.134 A 
ATOM     80  F   UNL A   1      47.969  32.050  26.406  1.00  0.00    -0.206 F 
ATOM     81  C   UNL A   1      50.096  31.311  27.066  1.00  0.00     0.040 A 
ATOM     82  C   UNL A   1      50.392  30.242  29.203  1.00  0.00     0.040 A 
ATOM     83  F   UNL A   1      48.550  29.896  30.611  1.00  0.00    -0.206 F 
ATOM     84  C   UNL A   1      50.930  30.706  28.004  1.00  0.00     0.006 A 
ENDBRANCH  63  77
BRANCH  64  85
ATOM     85  C   UNL A   1      38.420  31.473  30.664  1.00  0.00     0.057 A 
ATOM     86  C   UNL A   1      37.942  30.878  31.838  1.00  0.00     0.134 A 
ATOM     87  C   UNL A   1      37.485  32.119  29.845  1.00  0.00     0.134 A 
ATOM     88  F   UNL A   1      38.783  30.229  32.656  1.00  0.00    -0.206 F 
ATOM     89  C   UNL A   1      36.587  30.904  32.173  1.00  0.00     0.040 A 
ATOM     90  C   UNL A   1      36.132  32.178  30.181  1.00  0.00     0.040 A 
ATOM     91  F   UNL A   1      37.879  32.717  28.709  1.00  0.00    -0.206 F 
ATOM     92  C   UNL A   1      35.678  31.561  31.346  1.00  0.00     0.006 A 
ENDBRANCH  64  85
BRANCH  76  93
ATOM     93  C   UNL A   1      43.801  35.784  31.676  1.00  0.00     0.057 A 
ATOM     94  C   UNL A   1      43.809  36.953  30.906  1.00  0.00     0.134 A 
ATOM     95  C   UNL A   1      43.851  35.926  33.069  1.00  0.00     0.134 A 
ATOM     96  F   UNL A   1      43.776  36.887  29.567  1.00  0.00    -0.206 F 
ATOM     97  C   UNL A   1      43.882  38.215  31.499  1.00  0.00     0.040 A 
ATOM     98  C   UNL A   1      43.893  37.182  33.675  1.00  0.00     0.040 A 
ATOM     99  F   UNL A   1      43.837  34.846  33.866  1.00  0.00    -0.206 F 
ATOM    100  C   UNL A   1      43.916  38.332  32.889  1.00  0.00     0.006 A 
ENDBRANCH  76  93
ENDBRANCH  50  51
ENDBRANCH  42  45
ENDBRANCH  40  41
ENDBRANCH  39  40
ENDBRANCH  38  39
ENDBRANCH  37  38
ENDBRANCH   1  37
TORSDOF 20
ENDMDL
