MODEL 1
REMARK VINA RESULT:     -12.2      0.000      0.000
REMARK SMILES Cc1c(Br)c(C)c2c(c1Br)O[C@H](C(F)(F)F)C(C(=O)NCCCCCCNC(=O)c1ccc(-c3c4nc(c(-c5c(F)cccc5F)c5ccc([nH]5)c(-c5c(F)cccc5F)c5nc(c(-c6c(F)cccc6F)c6ccc3[nH]6)C=C5)C=C4)cc1)=C2
REMARK SMILES IDX 24 1 23 2 22 3 21 4 20 5 18 6 19 7 17 9 1 10 2 11 3 12 9 13
REMARK SMILES IDX 4 14 5 15 8 16 10 17 6 18 7 19 11 20 84 21 12 22 13 23 14 24
REMARK SMILES IDX 15 25 16 26 25 27 26 28 27 29 28 30 29 32 30 33 31 34 83 35
REMARK SMILES IDX 32 36 82 37 33 38 34 39 35 40 76 41 36 42 81 43 75 44 77 45
REMARK SMILES IDX 37 46 80 47 74 48 73 49 38 51 64 52 47 53 63 54 48 55 51 56
REMARK SMILES IDX 62 57 78 58 49 59 50 60 61 62 79 63 52 64 39 65 40 66 45 67
REMARK SMILES IDX 41 68 42 69 44 70 46 71 43 72 65 73 66 74 71 75 67 76 68 77
REMARK SMILES IDX 70 78 72 79 69 80 53 81 54 82 59 83 55 84 56 85 58 86 60 87
REMARK SMILES IDX 57 88
REMARK H PARENT 20 8 27 31 77 50 51 61
REMARK Flexibility Score: inf
ROOT
ATOM      1  C   UNL A   1      36.627  20.879  25.001  1.00  0.00     0.002 C 
ENDROOT
BRANCH   1   2
ATOM      2  C   UNL A   1      36.982  22.291  24.515  1.00  0.00     0.002 C 
BRANCH   2   3
ATOM      3  C   UNL A   1      36.637  23.432  25.478  1.00  0.00     0.021 C 
BRANCH   3   4
ATOM      4  C   UNL A   1      35.243  24.020  25.278  1.00  0.00     0.116 C 
BRANCH   4   5
ATOM      5  N   UNL A   1      34.735  23.760  23.943  1.00  0.00    -0.352 N 
ATOM      6  C   UNL A   1      33.851  24.322  23.088  1.00  0.00     0.251 C 
ATOM      7  O   UNL A   1      33.739  23.745  22.001  1.00  0.00    -0.270 OA
ATOM      8  H   UNL A   1      35.146  22.953  23.555  1.00  0.00     0.163 HD
BRANCH   6   9
ATOM      9  C   UNL A   1      33.038  25.547  23.356  1.00  0.00     0.067 C 
ATOM     10  C   UNL A   1      30.653  31.328  25.368  1.00  0.00     0.047 C 
ATOM     11  C   UNL A   1      31.437  30.066  25.094  1.00  0.00    -0.019 A 
ATOM     12  C   UNL A   1      32.599  29.732  25.834  1.00  0.00     0.025 A 
ATOM     13  C   UNL A   1      30.988  29.150  24.122  1.00  0.00     0.064 A 
ATOM     14  Br  UNL A   1      33.160  30.901  27.251  1.00  0.00    -0.050 Br
ATOM     15  C   UNL A   1      33.339  28.549  25.566  1.00  0.00    -0.026 A 
ATOM     16  C   UNL A   1      31.707  27.975  23.854  1.00  0.00     0.142 A 
ATOM     17  Br  UNL A   1      29.356  29.445  23.159  1.00  0.00    -0.046 Br
ATOM     18  C   UNL A   1      34.599  28.188  26.323  1.00  0.00     0.046 C 
ATOM     19  C   UNL A   1      32.882  27.675  24.550  1.00  0.00     0.022 A 
ATOM     20  O   UNL A   1      31.237  27.172  22.848  1.00  0.00    -0.474 OA
ATOM     21  C   UNL A   1      33.609  26.456  24.168  1.00  0.00     0.026 C 
ATOM     22  C   UNL A   1      31.661  25.788  22.825  1.00  0.00     0.314 C 
BRANCH  22  23
ATOM     23  C   UNL A   1      30.591  24.911  23.498  1.00  0.00     0.429 C 
ATOM     24  F   UNL A   1      30.459  23.732  22.840  1.00  0.00    -0.167 F 
ATOM     25  F   UNL A   1      30.908  24.598  24.776  1.00  0.00    -0.167 F 
ATOM     26  F   UNL A   1      29.376  25.503  23.523  1.00  0.00    -0.167 F 
ENDBRANCH  22  23
ENDBRANCH   6   9
ENDBRANCH   4   5
ENDBRANCH   3   4
ENDBRANCH   2   3
ENDBRANCH   1   2
BRANCH   1  27
ATOM     27  C   UNL A   1      37.767  19.857  24.960  1.00  0.00     0.021 C 
BRANCH  27  28
ATOM     28  C   UNL A   1      39.007  20.246  25.756  1.00  0.00     0.116 C 
BRANCH  28  29
ATOM     29  N   UNL A   1      40.019  19.203  25.751  1.00  0.00    -0.352 N 
ATOM     30  C   UNL A   1      41.372  19.312  25.951  1.00  0.00     0.251 C 
ATOM     31  H   UNL A   1      39.687  18.292  25.581  1.00  0.00     0.163 HD
ATOM     32  O   UNL A   1      42.111  18.352  25.760  1.00  0.00    -0.269 OA
BRANCH  30  33
ATOM     33  C   UNL A   1      41.940  20.609  26.370  1.00  0.00     0.039 A 
ATOM     34  C   UNL A   1      42.284  21.541  25.389  1.00  0.00     0.014 A 
ATOM     35  C   UNL A   1      42.108  20.912  27.726  1.00  0.00     0.014 A 
ATOM     36  C   UNL A   1      42.735  22.804  25.770  1.00  0.00     0.010 A 
ATOM     37  C   UNL A   1      42.495  22.194  28.105  1.00  0.00     0.010 A 
ATOM     38  C   UNL A   1      42.811  23.152  27.130  1.00  0.00    -0.014 A 
BRANCH  38  39
ATOM     39  C   UNL A   1      43.206  24.524  27.533  1.00  0.00     0.031 A 
ATOM     40  C   UNL A   1      44.646  24.946  27.483  1.00  0.00     0.074 A 
ATOM     41  C   UNL A   1      42.261  25.382  27.965  1.00  0.00     0.049 A 
ATOM     42  N   UNL A   1      45.169  26.115  27.754  1.00  0.00    -0.248 NA
ATOM     43  C   UNL A   1      45.629  23.922  27.100  1.00  0.00     0.031 C 
ATOM     44  C   UNL A   1      40.839  25.068  28.110  1.00  0.00     0.029 A 
ATOM     45  N   UNL A   1      42.353  26.696  28.349  1.00  0.00    -0.354 N 
ATOM     46  C   UNL A   1      46.537  25.966  27.568  1.00  0.00     0.074 A 
ATOM     47  C   UNL A   1      46.771  24.581  27.224  1.00  0.00     0.031 C 
ATOM     48  C   UNL A   1      40.184  26.172  28.505  1.00  0.00     0.029 A 
ATOM     49  C   UNL A   1      41.142  27.263  28.663  1.00  0.00     0.049 A 
ATOM     50  H   UNL A   1      43.205  27.186  28.396  1.00  0.00     0.167 HD
ATOM     51  C   UNL A   1      47.505  26.908  27.645  1.00  0.00     0.037 A 
ATOM     52  C   UNL A   1      40.835  28.525  29.018  1.00  0.00     0.037 A 
ATOM     53  C   UNL A   1      47.267  28.289  27.964  1.00  0.00     0.049 A 
ATOM     54  C   UNL A   1      41.927  29.553  29.098  1.00  0.00     0.074 A 
ATOM     55  C   UNL A   1      48.176  29.330  28.019  1.00  0.00     0.029 A 
ATOM     56  N   UNL A   1      46.026  28.822  28.280  1.00  0.00    -0.354 N 
ATOM     57  N   UNL A   1      43.207  29.414  28.850  1.00  0.00    -0.248 NA
ATOM     58  C   UNL A   1      41.537  30.912  29.501  1.00  0.00     0.031 C 
ATOM     59  C   UNL A   1      47.492  30.488  28.397  1.00  0.00     0.029 A 
ATOM     60  C   UNL A   1      46.150  30.174  28.545  1.00  0.00     0.049 A 
ATOM     61  H   UNL A   1      45.184  28.314  28.311  1.00  0.00     0.167 HD
ATOM     62  C   UNL A   1      43.770  30.670  29.038  1.00  0.00     0.074 A 
ATOM     63  C   UNL A   1      42.692  31.559  29.418  1.00  0.00     0.031 C 
ATOM     64  C   UNL A   1      45.063  31.048  28.905  1.00  0.00     0.037 A 
BRANCH  51  65
ATOM     65  C   UNL A   1      48.912  26.482  27.351  1.00  0.00     0.057 A 
ATOM     66  C   UNL A   1      49.418  26.490  26.045  1.00  0.00     0.134 A 
ATOM     67  C   UNL A   1      49.785  26.117  28.383  1.00  0.00     0.134 A 
ATOM     68  F   UNL A   1      48.628  26.822  25.012  1.00  0.00    -0.206 F 
ATOM     69  C   UNL A   1      50.738  26.134  25.772  1.00  0.00     0.040 A 
ATOM     70  C   UNL A   1      51.115  25.780  28.124  1.00  0.00     0.040 A 
ATOM     71  F   UNL A   1      49.365  26.095  29.655  1.00  0.00    -0.206 F 
ATOM     72  C   UNL A   1      51.594  25.785  26.816  1.00  0.00     0.006 A 
ENDBRANCH  51  65
BRANCH  52  73
ATOM     73  C   UNL A   1      39.419  28.898  29.257  1.00  0.00     0.057 A 
ATOM     74  C   UNL A   1      38.617  29.369  28.211  1.00  0.00     0.134 A 
ATOM     75  C   UNL A   1      38.827  28.770  30.519  1.00  0.00     0.134 A 
ATOM     76  F   UNL A   1      39.134  29.525  26.983  1.00  0.00    -0.206 F 
ATOM     77  C   UNL A   1      37.278  29.705  28.411  1.00  0.00     0.040 A 
ATOM     78  C   UNL A   1      37.483  29.085  30.728  1.00  0.00     0.040 A 
ATOM     79  F   UNL A   1      39.541  28.316  31.558  1.00  0.00    -0.206 F 
ATOM     80  C   UNL A   1      36.706  29.557  29.673  1.00  0.00     0.006 A 
ENDBRANCH  52  73
BRANCH  64  81
ATOM     81  C   UNL A   1      45.398  32.488  29.146  1.00  0.00     0.057 A 
ATOM     82  C   UNL A   1      45.874  32.931  30.385  1.00  0.00     0.134 A 
ATOM     83  C   UNL A   1      45.343  33.416  28.098  1.00  0.00     0.134 A 
ATOM     84  F   UNL A   1      45.939  32.090  31.428  1.00  0.00    -0.206 F 
ATOM     85  C   UNL A   1      46.288  34.250  30.574  1.00  0.00     0.040 A 
ATOM     86  C   UNL A   1      45.774  34.732  28.269  1.00  0.00     0.040 A 
ATOM     87  F   UNL A   1      44.906  33.048  26.884  1.00  0.00    -0.206 F 
ATOM     88  C   UNL A   1      46.249  35.151  29.510  1.00  0.00     0.006 A 
ENDBRANCH  64  81
ENDBRANCH  38  39
ENDBRANCH  30  33
ENDBRANCH  28  29
ENDBRANCH  27  28
ENDBRANCH   1  27
TORSDOF 14
ENDMDL
MODEL 2
REMARK VINA RESULT:     -12.2      4.871      9.835
REMARK SMILES Cc1c(Br)c(C)c2c(c1Br)O[C@H](C(F)(F)F)C(C(=O)NCCCCCCNC(=O)c1ccc(-c3c4nc(c(-c5c(F)cccc5F)c5ccc([nH]5)c(-c5c(F)cccc5F)c5nc(c(-c6c(F)cccc6F)c6ccc3[nH]6)C=C5)C=C4)cc1)=C2
REMARK SMILES IDX 24 1 23 2 22 3 21 4 20 5 18 6 19 7 17 9 1 10 2 11 3 12 9 13
REMARK SMILES IDX 4 14 5 15 8 16 10 17 6 18 7 19 11 20 84 21 12 22 13 23 14 24
REMARK SMILES IDX 15 25 16 26 25 27 26 28 27 29 28 30 29 32 30 33 31 34 83 35
REMARK SMILES IDX 32 36 82 37 33 38 34 39 35 40 76 41 36 42 81 43 75 44 77 45
REMARK SMILES IDX 37 46 80 47 74 48 73 49 38 51 64 52 47 53 63 54 48 55 51 56
REMARK SMILES IDX 62 57 78 58 49 59 50 60 61 62 79 63 52 64 39 65 40 66 45 67
REMARK SMILES IDX 41 68 42 69 44 70 46 71 43 72 65 73 66 74 71 75 67 76 68 77
REMARK SMILES IDX 70 78 72 79 69 80 53 81 54 82 59 83 55 84 56 85 58 86 60 87
REMARK SMILES IDX 57 88
REMARK H PARENT 20 8 27 31 77 50 51 61
REMARK Flexibility Score: inf
ROOT
ATOM      1  C   UNL A   1      31.725  30.426  25.973  1.00  0.00     0.002 C 
ENDROOT
BRANCH   1   2
ATOM      2  C   UNL A   1      32.713  29.533  26.734  1.00  0.00     0.002 C 
BRANCH   2   3
ATOM      3  C   UNL A   1      33.833  28.913  25.892  1.00  0.00     0.021 C 
BRANCH   3   4
ATOM      4  C   UNL A   1      33.715  27.402  25.708  1.00  0.00     0.116 C 
BRANCH   4   5
ATOM      5  N   UNL A   1      32.390  26.920  26.052  1.00  0.00    -0.352 N 
ATOM      6  C   UNL A   1      31.745  25.732  26.097  1.00  0.00     0.251 C 
ATOM      7  O   UNL A   1      30.572  25.791  26.481  1.00  0.00    -0.270 OA
ATOM      8  H   UNL A   1      31.800  27.659  26.327  1.00  0.00     0.163 HD
BRANCH   6   9
ATOM      9  C   UNL A   1      32.332  24.407  25.734  1.00  0.00     0.067 C 
ATOM     10  C   UNL A   1      36.168  19.169  24.728  1.00  0.00     0.047 C 
ATOM     11  C   UNL A   1      35.546  20.506  25.059  1.00  0.00    -0.019 A 
ATOM     12  C   UNL A   1      36.333  21.623  25.438  1.00  0.00     0.025 A 
ATOM     13  C   UNL A   1      34.155  20.689  24.940  1.00  0.00     0.064 A 
ATOM     14  Br  UNL A   1      38.245  21.434  25.485  1.00  0.00    -0.050 Br
ATOM     15  C   UNL A   1      35.744  22.875  25.759  1.00  0.00    -0.026 A 
ATOM     16  C   UNL A   1      33.562  21.924  25.247  1.00  0.00     0.142 A 
ATOM     17  Br  UNL A   1      33.018  19.279  24.310  1.00  0.00    -0.046 Br
ATOM     18  C   UNL A   1      36.563  24.072  26.193  1.00  0.00     0.046 C 
ATOM     19  C   UNL A   1      34.337  23.009  25.671  1.00  0.00     0.022 A 
ATOM     20  O   UNL A   1      32.197  21.998  25.168  1.00  0.00    -0.474 OA
ATOM     21  C   UNL A   1      33.635  24.249  26.032  1.00  0.00     0.026 C 
ATOM     22  C   UNL A   1      31.590  23.306  25.046  1.00  0.00     0.314 C 
BRANCH  22  23
ATOM     23  C   UNL A   1      31.305  23.604  23.564  1.00  0.00     0.429 C 
ATOM     24  F   UNL A   1      31.459  22.484  22.814  1.00  0.00    -0.167 F 
ATOM     25  F   UNL A   1      30.036  24.027  23.356  1.00  0.00    -0.167 F 
ATOM     26  F   UNL A   1      32.127  24.550  23.057  1.00  0.00    -0.167 F 
ENDBRANCH  22  23
ENDBRANCH   6   9
ENDBRANCH   4   5
ENDBRANCH   3   4
ENDBRANCH   2   3
ENDBRANCH   1   2
BRANCH   1  27
ATOM     27  C   UNL A   1      31.442  31.792  26.605  1.00  0.00     0.021 C 
BRANCH  27  28
ATOM     28  C   UNL A   1      32.657  32.484  27.211  1.00  0.00     0.116 C 
BRANCH  28  29
ATOM     29  N   UNL A   1      32.383  33.862  27.582  1.00  0.00    -0.352 N 
ATOM     30  C   UNL A   1      33.043  34.661  28.481  1.00  0.00     0.251 C 
ATOM     31  H   UNL A   1      31.618  34.280  27.125  1.00  0.00     0.163 HD
ATOM     32  O   UNL A   1      32.588  35.756  28.794  1.00  0.00    -0.269 OA
BRANCH  30  33
ATOM     33  C   UNL A   1      34.295  34.179  29.097  1.00  0.00     0.039 A 
ATOM     34  C   UNL A   1      34.219  33.355  30.222  1.00  0.00     0.014 A 
ATOM     35  C   UNL A   1      35.538  34.517  28.550  1.00  0.00     0.014 A 
ATOM     36  C   UNL A   1      35.387  32.816  30.759  1.00  0.00     0.010 A 
ATOM     37  C   UNL A   1      36.696  33.926  29.047  1.00  0.00     0.010 A 
ATOM     38  C   UNL A   1      36.630  33.069  30.155  1.00  0.00    -0.014 A 
BRANCH  38  39
ATOM     39  C   UNL A   1      37.862  32.425  30.673  1.00  0.00     0.031 A 
ATOM     40  C   UNL A   1      38.525  32.943  31.916  1.00  0.00     0.074 A 
ATOM     41  C   UNL A   1      38.391  31.381  30.007  1.00  0.00     0.049 A 
ATOM     42  N   UNL A   1      39.579  32.480  32.540  1.00  0.00    -0.248 NA
ATOM     43  C   UNL A   1      37.946  34.149  32.529  1.00  0.00     0.031 C 
ATOM     44  C   UNL A   1      37.867  30.825  28.758  1.00  0.00     0.029 A 
ATOM     45  N   UNL A   1      39.480  30.595  30.290  1.00  0.00    -0.354 N 
ATOM     46  C   UNL A   1      39.783  33.332  33.617  1.00  0.00     0.074 A 
ATOM     47  C   UNL A   1      38.786  34.375  33.529  1.00  0.00     0.031 C 
ATOM     48  C   UNL A   1      38.605  29.758  28.409  1.00  0.00     0.029 A 
ATOM     49  C   UNL A   1      39.666  29.570  29.395  1.00  0.00     0.049 A 
ATOM     50  H   UNL A   1      40.071  30.751  31.062  1.00  0.00     0.167 HD
ATOM     51  C   UNL A   1      40.699  33.232  34.608  1.00  0.00     0.037 A 
ATOM     52  C   UNL A   1      40.576  28.578  29.382  1.00  0.00     0.037 A 
ATOM     53  C   UNL A   1      41.674  32.181  34.706  1.00  0.00     0.049 A 
ATOM     54  C   UNL A   1      41.584  28.489  30.492  1.00  0.00     0.074 A 
ATOM     55  C   UNL A   1      42.613  31.966  35.699  1.00  0.00     0.029 A 
ATOM     56  N   UNL A   1      41.832  31.164  33.776  1.00  0.00    -0.354 N 
ATOM     57  N   UNL A   1      41.719  29.261  31.544  1.00  0.00    -0.248 NA
ATOM     58  C   UNL A   1      42.561  27.393  30.422  1.00  0.00     0.031 C 
ATOM     59  C   UNL A   1      43.361  30.838  35.356  1.00  0.00     0.029 A 
ATOM     60  C   UNL A   1      42.864  30.329  34.166  1.00  0.00     0.049 A 
ATOM     61  H   UNL A   1      41.292  31.054  32.961  1.00  0.00     0.167 HD
ATOM     62  C   UNL A   1      42.775  28.729  32.273  1.00  0.00     0.074 A 
ATOM     63  C   UNL A   1      43.243  27.567  31.546  1.00  0.00     0.031 C 
ATOM     64  C   UNL A   1      43.305  29.167  33.440  1.00  0.00     0.037 A 
BRANCH  51  65
ATOM     65  C   UNL A   1      40.672  34.275  35.684  1.00  0.00     0.057 A 
ATOM     66  C   UNL A   1      41.382  35.475  35.555  1.00  0.00     0.134 A 
ATOM     67  C   UNL A   1      39.886  34.108  36.831  1.00  0.00     0.134 A 
ATOM     68  F   UNL A   1      42.161  35.692  34.483  1.00  0.00    -0.206 F 
ATOM     69  C   UNL A   1      41.327  36.466  36.535  1.00  0.00     0.040 A 
ATOM     70  C   UNL A   1      39.804  35.102  37.808  1.00  0.00     0.040 A 
ATOM     71  F   UNL A   1      39.176  32.985  37.013  1.00  0.00    -0.206 F 
ATOM     72  C   UNL A   1      40.529  36.283  37.663  1.00  0.00     0.006 A 
ENDBRANCH  51  65
BRANCH  52  73
ATOM     73  C   UNL A   1      40.528  27.550  28.313  1.00  0.00     0.057 A 
ATOM     74  C   UNL A   1      39.747  26.399  28.461  1.00  0.00     0.134 A 
ATOM     75  C   UNL A   1      41.234  27.703  27.113  1.00  0.00     0.134 A 
ATOM     76  F   UNL A   1      39.060  26.193  29.595  1.00  0.00    -0.206 F 
ATOM     77  C   UNL A   1      39.672  25.431  27.460  1.00  0.00     0.040 A 
ATOM     78  C   UNL A   1      41.154  26.751  26.095  1.00  0.00     0.040 A 
ATOM     79  F   UNL A   1      41.993  28.788  26.908  1.00  0.00    -0.206 F 
ATOM     80  C   UNL A   1      40.374  25.610  26.268  1.00  0.00     0.006 A 
ENDBRANCH  52  73
BRANCH  64  81
ATOM     81  C   UNL A   1      44.437  28.383  34.029  1.00  0.00     0.057 A 
ATOM     82  C   UNL A   1      45.771  28.733  33.795  1.00  0.00     0.134 A 
ATOM     83  C   UNL A   1      44.186  27.334  34.923  1.00  0.00     0.134 A 
ATOM     84  F   UNL A   1      46.073  29.723  32.940  1.00  0.00    -0.206 F 
ATOM     85  C   UNL A   1      46.819  28.070  34.433  1.00  0.00     0.040 A 
ATOM     86  C   UNL A   1      45.224  26.676  35.583  1.00  0.00     0.040 A 
ATOM     87  F   UNL A   1      42.927  26.959  35.197  1.00  0.00    -0.206 F 
ATOM     88  C   UNL A   1      46.545  27.045  35.339  1.00  0.00     0.006 A 
ENDBRANCH  64  81
ENDBRANCH  38  39
ENDBRANCH  30  33
ENDBRANCH  28  29
ENDBRANCH  27  28
ENDBRANCH   1  27
TORSDOF 14
ENDMDL
MODEL 3
REMARK VINA RESULT:     -12.0      1.743      2.382
REMARK SMILES Cc1c(Br)c(C)c2c(c1Br)O[C@H](C(F)(F)F)C(C(=O)NCCCCCCNC(=O)c1ccc(-c3c4nc(c(-c5c(F)cccc5F)c5ccc([nH]5)c(-c5c(F)cccc5F)c5nc(c(-c6c(F)cccc6F)c6ccc3[nH]6)C=C5)C=C4)cc1)=C2
REMARK SMILES IDX 24 1 23 2 22 3 21 4 20 5 18 6 19 7 17 9 1 10 2 11 3 12 9 13
REMARK SMILES IDX 4 14 5 15 8 16 10 17 6 18 7 19 11 20 84 21 12 22 13 23 14 24
REMARK SMILES IDX 15 25 16 26 25 27 26 28 27 29 28 30 29 32 30 33 31 34 83 35
REMARK SMILES IDX 32 36 82 37 33 38 34 39 35 40 76 41 36 42 81 43 75 44 77 45
REMARK SMILES IDX 37 46 80 47 74 48 73 49 38 51 64 52 47 53 63 54 48 55 51 56
REMARK SMILES IDX 62 57 78 58 49 59 50 60 61 62 79 63 52 64 39 65 40 66 45 67
REMARK SMILES IDX 41 68 42 69 44 70 46 71 43 72 65 73 66 74 71 75 67 76 68 77
REMARK SMILES IDX 70 78 72 79 69 80 53 81 54 82 59 83 55 84 56 85 58 86 60 87
REMARK SMILES IDX 57 88
REMARK H PARENT 20 8 27 31 77 50 51 61
REMARK Flexibility Score: inf
ROOT
ATOM      1  C   UNL A   1      36.567  21.218  24.602  1.00  0.00     0.002 C 
ENDROOT
BRANCH   1   2
ATOM      2  C   UNL A   1      35.933  21.987  25.768  1.00  0.00     0.002 C 
BRANCH   2   3
ATOM      3  C   UNL A   1      34.705  21.331  26.408  1.00  0.00     0.021 C 
BRANCH   3   4
ATOM      4  C   UNL A   1      33.745  22.314  27.072  1.00  0.00     0.116 C 
BRANCH   4   5
ATOM      5  N   UNL A   1      32.365  22.046  26.711  1.00  0.00    -0.352 N 
ATOM      6  C   UNL A   1      31.412  22.615  25.938  1.00  0.00     0.251 C 
ATOM      7  O   UNL A   1      30.334  22.009  25.911  1.00  0.00    -0.270 OA
ATOM      8  H   UNL A   1      32.033  21.229  27.148  1.00  0.00     0.163 HD
BRANCH   6   9
ATOM      9  C   UNL A   1      31.568  23.870  25.143  1.00  0.00     0.067 C 
ATOM     10  C   UNL A   1      30.821  29.621  22.055  1.00  0.00     0.047 C 
ATOM     11  C   UNL A   1      30.692  28.330  22.830  1.00  0.00    -0.019 A 
ATOM     12  C   UNL A   1      29.435  27.844  23.271  1.00  0.00     0.025 A 
ATOM     13  C   UNL A   1      31.831  27.540  23.085  1.00  0.00     0.064 A 
ATOM     14  Br  UNL A   1      27.853  28.839  22.826  1.00  0.00    -0.050 Br
ATOM     15  C   UNL A   1      29.320  26.636  24.008  1.00  0.00    -0.026 A 
ATOM     16  C   UNL A   1      31.728  26.341  23.807  1.00  0.00     0.142 A 
ATOM     17  Br  UNL A   1      33.557  28.043  22.419  1.00  0.00    -0.046 Br
ATOM     18  C   UNL A   1      27.992  26.114  24.514  1.00  0.00     0.046 C 
ATOM     19  C   UNL A   1      30.493  25.892  24.285  1.00  0.00     0.022 A 
ATOM     20  O   UNL A   1      32.892  25.668  24.067  1.00  0.00    -0.474 OA
ATOM     21  C   UNL A   1      30.478  24.658  25.084  1.00  0.00     0.026 C 
ATOM     22  C   UNL A   1      32.807  24.263  24.404  1.00  0.00     0.314 C 
BRANCH  22  23
ATOM     23  C   UNL A   1      33.054  23.415  23.144  1.00  0.00     0.429 C 
ATOM     24  F   UNL A   1      33.882  24.065  22.288  1.00  0.00    -0.167 F 
ATOM     25  F   UNL A   1      33.649  22.232  23.424  1.00  0.00    -0.167 F 
ATOM     26  F   UNL A   1      31.913  23.138  22.475  1.00  0.00    -0.167 F 
ENDBRANCH  22  23
ENDBRANCH   6   9
ENDBRANCH   4   5
ENDBRANCH   3   4
ENDBRANCH   2   3
ENDBRANCH   1   2
BRANCH   1  27
ATOM     27  C   UNL A   1      37.494  20.064  24.994  1.00  0.00     0.021 C 
BRANCH  27  28
ATOM     28  C   UNL A   1      38.727  20.473  25.791  1.00  0.00     0.116 C 
BRANCH  28  29
ATOM     29  N   UNL A   1      39.765  19.456  25.768  1.00  0.00    -0.352 N 
ATOM     30  C   UNL A   1      41.101  19.580  26.055  1.00  0.00     0.251 C 
ATOM     31  H   UNL A   1      39.468  18.553  25.511  1.00  0.00     0.163 HD
ATOM     32  O   UNL A   1      41.875  18.654  25.836  1.00  0.00    -0.269 OA
BRANCH  30  33
ATOM     33  C   UNL A   1      41.610  20.854  26.601  1.00  0.00     0.039 A 
ATOM     34  C   UNL A   1      41.976  21.868  25.715  1.00  0.00     0.014 A 
ATOM     35  C   UNL A   1      41.700  21.054  27.984  1.00  0.00     0.014 A 
ATOM     36  C   UNL A   1      42.370  23.109  26.215  1.00  0.00     0.010 A 
ATOM     37  C   UNL A   1      42.030  22.312  28.480  1.00  0.00     0.010 A 
ATOM     38  C   UNL A   1      42.367  23.350  27.600  1.00  0.00    -0.014 A 
BRANCH  38  39
ATOM     39  C   UNL A   1      42.701  24.696  28.128  1.00  0.00     0.031 A 
ATOM     40  C   UNL A   1      44.128  25.072  28.401  1.00  0.00     0.074 A 
ATOM     41  C   UNL A   1      41.708  25.571  28.379  1.00  0.00     0.049 A 
ATOM     42  N   UNL A   1      44.611  26.215  28.819  1.00  0.00    -0.248 NA
ATOM     43  C   UNL A   1      45.144  24.029  28.199  1.00  0.00     0.031 C 
ATOM     44  C   UNL A   1      40.279  25.299  28.206  1.00  0.00     0.029 A 
ATOM     45  N   UNL A   1      41.748  26.869  28.822  1.00  0.00    -0.354 N 
ATOM     46  C   UNL A   1      45.982  26.028  28.924  1.00  0.00     0.074 A 
ATOM     47  C   UNL A   1      46.250  24.647  28.588  1.00  0.00     0.031 C 
ATOM     48  C   UNL A   1      39.583  26.411  28.493  1.00  0.00     0.029 A 
ATOM     49  C   UNL A   1      40.512  27.465  28.891  1.00  0.00     0.049 A 
ATOM     50  H   UNL A   1      42.583  27.330  29.067  1.00  0.00     0.167 HD
ATOM     51  C   UNL A   1      46.935  26.935  29.240  1.00  0.00     0.037 A 
ATOM     52  C   UNL A   1      40.168  28.725  29.218  1.00  0.00     0.037 A 
ATOM     53  C   UNL A   1      46.669  28.313  29.552  1.00  0.00     0.049 A 
ATOM     54  C   UNL A   1      41.244  29.714  29.567  1.00  0.00     0.074 A 
ATOM     55  C   UNL A   1      47.571  29.322  29.837  1.00  0.00     0.029 A 
ATOM     56  N   UNL A   1      45.403  28.875  29.615  1.00  0.00    -0.354 N 
ATOM     57  N   UNL A   1      42.544  29.542  29.592  1.00  0.00    -0.248 NA
ATOM     58  C   UNL A   1      40.812  31.073  29.927  1.00  0.00     0.031 C 
ATOM     59  C   UNL A   1      46.851  30.488  30.103  1.00  0.00     0.029 A 
ATOM     60  C   UNL A   1      45.501  30.214  29.949  1.00  0.00     0.049 A 
ATOM     61  H   UNL A   1      44.561  28.395  29.447  1.00  0.00     0.167 HD
ATOM     62  C   UNL A   1      43.084  30.772  29.941  1.00  0.00     0.074 A 
ATOM     63  C   UNL A   1      41.974  31.684  30.116  1.00  0.00     0.031 C 
ATOM     64  C   UNL A   1      44.386  31.112  30.101  1.00  0.00     0.037 A 
BRANCH  51  65
ATOM     65  C   UNL A   1      48.361  26.472  29.237  1.00  0.00     0.057 A 
ATOM     66  C   UNL A   1      49.170  26.609  28.102  1.00  0.00     0.134 A 
ATOM     67  C   UNL A   1      48.949  25.940  30.391  1.00  0.00     0.134 A 
ATOM     68  F   UNL A   1      48.662  27.103  26.962  1.00  0.00    -0.206 F 
ATOM     69  C   UNL A   1      50.508  26.218  28.107  1.00  0.00     0.040 A 
ATOM     70  C   UNL A   1      50.294  25.567  30.416  1.00  0.00     0.040 A 
ATOM     71  F   UNL A   1      48.232  25.789  31.514  1.00  0.00    -0.206 F 
ATOM     72  C   UNL A   1      51.076  25.702  29.271  1.00  0.00     0.006 A 
ENDBRANCH  51  65
BRANCH  52  73
ATOM     73  C   UNL A   1      38.744  29.137  29.163  1.00  0.00     0.057 A 
ATOM     74  C   UNL A   1      38.178  29.599  27.969  1.00  0.00     0.134 A 
ATOM     75  C   UNL A   1      37.911  29.055  30.285  1.00  0.00     0.134 A 
ATOM     76  F   UNL A   1      38.933  29.712  26.866  1.00  0.00    -0.206 F 
ATOM     77  C   UNL A   1      36.836  29.971  27.892  1.00  0.00     0.040 A 
ATOM     78  C   UNL A   1      36.561  29.406  30.217  1.00  0.00     0.040 A 
ATOM     79  F   UNL A   1      38.392  28.612  31.455  1.00  0.00    -0.206 F 
ATOM     80  C   UNL A   1      36.022  29.869  29.018  1.00  0.00     0.006 A 
ENDBRANCH  52  73
BRANCH  64  81
ATOM     81  C   UNL A   1      44.697  32.532  30.461  1.00  0.00     0.057 A 
ATOM     82  C   UNL A   1      44.885  32.927  31.790  1.00  0.00     0.134 A 
ATOM     83  C   UNL A   1      44.914  33.488  29.460  1.00  0.00     0.134 A 
ATOM     84  F   UNL A   1      44.682  32.057  32.792  1.00  0.00    -0.206 F 
ATOM     85  C   UNL A   1      45.283  34.224  32.112  1.00  0.00     0.040 A 
ATOM     86  C   UNL A   1      45.332  34.782  29.769  1.00  0.00     0.040 A 
ATOM     87  F   UNL A   1      44.760  33.166  28.166  1.00  0.00    -0.206 F 
ATOM     88  C   UNL A   1      45.518  35.153  31.099  1.00  0.00     0.006 A 
ENDBRANCH  64  81
ENDBRANCH  38  39
ENDBRANCH  30  33
ENDBRANCH  28  29
ENDBRANCH  27  28
ENDBRANCH   1  27
TORSDOF 14
ENDMDL
