MODEL 1
REMARK VINA RESULT:     -11.9      0.000      0.000
REMARK SMILES C[C@@H](C(=O)NCCCCCCNC(=O)c1ccc(-c2c3nc(c(-c4c(F)cccc4F)c4ccc([nH]4)c(-c4c(F)cccc4F)c4nc(c(-c5c(F)cccc5F)c5ccc2[nH]5)C=C4)C=C3)cc1)S(=O)(=O)N[C@@]12C[C@@H]3C[C@@](C)(C[C@@](C)(C3)C1)C2
REMARK SMILES IDX 8 1 7 2 6 3 5 4 3 5 4 6 2 8 1 9 69 10 70 11 71 12 72 13
REMARK SMILES IDX 73 15 74 16 83 17 84 18 75 19 80 20 77 21 82 22 76 23 79 24
REMARK SMILES IDX 81 25 78 26 9 27 10 28 11 29 12 30 13 31 14 33 15 34 16 35
REMARK SMILES IDX 68 36 17 37 67 38 18 39 19 40 20 41 61 42 21 43 66 44 60 45
REMARK SMILES IDX 62 46 22 47 65 48 59 49 58 50 23 52 49 53 32 54 48 55 33 56
REMARK SMILES IDX 36 57 47 58 63 59 34 60 35 61 46 63 64 64 37 65 24 66 25 67
REMARK SMILES IDX 30 68 26 69 27 70 29 71 31 72 28 73 50 74 51 75 56 76 52 77
REMARK SMILES IDX 53 78 55 79 57 80 54 81 38 82 39 83 44 84 40 85 41 86 43 87
REMARK SMILES IDX 45 88 42 89
REMARK H PARENT 5 7 72 14 12 32 62 51 36 62
REMARK Flexibility Score: inf
ROOT
ATOM      1  C   UNL A   1      36.122  21.880  25.032  1.00  0.00     0.002 C 
ENDROOT
BRANCH   1   2
ATOM      2  C   UNL A   1      35.689  22.502  23.697  1.00  0.00     0.021 C 
BRANCH   2   3
ATOM      3  C   UNL A   1      34.332  23.211  23.795  1.00  0.00     0.116 C 
BRANCH   3   4
ATOM      4  N   UNL A   1      33.300  22.232  24.075  1.00  0.00    -0.355 N 
ATOM      5  C   UNL A   1      32.661  21.935  25.250  1.00  0.00     0.239 C 
ATOM      6  O   UNL A   1      32.089  20.846  25.300  1.00  0.00    -0.274 OA
ATOM      7  H   UNL A   1      33.014  21.696  23.299  1.00  0.00     0.163 HD
BRANCH   5   8
ATOM      8  C   UNL A   1      32.654  22.947  26.376  1.00  0.00     0.209 C 
ATOM      9  C   UNL A   1      32.996  22.419  27.762  1.00  0.00     0.037 C 
BRANCH   8  10
ATOM     10  S   UNL A   1      31.117  23.930  26.357  1.00  0.00     0.223 S 
ATOM     11  O   UNL A   1      30.658  24.003  24.985  1.00  0.00    -0.212 OA
ATOM     12  O   UNL A   1      30.221  23.362  27.348  1.00  0.00    -0.212 OA
BRANCH  10  13
ATOM     13  N   UNL A   1      31.398  25.496  26.873  1.00  0.00    -0.208 NA
ATOM     14  H   UNL A   1      32.086  25.402  27.621  1.00  0.00     0.141 HD
BRANCH  13  15
ATOM     15  C   UNL A   1      31.872  26.644  26.069  1.00  0.00     0.034 C 
ATOM     16  C   UNL A   1      33.127  26.333  25.237  1.00  0.00     0.027 C 
ATOM     17  C   UNL A   1      30.801  27.064  25.017  1.00  0.00     0.030 C 
ATOM     18  C   UNL A   1      32.015  27.849  27.023  1.00  0.00     0.030 C 
ATOM     19  C   UNL A   1      33.667  27.595  24.563  1.00  0.00    -0.008 C 
ATOM     20  C   UNL A   1      31.284  28.323  24.219  1.00  0.00    -0.030 C 
ATOM     21  C   UNL A   1      32.550  29.086  26.286  1.00  0.00    -0.030 C 
ATOM     22  C   UNL A   1      32.635  28.032  23.525  1.00  0.00     0.010 C 
ATOM     23  C   UNL A   1      33.880  28.714  25.596  1.00  0.00     0.010 C 
ATOM     24  C   UNL A   1      31.515  29.488  25.212  1.00  0.00     0.013 C 
ATOM     25  C   UNL A   1      30.258  28.723  23.154  1.00  0.00     0.011 C 
ATOM     26  C   UNL A   1      32.763  30.231  27.283  1.00  0.00     0.011 C 
ENDBRANCH  13  15
ENDBRANCH  10  13
ENDBRANCH   8  10
ENDBRANCH   5   8
ENDBRANCH   3   4
ENDBRANCH   2   3
ENDBRANCH   1   2
BRANCH   1  27
ATOM     27  C   UNL A   1      36.137  20.346  25.036  1.00  0.00     0.002 C 
BRANCH  27  28
ATOM     28  C   UNL A   1      37.490  19.730  24.679  1.00  0.00     0.021 C 
BRANCH  28  29
ATOM     29  C   UNL A   1      38.652  20.341  25.451  1.00  0.00     0.116 C 
BRANCH  29  30
ATOM     30  N   UNL A   1      39.716  19.369  25.659  1.00  0.00    -0.352 N 
ATOM     31  C   UNL A   1      41.006  19.589  26.068  1.00  0.00     0.251 C 
ATOM     32  H   UNL A   1      39.478  18.430  25.482  1.00  0.00     0.163 HD
ATOM     33  O   UNL A   1      41.859  18.716  25.962  1.00  0.00    -0.269 OA
BRANCH  31  34
ATOM     34  C   UNL A   1      41.352  20.906  26.634  1.00  0.00     0.039 A 
ATOM     35  C   UNL A   1      41.319  21.091  28.017  1.00  0.00     0.014 A 
ATOM     36  C   UNL A   1      41.733  21.947  25.782  1.00  0.00     0.014 A 
ATOM     37  C   UNL A   1      41.721  22.315  28.554  1.00  0.00     0.010 A 
ATOM     38  C   UNL A   1      42.209  23.133  26.322  1.00  0.00     0.010 A 
ATOM     39  C   UNL A   1      42.193  23.333  27.712  1.00  0.00    -0.014 A 
BRANCH  39  40
ATOM     40  C   UNL A   1      42.642  24.644  28.237  1.00  0.00     0.031 A 
ATOM     41  C   UNL A   1      41.627  25.725  28.478  1.00  0.00     0.074 A 
ATOM     42  C   UNL A   1      43.954  24.897  28.392  1.00  0.00     0.049 A 
ATOM     43  N   UNL A   1      41.810  26.988  28.766  1.00  0.00    -0.248 NA
ATOM     44  C   UNL A   1      40.214  25.339  28.331  1.00  0.00     0.031 C 
ATOM     45  C   UNL A   1      45.036  23.940  28.159  1.00  0.00     0.029 A 
ATOM     46  N   UNL A   1      44.602  26.051  28.757  1.00  0.00    -0.354 N 
ATOM     47  C   UNL A   1      40.542  27.550  28.806  1.00  0.00     0.074 A 
ATOM     48  C   UNL A   1      39.603  26.506  28.456  1.00  0.00     0.031 C 
ATOM     49  C   UNL A   1      46.213  24.543  28.393  1.00  0.00     0.029 A 
ATOM     50  C   UNL A   1      45.970  25.939  28.743  1.00  0.00     0.049 A 
ATOM     51  H   UNL A   1      44.130  26.878  29.005  1.00  0.00     0.167 HD
ATOM     52  C   UNL A   1      40.189  28.818  29.125  1.00  0.00     0.037 A 
ATOM     53  C   UNL A   1      46.921  26.866  28.967  1.00  0.00     0.037 A 
ATOM     54  C   UNL A   1      41.129  29.842  29.492  1.00  0.00     0.049 A 
ATOM     55  C   UNL A   1      46.512  28.272  29.307  1.00  0.00     0.074 A 
ATOM     56  C   UNL A   1      40.876  31.143  29.889  1.00  0.00     0.029 A 
ATOM     57  N   UNL A   1      42.508  29.680  29.503  1.00  0.00    -0.354 N 
ATOM     58  N   UNL A   1      45.308  28.782  29.396  1.00  0.00    -0.248 NA
ATOM     59  C   UNL A   1      47.592  29.230  29.585  1.00  0.00     0.031 C 
ATOM     60  C   UNL A   1      42.103  31.784  30.086  1.00  0.00     0.029 A 
ATOM     61  C   UNL A   1      43.119  30.864  29.876  1.00  0.00     0.049 A 
ATOM     62  H   UNL A   1      42.980  28.846  29.277  1.00  0.00     0.167 HD
ATOM     63  C   UNL A   1      45.481  30.108  29.775  1.00  0.00     0.074 A 
ATOM     64  C   UNL A   1      46.909  30.323  29.898  1.00  0.00     0.031 C 
ATOM     65  C   UNL A   1      44.542  31.056  30.009  1.00  0.00     0.037 A 
BRANCH  52  66
ATOM     66  C   UNL A   1      38.727  29.160  29.069  1.00  0.00     0.057 A 
ATOM     67  C   UNL A   1      38.109  29.596  27.888  1.00  0.00     0.134 A 
ATOM     68  C   UNL A   1      37.926  29.057  30.214  1.00  0.00     0.134 A 
ATOM     69  F   UNL A   1      38.818  29.729  26.758  1.00  0.00    -0.206 F 
ATOM     70  C   UNL A   1      36.762  29.961  27.861  1.00  0.00     0.040 A 
ATOM     71  C   UNL A   1      36.570  29.385  30.189  1.00  0.00     0.040 A 
ATOM     72  F   UNL A   1      38.449  28.640  31.376  1.00  0.00    -0.206 F 
ATOM     73  C   UNL A   1      35.987  29.853  29.013  1.00  0.00     0.006 A 
ENDBRANCH  52  66
BRANCH  53  74
ATOM     74  C   UNL A   1      48.353  26.479  28.892  1.00  0.00     0.057 A 
ATOM     75  C   UNL A   1      49.088  26.661  27.715  1.00  0.00     0.134 A 
ATOM     76  C   UNL A   1      49.027  25.946  29.997  1.00  0.00     0.134 A 
ATOM     77  F   UNL A   1      48.494  27.154  26.618  1.00  0.00    -0.206 F 
ATOM     78  C   UNL A   1      50.439  26.318  27.635  1.00  0.00     0.040 A 
ATOM     79  C   UNL A   1      50.383  25.621  29.939  1.00  0.00     0.040 A 
ATOM     80  F   UNL A   1      48.381  25.757  31.157  1.00  0.00    -0.206 F 
ATOM     81  C   UNL A   1      51.092  25.804  28.754  1.00  0.00     0.006 A 
ENDBRANCH  53  74
BRANCH  65  82
ATOM     82  C   UNL A   1      45.012  32.402  30.481  1.00  0.00     0.057 A 
ATOM     83  C   UNL A   1      45.222  32.686  31.836  1.00  0.00     0.134 A 
ATOM     84  C   UNL A   1      45.335  33.400  29.553  1.00  0.00     0.134 A 
ATOM     85  F   UNL A   1      44.921  31.778  32.776  1.00  0.00    -0.206 F 
ATOM     86  C   UNL A   1      45.725  33.920  32.251  1.00  0.00     0.040 A 
ATOM     87  C   UNL A   1      45.866  34.628  29.953  1.00  0.00     0.040 A 
ATOM     88  F   UNL A   1      45.167  33.190  28.239  1.00  0.00    -0.206 F 
ATOM     89  C   UNL A   1      46.059  34.891  31.308  1.00  0.00     0.006 A 
ENDBRANCH  65  82
ENDBRANCH  39  40
ENDBRANCH  31  34
ENDBRANCH  29  30
ENDBRANCH  28  29
ENDBRANCH  27  28
ENDBRANCH   1  27
TORSDOF 16
ENDMDL
MODEL 2
REMARK VINA RESULT:     -11.8      4.441      9.414
REMARK SMILES C[C@@H](C(=O)NCCCCCCNC(=O)c1ccc(-c2c3nc(c(-c4c(F)cccc4F)c4ccc([nH]4)c(-c4c(F)cccc4F)c4nc(c(-c5c(F)cccc5F)c5ccc2[nH]5)C=C4)C=C3)cc1)S(=O)(=O)N[C@@]12C[C@@H]3C[C@@](C)(C[C@@](C)(C3)C1)C2
REMARK SMILES IDX 8 1 7 2 6 3 5 4 3 5 4 6 2 8 1 9 69 10 70 11 71 12 72 13
REMARK SMILES IDX 73 15 74 16 83 17 84 18 75 19 80 20 77 21 82 22 76 23 79 24
REMARK SMILES IDX 81 25 78 26 9 27 10 28 11 29 12 30 13 31 14 33 15 34 16 35
REMARK SMILES IDX 68 36 17 37 67 38 18 39 19 40 20 41 61 42 21 43 66 44 60 45
REMARK SMILES IDX 62 46 22 47 65 48 59 49 58 50 23 52 49 53 32 54 48 55 33 56
REMARK SMILES IDX 36 57 47 58 63 59 34 60 35 61 46 63 64 64 37 65 24 66 25 67
REMARK SMILES IDX 30 68 26 69 27 70 29 71 31 72 28 73 50 74 51 75 56 76 52 77
REMARK SMILES IDX 53 78 55 79 57 80 54 81 38 82 39 83 44 84 40 85 41 86 43 87
REMARK SMILES IDX 45 88 42 89
REMARK H PARENT 5 7 72 14 12 32 62 51 36 62
REMARK Flexibility Score: inf
ROOT
ATOM      1  C   UNL A   1      32.253  29.447  26.758  1.00  0.00     0.002 C 
ENDROOT
BRANCH   1   2
ATOM      2  C   UNL A   1      31.451  28.175  27.070  1.00  0.00     0.021 C 
BRANCH   2   3
ATOM      3  C   UNL A   1      31.766  27.032  26.096  1.00  0.00     0.116 C 
BRANCH   3   4
ATOM      4  N   UNL A   1      31.030  27.238  24.863  1.00  0.00    -0.355 N 
ATOM      5  C   UNL A   1      31.485  27.485  23.594  1.00  0.00     0.239 C 
ATOM      6  O   UNL A   1      30.669  27.963  22.805  1.00  0.00    -0.274 OA
ATOM      7  H   UNL A   1      30.050  27.194  24.953  1.00  0.00     0.163 HD
BRANCH   5   8
ATOM      8  C   UNL A   1      32.910  27.129  23.227  1.00  0.00     0.209 C 
ATOM      9  C   UNL A   1      33.754  28.247  22.632  1.00  0.00     0.037 C 
BRANCH   8  10
ATOM     10  S   UNL A   1      32.962  25.601  22.231  1.00  0.00     0.223 S 
ATOM     11  O   UNL A   1      31.759  24.848  22.517  1.00  0.00    -0.212 OA
ATOM     12  O   UNL A   1      33.217  25.984  20.854  1.00  0.00    -0.212 OA
BRANCH  10  13
ATOM     13  N   UNL A   1      34.265  24.646  22.663  1.00  0.00    -0.208 NA
ATOM     14  H   UNL A   1      35.014  25.307  22.867  1.00  0.00     0.141 HD
BRANCH  13  15
ATOM     15  C   UNL A   1      34.336  23.649  23.755  1.00  0.00     0.034 C 
ATOM     16  C   UNL A   1      33.925  24.212  25.125  1.00  0.00     0.027 C 
ATOM     17  C   UNL A   1      33.341  22.477  23.501  1.00  0.00     0.030 C 
ATOM     18  C   UNL A   1      35.744  23.019  23.715  1.00  0.00     0.030 C 
ATOM     19  C   UNL A   1      34.178  23.194  26.237  1.00  0.00    -0.008 C 
ATOM     20  C   UNL A   1      33.473  21.394  24.626  1.00  0.00    -0.030 C 
ATOM     21  C   UNL A   1      35.933  21.998  24.847  1.00  0.00    -0.030 C 
ATOM     22  C   UNL A   1      33.216  22.028  26.013  1.00  0.00     0.010 C 
ATOM     23  C   UNL A   1      35.631  22.691  26.193  1.00  0.00     0.010 C 
ATOM     24  C   UNL A   1      34.922  20.849  24.629  1.00  0.00     0.013 C 
ATOM     25  C   UNL A   1      32.473  20.255  24.410  1.00  0.00     0.011 C 
ATOM     26  C   UNL A   1      37.368  21.461  24.827  1.00  0.00     0.011 C 
ENDBRANCH  13  15
ENDBRANCH  10  13
ENDBRANCH   8  10
ENDBRANCH   5   8
ENDBRANCH   3   4
ENDBRANCH   2   3
ENDBRANCH   1   2
BRANCH   1  27
ATOM     27  C   UNL A   1      31.501  30.471  25.900  1.00  0.00     0.002 C 
BRANCH  27  28
ATOM     28  C   UNL A   1      31.336  31.842  26.557  1.00  0.00     0.021 C 
BRANCH  28  29
ATOM     29  C   UNL A   1      32.657  32.464  26.990  1.00  0.00     0.116 C 
BRANCH  29  30
ATOM     30  N   UNL A   1      32.459  33.807  27.517  1.00  0.00    -0.352 N 
ATOM     31  C   UNL A   1      33.098  34.415  28.568  1.00  0.00     0.251 C 
ATOM     32  H   UNL A   1      31.776  34.350  27.060  1.00  0.00     0.163 HD
ATOM     33  O   UNL A   1      32.662  35.451  29.057  1.00  0.00    -0.269 OA
BRANCH  31  34
ATOM     34  C   UNL A   1      34.322  33.793  29.105  1.00  0.00     0.039 A 
ATOM     35  C   UNL A   1      35.569  34.323  28.768  1.00  0.00     0.014 A 
ATOM     36  C   UNL A   1      34.220  32.696  29.964  1.00  0.00     0.014 A 
ATOM     37  C   UNL A   1      36.720  33.781  29.338  1.00  0.00     0.010 A 
ATOM     38  C   UNL A   1      35.359  32.212  30.592  1.00  0.00     0.010 A 
ATOM     39  C   UNL A   1      36.620  32.740  30.274  1.00  0.00    -0.014 A 
BRANCH  39  40
ATOM     40  C   UNL A   1      37.814  32.140  30.915  1.00  0.00     0.031 A 
ATOM     41  C   UNL A   1      38.567  31.056  30.198  1.00  0.00     0.074 A 
ATOM     42  C   UNL A   1      38.154  32.487  32.170  1.00  0.00     0.049 A 
ATOM     43  N   UNL A   1      39.523  30.279  30.635  1.00  0.00    -0.248 NA
ATOM     44  C   UNL A   1      38.154  30.782  28.811  1.00  0.00     0.031 C 
ATOM     45  C   UNL A   1      37.481  33.503  32.981  1.00  0.00     0.029 A 
ATOM     46  N   UNL A   1      39.137  32.000  32.994  1.00  0.00    -0.354 N 
ATOM     47  C   UNL A   1      39.805  29.409  29.591  1.00  0.00     0.074 A 
ATOM     48  C   UNL A   1      38.880  29.714  28.522  1.00  0.00     0.031 C 
ATOM     49  C   UNL A   1      38.075  33.567  34.183  1.00  0.00     0.029 A 
ATOM     50  C   UNL A   1      39.136  32.566  34.244  1.00  0.00     0.049 A 
ATOM     51  H   UNL A   1      39.782  31.310  32.713  1.00  0.00     0.167 HD
ATOM     52  C   UNL A   1      40.762  28.453  29.522  1.00  0.00     0.037 A 
ATOM     53  C   UNL A   1      39.891  32.292  35.325  1.00  0.00     0.037 A 
ATOM     54  C   UNL A   1      41.691  28.172  30.585  1.00  0.00     0.049 A 
ATOM     55  C   UNL A   1      40.941  31.220  35.235  1.00  0.00     0.074 A 
ATOM     56  C   UNL A   1      42.736  27.266  30.599  1.00  0.00     0.029 A 
ATOM     57  N   UNL A   1      41.681  28.794  31.825  1.00  0.00    -0.354 N 
ATOM     58  N   UNL A   1      41.237  30.437  34.226  1.00  0.00    -0.248 NA
ATOM     59  C   UNL A   1      41.765  30.994  36.431  1.00  0.00     0.031 C 
ATOM     60  C   UNL A   1      43.324  27.300  31.867  1.00  0.00     0.029 A 
ATOM     61  C   UNL A   1      42.687  28.274  32.621  1.00  0.00     0.049 A 
ATOM     62  H   UNL A   1      41.052  29.500  32.098  1.00  0.00     0.167 HD
ATOM     63  C   UNL A   1      42.303  29.654  34.649  1.00  0.00     0.074 A 
ATOM     64  C   UNL A   1      42.601  30.055  36.009  1.00  0.00     0.031 C 
ATOM     65  C   UNL A   1      42.980  28.697  33.968  1.00  0.00     0.037 A 
BRANCH  52  66
ATOM     66  C   UNL A   1      40.831  27.637  28.262  1.00  0.00     0.057 A 
ATOM     67  C   UNL A   1      41.596  28.036  27.158  1.00  0.00     0.134 A 
ATOM     68  C   UNL A   1      40.115  26.439  28.150  1.00  0.00     0.134 A 
ATOM     69  F   UNL A   1      42.297  29.179  27.192  1.00  0.00    -0.206 F 
ATOM     70  C   UNL A   1      41.611  27.297  25.973  1.00  0.00     0.040 A 
ATOM     71  C   UNL A   1      40.150  25.674  26.983  1.00  0.00     0.040 A 
ATOM     72  F   UNL A   1      39.367  25.992  29.169  1.00  0.00    -0.206 F 
ATOM     73  C   UNL A   1      40.889  26.110  25.885  1.00  0.00     0.006 A 
ENDBRANCH  52  66
BRANCH  53  74
ATOM     74  C   UNL A   1      39.688  33.065  36.576  1.00  0.00     0.057 A 
ATOM     75  C   UNL A   1      38.769  32.642  37.543  1.00  0.00     0.134 A 
ATOM     76  C   UNL A   1      40.422  34.225  36.848  1.00  0.00     0.134 A 
ATOM     77  F   UNL A   1      38.024  31.546  37.333  1.00  0.00    -0.206 F 
ATOM     78  C   UNL A   1      38.579  33.349  38.732  1.00  0.00     0.040 A 
ATOM     79  C   UNL A   1      40.262  34.929  38.043  1.00  0.00     0.040 A 
ATOM     80  F   UNL A   1      41.327  34.676  35.967  1.00  0.00    -0.206 F 
ATOM     81  C   UNL A   1      39.335  34.492  38.987  1.00  0.00     0.006 A 
ENDBRANCH  53  74
BRANCH  65  82
ATOM     82  C   UNL A   1      44.151  28.050  34.652  1.00  0.00     0.057 A 
ATOM     83  C   UNL A   1      44.031  26.849  35.360  1.00  0.00     0.134 A 
ATOM     84  C   UNL A   1      45.432  28.604  34.528  1.00  0.00     0.134 A 
ATOM     85  F   UNL A   1      42.831  26.274  35.526  1.00  0.00    -0.206 F 
ATOM     86  C   UNL A   1      45.143  26.227  35.932  1.00  0.00     0.040 A 
ATOM     87  C   UNL A   1      46.555  27.977  35.070  1.00  0.00     0.040 A 
ATOM     88  F   UNL A   1      45.617  29.749  33.854  1.00  0.00    -0.206 F 
ATOM     89  C   UNL A   1      46.411  26.786  35.777  1.00  0.00     0.006 A 
ENDBRANCH  65  82
ENDBRANCH  39  40
ENDBRANCH  31  34
ENDBRANCH  29  30
ENDBRANCH  28  29
ENDBRANCH  27  28
ENDBRANCH   1  27
TORSDOF 16
ENDMDL
MODEL 3
REMARK VINA RESULT:     -11.7      4.529      9.563
REMARK SMILES C[C@@H](C(=O)NCCCCCCNC(=O)c1ccc(-c2c3nc(c(-c4c(F)cccc4F)c4ccc([nH]4)c(-c4c(F)cccc4F)c4nc(c(-c5c(F)cccc5F)c5ccc2[nH]5)C=C4)C=C3)cc1)S(=O)(=O)N[C@@]12C[C@@H]3C[C@@](C)(C[C@@](C)(C3)C1)C2
REMARK SMILES IDX 8 1 7 2 6 3 5 4 3 5 4 6 2 8 1 9 69 10 70 11 71 12 72 13
REMARK SMILES IDX 73 15 74 16 83 17 84 18 75 19 80 20 77 21 82 22 76 23 79 24
REMARK SMILES IDX 81 25 78 26 9 27 10 28 11 29 12 30 13 31 14 33 15 34 16 35
REMARK SMILES IDX 68 36 17 37 67 38 18 39 19 40 20 41 61 42 21 43 66 44 60 45
REMARK SMILES IDX 62 46 22 47 65 48 59 49 58 50 23 52 49 53 32 54 48 55 33 56
REMARK SMILES IDX 36 57 47 58 63 59 34 60 35 61 46 63 64 64 37 65 24 66 25 67
REMARK SMILES IDX 30 68 26 69 27 70 29 71 31 72 28 73 50 74 51 75 56 76 52 77
REMARK SMILES IDX 53 78 55 79 57 80 54 81 38 82 39 83 44 84 40 85 41 86 43 87
REMARK SMILES IDX 45 88 42 89
REMARK H PARENT 5 7 72 14 12 32 62 51 36 62
REMARK Flexibility Score: inf
ROOT
ATOM      1  C   UNL A   1      31.787  29.371  26.980  1.00  0.00     0.002 C 
ENDROOT
BRANCH   1   2
ATOM      2  C   UNL A   1      32.798  28.273  26.619  1.00  0.00     0.021 C 
BRANCH   2   3
ATOM      3  C   UNL A   1      32.122  27.028  26.029  1.00  0.00     0.116 C 
BRANCH   3   4
ATOM      4  N   UNL A   1      31.353  27.409  24.861  1.00  0.00    -0.355 N 
ATOM      5  C   UNL A   1      31.765  27.679  23.582  1.00  0.00     0.239 C 
ATOM      6  O   UNL A   1      30.978  28.310  22.876  1.00  0.00    -0.274 OA
ATOM      7  H   UNL A   1      30.382  27.487  25.010  1.00  0.00     0.163 HD
BRANCH   5   8
ATOM      8  C   UNL A   1      33.107  27.166  23.104  1.00  0.00     0.209 C 
ATOM      9  C   UNL A   1      34.019  28.183  22.431  1.00  0.00     0.037 C 
BRANCH   8  10
ATOM     10  S   UNL A   1      32.907  25.642  22.119  1.00  0.00     0.223 S 
ATOM     11  O   UNL A   1      31.573  25.131  22.365  1.00  0.00    -0.212 OA
ATOM     12  O   UNL A   1      33.278  25.952  20.750  1.00  0.00    -0.212 OA
BRANCH  10  13
ATOM     13  N   UNL A   1      33.990  24.465  22.607  1.00  0.00    -0.208 NA
ATOM     14  H   UNL A   1      34.758  24.982  23.036  1.00  0.00     0.141 HD
BRANCH  13  15
ATOM     15  C   UNL A   1      33.744  23.329  23.523  1.00  0.00     0.034 C 
ATOM     16  C   UNL A   1      32.891  22.213  22.898  1.00  0.00     0.027 C 
ATOM     17  C   UNL A   1      35.082  22.628  23.909  1.00  0.00     0.030 C 
ATOM     18  C   UNL A   1      33.182  23.909  24.838  1.00  0.00     0.030 C 
ATOM     19  C   UNL A   1      32.528  21.151  23.936  1.00  0.00    -0.008 C 
ATOM     20  C   UNL A   1      34.817  21.471  24.932  1.00  0.00    -0.030 C 
ATOM     21  C   UNL A   1      32.848  22.796  25.843  1.00  0.00    -0.030 C 
ATOM     22  C   UNL A   1      33.823  20.446  24.337  1.00  0.00     0.010 C 
ATOM     23  C   UNL A   1      31.879  21.799  25.171  1.00  0.00     0.010 C 
ATOM     24  C   UNL A   1      34.161  22.066  26.202  1.00  0.00     0.013 C 
ATOM     25  C   UNL A   1      36.118  20.748  25.290  1.00  0.00     0.011 C 
ATOM     26  C   UNL A   1      32.210  23.405  27.097  1.00  0.00     0.011 C 
ENDBRANCH  13  15
ENDBRANCH  10  13
ENDBRANCH   8  10
ENDBRANCH   5   8
ENDBRANCH   3   4
ENDBRANCH   2   3
ENDBRANCH   1   2
BRANCH   1  27
ATOM     27  C   UNL A   1      31.739  30.534  25.982  1.00  0.00     0.002 C 
BRANCH  27  28
ATOM     28  C   UNL A   1      31.446  31.895  26.615  1.00  0.00     0.021 C 
BRANCH  28  29
ATOM     29  C   UNL A   1      32.670  32.538  27.252  1.00  0.00     0.116 C 
BRANCH  29  30
ATOM     30  N   UNL A   1      32.444  33.951  27.521  1.00  0.00    -0.352 N 
ATOM     31  C   UNL A   1      33.009  34.737  28.492  1.00  0.00     0.251 C 
ATOM     32  H   UNL A   1      31.800  34.401  26.927  1.00  0.00     0.163 HD
ATOM     33  O   UNL A   1      32.546  35.840  28.760  1.00  0.00    -0.269 OA
BRANCH  31  34
ATOM     34  C   UNL A   1      34.187  34.226  29.217  1.00  0.00     0.039 A 
ATOM     35  C   UNL A   1      34.008  33.472  30.378  1.00  0.00     0.014 A 
ATOM     36  C   UNL A   1      35.468  34.482  28.721  1.00  0.00     0.014 A 
ATOM     37  C   UNL A   1      35.121  32.925  31.018  1.00  0.00     0.010 A 
ATOM     38  C   UNL A   1      36.565  33.871  29.311  1.00  0.00     0.010 A 
ATOM     39  C   UNL A   1      36.403  33.099  30.474  1.00  0.00    -0.014 A 
BRANCH  39  40
ATOM     40  C   UNL A   1      37.613  32.528  31.111  1.00  0.00     0.031 A 
ATOM     41  C   UNL A   1      38.301  31.359  30.465  1.00  0.00     0.074 A 
ATOM     42  C   UNL A   1      38.025  32.983  32.308  1.00  0.00     0.049 A 
ATOM     43  N   UNL A   1      39.259  30.600  30.929  1.00  0.00    -0.248 NA
ATOM     44  C   UNL A   1      37.811  30.967  29.133  1.00  0.00     0.031 C 
ATOM     45  C   UNL A   1      37.419  34.090  33.050  1.00  0.00     0.029 A 
ATOM     46  N   UNL A   1      39.036  32.547  33.127  1.00  0.00    -0.354 N 
ATOM     47  C   UNL A   1      39.466  29.627  29.961  1.00  0.00     0.074 A 
ATOM     48  C   UNL A   1      38.495  29.856  28.913  1.00  0.00     0.031 C 
ATOM     49  C   UNL A   1      38.075  34.251  34.210  1.00  0.00     0.029 A 
ATOM     50  C   UNL A   1      39.113  33.229  34.316  1.00  0.00     0.049 A 
ATOM     51  H   UNL A   1      39.649  31.816  32.883  1.00  0.00     0.167 HD
ATOM     52  C   UNL A   1      40.394  28.641  29.938  1.00  0.00     0.037 A 
ATOM     53  C   UNL A   1      39.915  33.037  35.380  1.00  0.00     0.037 A 
ATOM     54  C   UNL A   1      41.369  28.435  30.976  1.00  0.00     0.049 A 
ATOM     55  C   UNL A   1      40.932  31.930  35.343  1.00  0.00     0.074 A 
ATOM     56  C   UNL A   1      42.391  27.504  31.027  1.00  0.00     0.029 A 
ATOM     57  N   UNL A   1      41.438  29.172  32.150  1.00  0.00    -0.354 N 
ATOM     58  N   UNL A   1      41.157  31.047  34.401  1.00  0.00    -0.248 NA
ATOM     59  C   UNL A   1      41.811  31.795  36.513  1.00  0.00     0.031 C 
ATOM     60  C   UNL A   1      43.043  27.641  32.256  1.00  0.00     0.029 A 
ATOM     61  C   UNL A   1      42.470  28.700  32.943  1.00  0.00     0.049 A 
ATOM     62  H   UNL A   1      40.840  29.918  32.384  1.00  0.00     0.167 HD
ATOM     63  C   UNL A   1      42.224  30.277  34.845  1.00  0.00     0.074 A 
ATOM     64  C   UNL A   1      42.601  30.796  36.144  1.00  0.00     0.031 C 
ATOM     65  C   UNL A   1      42.842  29.240  34.227  1.00  0.00     0.037 A 
BRANCH  52  66
ATOM     66  C   UNL A   1      40.378  27.708  28.761  1.00  0.00     0.057 A 
ATOM     67  C   UNL A   1      39.635  26.519  28.762  1.00  0.00     0.134 A 
ATOM     68  C   UNL A   1      41.123  27.999  27.610  1.00  0.00     0.134 A 
ATOM     69  F   UNL A   1      38.908  26.172  29.835  1.00  0.00    -0.206 F 
ATOM     70  C   UNL A   1      39.669  25.634  27.683  1.00  0.00     0.040 A 
ATOM     71  C   UNL A   1      41.136  27.139  26.512  1.00  0.00     0.040 A 
ATOM     72  F   UNL A   1      41.852  29.122  27.536  1.00  0.00    -0.206 F 
ATOM     73  C   UNL A   1      40.419  25.945  26.551  1.00  0.00     0.006 A 
ENDBRANCH  52  66
BRANCH  53  74
ATOM     74  C   UNL A   1      39.795  33.931  36.559  1.00  0.00     0.057 A 
ATOM     75  C   UNL A   1      39.005  33.572  37.657  1.00  0.00     0.134 A 
ATOM     76  C   UNL A   1      40.484  35.147  36.630  1.00  0.00     0.134 A 
ATOM     77  F   UNL A   1      38.308  32.426  37.642  1.00  0.00    -0.206 F 
ATOM     78  C   UNL A   1      38.896  34.394  38.780  1.00  0.00     0.040 A 
ATOM     79  C   UNL A   1      40.405  35.968  37.756  1.00  0.00     0.040 A 
ATOM     80  F   UNL A   1      41.267  35.542  35.615  1.00  0.00    -0.206 F 
ATOM     81  C   UNL A   1      39.605  35.593  38.834  1.00  0.00     0.006 A 
ENDBRANCH  53  74
BRANCH  65  82
ATOM     82  C   UNL A   1      44.030  28.627  34.912  1.00  0.00     0.057 A 
ATOM     83  C   UNL A   1      43.907  27.547  35.794  1.00  0.00     0.134 A 
ATOM     84  C   UNL A   1      45.322  29.080  34.619  1.00  0.00     0.134 A 
ATOM     85  F   UNL A   1      42.697  27.074  36.126  1.00  0.00    -0.206 F 
ATOM     86  C   UNL A   1      45.028  26.946  36.369  1.00  0.00     0.040 A 
ATOM     87  C   UNL A   1      46.453  28.470  35.165  1.00  0.00     0.040 A 
ATOM     88  F   UNL A   1      45.510  30.106  33.775  1.00  0.00    -0.206 F 
ATOM     89  C   UNL A   1      46.306  27.401  36.045  1.00  0.00     0.006 A 
ENDBRANCH  65  82
ENDBRANCH  39  40
ENDBRANCH  31  34
ENDBRANCH  29  30
ENDBRANCH  28  29
ENDBRANCH  27  28
ENDBRANCH   1  27
TORSDOF 16
ENDMDL
