MODEL 1
REMARK VINA RESULT:     -10.3      0.000      0.000
REMARK SMILES Cc1cc(C)cc(CSCc2cc(C(=O)NCCCCCCNC(=O)c3ccc(-c4c5nc(c(-c6c(F)cccc6F)c6ccc([nH]6)c(-c6c(F)cccc6F)c6nc(c(-c7c(F)cccc7F)c7ccc4[nH]7)C=C6)C=C5)cc3)c(C)o2)c1
REMARK SMILES IDX 18 1 17 2 16 3 14 4 15 5 13 7 11 8 12 9 82 10 80 11 81 12
REMARK SMILES IDX 10 13 9 14 8 15 7 16 1 17 2 18 3 19 83 20 4 21 5 22 6 23
REMARK SMILES IDX 19 24 20 25 21 26 22 27 23 28 24 29 25 31 26 32 27 33 79 34
REMARK SMILES IDX 28 35 78 36 29 37 30 38 31 39 72 40 32 41 77 42 71 43 73 44
REMARK SMILES IDX 33 45 76 46 70 47 69 48 34 50 60 51 43 52 59 53 44 54 47 55
REMARK SMILES IDX 58 56 74 57 45 58 46 59 57 61 75 62 48 63 35 64 36 65 41 66
REMARK SMILES IDX 37 67 38 68 40 69 42 70 39 71 61 72 62 73 67 74 63 75 64 76
REMARK SMILES IDX 66 77 68 78 65 79 49 80 50 81 55 82 51 83 52 84 54 85 56 86
REMARK SMILES IDX 53 87
REMARK H PARENT 16 6 23 30 73 49 47 60
REMARK Flexibility Score: inf
ROOT
ATOM      1  C   UNL A   1      40.029  29.221  27.682  1.00  0.00     0.021 C 
ENDROOT
BRANCH   1   2
ATOM      2  C   UNL A   1      38.501  29.280  27.705  1.00  0.00     0.116 C 
BRANCH   2   3
ATOM      3  N   UNL A   1      37.869  29.181  29.005  1.00  0.00    -0.352 N 
ATOM      4  C   UNL A   1      36.586  29.510  29.406  1.00  0.00     0.254 C 
ATOM      5  O   UNL A   1      36.311  29.296  30.586  1.00  0.00    -0.269 OA
ATOM      6  H   UNL A   1      38.445  28.823  29.717  1.00  0.00     0.163 HD
BRANCH   4   7
ATOM      7  C   UNL A   1      35.604  30.067  28.474  1.00  0.00     0.081 A 
ATOM      8  C   UNL A   1      33.825  30.394  27.100  1.00  0.00     0.114 A 
ATOM      9  C   UNL A   1      34.583  29.430  27.721  1.00  0.00     0.060 A 
ATOM     10  O   UNL A   1      34.380  31.612  27.332  1.00  0.00    -0.465 OA
ATOM     11  C   UNL A   1      35.455  31.417  28.157  1.00  0.00     0.113 A 
ATOM     12  C   UNL A   1      36.185  32.658  28.505  1.00  0.00     0.088 C 
BRANCH   8  13
ATOM     13  C   UNL A   1      32.581  30.351  26.289  1.00  0.00     0.145 C 
BRANCH  13  14
ATOM     14  S   UNL A   1      32.676  29.121  24.933  1.00  0.00    -0.149 SA
BRANCH  14  15
ATOM     15  C   UNL A   1      31.495  27.859  25.501  1.00  0.00     0.105 C 
BRANCH  15  16
ATOM     16  C   UNL A   1      32.032  26.470  25.746  1.00  0.00    -0.038 A 
ATOM     17  C   UNL A   1      30.742  23.042  26.861  1.00  0.00     0.044 C 
ATOM     18  C   UNL A   1      31.643  24.147  26.404  1.00  0.00    -0.051 A 
ATOM     19  C   UNL A   1      32.985  23.861  26.180  1.00  0.00     0.006 A 
ATOM     20  C   UNL A   1      31.176  25.454  26.204  1.00  0.00     0.008 A 
ATOM     21  C   UNL A   1      33.841  24.841  25.686  1.00  0.00    -0.051 A 
ATOM     22  C   UNL A   1      35.257  24.457  25.427  1.00  0.00     0.044 C 
ATOM     23  C   UNL A   1      33.369  26.145  25.476  1.00  0.00     0.008 A 
ENDBRANCH  15  16
ENDBRANCH  14  15
ENDBRANCH  13  14
ENDBRANCH   8  13
ENDBRANCH   4   7
ENDBRANCH   2   3
ENDBRANCH   1   2
BRANCH   1  24
ATOM     24  C   UNL A   1      40.737  27.868  27.561  1.00  0.00     0.002 C 
BRANCH  24  25
ATOM     25  C   UNL A   1      40.410  26.746  28.548  1.00  0.00     0.002 C 
BRANCH  25  26
ATOM     26  C   UNL A   1      39.525  25.606  28.051  1.00  0.00     0.021 C 
BRANCH  26  27
ATOM     27  C   UNL A   1      39.735  25.198  26.604  1.00  0.00     0.116 C 
BRANCH  27  28
ATOM     28  N   UNL A   1      40.406  23.915  26.472  1.00  0.00    -0.352 N 
ATOM     29  C   UNL A   1      41.738  23.638  26.281  1.00  0.00     0.251 C 
ATOM     30  H   UNL A   1      39.818  23.127  26.528  1.00  0.00     0.163 HD
ATOM     31  O   UNL A   1      42.098  22.496  26.020  1.00  0.00    -0.269 OA
BRANCH  29  32
ATOM     32  C   UNL A   1      42.739  24.725  26.372  1.00  0.00     0.039 A 
ATOM     33  C   UNL A   1      43.353  24.987  27.599  1.00  0.00     0.014 A 
ATOM     34  C   UNL A   1      43.067  25.487  25.248  1.00  0.00     0.014 A 
ATOM     35  C   UNL A   1      44.339  25.973  27.684  1.00  0.00     0.010 A 
ATOM     36  C   UNL A   1      44.118  26.392  25.310  1.00  0.00     0.010 A 
ATOM     37  C   UNL A   1      44.753  26.658  26.531  1.00  0.00    -0.014 A 
BRANCH  37  38
ATOM     38  C   UNL A   1      45.819  27.690  26.570  1.00  0.00     0.031 A 
ATOM     39  C   UNL A   1      45.442  29.141  26.694  1.00  0.00     0.074 A 
ATOM     40  C   UNL A   1      47.107  27.331  26.407  1.00  0.00     0.049 A 
ATOM     41  N   UNL A   1      46.199  30.204  26.616  1.00  0.00    -0.248 NA
ATOM     42  C   UNL A   1      44.013  29.437  26.893  1.00  0.00     0.031 C 
ATOM     43  C   UNL A   1      47.591  25.961  26.235  1.00  0.00     0.029 A 
ATOM     44  N   UNL A   1      48.244  28.095  26.342  1.00  0.00    -0.354 N 
ATOM     45  C   UNL A   1      45.339  31.289  26.730  1.00  0.00     0.074 A 
ATOM     46  C   UNL A   1      43.996  30.759  26.820  1.00  0.00     0.031 C 
ATOM     47  C   UNL A   1      48.926  25.979  26.105  1.00  0.00     0.029 A 
ATOM     48  C   UNL A   1      49.389  27.362  26.137  1.00  0.00     0.049 A 
ATOM     49  H   UNL A   1      48.241  29.076  26.433  1.00  0.00     0.167 HD
ATOM     50  C   UNL A   1      45.641  32.607  26.785  1.00  0.00     0.037 A 
ATOM     51  C   UNL A   1      50.663  27.766  25.979  1.00  0.00     0.037 A 
ATOM     52  C   UNL A   1      46.983  33.123  26.725  1.00  0.00     0.049 A 
ATOM     53  C   UNL A   1      50.975  29.236  26.033  1.00  0.00     0.074 A 
ATOM     54  C   UNL A   1      47.408  34.435  26.828  1.00  0.00     0.029 A 
ATOM     55  N   UNL A   1      48.118  32.346  26.546  1.00  0.00    -0.354 N 
ATOM     56  N   UNL A   1      50.159  30.248  26.202  1.00  0.00    -0.248 NA
ATOM     57  C   UNL A   1      52.385  29.621  25.880  1.00  0.00     0.031 C 
ATOM     58  C   UNL A   1      48.795  34.458  26.659  1.00  0.00     0.029 A 
ATOM     59  C   UNL A   1      49.242  33.153  26.514  1.00  0.00     0.049 A 
ATOM     60  H   UNL A   1      48.124  31.365  26.455  1.00  0.00     0.167 HD
ATOM     61  C   UNL A   1      50.958  31.385  26.215  1.00  0.00     0.074 A 
ATOM     62  C   UNL A   1      52.324  30.935  26.043  1.00  0.00     0.031 C 
ATOM     63  C   UNL A   1      50.595  32.683  26.359  1.00  0.00     0.037 A 
BRANCH  50  64
ATOM     64  C   UNL A   1      44.502  33.578  26.916  1.00  0.00     0.057 A 
ATOM     65  C   UNL A   1      44.060  34.039  28.164  1.00  0.00     0.134 A 
ATOM     66  C   UNL A   1      43.856  34.080  25.780  1.00  0.00     0.134 A 
ATOM     67  F   UNL A   1      44.625  33.590  29.295  1.00  0.00    -0.206 F 
ATOM     68  C   UNL A   1      42.996  34.936  28.279  1.00  0.00     0.040 A 
ATOM     69  C   UNL A   1      42.813  35.003  25.879  1.00  0.00     0.040 A 
ATOM     70  F   UNL A   1      44.230  33.688  24.553  1.00  0.00    -0.206 F 
ATOM     71  C   UNL A   1      42.375  35.427  27.132  1.00  0.00     0.006 A 
ENDBRANCH  50  64
BRANCH  51  72
ATOM     72  C   UNL A   1      51.743  26.764  25.777  1.00  0.00     0.057 A 
ATOM     73  C   UNL A   1      52.403  26.185  26.868  1.00  0.00     0.134 A 
ATOM     74  C   UNL A   1      52.146  26.367  24.496  1.00  0.00     0.134 A 
ATOM     75  F   UNL A   1      52.073  26.535  28.119  1.00  0.00    -0.206 F 
ATOM     76  C   UNL A   1      53.438  25.265  26.693  1.00  0.00     0.040 A 
ATOM     77  C   UNL A   1      53.161  25.426  24.307  1.00  0.00     0.040 A 
ATOM     78  F   UNL A   1      51.548  26.875  23.408  1.00  0.00    -0.206 F 
ATOM     79  C   UNL A   1      53.816  24.880  25.409  1.00  0.00     0.006 A 
ENDBRANCH  51  72
BRANCH  63  80
ATOM     80  C   UNL A   1      51.693  33.706  26.396  1.00  0.00     0.057 A 
ATOM     81  C   UNL A   1      52.148  34.353  25.241  1.00  0.00     0.134 A 
ATOM     82  C   UNL A   1      52.263  34.086  27.618  1.00  0.00     0.134 A 
ATOM     83  F   UNL A   1      51.652  34.026  24.038  1.00  0.00    -0.206 F 
ATOM     84  C   UNL A   1      53.146  35.326  25.297  1.00  0.00     0.040 A 
ATOM     85  C   UNL A   1      53.240  35.080  27.691  1.00  0.00     0.040 A 
ATOM     86  F   UNL A   1      51.864  33.514  28.764  1.00  0.00    -0.206 F 
ATOM     87  C   UNL A   1      53.688  35.698  26.526  1.00  0.00     0.006 A 
ENDBRANCH  63  80
ENDBRANCH  37  38
ENDBRANCH  29  32
ENDBRANCH  27  28
ENDBRANCH  26  27
ENDBRANCH  25  26
ENDBRANCH  24  25
ENDBRANCH   1  24
TORSDOF 17
ENDMDL
MODEL 2
REMARK VINA RESULT:     -10.3      3.200      5.599
REMARK SMILES Cc1cc(C)cc(CSCc2cc(C(=O)NCCCCCCNC(=O)c3ccc(-c4c5nc(c(-c6c(F)cccc6F)c6ccc([nH]6)c(-c6c(F)cccc6F)c6nc(c(-c7c(F)cccc7F)c7ccc4[nH]7)C=C6)C=C5)cc3)c(C)o2)c1
REMARK SMILES IDX 18 1 17 2 16 3 14 4 15 5 13 7 11 8 12 9 82 10 80 11 81 12
REMARK SMILES IDX 10 13 9 14 8 15 7 16 1 17 2 18 3 19 83 20 4 21 5 22 6 23
REMARK SMILES IDX 19 24 20 25 21 26 22 27 23 28 24 29 25 31 26 32 27 33 79 34
REMARK SMILES IDX 28 35 78 36 29 37 30 38 31 39 72 40 32 41 77 42 71 43 73 44
REMARK SMILES IDX 33 45 76 46 70 47 69 48 34 50 60 51 43 52 59 53 44 54 47 55
REMARK SMILES IDX 58 56 74 57 45 58 46 59 57 61 75 62 48 63 35 64 36 65 41 66
REMARK SMILES IDX 37 67 38 68 40 69 42 70 39 71 61 72 62 73 67 74 63 75 64 76
REMARK SMILES IDX 66 77 68 78 65 79 49 80 50 81 55 82 51 83 52 84 54 85 56 86
REMARK SMILES IDX 53 87
REMARK H PARENT 16 6 23 30 73 49 47 60
REMARK Flexibility Score: inf
ROOT
ATOM      1  C   UNL A   1      39.217  21.899  26.178  1.00  0.00     0.021 C 
ENDROOT
BRANCH   1   2
ATOM      2  C   UNL A   1      38.074  22.891  25.960  1.00  0.00     0.116 C 
BRANCH   2   3
ATOM      3  N   UNL A   1      37.633  23.079  24.593  1.00  0.00    -0.352 N 
ATOM      4  C   UNL A   1      36.356  23.168  24.066  1.00  0.00     0.254 C 
ATOM      5  O   UNL A   1      36.277  23.355  22.853  1.00  0.00    -0.269 OA
ATOM      6  H   UNL A   1      38.358  23.156  23.932  1.00  0.00     0.163 HD
BRANCH   4   7
ATOM      7  C   UNL A   1      35.163  23.064  24.909  1.00  0.00     0.081 A 
ATOM      8  C   UNL A   1      33.281  23.488  26.106  1.00  0.00     0.114 A 
ATOM      9  C   UNL A   1      34.389  24.071  25.541  1.00  0.00     0.060 A 
ATOM     10  O   UNL A   1      33.366  22.140  25.960  1.00  0.00    -0.465 OA
ATOM     11  C   UNL A   1      34.503  21.881  25.243  1.00  0.00     0.113 A 
ATOM     12  C   UNL A   1      34.752  20.442  25.000  1.00  0.00     0.088 C 
BRANCH   8  13
ATOM     13  C   UNL A   1      32.076  24.029  26.788  1.00  0.00     0.145 C 
BRANCH  13  14
ATOM     14  S   UNL A   1      30.656  24.219  25.643  1.00  0.00    -0.149 SA
BRANCH  14  15
ATOM     15  C   UNL A   1      30.466  26.028  25.595  1.00  0.00     0.105 C 
BRANCH  15  16
ATOM     16  C   UNL A   1      31.714  26.848  25.377  1.00  0.00    -0.038 A 
ATOM     17  C   UNL A   1      33.860  28.103  22.465  1.00  0.00     0.044 C 
ATOM     18  C   UNL A   1      33.339  27.844  23.845  1.00  0.00    -0.051 A 
ATOM     19  C   UNL A   1      34.014  28.401  24.925  1.00  0.00     0.006 A 
ATOM     20  C   UNL A   1      32.204  27.056  24.076  1.00  0.00     0.008 A 
ATOM     21  C   UNL A   1      33.524  28.244  26.218  1.00  0.00    -0.051 A 
ATOM     22  C   UNL A   1      34.271  28.903  27.326  1.00  0.00     0.044 C 
ATOM     23  C   UNL A   1      32.380  27.464  26.446  1.00  0.00     0.008 A 
ENDBRANCH  15  16
ENDBRANCH  14  15
ENDBRANCH  13  14
ENDBRANCH   8  13
ENDBRANCH   4   7
ENDBRANCH   2   3
ENDBRANCH   1   2
BRANCH   1  24
ATOM     24  C   UNL A   1      40.518  22.369  26.835  1.00  0.00     0.002 C 
BRANCH  24  25
ATOM     25  C   UNL A   1      41.676  21.386  27.021  1.00  0.00     0.002 C 
BRANCH  25  26
ATOM     26  C   UNL A   1      41.685  20.133  26.150  1.00  0.00     0.021 C 
BRANCH  26  27
ATOM     27  C   UNL A   1      42.884  19.219  26.330  1.00  0.00     0.116 C 
BRANCH  27  28
ATOM     28  N   UNL A   1      43.570  18.938  25.080  1.00  0.00    -0.352 N 
ATOM     29  C   UNL A   1      44.305  19.776  24.276  1.00  0.00     0.251 C 
ATOM     30  H   UNL A   1      43.496  18.009  24.761  1.00  0.00     0.163 HD
ATOM     31  O   UNL A   1      44.667  19.404  23.167  1.00  0.00    -0.269 OA
BRANCH  29  32
ATOM     32  C   UNL A   1      44.645  21.139  24.745  1.00  0.00     0.039 A 
ATOM     33  C   UNL A   1      44.203  22.243  24.011  1.00  0.00     0.014 A 
ATOM     34  C   UNL A   1      45.402  21.326  25.903  1.00  0.00     0.014 A 
ATOM     35  C   UNL A   1      44.470  23.534  24.474  1.00  0.00     0.010 A 
ATOM     36  C   UNL A   1      45.577  22.604  26.415  1.00  0.00     0.010 A 
ATOM     37  C   UNL A   1      45.129  23.722  25.698  1.00  0.00    -0.014 A 
BRANCH  37  38
ATOM     38  C   UNL A   1      45.405  25.075  26.242  1.00  0.00     0.031 A 
ATOM     39  C   UNL A   1      44.278  25.883  26.827  1.00  0.00     0.074 A 
ATOM     40  C   UNL A   1      46.638  25.605  26.132  1.00  0.00     0.049 A 
ATOM     41  N   UNL A   1      44.273  27.125  27.235  1.00  0.00    -0.248 NA
ATOM     42  C   UNL A   1      42.970  25.214  26.930  1.00  0.00     0.031 C 
ATOM     43  C   UNL A   1      47.800  24.935  25.546  1.00  0.00     0.029 A 
ATOM     44  N   UNL A   1      47.115  26.839  26.494  1.00  0.00    -0.354 N 
ATOM     45  C   UNL A   1      42.964  27.391  27.616  1.00  0.00     0.074 A 
ATOM     46  C   UNL A   1      42.190  26.204  27.333  1.00  0.00     0.031 C 
ATOM     47  C   UNL A   1      48.860  25.756  25.607  1.00  0.00     0.029 A 
ATOM     48  C   UNL A   1      48.443  27.026  26.193  1.00  0.00     0.049 A 
ATOM     49  H   UNL A   1      46.559  27.526  26.929  1.00  0.00     0.167 HD
ATOM     50  C   UNL A   1      42.458  28.514  28.178  1.00  0.00     0.037 A 
ATOM     51  C   UNL A   1      49.228  28.108  26.358  1.00  0.00     0.037 A 
ATOM     52  C   UNL A   1      43.243  29.680  28.483  1.00  0.00     0.049 A 
ATOM     53  C   UNL A   1      48.641  29.347  26.974  1.00  0.00     0.074 A 
ATOM     54  C   UNL A   1      42.845  30.851  29.102  1.00  0.00     0.029 A 
ATOM     55  N   UNL A   1      44.592  29.820  28.187  1.00  0.00    -0.354 N 
ATOM     56  N   UNL A   1      47.416  29.566  27.386  1.00  0.00    -0.248 NA
ATOM     57  C   UNL A   1      49.548  30.490  27.155  1.00  0.00     0.031 C 
ATOM     58  C   UNL A   1      43.939  31.719  29.136  1.00  0.00     0.029 A 
ATOM     59  C   UNL A   1      45.036  31.067  28.594  1.00  0.00     0.049 A 
ATOM     60  H   UNL A   1      45.150  29.135  27.754  1.00  0.00     0.167 HD
ATOM     61  C   UNL A   1      47.413  30.853  27.909  1.00  0.00     0.074 A 
ATOM     62  C   UNL A   1      48.760  31.363  27.768  1.00  0.00     0.031 C 
ATOM     63  C   UNL A   1      46.387  31.549  28.460  1.00  0.00     0.037 A 
BRANCH  50  64
ATOM     64  C   UNL A   1      40.990  28.531  28.497  1.00  0.00     0.057 A 
ATOM     65  C   UNL A   1      40.031  28.926  27.554  1.00  0.00     0.134 A 
ATOM     66  C   UNL A   1      40.525  28.124  29.753  1.00  0.00     0.134 A 
ATOM     67  F   UNL A   1      40.406  29.341  26.334  1.00  0.00    -0.206 F 
ATOM     68  C   UNL A   1      38.668  28.946  27.859  1.00  0.00     0.040 A 
ATOM     69  C   UNL A   1      39.164  28.107  30.060  1.00  0.00     0.040 A 
ATOM     70  F   UNL A   1      41.387  27.728  30.703  1.00  0.00    -0.206 F 
ATOM     71  C   UNL A   1      38.231  28.528  29.115  1.00  0.00     0.006 A 
ENDBRANCH  50  64
BRANCH  51  72
ATOM     72  C   UNL A   1      50.658  28.060  25.954  1.00  0.00     0.057 A 
ATOM     73  C   UNL A   1      51.670  27.875  26.904  1.00  0.00     0.134 A 
ATOM     74  C   UNL A   1      51.049  28.203  24.617  1.00  0.00     0.134 A 
ATOM     75  F   UNL A   1      51.361  27.747  28.203  1.00  0.00    -0.206 F 
ATOM     76  C   UNL A   1      53.019  27.857  26.544  1.00  0.00     0.040 A 
ATOM     77  C   UNL A   1      52.392  28.158  24.239  1.00  0.00     0.040 A 
ATOM     78  F   UNL A   1      50.129  28.372  23.656  1.00  0.00    -0.206 F 
ATOM     79  C   UNL A   1      53.382  27.994  25.206  1.00  0.00     0.006 A 
ENDBRANCH  51  72
BRANCH  63  80
ATOM     80  C   UNL A   1      46.693  32.914  29.004  1.00  0.00     0.057 A 
ATOM     81  C   UNL A   1      46.556  34.072  28.230  1.00  0.00     0.134 A 
ATOM     82  C   UNL A   1      47.080  33.070  30.341  1.00  0.00     0.134 A 
ATOM     83  F   UNL A   1      46.202  33.990  26.938  1.00  0.00    -0.206 F 
ATOM     84  C   UNL A   1      46.813  35.337  28.761  1.00  0.00     0.040 A 
ATOM     85  C   UNL A   1      47.309  34.332  30.893  1.00  0.00     0.040 A 
ATOM     86  F   UNL A   1      47.218  32.002  31.141  1.00  0.00    -0.206 F 
ATOM     87  C   UNL A   1      47.181  35.469  30.098  1.00  0.00     0.006 A 
ENDBRANCH  63  80
ENDBRANCH  37  38
ENDBRANCH  29  32
ENDBRANCH  27  28
ENDBRANCH  26  27
ENDBRANCH  25  26
ENDBRANCH  24  25
ENDBRANCH   1  24
TORSDOF 17
ENDMDL
MODEL 3
REMARK VINA RESULT:     -10.3      3.204      7.922
REMARK SMILES Cc1cc(C)cc(CSCc2cc(C(=O)NCCCCCCNC(=O)c3ccc(-c4c5nc(c(-c6c(F)cccc6F)c6ccc([nH]6)c(-c6c(F)cccc6F)c6nc(c(-c7c(F)cccc7F)c7ccc4[nH]7)C=C6)C=C5)cc3)c(C)o2)c1
REMARK SMILES IDX 18 1 17 2 16 3 14 4 15 5 13 7 11 8 12 9 82 10 80 11 81 12
REMARK SMILES IDX 10 13 9 14 8 15 7 16 1 17 2 18 3 19 83 20 4 21 5 22 6 23
REMARK SMILES IDX 19 24 20 25 21 26 22 27 23 28 24 29 25 31 26 32 27 33 79 34
REMARK SMILES IDX 28 35 78 36 29 37 30 38 31 39 72 40 32 41 77 42 71 43 73 44
REMARK SMILES IDX 33 45 76 46 70 47 69 48 34 50 60 51 43 52 59 53 44 54 47 55
REMARK SMILES IDX 58 56 74 57 45 58 46 59 57 61 75 62 48 63 35 64 36 65 41 66
REMARK SMILES IDX 37 67 38 68 40 69 42 70 39 71 61 72 62 73 67 74 63 75 64 76
REMARK SMILES IDX 66 77 68 78 65 79 49 80 50 81 55 82 51 83 52 84 54 85 56 86
REMARK SMILES IDX 53 87
REMARK H PARENT 16 6 23 30 73 49 47 60
REMARK Flexibility Score: inf
ROOT
ATOM      1  C   UNL A   1      39.289  21.457  26.059  1.00  0.00     0.021 C 
ENDROOT
BRANCH   1   2
ATOM      2  C   UNL A   1      38.163  22.470  25.843  1.00  0.00     0.116 C 
BRANCH   2   3
ATOM      3  N   UNL A   1      37.742  22.686  24.474  1.00  0.00    -0.352 N 
ATOM      4  C   UNL A   1      36.477  22.873  23.944  1.00  0.00     0.254 C 
ATOM      5  O   UNL A   1      36.416  23.060  22.730  1.00  0.00    -0.269 OA
ATOM      6  H   UNL A   1      38.472  22.703  23.816  1.00  0.00     0.163 HD
BRANCH   4   7
ATOM      7  C   UNL A   1      35.278  22.866  24.784  1.00  0.00     0.081 A 
ATOM      8  C   UNL A   1      33.435  23.443  25.980  1.00  0.00     0.114 A 
ATOM      9  C   UNL A   1      34.590  23.933  25.419  1.00  0.00     0.060 A 
ATOM     10  O   UNL A   1      33.406  22.093  25.828  1.00  0.00    -0.465 OA
ATOM     11  C   UNL A   1      34.519  21.742  25.111  1.00  0.00     0.113 A 
ATOM     12  C   UNL A   1      34.645  20.288  24.862  1.00  0.00     0.088 C 
BRANCH   8  13
ATOM     13  C   UNL A   1      32.279  24.080  26.662  1.00  0.00     0.145 C 
BRANCH  13  14
ATOM     14  S   UNL A   1      30.805  24.189  25.576  1.00  0.00    -0.149 SA
BRANCH  14  15
ATOM     15  C   UNL A   1      31.429  25.224  24.216  1.00  0.00     0.105 C 
BRANCH  15  16
ATOM     16  C   UNL A   1      31.241  26.716  24.340  1.00  0.00    -0.038 A 
ATOM     17  C   UNL A   1      32.092  29.529  26.794  1.00  0.00     0.044 C 
ATOM     18  C   UNL A   1      31.576  28.784  25.602  1.00  0.00    -0.051 A 
ATOM     19  C   UNL A   1      30.942  29.500  24.594  1.00  0.00     0.006 A 
ATOM     20  C   UNL A   1      31.706  27.393  25.480  1.00  0.00     0.008 A 
ATOM     21  C   UNL A   1      30.510  28.856  23.438  1.00  0.00    -0.051 A 
ATOM     22  C   UNL A   1      29.878  29.690  22.376  1.00  0.00     0.044 C 
ATOM     23  C   UNL A   1      30.652  27.467  23.312  1.00  0.00     0.008 A 
ENDBRANCH  15  16
ENDBRANCH  14  15
ENDBRANCH  13  14
ENDBRANCH   8  13
ENDBRANCH   4   7
ENDBRANCH   2   3
ENDBRANCH   1   2
BRANCH   1  24
ATOM     24  C   UNL A   1      40.639  21.925  26.609  1.00  0.00     0.002 C 
BRANCH  24  25
ATOM     25  C   UNL A   1      41.730  20.900  26.926  1.00  0.00     0.002 C 
BRANCH  25  26
ATOM     26  C   UNL A   1      41.835  19.680  26.017  1.00  0.00     0.021 C 
BRANCH  26  27
ATOM     27  C   UNL A   1      43.033  18.779  26.266  1.00  0.00     0.116 C 
BRANCH  27  28
ATOM     28  N   UNL A   1      43.862  18.606  25.085  1.00  0.00    -0.352 N 
ATOM     29  C   UNL A   1      44.535  19.546  24.341  1.00  0.00     0.251 C 
ATOM     30  H   UNL A   1      43.955  17.678  24.770  1.00  0.00     0.163 HD
ATOM     31  O   UNL A   1      45.046  19.234  23.272  1.00  0.00    -0.269 OA
BRANCH  29  32
ATOM     32  C   UNL A   1      44.627  20.943  24.824  1.00  0.00     0.039 A 
ATOM     33  C   UNL A   1      45.289  21.207  26.026  1.00  0.00     0.014 A 
ATOM     34  C   UNL A   1      44.056  21.987  24.094  1.00  0.00     0.014 A 
ATOM     35  C   UNL A   1      45.430  22.527  26.462  1.00  0.00     0.010 A 
ATOM     36  C   UNL A   1      44.286  23.302  24.474  1.00  0.00     0.010 A 
ATOM     37  C   UNL A   1      44.960  23.586  25.671  1.00  0.00    -0.014 A 
BRANCH  37  38
ATOM     38  C   UNL A   1      45.117  25.004  26.080  1.00  0.00     0.031 A 
ATOM     39  C   UNL A   1      46.474  25.650  26.011  1.00  0.00     0.074 A 
ATOM     40  C   UNL A   1      44.067  25.675  26.592  1.00  0.00     0.049 A 
ATOM     41  N   UNL A   1      46.856  26.825  26.438  1.00  0.00    -0.248 NA
ATOM     42  C   UNL A   1      47.556  24.849  25.414  1.00  0.00     0.031 C 
ATOM     43  C   UNL A   1      42.713  25.142  26.749  1.00  0.00     0.029 A 
ATOM     44  N   UNL A   1      43.981  26.950  27.091  1.00  0.00    -0.354 N 
ATOM     45  C   UNL A   1      48.220  26.892  26.187  1.00  0.00     0.074 A 
ATOM     46  C   UNL A   1      48.612  25.618  25.627  1.00  0.00     0.031 C 
ATOM     47  C   UNL A   1      41.927  26.087  27.287  1.00  0.00     0.029 A 
ATOM     48  C   UNL A   1      42.729  27.276  27.556  1.00  0.00     0.049 A 
ATOM     49  H   UNL A   1      44.744  27.573  27.115  1.00  0.00     0.167 HD
ATOM     50  C   UNL A   1      49.066  27.932  26.377  1.00  0.00     0.037 A 
ATOM     51  C   UNL A   1      42.286  28.403  28.145  1.00  0.00     0.037 A 
ATOM     52  C   UNL A   1      48.660  29.206  26.907  1.00  0.00     0.049 A 
ATOM     53  C   UNL A   1      43.246  29.541  28.356  1.00  0.00     0.074 A 
ATOM     54  C   UNL A   1      49.421  30.347  27.090  1.00  0.00     0.029 A 
ATOM     55  N   UNL A   1      47.376  29.506  27.340  1.00  0.00    -0.354 N 
ATOM     56  N   UNL A   1      44.521  29.614  28.058  1.00  0.00    -0.248 NA
ATOM     57  C   UNL A   1      42.705  30.757  28.980  1.00  0.00     0.031 C 
ATOM     58  C   UNL A   1      48.611  31.320  27.681  1.00  0.00     0.029 A 
ATOM     59  C   UNL A   1      47.329  30.808  27.809  1.00  0.00     0.049 A 
ATOM     60  H   UNL A   1      46.612  28.886  27.316  1.00  0.00     0.167 HD
ATOM     61  C   UNL A   1      44.925  30.892  28.422  1.00  0.00     0.074 A 
ATOM     62  C   UNL A   1      43.758  31.562  28.956  1.00  0.00     0.031 C 
ATOM     63  C   UNL A   1      46.152  31.462  28.320  1.00  0.00     0.037 A 
BRANCH  50  64
ATOM     64  C   UNL A   1      50.509  27.731  26.011  1.00  0.00     0.057 A 
ATOM     65  C   UNL A   1      51.476  27.393  26.967  1.00  0.00     0.134 A 
ATOM     66  C   UNL A   1      50.934  27.852  24.683  1.00  0.00     0.134 A 
ATOM     67  F   UNL A   1      51.142  27.273  28.261  1.00  0.00    -0.206 F 
ATOM     68  C   UNL A   1      52.817  27.214  26.621  1.00  0.00     0.040 A 
ATOM     69  C   UNL A   1      52.265  27.644  24.318  1.00  0.00     0.040 A 
ATOM     70  F   UNL A   1      50.062  28.169  23.714  1.00  0.00    -0.206 F 
ATOM     71  C   UNL A   1      53.213  27.332  25.290  1.00  0.00     0.006 A 
ENDBRANCH  50  64
BRANCH  51  72
ATOM     72  C   UNL A   1      40.862  28.519  28.557  1.00  0.00     0.057 A 
ATOM     73  C   UNL A   1      39.885  28.962  27.656  1.00  0.00     0.134 A 
ATOM     74  C   UNL A   1      40.444  28.198  29.854  1.00  0.00     0.134 A 
ATOM     75  F   UNL A   1      40.225  29.299  26.404  1.00  0.00    -0.206 F 
ATOM     76  C   UNL A   1      38.549  29.104  28.036  1.00  0.00     0.040 A 
ATOM     77  C   UNL A   1      39.107  28.309  30.240  1.00  0.00     0.040 A 
ATOM     78  F   UNL A   1      41.328  27.758  30.762  1.00  0.00    -0.206 F 
ATOM     79  C   UNL A   1      38.157  28.772  29.332  1.00  0.00     0.006 A 
ENDBRANCH  51  72
BRANCH  63  80
ATOM     80  C   UNL A   1      46.283  32.897  28.740  1.00  0.00     0.057 A 
ATOM     81  C   UNL A   1      46.645  33.262  30.042  1.00  0.00     0.134 A 
ATOM     82  C   UNL A   1      46.095  33.926  27.808  1.00  0.00     0.134 A 
ATOM     83  F   UNL A   1      46.827  32.325  30.986  1.00  0.00    -0.206 F 
ATOM     84  C   UNL A   1      46.795  34.600  30.408  1.00  0.00     0.040 A 
ATOM     85  C   UNL A   1      46.273  35.266  28.152  1.00  0.00     0.040 A 
ATOM     86  F   UNL A   1      45.758  33.644  26.540  1.00  0.00    -0.206 F 
ATOM     87  C   UNL A   1      46.618  35.605  29.459  1.00  0.00     0.006 A 
ENDBRANCH  63  80
ENDBRANCH  37  38
ENDBRANCH  29  32
ENDBRANCH  27  28
ENDBRANCH  26  27
ENDBRANCH  25  26
ENDBRANCH  24  25
ENDBRANCH   1  24
TORSDOF 17
ENDMDL
