MODEL 1
REMARK VINA RESULT:     -11.5      0.000      0.000
REMARK SMILES C[C@H](Oc1ccnc2c(F)cc(F)cc12)C(=O)NCCCCCCNC(=O)c1ccc(-c2c3nc(c(-c4c(F)cccc4F)c4ccc([nH]4)c(-c4c(F)cccc4F)c4nc(c(-c5c(F)cccc5F)c5ccc2[nH]5)C=C4)C=C3)cc1
REMARK SMILES IDX 21 1 20 2 19 3 18 4 16 5 17 6 2 8 1 9 3 10 4 11 5 12 15 13
REMARK SMILES IDX 6 14 8 15 14 16 7 17 9 18 12 19 10 20 11 21 13 22 22 23
REMARK SMILES IDX 23 24 24 25 25 26 26 27 27 29 28 30 29 31 81 32 30 33 80 34
REMARK SMILES IDX 31 35 32 36 33 37 74 38 34 39 79 40 73 41 75 42 35 43 78 44
REMARK SMILES IDX 72 45 71 46 36 48 62 49 45 50 61 51 46 52 49 53 60 54 76 55
REMARK SMILES IDX 47 56 48 57 59 59 77 60 50 61 37 62 38 63 43 64 39 65 40 66
REMARK SMILES IDX 42 67 44 68 41 69 63 70 64 71 69 72 65 73 66 74 68 75 70 76
REMARK SMILES IDX 67 77 51 78 52 79 57 80 53 81 54 82 56 83 58 84 55 85
REMARK H PARENT 18 7 25 28 75 47 49 58
REMARK Flexibility Score: inf
ROOT
ATOM      1  C   UNL A   1      32.545  30.038  26.885  1.00  0.00     0.002 C 
ENDROOT
BRANCH   1   2
ATOM      2  C   UNL A   1      32.211  28.595  27.279  1.00  0.00     0.021 C 
BRANCH   2   3
ATOM      3  C   UNL A   1      31.783  27.690  26.126  1.00  0.00     0.116 C 
BRANCH   3   4
ATOM      4  N   UNL A   1      30.918  26.615  26.569  1.00  0.00    -0.353 N 
ATOM      5  C   UNL A   1      29.954  25.933  25.892  1.00  0.00     0.260 C 
ATOM      6  O   UNL A   1      29.323  25.064  26.500  1.00  0.00    -0.271 OA
ATOM      7  H   UNL A   1      31.048  26.334  27.504  1.00  0.00     0.163 HD
BRANCH   5   8
ATOM      8  C   UNL A   1      29.671  26.209  24.401  1.00  0.00     0.258 C 
ATOM      9  C   UNL A   1      28.173  26.451  24.205  1.00  0.00     0.064 C 
BRANCH   8  10
ATOM     10  O   UNL A   1      30.084  25.199  23.486  1.00  0.00    -0.480 OA
BRANCH  10  11
ATOM     11  C   UNL A   1      31.395  25.175  23.074  1.00  0.00     0.131 A 
ATOM     12  C   UNL A   1      32.014  26.197  22.362  1.00  0.00     0.067 A 
ATOM     13  C   UNL A   1      32.132  24.015  23.412  1.00  0.00     0.048 A 
ATOM     14  C   UNL A   1      33.343  26.045  22.029  1.00  0.00     0.115 A 
ATOM     15  C   UNL A   1      33.490  23.957  23.024  1.00  0.00     0.110 A 
ATOM     16  C   UNL A   1      31.572  22.929  24.123  1.00  0.00     0.053 A 
ATOM     17  N   UNL A   1      34.080  24.963  22.346  1.00  0.00    -0.253 NA
ATOM     18  C   UNL A   1      34.221  22.816  23.366  1.00  0.00     0.152 A 
ATOM     19  C   UNL A   1      32.340  21.817  24.440  1.00  0.00     0.127 A 
ATOM     20  F   UNL A   1      35.515  22.723  23.018  1.00  0.00    -0.204 F 
ATOM     21  C   UNL A   1      33.668  21.748  24.067  1.00  0.00     0.080 A 
ATOM     22  F   UNL A   1      31.788  20.804  25.119  1.00  0.00    -0.207 F 
ENDBRANCH  10  11
ENDBRANCH   8  10
ENDBRANCH   5   8
ENDBRANCH   3   4
ENDBRANCH   2   3
ENDBRANCH   1   2
BRANCH   1  23
ATOM     23  C   UNL A   1      31.419  30.819  26.199  1.00  0.00     0.002 C 
BRANCH  23  24
ATOM     24  C   UNL A   1      31.360  32.311  26.525  1.00  0.00     0.021 C 
BRANCH  24  25
ATOM     25  C   UNL A   1      32.688  32.927  26.951  1.00  0.00     0.116 C 
BRANCH  25  26
ATOM     26  N   UNL A   1      32.511  34.181  27.662  1.00  0.00    -0.352 N 
ATOM     27  C   UNL A   1      33.174  34.637  28.775  1.00  0.00     0.251 C 
ATOM     28  H   UNL A   1      31.825  34.786  27.297  1.00  0.00     0.163 HD
ATOM     29  O   UNL A   1      32.800  35.648  29.359  1.00  0.00    -0.269 OA
BRANCH  27  30
ATOM     30  C   UNL A   1      34.337  33.880  29.277  1.00  0.00     0.039 A 
ATOM     31  C   UNL A   1      35.621  34.286  28.906  1.00  0.00     0.014 A 
ATOM     32  C   UNL A   1      34.153  32.779  30.119  1.00  0.00     0.014 A 
ATOM     33  C   UNL A   1      36.731  33.616  29.424  1.00  0.00     0.010 A 
ATOM     34  C   UNL A   1      35.260  32.146  30.676  1.00  0.00     0.010 A 
ATOM     35  C   UNL A   1      36.557  32.554  30.325  1.00  0.00    -0.014 A 
BRANCH  35  36
ATOM     36  C   UNL A   1      37.721  31.819  30.870  1.00  0.00     0.031 A 
ATOM     37  C   UNL A   1      38.222  32.144  32.249  1.00  0.00     0.074 A 
ATOM     38  C   UNL A   1      38.350  30.898  30.118  1.00  0.00     0.049 A 
ATOM     39  N   UNL A   1      39.240  31.643  32.899  1.00  0.00    -0.248 NA
ATOM     40  C   UNL A   1      37.488  33.185  32.985  1.00  0.00     0.031 C 
ATOM     41  C   UNL A   1      37.972  30.512  28.757  1.00  0.00     0.029 A 
ATOM     42  N   UNL A   1      39.445  30.120  30.394  1.00  0.00    -0.354 N 
ATOM     43  C   UNL A   1      39.265  32.302  34.121  1.00  0.00     0.074 A 
ATOM     44  C   UNL A   1      38.201  33.282  34.096  1.00  0.00     0.031 C 
ATOM     45  C   UNL A   1      38.813  29.558  28.324  1.00  0.00     0.029 A 
ATOM     46  C   UNL A   1      39.801  29.285  29.363  1.00  0.00     0.049 A 
ATOM     47  H   UNL A   1      39.931  30.158  31.249  1.00  0.00     0.167 HD
ATOM     48  C   UNL A   1      40.082  32.092  35.180  1.00  0.00     0.037 A 
ATOM     49  C   UNL A   1      40.812  28.401  29.274  1.00  0.00     0.037 A 
ATOM     50  C   UNL A   1      41.140  31.118  35.204  1.00  0.00     0.049 A 
ATOM     51  C   UNL A   1      41.745  28.229  30.443  1.00  0.00     0.074 A 
ATOM     52  C   UNL A   1      42.003  30.802  36.239  1.00  0.00     0.029 A 
ATOM     53  N   UNL A   1      41.484  30.305  34.134  1.00  0.00    -0.354 N 
ATOM     54  N   UNL A   1      41.719  28.813  31.617  1.00  0.00    -0.248 NA
ATOM     55  C   UNL A   1      42.845  27.271  30.272  1.00  0.00     0.031 C 
ATOM     56  C   UNL A   1      42.894  29.824  35.782  1.00  0.00     0.029 A 
ATOM     57  C   UNL A   1      42.562  29.505  34.475  1.00  0.00     0.049 A 
ATOM     58  H   UNL A   1      41.030  30.299  33.261  1.00  0.00     0.167 HD
ATOM     59  C   UNL A   1      42.778  28.271  32.334  1.00  0.00     0.074 A 
ATOM     60  C   UNL A   1      43.418  27.304  31.466  1.00  0.00     0.031 C 
ATOM     61  C   UNL A   1      43.181  28.545  33.598  1.00  0.00     0.037 A 
BRANCH  48  62
ATOM     62  C   UNL A   1      39.849  32.939  36.395  1.00  0.00     0.057 A 
ATOM     63  C   UNL A   1      40.571  34.121  36.597  1.00  0.00     0.134 A 
ATOM     64  C   UNL A   1      38.897  32.589  37.362  1.00  0.00     0.134 A 
ATOM     65  F   UNL A   1      41.498  34.514  35.710  1.00  0.00    -0.206 F 
ATOM     66  C   UNL A   1      40.348  34.930  37.713  1.00  0.00     0.040 A 
ATOM     67  C   UNL A   1      38.646  33.402  38.469  1.00  0.00     0.040 A 
ATOM     68  F   UNL A   1      38.160  31.477  37.219  1.00  0.00    -0.206 F 
ATOM     69  C   UNL A   1      39.377  34.575  38.648  1.00  0.00     0.006 A 
ENDBRANCH  48  62
BRANCH  49  70
ATOM     70  C   UNL A   1      40.990  27.585  28.049  1.00  0.00     0.057 A 
ATOM     71  C   UNL A   1      40.382  26.332  27.905  1.00  0.00     0.134 A 
ATOM     72  C   UNL A   1      41.749  28.062  26.973  1.00  0.00     0.134 A 
ATOM     73  F   UNL A   1      39.645  25.819  28.900  1.00  0.00    -0.206 F 
ATOM     74  C   UNL A   1      40.520  25.585  26.733  1.00  0.00     0.040 A 
ATOM     75  C   UNL A   1      41.879  27.335  25.790  1.00  0.00     0.040 A 
ATOM     76  F   UNL A   1      42.338  29.265  27.046  1.00  0.00    -0.206 F 
ATOM     77  C   UNL A   1      41.264  26.091  25.668  1.00  0.00     0.006 A 
ENDBRANCH  49  70
BRANCH  61  78
ATOM     78  C   UNL A   1      44.349  27.762  34.123  1.00  0.00     0.057 A 
ATOM     79  C   UNL A   1      45.654  28.250  33.982  1.00  0.00     0.134 A 
ATOM     80  C   UNL A   1      44.184  26.521  34.749  1.00  0.00     0.134 A 
ATOM     81  F   UNL A   1      45.880  29.430  33.385  1.00  0.00    -0.206 F 
ATOM     82  C   UNL A   1      46.755  27.530  34.447  1.00  0.00     0.040 A 
ATOM     83  C   UNL A   1      45.276  25.803  35.241  1.00  0.00     0.040 A 
ATOM     84  F   UNL A   1      42.958  26.007  34.929  1.00  0.00    -0.206 F 
ATOM     85  C   UNL A   1      46.567  26.306  35.084  1.00  0.00     0.006 A 
ENDBRANCH  61  78
ENDBRANCH  35  36
ENDBRANCH  27  30
ENDBRANCH  25  26
ENDBRANCH  24  25
ENDBRANCH  23  24
ENDBRANCH   1  23
TORSDOF 15
ENDMDL
MODEL 2
REMARK VINA RESULT:     -11.5      1.000      6.184
REMARK SMILES C[C@H](Oc1ccnc2c(F)cc(F)cc12)C(=O)NCCCCCCNC(=O)c1ccc(-c2c3nc(c(-c4c(F)cccc4F)c4ccc([nH]4)c(-c4c(F)cccc4F)c4nc(c(-c5c(F)cccc5F)c5ccc2[nH]5)C=C4)C=C3)cc1
REMARK SMILES IDX 21 1 20 2 19 3 18 4 16 5 17 6 2 8 1 9 3 10 4 11 5 12 15 13
REMARK SMILES IDX 6 14 8 15 14 16 7 17 9 18 12 19 10 20 11 21 13 22 22 23
REMARK SMILES IDX 23 24 24 25 25 26 26 27 27 29 28 30 29 31 81 32 30 33 80 34
REMARK SMILES IDX 31 35 32 36 33 37 74 38 34 39 79 40 73 41 75 42 35 43 78 44
REMARK SMILES IDX 72 45 71 46 36 48 62 49 45 50 61 51 46 52 49 53 60 54 76 55
REMARK SMILES IDX 47 56 48 57 59 59 77 60 50 61 37 62 38 63 43 64 39 65 40 66
REMARK SMILES IDX 42 67 44 68 41 69 63 70 64 71 69 72 65 73 66 74 68 75 70 76
REMARK SMILES IDX 67 77 51 78 52 79 57 80 53 81 54 82 56 83 58 84 55 85
REMARK H PARENT 18 7 25 28 75 47 49 58
REMARK Flexibility Score: inf
ROOT
ATOM      1  C   UNL A   1      32.583  29.886  27.222  1.00  0.00     0.002 C 
ENDROOT
BRANCH   1   2
ATOM      2  C   UNL A   1      32.741  28.390  26.924  1.00  0.00     0.021 C 
BRANCH   2   3
ATOM      3  C   UNL A   1      31.775  27.832  25.880  1.00  0.00     0.116 C 
BRANCH   3   4
ATOM      4  N   UNL A   1      30.971  26.747  26.408  1.00  0.00    -0.353 N 
ATOM      5  C   UNL A   1      30.002  26.005  25.805  1.00  0.00     0.260 C 
ATOM      6  O   UNL A   1      29.432  25.140  26.478  1.00  0.00    -0.271 OA
ATOM      7  H   UNL A   1      31.154  26.511  27.345  1.00  0.00     0.163 HD
BRANCH   5   8
ATOM      8  C   UNL A   1      29.640  26.208  24.320  1.00  0.00     0.258 C 
ATOM      9  C   UNL A   1      28.125  26.376  24.185  1.00  0.00     0.064 C 
BRANCH   8  10
ATOM     10  O   UNL A   1      30.057  25.182  23.426  1.00  0.00    -0.480 OA
BRANCH  10  11
ATOM     11  C   UNL A   1      31.369  25.151  23.018  1.00  0.00     0.131 A 
ATOM     12  C   UNL A   1      31.986  26.155  22.280  1.00  0.00     0.067 A 
ATOM     13  C   UNL A   1      32.110  24.004  23.392  1.00  0.00     0.048 A 
ATOM     14  C   UNL A   1      33.318  26.000  21.956  1.00  0.00     0.115 A 
ATOM     15  C   UNL A   1      33.469  23.941  23.009  1.00  0.00     0.110 A 
ATOM     16  C   UNL A   1      31.552  22.937  24.131  1.00  0.00     0.053 A 
ATOM     17  N   UNL A   1      34.057  24.929  22.305  1.00  0.00    -0.253 NA
ATOM     18  C   UNL A   1      34.203  22.813  23.387  1.00  0.00     0.152 A 
ATOM     19  C   UNL A   1      32.323  21.838  24.482  1.00  0.00     0.127 A 
ATOM     20  F   UNL A   1      35.499  22.715  23.045  1.00  0.00    -0.204 F 
ATOM     21  C   UNL A   1      33.652  21.763  24.116  1.00  0.00     0.080 A 
ATOM     22  F   UNL A   1      31.773  20.842  25.188  1.00  0.00    -0.207 F 
ENDBRANCH  10  11
ENDBRANCH   8  10
ENDBRANCH   5   8
ENDBRANCH   3   4
ENDBRANCH   2   3
ENDBRANCH   1   2
BRANCH   1  23
ATOM     23  C   UNL A   1      31.623  30.651  26.305  1.00  0.00     0.002 C 
BRANCH  23  24
ATOM     24  C   UNL A   1      31.433  32.130  26.641  1.00  0.00     0.021 C 
BRANCH  24  25
ATOM     25  C   UNL A   1      32.677  32.832  27.173  1.00  0.00     0.116 C 
BRANCH  25  26
ATOM     26  N   UNL A   1      32.414  34.209  27.550  1.00  0.00    -0.352 N 
ATOM     27  C   UNL A   1      32.989  34.948  28.554  1.00  0.00     0.251 C 
ATOM     28  H   UNL A   1      31.732  34.676  27.014  1.00  0.00     0.163 HD
ATOM     29  O   UNL A   1      32.545  36.051  28.857  1.00  0.00    -0.269 OA
BRANCH  27  30
ATOM     30  C   UNL A   1      34.143  34.389  29.285  1.00  0.00     0.039 A 
ATOM     31  C   UNL A   1      33.918  33.690  30.473  1.00  0.00     0.014 A 
ATOM     32  C   UNL A   1      35.440  34.552  28.787  1.00  0.00     0.014 A 
ATOM     33  C   UNL A   1      34.996  33.104  31.140  1.00  0.00     0.010 A 
ATOM     34  C   UNL A   1      36.505  33.923  29.424  1.00  0.00     0.010 A 
ATOM     35  C   UNL A   1      36.292  33.203  30.611  1.00  0.00    -0.014 A 
BRANCH  35  36
ATOM     36  C   UNL A   1      37.449  32.604  31.315  1.00  0.00     0.031 A 
ATOM     37  C   UNL A   1      38.133  31.403  30.727  1.00  0.00     0.074 A 
ATOM     38  C   UNL A   1      37.857  33.110  32.493  1.00  0.00     0.049 A 
ATOM     39  N   UNL A   1      39.139  30.711  31.195  1.00  0.00    -0.248 NA
ATOM     40  C   UNL A   1      37.598  30.904  29.449  1.00  0.00     0.031 C 
ATOM     41  C   UNL A   1      37.261  34.259  33.176  1.00  0.00     0.029 A 
ATOM     42  N   UNL A   1      38.872  32.716  33.327  1.00  0.00    -0.354 N 
ATOM     43  C   UNL A   1      39.362  29.701  30.268  1.00  0.00     0.074 A 
ATOM     44  C   UNL A   1      38.347  29.832  29.246  1.00  0.00     0.031 C 
ATOM     45  C   UNL A   1      37.932  34.487  34.317  1.00  0.00     0.029 A 
ATOM     46  C   UNL A   1      38.986  33.487  34.458  1.00  0.00     0.049 A 
ATOM     47  H   UNL A   1      39.462  31.953  33.133  1.00  0.00     0.167 HD
ATOM     48  C   UNL A   1      40.340  28.765  30.255  1.00  0.00     0.037 A 
ATOM     49  C   UNL A   1      39.847  33.392  35.488  1.00  0.00     0.037 A 
ATOM     50  C   UNL A   1      41.348  28.635  31.273  1.00  0.00     0.049 A 
ATOM     51  C   UNL A   1      40.887  32.305  35.480  1.00  0.00     0.074 A 
ATOM     52  C   UNL A   1      42.404  27.742  31.336  1.00  0.00     0.029 A 
ATOM     53  N   UNL A   1      41.419  29.420  32.414  1.00  0.00    -0.354 N 
ATOM     54  N   UNL A   1      41.128  31.394  34.567  1.00  0.00    -0.248 NA
ATOM     55  C   UNL A   1      41.777  32.236  36.647  1.00  0.00     0.031 C 
ATOM     56  C   UNL A   1      43.091  27.964  32.535  1.00  0.00     0.029 A 
ATOM     57  C   UNL A   1      42.486  29.018  33.200  1.00  0.00     0.049 A 
ATOM     58  H   UNL A   1      40.800  30.154  32.633  1.00  0.00     0.167 HD
ATOM     59  C   UNL A   1      42.216  30.667  35.034  1.00  0.00     0.074 A 
ATOM     60  C   UNL A   1      42.593  31.249  36.305  1.00  0.00     0.031 C 
ATOM     61  C   UNL A   1      42.847  29.614  34.460  1.00  0.00     0.037 A 
BRANCH  48  62
ATOM     62  C   UNL A   1      40.354  27.816  29.095  1.00  0.00     0.057 A 
ATOM     63  C   UNL A   1      41.145  28.068  27.968  1.00  0.00     0.134 A 
ATOM     64  C   UNL A   1      39.590  26.640  29.099  1.00  0.00     0.134 A 
ATOM     65  F   UNL A   1      41.899  29.175  27.898  1.00  0.00    -0.206 F 
ATOM     66  C   UNL A   1      41.183  27.180  26.890  1.00  0.00     0.040 A 
ATOM     67  C   UNL A   1      39.639  25.733  28.040  1.00  0.00     0.040 A 
ATOM     68  F   UNL A   1      38.824  26.332  30.157  1.00  0.00    -0.206 F 
ATOM     69  C   UNL A   1      40.435  26.005  26.930  1.00  0.00     0.006 A 
ENDBRANCH  48  62
BRANCH  49  70
ATOM     70  C   UNL A   1      39.789  34.364  36.607  1.00  0.00     0.057 A 
ATOM     71  C   UNL A   1      39.071  34.095  37.778  1.00  0.00     0.134 A 
ATOM     72  C   UNL A   1      40.488  35.575  36.541  1.00  0.00     0.134 A 
ATOM     73  F   UNL A   1      38.379  32.953  37.901  1.00  0.00    -0.206 F 
ATOM     74  C   UNL A   1      39.053  34.995  38.845  1.00  0.00     0.040 A 
ATOM     75  C   UNL A   1      40.494  36.475  37.607  1.00  0.00     0.040 A 
ATOM     76  F   UNL A   1      41.210  35.878  35.453  1.00  0.00    -0.206 F 
ATOM     77  C   UNL A   1      39.773  36.186  38.764  1.00  0.00     0.006 A 
ENDBRANCH  49  70
BRANCH  61  78
ATOM     78  C   UNL A   1      44.031  29.052  35.192  1.00  0.00     0.057 A 
ATOM     79  C   UNL A   1      45.325  29.508  34.910  1.00  0.00     0.134 A 
ATOM     80  C   UNL A   1      43.892  28.048  36.158  1.00  0.00     0.134 A 
ATOM     81  F   UNL A   1      45.525  30.464  33.990  1.00  0.00    -0.206 F 
ATOM     82  C   UNL A   1      46.440  28.986  35.566  1.00  0.00     0.040 A 
ATOM     83  C   UNL A   1      44.998  27.536  36.839  1.00  0.00     0.040 A 
ATOM     84  F   UNL A   1      42.678  27.581  36.484  1.00  0.00    -0.206 F 
ATOM     85  C   UNL A   1      46.278  28.001  36.538  1.00  0.00     0.006 A 
ENDBRANCH  61  78
ENDBRANCH  35  36
ENDBRANCH  27  30
ENDBRANCH  25  26
ENDBRANCH  24  25
ENDBRANCH  23  24
ENDBRANCH   1  23
TORSDOF 15
ENDMDL
MODEL 3
REMARK VINA RESULT:     -11.5      4.439      9.369
REMARK SMILES C[C@H](Oc1ccnc2c(F)cc(F)cc12)C(=O)NCCCCCCNC(=O)c1ccc(-c2c3nc(c(-c4c(F)cccc4F)c4ccc([nH]4)c(-c4c(F)cccc4F)c4nc(c(-c5c(F)cccc5F)c5ccc2[nH]5)C=C4)C=C3)cc1
REMARK SMILES IDX 21 1 20 2 19 3 18 4 16 5 17 6 2 8 1 9 3 10 4 11 5 12 15 13
REMARK SMILES IDX 6 14 8 15 14 16 7 17 9 18 12 19 10 20 11 21 13 22 22 23
REMARK SMILES IDX 23 24 24 25 25 26 26 27 27 29 28 30 29 31 81 32 30 33 80 34
REMARK SMILES IDX 31 35 32 36 33 37 74 38 34 39 79 40 73 41 75 42 35 43 78 44
REMARK SMILES IDX 72 45 71 46 36 48 62 49 45 50 61 51 46 52 49 53 60 54 76 55
REMARK SMILES IDX 47 56 48 57 59 59 77 60 50 61 37 62 38 63 43 64 39 65 40 66
REMARK SMILES IDX 42 67 44 68 41 69 63 70 64 71 69 72 65 73 66 74 68 75 70 76
REMARK SMILES IDX 67 77 51 78 52 79 57 80 53 81 54 82 56 83 58 84 55 85
REMARK H PARENT 18 7 25 28 75 47 49 58
REMARK Flexibility Score: inf
ROOT
ATOM      1  C   UNL A   1      36.021  21.034  25.423  1.00  0.00     0.002 C 
ENDROOT
BRANCH   1   2
ATOM      2  C   UNL A   1      34.815  20.206  24.966  1.00  0.00     0.021 C 
BRANCH   2   3
ATOM      3  C   UNL A   1      33.474  20.937  25.003  1.00  0.00     0.116 C 
BRANCH   3   4
ATOM      4  N   UNL A   1      33.078  21.278  26.355  1.00  0.00    -0.353 N 
ATOM      5  C   UNL A   1      32.832  22.496  26.912  1.00  0.00     0.260 C 
ATOM      6  O   UNL A   1      32.529  22.536  28.108  1.00  0.00    -0.271 OA
ATOM      7  H   UNL A   1      32.970  20.513  26.964  1.00  0.00     0.163 HD
BRANCH   5   8
ATOM      8  C   UNL A   1      32.896  23.791  26.076  1.00  0.00     0.258 C 
ATOM      9  C   UNL A   1      34.341  24.288  26.021  1.00  0.00     0.064 C 
BRANCH   8  10
ATOM     10  O   UNL A   1      32.070  24.864  26.516  1.00  0.00    -0.480 OA
BRANCH  10  11
ATOM     11  C   UNL A   1      31.377  25.594  25.580  1.00  0.00     0.131 A 
ATOM     12  C   UNL A   1      30.530  25.043  24.624  1.00  0.00     0.067 A 
ATOM     13  C   UNL A   1      31.564  26.996  25.620  1.00  0.00     0.048 A 
ATOM     14  C   UNL A   1      29.882  25.898  23.758  1.00  0.00     0.115 A 
ATOM     15  C   UNL A   1      30.855  27.786  24.688  1.00  0.00     0.110 A 
ATOM     16  C   UNL A   1      32.417  27.630  26.553  1.00  0.00     0.053 A 
ATOM     17  N   UNL A   1      30.026  27.238  23.777  1.00  0.00    -0.253 NA
ATOM     18  C   UNL A   1      31.033  29.171  24.734  1.00  0.00     0.152 A 
ATOM     19  C   UNL A   1      32.560  29.011  26.559  1.00  0.00     0.127 A 
ATOM     20  F   UNL A   1      30.374  29.958  23.866  1.00  0.00    -0.204 F 
ATOM     21  C   UNL A   1      31.872  29.794  25.653  1.00  0.00     0.080 A 
ATOM     22  F   UNL A   1      33.369  29.589  27.455  1.00  0.00    -0.207 F 
ENDBRANCH  10  11
ENDBRANCH   8  10
ENDBRANCH   5   8
ENDBRANCH   3   4
ENDBRANCH   2   3
ENDBRANCH   1   2
BRANCH   1  23
ATOM     23  C   UNL A   1      37.289  20.889  24.575  1.00  0.00     0.002 C 
BRANCH  23  24
ATOM     24  C   UNL A   1      38.168  19.684  24.906  1.00  0.00     0.021 C 
BRANCH  24  25
ATOM     25  C   UNL A   1      39.181  19.916  26.020  1.00  0.00     0.116 C 
BRANCH  25  26
ATOM     26  N   UNL A   1      40.369  19.095  25.865  1.00  0.00    -0.352 N 
ATOM     27  C   UNL A   1      41.686  19.461  25.991  1.00  0.00     0.251 C 
ATOM     28  H   UNL A   1      40.209  18.150  25.639  1.00  0.00     0.163 HD
ATOM     29  O   UNL A   1      42.586  18.693  25.668  1.00  0.00    -0.269 OA
BRANCH  27  30
ATOM     30  C   UNL A   1      42.012  20.806  26.504  1.00  0.00     0.039 A 
ATOM     31  C   UNL A   1      42.338  21.817  25.597  1.00  0.00     0.014 A 
ATOM     32  C   UNL A   1      41.983  21.064  27.878  1.00  0.00     0.014 A 
ATOM     33  C   UNL A   1      42.587  23.107  26.066  1.00  0.00     0.010 A 
ATOM     34  C   UNL A   1      42.178  22.362  28.339  1.00  0.00     0.010 A 
ATOM     35  C   UNL A   1      42.492  23.391  27.437  1.00  0.00    -0.014 A 
BRANCH  35  36
ATOM     36  C   UNL A   1      42.771  24.750  27.955  1.00  0.00     0.031 A 
ATOM     37  C   UNL A   1      44.184  25.141  28.282  1.00  0.00     0.074 A 
ATOM     38  C   UNL A   1      41.760  25.611  28.169  1.00  0.00     0.049 A 
ATOM     39  N   UNL A   1      44.640  26.265  28.772  1.00  0.00    -0.248 NA
ATOM     40  C   UNL A   1      45.219  24.123  28.041  1.00  0.00     0.031 C 
ATOM     41  C   UNL A   1      40.345  25.340  27.912  1.00  0.00     0.029 A 
ATOM     42  N   UNL A   1      41.771  26.893  28.657  1.00  0.00    -0.354 N 
ATOM     43  C   UNL A   1      46.012  26.092  28.892  1.00  0.00     0.074 A 
ATOM     44  C   UNL A   1      46.306  24.735  28.484  1.00  0.00     0.031 C 
ATOM     45  C   UNL A   1      39.626  26.429  28.230  1.00  0.00     0.029 A 
ATOM     46  C   UNL A   1      40.524  27.463  28.736  1.00  0.00     0.049 A 
ATOM     47  H   UNL A   1      42.594  27.360  28.926  1.00  0.00     0.167 HD
ATOM     48  C   UNL A   1      46.948  26.990  29.280  1.00  0.00     0.037 A 
ATOM     49  C   UNL A   1      40.154  28.683  29.168  1.00  0.00     0.037 A 
ATOM     50  C   UNL A   1      46.656  28.338  29.686  1.00  0.00     0.049 A 
ATOM     51  C   UNL A   1      41.208  29.642  29.652  1.00  0.00     0.074 A 
ATOM     52  C   UNL A   1      47.534  29.338  30.065  1.00  0.00     0.029 A 
ATOM     53  N   UNL A   1      45.379  28.873  29.774  1.00  0.00    -0.354 N 
ATOM     54  N   UNL A   1      42.509  29.489  29.702  1.00  0.00    -0.248 NA
ATOM     55  C   UNL A   1      40.737  30.946  30.139  1.00  0.00     0.031 C 
ATOM     56  C   UNL A   1      46.785  30.467  30.418  1.00  0.00     0.029 A 
ATOM     57  C   UNL A   1      45.443  30.181  30.223  1.00  0.00     0.049 A 
ATOM     58  H   UNL A   1      44.549  28.393  29.550  1.00  0.00     0.167 HD
ATOM     59  C   UNL A   1      43.014  30.686  30.193  1.00  0.00     0.074 A 
ATOM     60  C   UNL A   1      41.880  31.558  30.416  1.00  0.00     0.031 C 
ATOM     61  C   UNL A   1      44.301  31.034  30.434  1.00  0.00     0.037 A 
BRANCH  48  62
ATOM     62  C   UNL A   1      48.374  26.527  29.277  1.00  0.00     0.057 A 
ATOM     63  C   UNL A   1      49.196  26.733  28.163  1.00  0.00     0.134 A 
ATOM     64  C   UNL A   1      48.939  25.885  30.388  1.00  0.00     0.134 A 
ATOM     65  F   UNL A   1      48.717  27.340  27.066  1.00  0.00    -0.206 F 
ATOM     66  C   UNL A   1      50.531  26.325  28.157  1.00  0.00     0.040 A 
ATOM     67  C   UNL A   1      50.279  25.496  30.404  1.00  0.00     0.040 A 
ATOM     68  F   UNL A   1      48.210  25.673  31.494  1.00  0.00    -0.206 F 
ATOM     69  C   UNL A   1      51.078  25.713  29.283  1.00  0.00     0.006 A 
ENDBRANCH  48  62
BRANCH  49  70
ATOM     70  C   UNL A   1      38.728  29.088  29.142  1.00  0.00     0.057 A 
ATOM     71  C   UNL A   1      37.915  28.987  30.277  1.00  0.00     0.134 A 
ATOM     72  C   UNL A   1      38.155  29.625  27.983  1.00  0.00     0.134 A 
ATOM     73  F   UNL A   1      38.403  28.479  31.418  1.00  0.00    -0.206 F 
ATOM     74  C   UNL A   1      36.583  29.408  30.260  1.00  0.00     0.040 A 
ATOM     75  C   UNL A   1      36.833  30.067  27.957  1.00  0.00     0.040 A 
ATOM     76  F   UNL A   1      38.892  29.765  26.871  1.00  0.00    -0.206 F 
ATOM     77  C   UNL A   1      36.042  29.958  29.099  1.00  0.00     0.006 A 
ENDBRANCH  49  70
BRANCH  61  78
ATOM     78  C   UNL A   1      44.546  32.427  30.934  1.00  0.00     0.057 A 
ATOM     79  C   UNL A   1      44.759  33.480  30.034  1.00  0.00     0.134 A 
ATOM     80  C   UNL A   1      44.590  32.724  32.301  1.00  0.00     0.134 A 
ATOM     81  F   UNL A   1      44.735  33.260  28.711  1.00  0.00    -0.206 F 
ATOM     82  C   UNL A   1      45.005  34.780  30.478  1.00  0.00     0.040 A 
ATOM     83  C   UNL A   1      44.811  34.024  32.757  1.00  0.00     0.040 A 
ATOM     84  F   UNL A   1      44.378  31.763  33.213  1.00  0.00    -0.206 F 
ATOM     85  C   UNL A   1      45.026  35.056  31.844  1.00  0.00     0.006 A 
ENDBRANCH  61  78
ENDBRANCH  35  36
ENDBRANCH  27  30
ENDBRANCH  25  26
ENDBRANCH  24  25
ENDBRANCH  23  24
ENDBRANCH   1  23
TORSDOF 15
ENDMDL
