MODEL 1
REMARK VINA RESULT:     -11.1      0.000      0.000
REMARK SMILES CC1(C)CSC[C@@H]([N@H+]2CCC[C@H](CCC(=O)NCCCCCCNC(=O)c3ccc(-c4c5nc(c(-c6c(F)cccc6F)c6ccc([nH]6)c(-c6c(F)cccc6F)c6nc(c(-c7c(F)cccc7F)c7ccc4[nH]7)C=C6)C=C5)cc3)C2)C1
REMARK SMILES IDX 20 1 19 2 18 3 17 4 15 5 16 6 14 8 13 9 12 10 8 11 9 12
REMARK SMILES IDX 81 13 10 15 11 16 7 17 1 18 2 19 3 20 4 21 82 22 5 23 6 24
REMARK SMILES IDX 21 25 22 26 23 27 24 28 25 29 26 31 27 32 28 33 80 34 29 35
REMARK SMILES IDX 79 36 30 37 31 38 32 39 73 40 33 41 78 42 72 43 74 44 34 45
REMARK SMILES IDX 77 46 71 47 70 48 35 50 61 51 44 52 60 53 45 54 48 55 59 56
REMARK SMILES IDX 75 57 46 58 47 59 58 61 76 62 49 63 36 64 37 65 42 66 38 67
REMARK SMILES IDX 39 68 41 69 43 70 40 71 62 72 63 73 68 74 64 75 65 76 67 77
REMARK SMILES IDX 69 78 66 79 50 80 51 81 56 82 52 83 53 84 55 85 57 86 54 87
REMARK H PARENT 17 7 8 14 24 30 74 49 48 60
REMARK Flexibility Score: inf
ROOT
ATOM      1  C   UNL A   1      35.832  21.162  25.186  1.00  0.00     0.002 C 
ENDROOT
BRANCH   1   2
ATOM      2  C   UNL A   1      35.327  22.016  26.358  1.00  0.00     0.021 C 
BRANCH   2   3
ATOM      3  C   UNL A   1      34.138  21.455  27.195  1.00  0.00     0.116 C 
BRANCH   3   4
ATOM      4  N   UNL A   1      33.456  20.354  26.479  1.00  0.00    -0.356 N 
ATOM      5  C   UNL A   1      32.621  20.166  25.421  1.00  0.00     0.220 C 
ATOM      6  O   UNL A   1      32.258  18.994  25.244  1.00  0.00    -0.275 OA
ATOM      7  H   UNL A   1      33.671  19.490  26.899  1.00  0.00     0.163 HD
BRANCH   5   8
ATOM      8  C   UNL A   1      32.141  21.222  24.426  1.00  0.00     0.100 C 
BRANCH   8   9
ATOM      9  C   UNL A   1      31.378  22.448  25.019  1.00  0.00     0.019 C 
BRANCH   9  10
ATOM     10  C   UNL A   1      31.756  23.870  24.500  1.00  0.00     0.045 C 
ATOM     11  N   UNL A   1      31.311  25.719  22.803  1.00  0.00    -0.332 N 
ATOM     12  C   UNL A   1      32.601  25.482  22.171  1.00  0.00     0.262 C 
ATOM     13  C   UNL A   1      30.788  24.514  23.489  1.00  0.00     0.265 C 
ATOM     14  H   UNL A   1      30.643  25.855  22.046  1.00  0.00     0.348 HD
ATOM     15  C   UNL A   1      33.631  25.028  23.176  1.00  0.00     0.062 C 
ATOM     16  C   UNL A   1      33.153  23.831  23.936  1.00  0.00     0.015 C 
BRANCH  11  17
ATOM     17  C   UNL A   1      31.128  27.042  23.452  1.00  0.00     0.194 C 
ATOM     18  C   UNL A   1      33.464  26.912  26.060  1.00  0.00     0.012 C 
ATOM     19  C   UNL A   1      32.208  27.779  25.851  1.00  0.00    -0.021 C 
ATOM     20  C   UNL A   1      31.641  28.003  27.277  1.00  0.00     0.012 C 
ATOM     21  C   UNL A   1      32.621  29.126  25.248  1.00  0.00     0.076 C 
ATOM     22  C   UNL A   1      31.058  27.146  25.004  1.00  0.00     0.073 C 
ATOM     23  S   UNL A   1      33.382  28.901  23.617  1.00  0.00    -0.155 SA
ATOM     24  C   UNL A   1      31.986  28.130  22.743  1.00  0.00     0.134 C 
ENDBRANCH  11  17
ENDBRANCH   9  10
ENDBRANCH   8   9
ENDBRANCH   5   8
ENDBRANCH   3   4
ENDBRANCH   2   3
ENDBRANCH   1   2
BRANCH   1  25
ATOM     25  C   UNL A   1      37.275  21.410  24.724  1.00  0.00     0.002 C 
BRANCH  25  26
ATOM     26  C   UNL A   1      38.214  20.196  24.589  1.00  0.00     0.021 C 
BRANCH  26  27
ATOM     27  C   UNL A   1      38.631  19.449  25.867  1.00  0.00     0.116 C 
BRANCH  27  28
ATOM     28  N   UNL A   1      39.938  18.827  25.781  1.00  0.00    -0.352 N 
ATOM     29  C   UNL A   1      41.199  19.320  26.023  1.00  0.00     0.251 C 
ATOM     30  H   UNL A   1      39.919  17.885  25.498  1.00  0.00     0.163 HD
ATOM     31  O   UNL A   1      42.162  18.604  25.750  1.00  0.00    -0.269 OA
BRANCH  29  32
ATOM     32  C   UNL A   1      41.465  20.674  26.592  1.00  0.00     0.039 A 
ATOM     33  C   UNL A   1      41.581  21.742  25.689  1.00  0.00     0.014 A 
ATOM     34  C   UNL A   1      41.743  20.907  27.942  1.00  0.00     0.014 A 
ATOM     35  C   UNL A   1      41.955  23.021  26.129  1.00  0.00     0.010 A 
ATOM     36  C   UNL A   1      42.084  22.200  28.388  1.00  0.00     0.010 A 
ATOM     37  C   UNL A   1      42.210  23.270  27.486  1.00  0.00    -0.014 A 
BRANCH  37  38
ATOM     38  C   UNL A   1      42.628  24.636  27.926  1.00  0.00     0.031 A 
ATOM     39  C   UNL A   1      44.080  25.046  27.934  1.00  0.00     0.074 A 
ATOM     40  C   UNL A   1      41.701  25.540  28.300  1.00  0.00     0.049 A 
ATOM     41  N   UNL A   1      44.612  26.212  28.221  1.00  0.00    -0.248 NA
ATOM     42  C   UNL A   1      45.064  24.011  27.589  1.00  0.00     0.031 C 
ATOM     43  C   UNL A   1      40.261  25.291  28.376  1.00  0.00     0.029 A 
ATOM     44  N   UNL A   1      41.831  26.857  28.680  1.00  0.00    -0.354 N 
ATOM     45  C   UNL A   1      45.987  26.050  28.094  1.00  0.00     0.074 A 
ATOM     46  C   UNL A   1      46.209  24.661  27.746  1.00  0.00     0.031 C 
ATOM     47  C   UNL A   1      39.640  26.421  28.753  1.00  0.00     0.029 A 
ATOM     48  C   UNL A   1      40.634  27.471  28.962  1.00  0.00     0.049 A 
ATOM     49  H   UNL A   1      42.700  27.316  28.744  1.00  0.00     0.167 HD
ATOM     50  C   UNL A   1      46.975  26.969  28.233  1.00  0.00     0.037 A 
ATOM     51  C   UNL A   1      40.360  28.737  29.335  1.00  0.00     0.037 A 
ATOM     52  C   UNL A   1      46.773  28.359  28.559  1.00  0.00     0.049 A 
ATOM     53  C   UNL A   1      41.470  29.741  29.475  1.00  0.00     0.074 A 
ATOM     54  C   UNL A   1      47.718  29.367  28.667  1.00  0.00     0.029 A 
ATOM     55  N   UNL A   1      45.544  28.939  28.834  1.00  0.00    -0.354 N 
ATOM     56  N   UNL A   1      42.756  29.585  29.283  1.00  0.00    -0.248 NA
ATOM     57  C   UNL A   1      41.085  31.105  29.871  1.00  0.00     0.031 C 
ATOM     58  C   UNL A   1      47.066  30.548  29.041  1.00  0.00     0.029 A 
ATOM     59  C   UNL A   1      45.709  30.284  29.128  1.00  0.00     0.049 A 
ATOM     60  H   UNL A   1      44.681  28.465  28.822  1.00  0.00     0.167 HD
ATOM     61  C   UNL A   1      43.330  30.830  29.512  1.00  0.00     0.074 A 
ATOM     62  C   UNL A   1      42.251  31.736  29.840  1.00  0.00     0.031 C 
ATOM     63  C   UNL A   1      44.636  31.186  29.455  1.00  0.00     0.037 A 
BRANCH  50  64
ATOM     64  C   UNL A   1      48.387  26.500  28.027  1.00  0.00     0.057 A 
ATOM     65  C   UNL A   1      49.154  25.991  29.084  1.00  0.00     0.134 A 
ATOM     66  C   UNL A   1      48.969  26.512  26.754  1.00  0.00     0.134 A 
ATOM     67  F   UNL A   1      48.657  25.957  30.329  1.00  0.00    -0.206 F 
ATOM     68  C   UNL A   1      50.458  25.535  28.885  1.00  0.00     0.040 A 
ATOM     69  C   UNL A   1      50.264  26.037  26.538  1.00  0.00     0.040 A 
ATOM     70  F   UNL A   1      48.284  26.974  25.696  1.00  0.00    -0.206 F 
ATOM     71  C   UNL A   1      51.015  25.553  27.607  1.00  0.00     0.006 A 
ENDBRANCH  50  64
BRANCH  51  72
ATOM     72  C   UNL A   1      38.954  29.147  29.577  1.00  0.00     0.057 A 
ATOM     73  C   UNL A   1      38.394  29.088  30.859  1.00  0.00     0.134 A 
ATOM     74  C   UNL A   1      38.134  29.589  28.533  1.00  0.00     0.134 A 
ATOM     75  F   UNL A   1      39.123  28.647  31.894  1.00  0.00    -0.206 F 
ATOM     76  C   UNL A   1      37.063  29.438  31.091  1.00  0.00     0.040 A 
ATOM     77  C   UNL A   1      36.808  29.964  28.754  1.00  0.00     0.040 A 
ATOM     78  F   UNL A   1      38.613  29.664  27.283  1.00  0.00    -0.206 F 
ATOM     79  C   UNL A   1      36.268  29.883  30.036  1.00  0.00     0.006 A 
ENDBRANCH  51  72
BRANCH  63  80
ATOM     80  C   UNL A   1      44.968  32.624  29.731  1.00  0.00     0.057 A 
ATOM     81  C   UNL A   1      44.965  33.591  28.718  1.00  0.00     0.134 A 
ATOM     82  C   UNL A   1      45.283  33.050  31.028  1.00  0.00     0.134 A 
ATOM     83  F   UNL A   1      44.684  33.248  27.451  1.00  0.00    -0.206 F 
ATOM     84  C   UNL A   1      45.290  34.924  28.978  1.00  0.00     0.040 A 
ATOM     85  C   UNL A   1      45.588  34.384  31.305  1.00  0.00     0.040 A 
ATOM     86  F   UNL A   1      45.298  32.177  32.047  1.00  0.00    -0.206 F 
ATOM     87  C   UNL A   1      45.599  35.324  30.277  1.00  0.00     0.006 A 
ENDBRANCH  63  80
ENDBRANCH  37  38
ENDBRANCH  29  32
ENDBRANCH  27  28
ENDBRANCH  26  27
ENDBRANCH  25  26
ENDBRANCH   1  25
TORSDOF 16
ENDMDL
MODEL 2
REMARK VINA RESULT:     -10.9      5.904     10.646
REMARK SMILES CC1(C)CSC[C@@H]([N@H+]2CCC[C@H](CCC(=O)NCCCCCCNC(=O)c3ccc(-c4c5nc(c(-c6c(F)cccc6F)c6ccc([nH]6)c(-c6c(F)cccc6F)c6nc(c(-c7c(F)cccc7F)c7ccc4[nH]7)C=C6)C=C5)cc3)C2)C1
REMARK SMILES IDX 20 1 19 2 18 3 17 4 15 5 16 6 14 8 13 9 12 10 8 11 9 12
REMARK SMILES IDX 81 13 10 15 11 16 7 17 1 18 2 19 3 20 4 21 82 22 5 23 6 24
REMARK SMILES IDX 21 25 22 26 23 27 24 28 25 29 26 31 27 32 28 33 80 34 29 35
REMARK SMILES IDX 79 36 30 37 31 38 32 39 73 40 33 41 78 42 72 43 74 44 34 45
REMARK SMILES IDX 77 46 71 47 70 48 35 50 61 51 44 52 60 53 45 54 48 55 59 56
REMARK SMILES IDX 75 57 46 58 47 59 58 61 76 62 49 63 36 64 37 65 42 66 38 67
REMARK SMILES IDX 39 68 41 69 43 70 40 71 62 72 63 73 68 74 64 75 65 76 67 77
REMARK SMILES IDX 69 78 66 79 50 80 51 81 56 82 52 83 53 84 55 85 57 86 54 87
REMARK H PARENT 17 7 8 14 24 30 74 49 48 60
REMARK Flexibility Score: inf
ROOT
ATOM      1  C   UNL A   1      34.471  32.398  28.908  1.00  0.00     0.002 C 
ENDROOT
BRANCH   1   2
ATOM      2  C   UNL A   1      35.476  31.683  27.993  1.00  0.00     0.021 C 
BRANCH   2   3
ATOM      3  C   UNL A   1      35.304  30.145  27.802  1.00  0.00     0.116 C 
BRANCH   3   4
ATOM      4  N   UNL A   1      33.873  29.775  27.726  1.00  0.00    -0.356 N 
ATOM      5  C   UNL A   1      32.944  29.412  26.802  1.00  0.00     0.220 C 
ATOM      6  O   UNL A   1      31.797  29.256  27.246  1.00  0.00    -0.275 OA
ATOM      7  H   UNL A   1      33.467  29.801  28.623  1.00  0.00     0.163 HD
BRANCH   5   8
ATOM      8  C   UNL A   1      33.179  29.136  25.317  1.00  0.00     0.100 C 
BRANCH   8   9
ATOM      9  C   UNL A   1      32.006  28.468  24.534  1.00  0.00     0.019 C 
BRANCH   9  10
ATOM     10  C   UNL A   1      32.068  26.928  24.290  1.00  0.00     0.045 C 
ATOM     11  N   UNL A   1      31.881  25.016  22.616  1.00  0.00    -0.332 N 
ATOM     12  C   UNL A   1      30.651  24.555  23.244  1.00  0.00     0.262 C 
ATOM     13  C   UNL A   1      32.111  26.464  22.821  1.00  0.00     0.265 C 
ATOM     14  H   UNL A   1      31.729  24.951  21.610  1.00  0.00     0.348 HD
ATOM     15  C   UNL A   1      30.657  24.825  24.729  1.00  0.00     0.062 C 
ATOM     16  C   UNL A   1      30.922  26.269  25.013  1.00  0.00     0.015 C 
BRANCH  11  17
ATOM     17  C   UNL A   1      33.042  24.093  22.686  1.00  0.00     0.194 C 
ATOM     18  C   UNL A   1      33.707  24.009  26.125  1.00  0.00     0.012 C 
ATOM     19  C   UNL A   1      34.582  23.672  24.904  1.00  0.00    -0.021 C 
ATOM     20  C   UNL A   1      36.020  24.078  25.324  1.00  0.00     0.012 C 
ATOM     21  C   UNL A   1      34.531  22.162  24.649  1.00  0.00     0.076 C 
ATOM     22  C   UNL A   1      34.264  24.447  23.585  1.00  0.00     0.073 C 
ATOM     23  S   UNL A   1      32.844  21.628  24.250  1.00  0.00    -0.155 SA
ATOM     24  C   UNL A   1      32.571  22.611  22.745  1.00  0.00     0.134 C 
ENDBRANCH  11  17
ENDBRANCH   9  10
ENDBRANCH   8   9
ENDBRANCH   5   8
ENDBRANCH   3   4
ENDBRANCH   2   3
ENDBRANCH   1   2
BRANCH   1  25
ATOM     25  C   UNL A   1      34.592  33.926  29.002  1.00  0.00     0.002 C 
BRANCH  25  26
ATOM     26  C   UNL A   1      33.305  34.765  28.877  1.00  0.00     0.021 C 
BRANCH  26  27
ATOM     27  C   UNL A   1      33.279  36.161  29.521  1.00  0.00     0.116 C 
BRANCH  27  28
ATOM     28  N   UNL A   1      32.421  36.251  30.687  1.00  0.00    -0.352 N 
ATOM     29  C   UNL A   1      32.538  35.712  31.948  1.00  0.00     0.251 C 
ATOM     30  H   UNL A   1      31.612  36.794  30.553  1.00  0.00     0.163 HD
ATOM     31  O   UNL A   1      31.592  35.846  32.723  1.00  0.00    -0.269 OA
BRANCH  29  32
ATOM     32  C   UNL A   1      33.742  34.971  32.425  1.00  0.00     0.039 A 
ATOM     33  C   UNL A   1      34.981  35.623  32.332  1.00  0.00     0.014 A 
ATOM     34  C   UNL A   1      33.722  33.630  32.819  1.00  0.00     0.014 A 
ATOM     35  C   UNL A   1      36.174  34.953  32.639  1.00  0.00     0.010 A 
ATOM     36  C   UNL A   1      34.918  32.967  33.162  1.00  0.00     0.010 A 
ATOM     37  C   UNL A   1      36.161  33.615  33.061  1.00  0.00    -0.014 A 
BRANCH  37  38
ATOM     38  C   UNL A   1      37.448  32.915  33.361  1.00  0.00     0.031 A 
ATOM     39  C   UNL A   1      38.200  33.176  34.643  1.00  0.00     0.074 A 
ATOM     40  C   UNL A   1      37.945  32.011  32.494  1.00  0.00     0.049 A 
ATOM     41  N   UNL A   1      39.294  32.607  35.094  1.00  0.00    -0.248 NA
ATOM     42  C   UNL A   1      37.663  34.219  35.526  1.00  0.00     0.031 C 
ATOM     43  C   UNL A   1      37.355  31.668  31.200  1.00  0.00     0.029 A 
ATOM     44  N   UNL A   1      39.060  31.207  32.575  1.00  0.00    -0.354 N 
ATOM     45  C   UNL A   1      39.576  33.223  36.308  1.00  0.00     0.074 A 
ATOM     46  C   UNL A   1      38.562  34.239  36.501  1.00  0.00     0.031 C 
ATOM     47  C   UNL A   1      38.097  30.710  30.619  1.00  0.00     0.029 A 
ATOM     48  C   UNL A   1      39.223  30.379  31.489  1.00  0.00     0.049 A 
ATOM     49  H   UNL A   1      39.682  31.223  33.337  1.00  0.00     0.167 HD
ATOM     50  C   UNL A   1      40.572  32.960  37.191  1.00  0.00     0.037 A 
ATOM     51  C   UNL A   1      40.163  29.451  31.223  1.00  0.00     0.037 A 
ATOM     52  C   UNL A   1      41.577  31.941  37.026  1.00  0.00     0.049 A 
ATOM     53  C   UNL A   1      41.252  29.170  32.221  1.00  0.00     0.074 A 
ATOM     54  C   UNL A   1      42.589  31.576  37.900  1.00  0.00     0.029 A 
ATOM     55  N   UNL A   1      41.705  31.125  35.913  1.00  0.00    -0.354 N 
ATOM     56  N   UNL A   1      41.461  29.716  33.393  1.00  0.00    -0.248 NA
ATOM     57  C   UNL A   1      42.230  28.132  31.861  1.00  0.00     0.031 C 
ATOM     58  C   UNL A   1      43.349  30.564  37.302  1.00  0.00     0.029 A 
ATOM     59  C   UNL A   1      42.786  30.271  36.070  1.00  0.00     0.049 A 
ATOM     60  H   UNL A   1      41.113  31.147  35.126  1.00  0.00     0.167 HD
ATOM     61  C   UNL A   1      42.576  29.074  33.919  1.00  0.00     0.074 A 
ATOM     62  C   UNL A   1      42.990  28.085  32.947  1.00  0.00     0.031 C 
ATOM     63  C   UNL A   1      43.199  29.288  35.104  1.00  0.00     0.037 A 
BRANCH  50  64
ATOM     64  C   UNL A   1      40.624  33.795  38.438  1.00  0.00     0.057 A 
ATOM     65  C   UNL A   1      39.871  33.468  39.574  1.00  0.00     0.134 A 
ATOM     66  C   UNL A   1      41.470  34.907  38.523  1.00  0.00     0.134 A 
ATOM     67  F   UNL A   1      39.037  32.418  39.557  1.00  0.00    -0.206 F 
ATOM     68  C   UNL A   1      39.939  34.233  40.740  1.00  0.00     0.040 A 
ATOM     69  C   UNL A   1      41.565  35.667  39.691  1.00  0.00     0.040 A 
ATOM     70  F   UNL A   1      42.228  35.267  37.476  1.00  0.00    -0.206 F 
ATOM     71  C   UNL A   1      40.792  35.334  40.802  1.00  0.00     0.006 A 
ENDBRANCH  50  64
BRANCH  51  72
ATOM     72  C   UNL A   1      40.103  28.682  29.955  1.00  0.00     0.057 A 
ATOM     73  C   UNL A   1      40.789  29.114  28.814  1.00  0.00     0.134 A 
ATOM     74  C   UNL A   1      39.345  27.510  29.849  1.00  0.00     0.134 A 
ATOM     75  F   UNL A   1      41.511  30.244  28.848  1.00  0.00    -0.206 F 
ATOM     76  C   UNL A   1      40.712  28.417  27.607  1.00  0.00     0.040 A 
ATOM     77  C   UNL A   1      39.276  26.791  28.655  1.00  0.00     0.040 A 
ATOM     78  F   UNL A   1      38.663  27.048  30.907  1.00  0.00    -0.206 F 
ATOM     79  C   UNL A   1      39.956  27.248  27.528  1.00  0.00     0.006 A 
ENDBRANCH  51  72
BRANCH  63  80
ATOM     80  C   UNL A   1      44.382  28.420  35.424  1.00  0.00     0.057 A 
ATOM     81  C   UNL A   1      44.245  27.211  36.118  1.00  0.00     0.134 A 
ATOM     82  C   UNL A   1      45.671  28.790  35.022  1.00  0.00     0.134 A 
ATOM     83  F   UNL A   1      43.038  26.804  36.542  1.00  0.00    -0.206 F 
ATOM     84  C   UNL A   1      45.350  26.416  36.427  1.00  0.00     0.040 A 
ATOM     85  C   UNL A   1      46.782  27.993  35.306  1.00  0.00     0.040 A 
ATOM     86  F   UNL A   1      45.873  29.933  34.348  1.00  0.00    -0.206 F 
ATOM     87  C   UNL A   1      46.624  26.806  36.016  1.00  0.00     0.006 A 
ENDBRANCH  63  80
ENDBRANCH  37  38
ENDBRANCH  29  32
ENDBRANCH  27  28
ENDBRANCH  26  27
ENDBRANCH  25  26
ENDBRANCH   1  25
TORSDOF 16
ENDMDL
MODEL 3
REMARK VINA RESULT:     -10.8      5.893     11.669
REMARK SMILES CC1(C)CSC[C@@H]([N@H+]2CCC[C@H](CCC(=O)NCCCCCCNC(=O)c3ccc(-c4c5nc(c(-c6c(F)cccc6F)c6ccc([nH]6)c(-c6c(F)cccc6F)c6nc(c(-c7c(F)cccc7F)c7ccc4[nH]7)C=C6)C=C5)cc3)C2)C1
REMARK SMILES IDX 20 1 19 2 18 3 17 4 15 5 16 6 14 8 13 9 12 10 8 11 9 12
REMARK SMILES IDX 81 13 10 15 11 16 7 17 1 18 2 19 3 20 4 21 82 22 5 23 6 24
REMARK SMILES IDX 21 25 22 26 23 27 24 28 25 29 26 31 27 32 28 33 80 34 29 35
REMARK SMILES IDX 79 36 30 37 31 38 32 39 73 40 33 41 78 42 72 43 74 44 34 45
REMARK SMILES IDX 77 46 71 47 70 48 35 50 61 51 44 52 60 53 45 54 48 55 59 56
REMARK SMILES IDX 75 57 46 58 47 59 58 61 76 62 49 63 36 64 37 65 42 66 38 67
REMARK SMILES IDX 39 68 41 69 43 70 40 71 62 72 63 73 68 74 64 75 65 76 67 77
REMARK SMILES IDX 69 78 66 79 50 80 51 81 56 82 52 83 53 84 55 85 57 86 54 87
REMARK H PARENT 17 7 8 14 24 30 74 49 48 60
REMARK Flexibility Score: inf
ROOT
ATOM      1  C   UNL A   1      34.406  36.048  33.318  1.00  0.00     0.002 C 
ENDROOT
BRANCH   1   2
ATOM      2  C   UNL A   1      34.139  34.540  33.200  1.00  0.00     0.021 C 
BRANCH   2   3
ATOM      3  C   UNL A   1      35.144  33.576  33.901  1.00  0.00     0.116 C 
BRANCH   3   4
ATOM      4  N   UNL A   1      36.425  34.259  34.186  1.00  0.00    -0.356 N 
ATOM      5  C   UNL A   1      37.675  33.970  34.638  1.00  0.00     0.220 C 
ATOM      6  O   UNL A   1      38.423  34.950  34.770  1.00  0.00    -0.275 OA
ATOM      7  H   UNL A   1      36.350  35.221  33.989  1.00  0.00     0.163 HD
BRANCH   5   8
ATOM      8  C   UNL A   1      38.249  32.587  34.944  1.00  0.00     0.100 C 
BRANCH   8   9
ATOM      9  C   UNL A   1      39.335  32.046  33.962  1.00  0.00     0.019 C 
BRANCH   9  10
ATOM     10  C   UNL A   1      39.786  30.560  34.110  1.00  0.00     0.045 C 
ATOM     11  N   UNL A   1      41.724  28.908  34.197  1.00  0.00    -0.332 N 
ATOM     12  C   UNL A   1      41.327  28.337  32.918  1.00  0.00     0.262 C 
ATOM     13  C   UNL A   1      41.288  30.315  34.348  1.00  0.00     0.265 C 
ATOM     14  H   UNL A   1      42.740  28.988  34.171  1.00  0.00     0.348 HD
ATOM     15  C   UNL A   1      39.830  28.389  32.734  1.00  0.00     0.062 C 
ATOM     16  C   UNL A   1      39.312  29.781  32.910  1.00  0.00     0.015 C 
BRANCH  11  17
ATOM     17  C   UNL A   1      41.640  28.007  35.375  1.00  0.00     0.194 C 
ATOM     18  C   UNL A   1      43.686  25.334  34.403  1.00  0.00     0.012 C 
ATOM     19  C   UNL A   1      42.569  25.439  35.457  1.00  0.00    -0.021 C 
ATOM     20  C   UNL A   1      41.900  24.039  35.464  1.00  0.00     0.012 C 
ATOM     21  C   UNL A   1      43.195  25.712  36.829  1.00  0.00     0.076 C 
ATOM     22  C   UNL A   1      41.437  26.476  35.171  1.00  0.00     0.073 C 
ATOM     23  S   UNL A   1      44.074  27.298  36.836  1.00  0.00    -0.155 SA
ATOM     24  C   UNL A   1      42.685  28.408  36.456  1.00  0.00     0.134 C 
ENDBRANCH  11  17
ENDBRANCH   9  10
ENDBRANCH   8   9
ENDBRANCH   5   8
ENDBRANCH   3   4
ENDBRANCH   2   3
ENDBRANCH   1   2
BRANCH   1  25
ATOM     25  C   UNL A   1      33.627  36.962  32.363  1.00  0.00     0.002 C 
BRANCH  25  26
ATOM     26  C   UNL A   1      32.700  36.305  31.322  1.00  0.00     0.021 C 
BRANCH  26  27
ATOM     27  C   UNL A   1      33.023  36.496  29.831  1.00  0.00     0.116 C 
BRANCH  27  28
ATOM     28  N   UNL A   1      32.502  35.444  28.980  1.00  0.00    -0.352 N 
ATOM     29  C   UNL A   1      33.079  34.291  28.499  1.00  0.00     0.251 C 
ATOM     30  H   UNL A   1      31.570  35.580  28.695  1.00  0.00     0.163 HD
ATOM     31  O   UNL A   1      32.444  33.625  27.683  1.00  0.00    -0.269 OA
BRANCH  29  32
ATOM     32  C   UNL A   1      34.430  33.808  28.907  1.00  0.00     0.039 A 
ATOM     33  C   UNL A   1      35.497  34.057  28.029  1.00  0.00     0.014 A 
ATOM     34  C   UNL A   1      34.662  33.009  30.029  1.00  0.00     0.014 A 
ATOM     35  C   UNL A   1      36.773  33.527  28.276  1.00  0.00     0.010 A 
ATOM     36  C   UNL A   1      35.953  32.507  30.296  1.00  0.00     0.010 A 
ATOM     37  C   UNL A   1      37.020  32.745  29.414  1.00  0.00    -0.014 A 
BRANCH  37  38
ATOM     38  C   UNL A   1      38.383  32.174  29.643  1.00  0.00     0.031 A 
ATOM     39  C   UNL A   1      39.428  32.931  30.427  1.00  0.00     0.074 A 
ATOM     40  C   UNL A   1      38.692  30.950  29.172  1.00  0.00     0.049 A 
ATOM     41  N   UNL A   1      40.636  32.555  30.777  1.00  0.00    -0.248 NA
ATOM     42  C   UNL A   1      39.076  34.289  30.860  1.00  0.00     0.031 C 
ATOM     43  C   UNL A   1      37.805  30.104  28.372  1.00  0.00     0.029 A 
ATOM     44  N   UNL A   1      39.838  30.198  29.305  1.00  0.00    -0.354 N 
ATOM     45  C   UNL A   1      41.187  33.628  31.468  1.00  0.00     0.074 A 
ATOM     46  C   UNL A   1      40.197  34.685  31.450  1.00  0.00     0.031 C 
ATOM     47  C   UNL A   1      38.428  28.944  28.106  1.00  0.00     0.029 A 
ATOM     48  C   UNL A   1      39.762  28.966  28.701  1.00  0.00     0.049 A 
ATOM     49  H   UNL A   1      40.636  30.513  29.787  1.00  0.00     0.167 HD
ATOM     50  C   UNL A   1      42.394  33.724  32.079  1.00  0.00     0.037 A 
ATOM     51  C   UNL A   1      40.656  27.959  28.638  1.00  0.00     0.037 A 
ATOM     52  C   UNL A   1      43.384  32.677  32.126  1.00  0.00     0.049 A 
ATOM     53  C   UNL A   1      41.986  28.085  29.330  1.00  0.00     0.074 A 
ATOM     54  C   UNL A   1      44.612  32.678  32.770  1.00  0.00     0.029 A 
ATOM     55  N   UNL A   1      43.267  31.445  31.503  1.00  0.00    -0.354 N 
ATOM     56  N   UNL A   1      42.460  29.081  30.036  1.00  0.00    -0.248 NA
ATOM     57  C   UNL A   1      42.899  26.936  29.227  1.00  0.00     0.031 C 
ATOM     58  C   UNL A   1      45.251  31.461  32.508  1.00  0.00     0.029 A 
ATOM     59  C   UNL A   1      44.404  30.686  31.732  1.00  0.00     0.049 A 
ATOM     60  H   UNL A   1      42.489  31.152  30.975  1.00  0.00     0.167 HD
ATOM     61  C   UNL A   1      43.712  28.672  30.478  1.00  0.00     0.074 A 
ATOM     62  C   UNL A   1      43.919  27.330  29.976  1.00  0.00     0.031 C 
ATOM     63  C   UNL A   1      44.610  29.352  31.233  1.00  0.00     0.037 A 
BRANCH  50  64
ATOM     64  C   UNL A   1      42.720  35.022  32.762  1.00  0.00     0.057 A 
ATOM     65  C   UNL A   1      43.437  36.035  32.112  1.00  0.00     0.134 A 
ATOM     66  C   UNL A   1      42.272  35.281  34.063  1.00  0.00     0.134 A 
ATOM     67  F   UNL A   1      43.898  35.849  30.866  1.00  0.00    -0.206 F 
ATOM     68  C   UNL A   1      43.718  37.249  32.741  1.00  0.00     0.040 A 
ATOM     69  C   UNL A   1      42.527  36.500  34.695  1.00  0.00     0.040 A 
ATOM     70  F   UNL A   1      41.569  34.358  34.738  1.00  0.00    -0.206 F 
ATOM     71  C   UNL A   1      43.258  37.486  34.036  1.00  0.00     0.006 A 
ENDBRANCH  50  64
BRANCH  51  72
ATOM     72  C   UNL A   1      40.315  26.712  27.911  1.00  0.00     0.057 A 
ATOM     73  C   UNL A   1      39.495  25.737  28.492  1.00  0.00     0.134 A 
ATOM     74  C   UNL A   1      40.815  26.455  26.629  1.00  0.00     0.134 A 
ATOM     75  F   UNL A   1      39.008  25.915  29.728  1.00  0.00    -0.206 F 
ATOM     76  C   UNL A   1      39.195  24.545  27.830  1.00  0.00     0.040 A 
ATOM     77  C   UNL A   1      40.506  25.278  25.947  1.00  0.00     0.040 A 
ATOM     78  F   UNL A   1      41.609  27.349  26.021  1.00  0.00    -0.206 F 
ATOM     79  C   UNL A   1      39.698  24.316  26.551  1.00  0.00     0.006 A 
ENDBRANCH  51  72
BRANCH  63  80
ATOM     80  C   UNL A   1      45.888  28.645  31.582  1.00  0.00     0.057 A 
ATOM     81  C   UNL A   1      46.965  28.581  30.688  1.00  0.00     0.134 A 
ATOM     82  C   UNL A   1      46.049  28.031  32.831  1.00  0.00     0.134 A 
ATOM     83  F   UNL A   1      46.871  29.137  29.470  1.00  0.00    -0.206 F 
ATOM     84  C   UNL A   1      48.145  27.908  31.012  1.00  0.00     0.040 A 
ATOM     85  C   UNL A   1      47.232  27.375  33.175  1.00  0.00     0.040 A 
ATOM     86  F   UNL A   1      45.060  28.060  33.737  1.00  0.00    -0.206 F 
ATOM     87  C   UNL A   1      48.282  27.305  32.262  1.00  0.00     0.006 A 
ENDBRANCH  63  80
ENDBRANCH  37  38
ENDBRANCH  29  32
ENDBRANCH  27  28
ENDBRANCH  26  27
ENDBRANCH  25  26
ENDBRANCH   1  25
TORSDOF 16
ENDMDL
