MODEL 1
REMARK VINA RESULT:     -11.3      0.000      0.000
REMARK SMILES Cc1cc(C(=O)N[C@](C)(C(=O)NCCCCCCNC(=O)c2ccc(-c3c4nc(c(-c5c(F)cccc5F)c5ccc([nH]5)c(-c5c(F)cccc5F)c5nc(c(-c6c(F)cccc6F)c6ccc3[nH]6)C=C5)C=C4)cc2)C(F)(F)F)no1
REMARK SMILES IDX 15 1 14 2 13 3 12 4 10 5 11 6 8 8 9 9 7 10 5 11 6 12 4 14
REMARK SMILES IDX 1 15 2 16 3 17 81 18 80 19 76 20 77 21 78 22 79 23 16 24
REMARK SMILES IDX 17 25 18 26 19 27 20 28 21 30 22 31 23 32 75 33 24 34 74 35
REMARK SMILES IDX 25 36 26 37 27 38 68 39 28 40 73 41 67 42 69 43 29 44 72 45
REMARK SMILES IDX 66 46 65 47 30 49 56 50 39 51 55 52 40 53 43 54 54 55 70 56
REMARK SMILES IDX 41 57 42 58 53 60 71 61 44 62 31 63 32 64 37 65 33 66 34 67
REMARK SMILES IDX 36 68 38 69 35 70 57 71 58 72 63 73 59 74 60 75 62 76 64 77
REMARK SMILES IDX 61 78 45 79 46 80 51 81 47 82 48 83 50 84 52 85 49 86
REMARK H PARENT 12 7 7 13 19 29 69 48 43 59
REMARK Flexibility Score: inf
ROOT
ATOM      1  C   UNL A   1      32.415  29.595  27.073  1.00  0.00     0.002 C 
ENDROOT
BRANCH   1   2
ATOM      2  C   UNL A   1      31.658  28.293  27.370  1.00  0.00     0.021 C 
BRANCH   2   3
ATOM      3  C   UNL A   1      32.069  27.120  26.486  1.00  0.00     0.116 C 
BRANCH   3   4
ATOM      4  N   UNL A   1      31.324  27.135  25.239  1.00  0.00    -0.354 N 
ATOM      5  C   UNL A   1      31.748  27.074  23.945  1.00  0.00     0.254 C 
ATOM      6  O   UNL A   1      30.867  27.157  23.086  1.00  0.00    -0.272 OA
ATOM      7  H   UNL A   1      30.348  27.200  25.346  1.00  0.00     0.163 HD
BRANCH   5   8
ATOM      8  C   UNL A   1      33.242  27.030  23.589  1.00  0.00     0.212 C 
ATOM      9  C   UNL A   1      33.932  26.173  24.684  1.00  0.00     0.056 C 
BRANCH   8  10
ATOM     10  N   UNL A   1      33.557  26.414  22.252  1.00  0.00    -0.329 N 
ATOM     11  C   UNL A   1      33.055  25.279  21.639  1.00  0.00     0.274 C 
ATOM     12  O   UNL A   1      32.896  25.346  20.420  1.00  0.00    -0.267 OA
ATOM     13  H   UNL A   1      34.233  26.899  21.726  1.00  0.00     0.165 HD
BRANCH  11  14
ATOM     14  C   UNL A   1      32.962  24.017  22.373  1.00  0.00     0.171 A 
ATOM     15  C   UNL A   1      32.117  21.641  25.021  1.00  0.00     0.091 C 
ATOM     16  C   UNL A   1      32.513  22.448  23.854  1.00  0.00     0.134 A 
ATOM     17  C   UNL A   1      31.905  23.432  23.112  1.00  0.00     0.082 A 
ATOM     18  O   UNL A   1      33.782  22.280  23.407  1.00  0.00    -0.361 OA
ATOM     19  N   UNL A   1      34.068  23.253  22.474  1.00  0.00    -0.074 NA
ENDBRANCH  11  14
ENDBRANCH   8  10
BRANCH   8  20
ATOM     20  C   UNL A   1      33.807  28.465  23.683  1.00  0.00     0.420 C 
ATOM     21  F   UNL A   1      32.862  29.424  23.596  1.00  0.00    -0.168 F 
ATOM     22  F   UNL A   1      34.411  28.632  24.892  1.00  0.00    -0.168 F 
ATOM     23  F   UNL A   1      34.750  28.706  22.745  1.00  0.00    -0.168 F 
ENDBRANCH   8  20
ENDBRANCH   5   8
ENDBRANCH   3   4
ENDBRANCH   2   3
ENDBRANCH   1   2
BRANCH   1  24
ATOM     24  C   UNL A   1      31.712  30.548  26.103  1.00  0.00     0.002 C 
BRANCH  24  25
ATOM     25  C   UNL A   1      31.423  31.947  26.643  1.00  0.00     0.021 C 
BRANCH  25  26
ATOM     26  C   UNL A   1      32.621  32.644  27.270  1.00  0.00     0.116 C 
BRANCH  26  27
ATOM     27  N   UNL A   1      32.351  34.029  27.623  1.00  0.00    -0.352 N 
ATOM     28  C   UNL A   1      33.001  34.812  28.544  1.00  0.00     0.251 C 
ATOM     29  H   UNL A   1      31.607  34.458  27.142  1.00  0.00     0.163 HD
ATOM     30  O   UNL A   1      32.585  35.933  28.823  1.00  0.00    -0.269 OA
BRANCH  28  31
ATOM     31  C   UNL A   1      34.194  34.270  29.224  1.00  0.00     0.039 A 
ATOM     32  C   UNL A   1      34.022  33.474  30.358  1.00  0.00     0.014 A 
ATOM     33  C   UNL A   1      35.471  34.504  28.707  1.00  0.00     0.014 A 
ATOM     34  C   UNL A   1      35.131  32.859  30.939  1.00  0.00     0.010 A 
ATOM     35  C   UNL A   1      36.562  33.828  29.238  1.00  0.00     0.010 A 
ATOM     36  C   UNL A   1      36.404  33.003  30.363  1.00  0.00    -0.014 A 
BRANCH  36  37
ATOM     37  C   UNL A   1      37.588  32.311  30.930  1.00  0.00     0.031 A 
ATOM     38  C   UNL A   1      38.238  32.841  32.177  1.00  0.00     0.074 A 
ATOM     39  C   UNL A   1      38.110  31.245  30.292  1.00  0.00     0.049 A 
ATOM     40  N   UNL A   1      39.319  32.425  32.787  1.00  0.00    -0.248 NA
ATOM     41  C   UNL A   1      37.607  34.012  32.807  1.00  0.00     0.031 C 
ATOM     42  C   UNL A   1      37.597  30.665  29.049  1.00  0.00     0.029 A 
ATOM     43  N   UNL A   1      39.195  30.464  30.598  1.00  0.00    -0.354 N 
ATOM     44  C   UNL A   1      39.500  33.289  33.860  1.00  0.00     0.074 A 
ATOM     45  C   UNL A   1      38.457  34.287  33.784  1.00  0.00     0.031 C 
ATOM     46  C   UNL A   1      38.350  29.604  28.715  1.00  0.00     0.029 A 
ATOM     47  C   UNL A   1      39.420  29.452  29.696  1.00  0.00     0.049 A 
ATOM     48  H   UNL A   1      39.761  30.615  31.390  1.00  0.00     0.167 HD
ATOM     49  C   UNL A   1      40.435  33.237  34.839  1.00  0.00     0.037 A 
ATOM     50  C   UNL A   1      40.382  28.512  29.665  1.00  0.00     0.037 A 
ATOM     51  C   UNL A   1      41.454  32.226  34.927  1.00  0.00     0.049 A 
ATOM     52  C   UNL A   1      41.415  28.484  30.758  1.00  0.00     0.074 A 
ATOM     53  C   UNL A   1      42.419  32.058  35.905  1.00  0.00     0.029 A 
ATOM     54  N   UNL A   1      41.638  31.208  34.004  1.00  0.00    -0.354 N 
ATOM     55  N   UNL A   1      41.540  29.271  31.799  1.00  0.00    -0.248 NA
ATOM     56  C   UNL A   1      42.439  27.433  30.674  1.00  0.00     0.031 C 
ATOM     57  C   UNL A   1      43.210  30.960  35.553  1.00  0.00     0.029 A 
ATOM     58  C   UNL A   1      42.710  30.417  34.381  1.00  0.00     0.049 A 
ATOM     59  H   UNL A   1      41.087  31.068  33.200  1.00  0.00     0.167 HD
ATOM     60  C   UNL A   1      42.632  28.791  32.511  1.00  0.00     0.074 A 
ATOM     61  C   UNL A   1      43.126  27.637  31.789  1.00  0.00     0.031 C 
ATOM     62  C   UNL A   1      43.177  29.263  33.658  1.00  0.00     0.037 A 
BRANCH  49  63
ATOM     63  C   UNL A   1      40.385  34.298  35.899  1.00  0.00     0.057 A 
ATOM     64  C   UNL A   1      41.161  35.462  35.813  1.00  0.00     0.134 A 
ATOM     65  C   UNL A   1      39.527  34.173  36.999  1.00  0.00     0.134 A 
ATOM     66  F   UNL A   1      42.015  35.636  34.793  1.00  0.00    -0.206 F 
ATOM     67  C   UNL A   1      41.103  36.452  36.795  1.00  0.00     0.040 A 
ATOM     68  C   UNL A   1      39.441  35.169  37.973  1.00  0.00     0.040 A 
ATOM     69  F   UNL A   1      38.753  33.087  37.140  1.00  0.00    -0.206 F 
ATOM     70  C   UNL A   1      40.235  36.310  37.876  1.00  0.00     0.006 A 
ENDBRANCH  49  63
BRANCH  50  71
ATOM     71  C   UNL A   1      40.408  27.500  28.576  1.00  0.00     0.057 A 
ATOM     72  C   UNL A   1      41.145  27.720  27.407  1.00  0.00     0.134 A 
ATOM     73  C   UNL A   1      39.682  26.307  28.666  1.00  0.00     0.134 A 
ATOM     74  F   UNL A   1      41.846  28.853  27.254  1.00  0.00    -0.206 F 
ATOM     75  C   UNL A   1      41.138  26.804  26.354  1.00  0.00     0.040 A 
ATOM     76  C   UNL A   1      39.687  25.370  27.632  1.00  0.00     0.040 A 
ATOM     77  F   UNL A   1      38.961  26.033  29.764  1.00  0.00    -0.206 F 
ATOM     78  C   UNL A   1      40.409  25.622  26.467  1.00  0.00     0.006 A 
ENDBRANCH  50  71
BRANCH  62  79
ATOM     79  C   UNL A   1      44.342  28.506  34.225  1.00  0.00     0.057 A 
ATOM     80  C   UNL A   1      44.167  27.420  35.093  1.00  0.00     0.134 A 
ATOM     81  C   UNL A   1      45.652  28.845  33.865  1.00  0.00     0.134 A 
ATOM     82  F   UNL A   1      42.938  27.054  35.485  1.00  0.00    -0.206 F 
ATOM     83  C   UNL A   1      45.257  26.714  35.601  1.00  0.00     0.040 A 
ATOM     84  C   UNL A   1      46.748  28.129  34.346  1.00  0.00     0.040 A 
ATOM     85  F   UNL A   1      45.887  29.868  33.030  1.00  0.00    -0.206 F 
ATOM     86  C   UNL A   1      46.553  27.064  35.223  1.00  0.00     0.006 A 
ENDBRANCH  62  79
ENDBRANCH  36  37
ENDBRANCH  28  31
ENDBRANCH  26  27
ENDBRANCH  25  26
ENDBRANCH  24  25
ENDBRANCH   1  24
TORSDOF 16
ENDMDL
MODEL 2
REMARK VINA RESULT:     -11.2      4.675      9.426
REMARK SMILES Cc1cc(C(=O)N[C@](C)(C(=O)NCCCCCCNC(=O)c2ccc(-c3c4nc(c(-c5c(F)cccc5F)c5ccc([nH]5)c(-c5c(F)cccc5F)c5nc(c(-c6c(F)cccc6F)c6ccc3[nH]6)C=C5)C=C4)cc2)C(F)(F)F)no1
REMARK SMILES IDX 15 1 14 2 13 3 12 4 10 5 11 6 8 8 9 9 7 10 5 11 6 12 4 14
REMARK SMILES IDX 1 15 2 16 3 17 81 18 80 19 76 20 77 21 78 22 79 23 16 24
REMARK SMILES IDX 17 25 18 26 19 27 20 28 21 30 22 31 23 32 75 33 24 34 74 35
REMARK SMILES IDX 25 36 26 37 27 38 68 39 28 40 73 41 67 42 69 43 29 44 72 45
REMARK SMILES IDX 66 46 65 47 30 49 56 50 39 51 55 52 40 53 43 54 54 55 70 56
REMARK SMILES IDX 41 57 42 58 53 60 71 61 44 62 31 63 32 64 37 65 33 66 34 67
REMARK SMILES IDX 36 68 38 69 35 70 57 71 58 72 63 73 59 74 60 75 62 76 64 77
REMARK SMILES IDX 61 78 45 79 46 80 51 81 47 82 48 83 50 84 52 85 49 86
REMARK H PARENT 12 7 7 13 19 29 69 48 43 59
REMARK Flexibility Score: inf
ROOT
ATOM      1  C   UNL A   1      37.351  22.307  24.688  1.00  0.00     0.002 C 
ENDROOT
BRANCH   1   2
ATOM      2  C   UNL A   1      36.917  23.304  25.771  1.00  0.00     0.021 C 
BRANCH   2   3
ATOM      3  C   UNL A   1      35.706  24.150  25.386  1.00  0.00     0.116 C 
BRANCH   3   4
ATOM      4  N   UNL A   1      35.160  23.710  24.114  1.00  0.00    -0.354 N 
ATOM      5  C   UNL A   1      33.886  23.387  23.753  1.00  0.00     0.254 C 
ATOM      6  O   UNL A   1      33.738  22.996  22.593  1.00  0.00    -0.272 OA
ATOM      7  H   UNL A   1      35.822  23.632  23.389  1.00  0.00     0.163 HD
BRANCH   5   8
ATOM      8  C   UNL A   1      32.735  23.395  24.771  1.00  0.00     0.212 C 
ATOM      9  C   UNL A   1      31.520  22.731  24.068  1.00  0.00     0.056 C 
BRANCH   8  10
ATOM     10  N   UNL A   1      33.007  22.637  26.041  1.00  0.00    -0.329 N 
ATOM     11  C   UNL A   1      33.633  21.419  26.251  1.00  0.00     0.274 C 
ATOM     12  O   UNL A   1      34.331  21.336  27.262  1.00  0.00    -0.267 OA
ATOM     13  H   UNL A   1      32.686  23.079  26.861  1.00  0.00     0.165 HD
BRANCH  11  14
ATOM     14  C   UNL A   1      33.276  20.251  25.447  1.00  0.00     0.171 A 
ATOM     15  C   UNL A   1      32.377  18.238  22.529  1.00  0.00     0.091 C 
ATOM     16  C   UNL A   1      32.756  18.886  23.798  1.00  0.00     0.134 A 
ATOM     17  C   UNL A   1      33.680  19.838  24.153  1.00  0.00     0.082 A 
ATOM     18  O   UNL A   1      32.014  18.563  24.885  1.00  0.00    -0.361 OA
ATOM     19  N   UNL A   1      32.339  19.409  25.924  1.00  0.00    -0.074 NA
ENDBRANCH  11  14
ENDBRANCH   8  10
BRANCH   8  20
ATOM     20  C   UNL A   1      32.364  24.864  25.073  1.00  0.00     0.420 C 
ATOM     21  F   UNL A   1      31.034  25.085  25.130  1.00  0.00    -0.168 F 
ATOM     22  F   UNL A   1      32.862  25.213  26.291  1.00  0.00    -0.168 F 
ATOM     23  F   UNL A   1      32.902  25.722  24.177  1.00  0.00    -0.168 F 
ENDBRANCH   8  20
ENDBRANCH   5   8
ENDBRANCH   3   4
ENDBRANCH   2   3
ENDBRANCH   1   2
BRANCH   1  24
ATOM     24  C   UNL A   1      36.984  20.847  24.966  1.00  0.00     0.002 C 
BRANCH  24  25
ATOM     25  C   UNL A   1      38.146  19.856  24.940  1.00  0.00     0.021 C 
BRANCH  25  26
ATOM     26  C   UNL A   1      39.273  20.176  25.910  1.00  0.00     0.116 C 
BRANCH  26  27
ATOM     27  N   UNL A   1      40.349  19.198  25.873  1.00  0.00    -0.352 N 
ATOM     28  C   UNL A   1      41.686  19.398  26.110  1.00  0.00     0.251 C 
ATOM     29  H   UNL A   1      40.084  18.277  25.649  1.00  0.00     0.163 HD
ATOM     30  O   UNL A   1      42.499  18.497  25.927  1.00  0.00    -0.269 OA
BRANCH  28  31
ATOM     31  C   UNL A   1      42.139  20.729  26.559  1.00  0.00     0.039 A 
ATOM     32  C   UNL A   1      42.497  21.679  25.600  1.00  0.00     0.014 A 
ATOM     33  C   UNL A   1      42.153  21.051  27.919  1.00  0.00     0.014 A 
ATOM     34  C   UNL A   1      42.812  22.976  26.005  1.00  0.00     0.010 A 
ATOM     35  C   UNL A   1      42.389  22.363  28.312  1.00  0.00     0.010 A 
ATOM     36  C   UNL A   1      42.726  23.337  27.360  1.00  0.00    -0.014 A 
BRANCH  36  37
ATOM     37  C   UNL A   1      43.000  24.726  27.804  1.00  0.00     0.031 A 
ATOM     38  C   UNL A   1      44.416  25.172  28.035  1.00  0.00     0.074 A 
ATOM     39  C   UNL A   1      41.974  25.562  28.057  1.00  0.00     0.049 A 
ATOM     40  N   UNL A   1      44.860  26.316  28.492  1.00  0.00    -0.248 NA
ATOM     41  C   UNL A   1      45.476  24.193  27.741  1.00  0.00     0.031 C 
ATOM     42  C   UNL A   1      40.554  25.232  27.916  1.00  0.00     0.029 A 
ATOM     43  N   UNL A   1      41.969  26.863  28.493  1.00  0.00    -0.354 N 
ATOM     44  C   UNL A   1      46.242  26.188  28.549  1.00  0.00     0.074 A 
ATOM     45  C   UNL A   1      46.561  24.838  28.141  1.00  0.00     0.031 C 
ATOM     46  C   UNL A   1      39.818  26.310  28.232  1.00  0.00     0.029 A 
ATOM     47  C   UNL A   1      40.709  27.393  28.635  1.00  0.00     0.049 A 
ATOM     48  H   UNL A   1      42.791  27.369  28.688  1.00  0.00     0.167 HD
ATOM     49  C   UNL A   1      47.164  27.121  28.884  1.00  0.00     0.037 A 
ATOM     50  C   UNL A   1      40.320  28.614  29.046  1.00  0.00     0.037 A 
ATOM     51  C   UNL A   1      46.845  28.471  29.263  1.00  0.00     0.049 A 
ATOM     52  C   UNL A   1      41.365  29.628  29.423  1.00  0.00     0.074 A 
ATOM     53  C   UNL A   1      47.708  29.506  29.574  1.00  0.00     0.029 A 
ATOM     54  N   UNL A   1      45.558  28.975  29.377  1.00  0.00    -0.354 N 
ATOM     55  N   UNL A   1      42.671  29.512  29.415  1.00  0.00    -0.248 NA
ATOM     56  C   UNL A   1      40.882  30.945  29.860  1.00  0.00     0.031 C 
ATOM     57  C   UNL A   1      46.943  30.626  29.914  1.00  0.00     0.029 A 
ATOM     58  C   UNL A   1      45.604  30.302  29.769  1.00  0.00     0.049 A 
ATOM     59  H   UNL A   1      44.734  28.465  29.204  1.00  0.00     0.167 HD
ATOM     60  C   UNL A   1      43.165  30.748  29.813  1.00  0.00     0.074 A 
ATOM     61  C   UNL A   1      42.019  31.602  30.042  1.00  0.00     0.031 C 
ATOM     62  C   UNL A   1      44.452  31.140  29.976  1.00  0.00     0.037 A 
BRANCH  49  63
ATOM     63  C   UNL A   1      48.607  26.713  28.839  1.00  0.00     0.057 A 
ATOM     64  C   UNL A   1      49.248  26.146  29.950  1.00  0.00     0.134 A 
ATOM     65  C   UNL A   1      49.357  26.853  27.664  1.00  0.00     0.134 A 
ATOM     66  F   UNL A   1      48.591  25.998  31.110  1.00  0.00    -0.206 F 
ATOM     67  C   UNL A   1      50.587  25.757  29.901  1.00  0.00     0.040 A 
ATOM     68  C   UNL A   1      50.689  26.442  27.595  1.00  0.00     0.040 A 
ATOM     69  F   UNL A   1      48.805  27.383  26.563  1.00  0.00    -0.206 F 
ATOM     70  C   UNL A   1      51.310  25.897  28.718  1.00  0.00     0.006 A 
ENDBRANCH  49  63
BRANCH  50  71
ATOM     71  C   UNL A   1      38.876  28.962  29.103  1.00  0.00     0.057 A 
ATOM     72  C   UNL A   1      38.204  29.434  27.970  1.00  0.00     0.134 A 
ATOM     73  C   UNL A   1      38.143  28.856  30.291  1.00  0.00     0.134 A 
ATOM     74  F   UNL A   1      38.858  29.575  26.808  1.00  0.00    -0.206 F 
ATOM     75  C   UNL A   1      36.862  29.814  28.020  1.00  0.00     0.040 A 
ATOM     76  C   UNL A   1      36.793  29.208  30.349  1.00  0.00     0.040 A 
ATOM     77  F   UNL A   1      38.727  28.404  31.410  1.00  0.00    -0.206 F 
ATOM     78  C   UNL A   1      36.152  29.698  29.213  1.00  0.00     0.006 A 
ENDBRANCH  50  71
BRANCH  62  79
ATOM     79  C   UNL A   1      44.688  32.566  30.379  1.00  0.00     0.057 A 
ATOM     80  C   UNL A   1      44.797  33.594  29.434  1.00  0.00     0.134 A 
ATOM     81  C   UNL A   1      44.767  32.918  31.732  1.00  0.00     0.134 A 
ATOM     82  F   UNL A   1      44.741  33.321  28.122  1.00  0.00    -0.206 F 
ATOM     83  C   UNL A   1      45.000  34.919  29.821  1.00  0.00     0.040 A 
ATOM     84  C   UNL A   1      44.943  34.243  32.132  1.00  0.00     0.040 A 
ATOM     85  F   UNL A   1      44.661  31.982  32.688  1.00  0.00    -0.206 F 
ATOM     86  C   UNL A   1      45.067  35.247  31.175  1.00  0.00     0.006 A 
ENDBRANCH  62  79
ENDBRANCH  36  37
ENDBRANCH  28  31
ENDBRANCH  26  27
ENDBRANCH  25  26
ENDBRANCH  24  25
ENDBRANCH   1  24
TORSDOF 16
ENDMDL
MODEL 3
REMARK VINA RESULT:     -11.2      3.682      5.411
REMARK SMILES Cc1cc(C(=O)N[C@](C)(C(=O)NCCCCCCNC(=O)c2ccc(-c3c4nc(c(-c5c(F)cccc5F)c5ccc([nH]5)c(-c5c(F)cccc5F)c5nc(c(-c6c(F)cccc6F)c6ccc3[nH]6)C=C5)C=C4)cc2)C(F)(F)F)no1
REMARK SMILES IDX 15 1 14 2 13 3 12 4 10 5 11 6 8 8 9 9 7 10 5 11 6 12 4 14
REMARK SMILES IDX 1 15 2 16 3 17 81 18 80 19 76 20 77 21 78 22 79 23 16 24
REMARK SMILES IDX 17 25 18 26 19 27 20 28 21 30 22 31 23 32 75 33 24 34 74 35
REMARK SMILES IDX 25 36 26 37 27 38 68 39 28 40 73 41 67 42 69 43 29 44 72 45
REMARK SMILES IDX 66 46 65 47 30 49 56 50 39 51 55 52 40 53 43 54 54 55 70 56
REMARK SMILES IDX 41 57 42 58 53 60 71 61 44 62 31 63 32 64 37 65 33 66 34 67
REMARK SMILES IDX 36 68 38 69 35 70 57 71 58 72 63 73 59 74 60 75 62 76 64 77
REMARK SMILES IDX 61 78 45 79 46 80 51 81 47 82 48 83 50 84 52 85 49 86
REMARK H PARENT 12 7 7 13 19 29 69 48 43 59
REMARK Flexibility Score: inf
ROOT
ATOM      1  C   UNL A   1      30.925  27.599  24.967  1.00  0.00     0.002 C 
ENDROOT
BRANCH   1   2
ATOM      2  C   UNL A   1      30.858  26.165  25.510  1.00  0.00     0.021 C 
BRANCH   2   3
ATOM      3  C   UNL A   1      30.861  25.090  24.426  1.00  0.00     0.116 C 
BRANCH   3   4
ATOM      4  N   UNL A   1      30.524  23.795  24.991  1.00  0.00    -0.354 N 
ATOM      5  C   UNL A   1      31.320  22.778  25.428  1.00  0.00     0.254 C 
ATOM      6  O   UNL A   1      30.733  21.766  25.818  1.00  0.00    -0.272 OA
ATOM      7  H   UNL A   1      29.559  23.622  25.071  1.00  0.00     0.163 HD
BRANCH   5   8
ATOM      8  C   UNL A   1      32.851  22.852  25.323  1.00  0.00     0.212 C 
ATOM      9  C   UNL A   1      33.365  21.386  25.334  1.00  0.00     0.056 C 
BRANCH   8  10
ATOM     10  N   UNL A   1      33.369  23.514  24.075  1.00  0.00    -0.329 N 
ATOM     11  C   UNL A   1      34.504  23.263  23.322  1.00  0.00     0.274 C 
ATOM     12  O   UNL A   1      34.382  23.383  22.102  1.00  0.00    -0.267 OA
ATOM     13  H   UNL A   1      32.808  24.251  23.738  1.00  0.00     0.165 HD
BRANCH  11  14
ATOM     14  C   UNL A   1      35.806  23.110  23.969  1.00  0.00     0.171 A 
ATOM     15  C   UNL A   1      38.551  21.581  25.841  1.00  0.00     0.091 C 
ATOM     16  C   UNL A   1      37.565  22.338  25.048  1.00  0.00     0.134 A 
ATOM     17  C   UNL A   1      36.713  22.023  24.017  1.00  0.00     0.082 A 
ATOM     18  O   UNL A   1      37.353  23.624  25.418  1.00  0.00    -0.361 OA
ATOM     19  N   UNL A   1      36.259  24.117  24.741  1.00  0.00    -0.074 NA
ENDBRANCH  11  14
ENDBRANCH   8  10
BRANCH   8  20
ATOM     20  C   UNL A   1      33.392  23.554  26.588  1.00  0.00     0.420 C 
ATOM     21  F   UNL A   1      34.520  22.996  27.075  1.00  0.00    -0.168 F 
ATOM     22  F   UNL A   1      33.703  24.845  26.287  1.00  0.00    -0.168 F 
ATOM     23  F   UNL A   1      32.474  23.600  27.579  1.00  0.00    -0.168 F 
ENDBRANCH   8  20
ENDBRANCH   5   8
ENDBRANCH   3   4
ENDBRANCH   2   3
ENDBRANCH   1   2
BRANCH   1  24
ATOM     24  C   UNL A   1      31.685  28.592  25.850  1.00  0.00     0.002 C 
BRANCH  24  25
ATOM     25  C   UNL A   1      33.205  28.442  25.859  1.00  0.00     0.021 C 
BRANCH  25  26
ATOM     26  C   UNL A   1      33.849  28.605  27.228  1.00  0.00     0.116 C 
BRANCH  26  27
ATOM     27  N   UNL A   1      33.780  29.968  27.729  1.00  0.00    -0.352 N 
ATOM     28  C   UNL A   1      34.759  30.688  28.368  1.00  0.00     0.251 C 
ATOM     29  H   UNL A   1      32.923  30.434  27.593  1.00  0.00     0.163 HD
ATOM     30  O   UNL A   1      34.519  31.794  28.842  1.00  0.00    -0.269 OA
BRANCH  28  31
ATOM     31  C   UNL A   1      36.103  30.094  28.508  1.00  0.00     0.039 A 
ATOM     32  C   UNL A   1      36.991  30.172  27.434  1.00  0.00     0.014 A 
ATOM     33  C   UNL A   1      36.498  29.515  29.717  1.00  0.00     0.014 A 
ATOM     34  C   UNL A   1      38.302  29.721  27.594  1.00  0.00     0.010 A 
ATOM     35  C   UNL A   1      37.824  29.141  29.900  1.00  0.00     0.010 A 
ATOM     36  C   UNL A   1      38.738  29.235  28.838  1.00  0.00    -0.014 A 
BRANCH  36  37
ATOM     37  C   UNL A   1      40.143  28.807  29.047  1.00  0.00     0.031 A 
ATOM     38  C   UNL A   1      41.127  29.751  29.678  1.00  0.00     0.074 A 
ATOM     39  C   UNL A   1      40.544  27.595  28.616  1.00  0.00     0.049 A 
ATOM     40  N   UNL A   1      42.411  29.595  29.881  1.00  0.00    -0.248 NA
ATOM     41  C   UNL A   1      40.607  31.057  30.114  1.00  0.00     0.031 C 
ATOM     42  C   UNL A   1      39.694  26.607  27.947  1.00  0.00     0.029 A 
ATOM     43  N   UNL A   1      41.774  26.990  28.671  1.00  0.00    -0.354 N 
ATOM     44  C   UNL A   1      42.848  30.781  30.454  1.00  0.00     0.074 A 
ATOM     45  C   UNL A   1      41.710  31.671  30.511  1.00  0.00     0.031 C 
ATOM     46  C   UNL A   1      40.422  25.510  27.679  1.00  0.00     0.029 A 
ATOM     47  C   UNL A   1      41.795  25.731  28.121  1.00  0.00     0.049 A 
ATOM     48  H   UNL A   1      42.568  27.418  29.066  1.00  0.00     0.167 HD
ATOM     49  C   UNL A   1      44.082  31.092  30.919  1.00  0.00     0.037 A 
ATOM     50  C   UNL A   1      42.810  24.856  27.987  1.00  0.00     0.037 A 
ATOM     51  C   UNL A   1      45.205  30.194  30.886  1.00  0.00     0.049 A 
ATOM     52  C   UNL A   1      44.172  25.231  28.501  1.00  0.00     0.074 A 
ATOM     53  C   UNL A   1      46.484  30.396  31.374  1.00  0.00     0.029 A 
ATOM     54  N   UNL A   1      45.182  28.921  30.337  1.00  0.00    -0.354 N 
ATOM     55  N   UNL A   1      44.558  26.334  29.096  1.00  0.00    -0.248 NA
ATOM     56  C   UNL A   1      45.240  24.235  28.332  1.00  0.00     0.031 C 
ATOM     57  C   UNL A   1      47.245  29.259  31.086  1.00  0.00     0.029 A 
ATOM     58  C   UNL A   1      46.429  28.331  30.461  1.00  0.00     0.049 A 
ATOM     59  H   UNL A   1      44.395  28.499  29.922  1.00  0.00     0.167 HD
ATOM     60  C   UNL A   1      45.901  26.153  29.400  1.00  0.00     0.074 A 
ATOM     61  C   UNL A   1      46.260  24.829  28.936  1.00  0.00     0.031 C 
ATOM     62  C   UNL A   1      46.761  27.006  30.007  1.00  0.00     0.037 A 
BRANCH  49  63
ATOM     63  C   UNL A   1      44.272  32.455  31.516  1.00  0.00     0.057 A 
ATOM     64  C   UNL A   1      44.143  32.681  32.894  1.00  0.00     0.134 A 
ATOM     65  C   UNL A   1      44.623  33.548  30.713  1.00  0.00     0.134 A 
ATOM     66  F   UNL A   1      43.794  31.679  33.716  1.00  0.00    -0.206 F 
ATOM     67  C   UNL A   1      44.332  33.948  33.447  1.00  0.00     0.040 A 
ATOM     68  C   UNL A   1      44.842  34.814  31.259  1.00  0.00     0.040 A 
ATOM     69  F   UNL A   1      44.768  33.402  29.388  1.00  0.00    -0.206 F 
ATOM     70  C   UNL A   1      44.690  35.018  32.630  1.00  0.00     0.006 A 
ENDBRANCH  49  63
BRANCH  50  71
ATOM     71  C   UNL A   1      42.579  23.529  27.360  1.00  0.00     0.057 A 
ATOM     72  C   UNL A   1      42.245  22.414  28.137  1.00  0.00     0.134 A 
ATOM     73  C   UNL A   1      42.710  23.337  25.980  1.00  0.00     0.134 A 
ATOM     74  F   UNL A   1      42.123  22.531  29.468  1.00  0.00    -0.206 F 
ATOM     75  C   UNL A   1      42.076  21.150  27.570  1.00  0.00     0.040 A 
ATOM     76  C   UNL A   1      42.518  22.083  25.396  1.00  0.00     0.040 A 
ATOM     77  F   UNL A   1      43.021  24.366  25.178  1.00  0.00    -0.206 F 
ATOM     78  C   UNL A   1      42.209  20.983  26.194  1.00  0.00     0.006 A 
ENDBRANCH  50  71
BRANCH  62  79
ATOM     79  C   UNL A   1      48.160  26.516  30.245  1.00  0.00     0.057 A 
ATOM     80  C   UNL A   1      49.190  26.742  29.324  1.00  0.00     0.134 A 
ATOM     81  C   UNL A   1      48.484  25.846  31.431  1.00  0.00     0.134 A 
ATOM     82  F   UNL A   1      48.940  27.368  28.164  1.00  0.00    -0.206 F 
ATOM     83  C   UNL A   1      50.490  26.296  29.564  1.00  0.00     0.040 A 
ATOM     84  C   UNL A   1      49.787  25.419  31.693  1.00  0.00     0.040 A 
ATOM     85  F   UNL A   1      47.546  25.606  32.359  1.00  0.00    -0.206 F 
ATOM     86  C   UNL A   1      50.793  25.638  30.755  1.00  0.00     0.006 A 
ENDBRANCH  62  79
ENDBRANCH  36  37
ENDBRANCH  28  31
ENDBRANCH  26  27
ENDBRANCH  25  26
ENDBRANCH  24  25
ENDBRANCH   1  24
TORSDOF 16
ENDMDL
