MODEL 1
REMARK VINA RESULT:     -11.0      0.000      0.000
REMARK SMILES O=C(CCC(=O)Nc1ncc([N+](=O)[O-])s1)NCCCCCCNC(=O)c1ccc(-c2c3nc(c(-c4c(F)cccc4F)c4ccc([nH]4)c(-c4c(F)cccc4F)c4nc(c(-c5c(F)cccc5F)c5ccc2[nH]5)C=C4)C=C3)cc1
REMARK SMILES IDX 18 1 17 2 16 3 1 4 2 5 3 7 4 8 5 9 6 10 7 11 8 13 9 14 15 15
REMARK SMILES IDX 10 16 11 17 12 18 13 19 14 20 19 21 20 22 21 23 22 24 23 25
REMARK SMILES IDX 24 26 25 28 26 29 27 30 79 31 28 32 78 33 29 34 30 35 31 36
REMARK SMILES IDX 72 37 32 38 77 39 71 40 73 41 33 42 76 43 70 44 69 45 34 47
REMARK SMILES IDX 60 48 43 49 59 50 44 51 47 52 58 53 74 54 45 55 46 56 57 58
REMARK SMILES IDX 75 59 48 60 35 61 36 62 41 63 37 64 38 65 40 66 42 67 39 68
REMARK SMILES IDX 61 69 62 70 67 71 63 72 64 73 66 74 68 75 65 76 49 77 50 78
REMARK SMILES IDX 55 79 51 80 52 81 54 82 56 83 53 84
REMARK H PARENT 16 6 7 12 23 27 73 46 47 57
REMARK Flexibility Score: inf
ROOT
ATOM      1  C   UNL A   1      37.133  23.139  25.309  1.00  0.00     0.021 C 
ENDROOT
BRANCH   1   2
ATOM      2  C   UNL A   1      36.066  23.161  26.397  1.00  0.00     0.116 C 
BRANCH   2   3
ATOM      3  N   UNL A   1      34.720  23.080  25.869  1.00  0.00    -0.356 N 
ATOM      4  O   UNL A   1      33.811  21.969  27.663  1.00  0.00    -0.275 OA
ATOM      5  C   UNL A   1      33.675  22.542  26.588  1.00  0.00     0.220 C 
ATOM      6  H   UNL A   1      34.546  23.424  24.963  1.00  0.00     0.163 HD
BRANCH   5   7
ATOM      7  C   UNL A   1      32.323  22.736  25.930  1.00  0.00     0.110 C 
BRANCH   7   8
ATOM      8  C   UNL A   1      31.724  21.455  25.357  1.00  0.00     0.110 C 
BRANCH   8   9
ATOM      9  C   UNL A   1      32.254  21.108  23.978  1.00  0.00     0.226 C 
ATOM     10  O   UNL A   1      32.015  21.859  23.024  1.00  0.00    -0.275 OA
ATOM     11  N   UNL A   1      32.933  19.958  23.716  1.00  0.00    -0.302 N 
ATOM     12  H   UNL A   1      33.408  19.907  22.855  1.00  0.00     0.172 HD
BRANCH  11  13
ATOM     13  C   UNL A   1      33.020  18.872  24.534  1.00  0.00     0.195 A 
ATOM     14  N   UNL A   1      32.124  18.399  25.358  1.00  0.00    -0.221 NA
ATOM     15  S   UNL A   1      34.425  17.923  24.314  1.00  0.00    -0.024 S 
ATOM     16  C   UNL A   1      32.463  17.103  25.707  1.00  0.00     0.212 A 
ATOM     17  C   UNL A   1      33.664  16.677  25.195  1.00  0.00     0.345 A 
BRANCH  17  18
ATOM     18  N   UNL A   1      34.227  15.371  25.292  1.00  0.00     0.076 N 
ATOM     19  O   UNL A   1      33.453  14.408  25.349  1.00  0.00    -0.257 OA
ATOM     20  O   UNL A   1      35.462  15.307  25.330  1.00  0.00    -0.257 OA
ENDBRANCH  17  18
ENDBRANCH  11  13
ENDBRANCH   8   9
ENDBRANCH   7   8
ENDBRANCH   5   7
ENDBRANCH   2   3
ENDBRANCH   1   2
BRANCH   1  21
ATOM     21  C   UNL A   1      37.059  21.952  24.341  1.00  0.00     0.002 C 
BRANCH  21  22
ATOM     22  C   UNL A   1      36.844  20.577  24.981  1.00  0.00     0.002 C 
BRANCH  22  23
ATOM     23  C   UNL A   1      38.041  19.625  24.935  1.00  0.00     0.021 C 
BRANCH  23  24
ATOM     24  C   UNL A   1      39.248  20.039  25.773  1.00  0.00     0.116 C 
BRANCH  24  25
ATOM     25  N   UNL A   1      40.274  19.013  25.852  1.00  0.00    -0.352 N 
ATOM     26  C   UNL A   1      41.614  19.129  26.118  1.00  0.00     0.251 C 
ATOM     27  H   UNL A   1      39.959  18.094  25.689  1.00  0.00     0.163 HD
ATOM     28  O   UNL A   1      42.339  18.139  26.043  1.00  0.00    -0.269 OA
BRANCH  26  29
ATOM     29  C   UNL A   1      42.206  20.443  26.454  1.00  0.00     0.039 A 
ATOM     30  C   UNL A   1      42.776  21.199  25.425  1.00  0.00     0.014 A 
ATOM     31  C   UNL A   1      42.215  20.934  27.763  1.00  0.00     0.014 A 
ATOM     32  C   UNL A   1      43.288  22.468  25.695  1.00  0.00     0.010 A 
ATOM     33  C   UNL A   1      42.661  22.230  28.019  1.00  0.00     0.010 A 
ATOM     34  C   UNL A   1      43.199  23.012  26.987  1.00  0.00    -0.014 A 
BRANCH  34  35
ATOM     35  C   UNL A   1      43.635  24.408  27.251  1.00  0.00     0.031 A 
ATOM     36  C   UNL A   1      42.651  25.459  27.680  1.00  0.00     0.074 A 
ATOM     37  C   UNL A   1      44.929  24.738  27.062  1.00  0.00     0.049 A 
ATOM     38  N   UNL A   1      42.862  26.717  27.978  1.00  0.00    -0.248 NA
ATOM     39  C   UNL A   1      41.240  25.053  27.763  1.00  0.00     0.031 C 
ATOM     40  C   UNL A   1      45.972  23.826  26.589  1.00  0.00     0.029 A 
ATOM     41  N   UNL A   1      45.587  25.926  27.250  1.00  0.00    -0.354 N 
ATOM     42  C   UNL A   1      41.616  27.253  28.271  1.00  0.00     0.074 A 
ATOM     43  C   UNL A   1      40.646  26.198  28.066  1.00  0.00     0.031 C 
ATOM     44  C   UNL A   1      47.146  24.476  26.566  1.00  0.00     0.029 A 
ATOM     45  C   UNL A   1      46.934  25.855  26.990  1.00  0.00     0.049 A 
ATOM     46  H   UNL A   1      45.137  26.751  27.544  1.00  0.00     0.167 HD
ATOM     47  C   UNL A   1      41.308  28.503  28.695  1.00  0.00     0.037 A 
ATOM     48  C   UNL A   1      47.893  26.794  27.089  1.00  0.00     0.037 A 
ATOM     49  C   UNL A   1      42.278  29.547  28.914  1.00  0.00     0.049 A 
ATOM     50  C   UNL A   1      47.527  28.172  27.563  1.00  0.00     0.074 A 
ATOM     51  C   UNL A   1      42.076  30.820  29.418  1.00  0.00     0.029 A 
ATOM     52  N   UNL A   1      43.632  29.441  28.632  1.00  0.00    -0.354 N 
ATOM     53  N   UNL A   1      46.358  28.638  27.928  1.00  0.00    -0.248 NA
ATOM     54  C   UNL A   1      48.618  29.152  27.643  1.00  0.00     0.031 C 
ATOM     55  C   UNL A   1      43.298  31.502  29.389  1.00  0.00     0.029 A 
ATOM     56  C   UNL A   1      44.272  30.637  28.918  1.00  0.00     0.049 A 
ATOM     57  H   UNL A   1      44.073  28.634  28.280  1.00  0.00     0.167 HD
ATOM     58  C   UNL A   1      46.576  29.958  28.303  1.00  0.00     0.074 A 
ATOM     59  C   UNL A   1      47.993  30.208  28.143  1.00  0.00     0.031 C 
ATOM     60  C   UNL A   1      45.682  30.879  28.741  1.00  0.00     0.037 A 
BRANCH  47  61
ATOM     61  C   UNL A   1      39.858  28.812  28.943  1.00  0.00     0.057 A 
ATOM     62  C   UNL A   1      38.998  29.215  27.913  1.00  0.00     0.134 A 
ATOM     63  C   UNL A   1      39.310  28.682  30.226  1.00  0.00     0.134 A 
ATOM     64  F   UNL A   1      39.459  29.368  26.663  1.00  0.00    -0.206 F 
ATOM     65  C   UNL A   1      37.654  29.510  28.155  1.00  0.00     0.040 A 
ATOM     66  C   UNL A   1      37.961  28.947  30.475  1.00  0.00     0.040 A 
ATOM     67  F   UNL A   1      40.073  28.293  31.258  1.00  0.00    -0.206 F 
ATOM     68  C   UNL A   1      37.132  29.371  29.438  1.00  0.00     0.006 A 
ENDBRANCH  47  61
BRANCH  48  69
ATOM     69  C   UNL A   1      49.303  26.449  26.775  1.00  0.00     0.057 A 
ATOM     70  C   UNL A   1      49.833  26.686  25.501  1.00  0.00     0.134 A 
ATOM     71  C   UNL A   1      50.150  25.879  27.732  1.00  0.00     0.134 A 
ATOM     72  F   UNL A   1      49.065  27.213  24.537  1.00  0.00    -0.206 F 
ATOM     73  C   UNL A   1      51.151  26.353  25.184  1.00  0.00     0.040 A 
ATOM     74  C   UNL A   1      51.478  25.564  27.436  1.00  0.00     0.040 A 
ATOM     75  F   UNL A   1      49.703  25.635  28.972  1.00  0.00    -0.206 F 
ATOM     76  C   UNL A   1      51.979  25.795  26.157  1.00  0.00     0.006 A 
ENDBRANCH  48  69
BRANCH  60  77
ATOM     77  C   UNL A   1      46.221  32.236  29.090  1.00  0.00     0.057 A 
ATOM     78  C   UNL A   1      46.686  32.539  30.378  1.00  0.00     0.134 A 
ATOM     79  C   UNL A   1      46.279  33.253  28.129  1.00  0.00     0.134 A 
ATOM     80  F   UNL A   1      46.645  31.615  31.350  1.00  0.00    -0.206 F 
ATOM     81  C   UNL A   1      47.155  33.812  30.704  1.00  0.00     0.040 A 
ATOM     82  C   UNL A   1      46.774  34.521  28.436  1.00  0.00     0.040 A 
ATOM     83  F   UNL A   1      45.858  33.030  26.875  1.00  0.00    -0.206 F 
ATOM     84  C   UNL A   1      47.204  34.807  29.729  1.00  0.00     0.006 A 
ENDBRANCH  60  77
ENDBRANCH  34  35
ENDBRANCH  26  29
ENDBRANCH  24  25
ENDBRANCH  23  24
ENDBRANCH  22  23
ENDBRANCH  21  22
ENDBRANCH   1  21
TORSDOF 17
ENDMDL
MODEL 2
REMARK VINA RESULT:     -10.9      1.545      6.686
REMARK SMILES O=C(CCC(=O)Nc1ncc([N+](=O)[O-])s1)NCCCCCCNC(=O)c1ccc(-c2c3nc(c(-c4c(F)cccc4F)c4ccc([nH]4)c(-c4c(F)cccc4F)c4nc(c(-c5c(F)cccc5F)c5ccc2[nH]5)C=C4)C=C3)cc1
REMARK SMILES IDX 18 1 17 2 16 3 1 4 2 5 3 7 4 8 5 9 6 10 7 11 8 13 9 14 15 15
REMARK SMILES IDX 10 16 11 17 12 18 13 19 14 20 19 21 20 22 21 23 22 24 23 25
REMARK SMILES IDX 24 26 25 28 26 29 27 30 79 31 28 32 78 33 29 34 30 35 31 36
REMARK SMILES IDX 72 37 32 38 77 39 71 40 73 41 33 42 76 43 70 44 69 45 34 47
REMARK SMILES IDX 60 48 43 49 59 50 44 51 47 52 58 53 74 54 45 55 46 56 57 58
REMARK SMILES IDX 75 59 48 60 35 61 36 62 41 63 37 64 38 65 40 66 42 67 39 68
REMARK SMILES IDX 61 69 62 70 67 71 63 72 64 73 66 74 68 75 65 76 49 77 50 78
REMARK SMILES IDX 55 79 51 80 52 81 54 82 56 83 53 84
REMARK H PARENT 16 6 7 12 23 27 73 46 47 57
REMARK Flexibility Score: inf
ROOT
ATOM      1  C   UNL A   1      36.746  23.489  25.519  1.00  0.00     0.021 C 
ENDROOT
BRANCH   1   2
ATOM      2  C   UNL A   1      35.770  23.662  24.360  1.00  0.00     0.116 C 
BRANCH   2   3
ATOM      3  N   UNL A   1      34.736  24.637  24.635  1.00  0.00    -0.356 N 
ATOM      4  O   UNL A   1      34.023  24.867  22.463  1.00  0.00    -0.275 OA
ATOM      5  C   UNL A   1      33.892  25.114  23.656  1.00  0.00     0.220 C 
ATOM      6  H   UNL A   1      34.632  24.970  25.555  1.00  0.00     0.163 HD
BRANCH   5   7
ATOM      7  C   UNL A   1      32.763  25.971  24.195  1.00  0.00     0.110 C 
BRANCH   7   8
ATOM      8  C   UNL A   1      32.774  26.128  25.713  1.00  0.00     0.110 C 
BRANCH   8   9
ATOM      9  C   UNL A   1      31.528  25.580  26.383  1.00  0.00     0.226 C 
ATOM     10  O   UNL A   1      30.707  26.362  26.878  1.00  0.00    -0.275 OA
ATOM     11  N   UNL A   1      31.295  24.248  26.530  1.00  0.00    -0.302 N 
ATOM     12  H   UNL A   1      30.383  23.982  26.792  1.00  0.00     0.172 HD
BRANCH  11  13
ATOM     13  C   UNL A   1      32.202  23.248  26.350  1.00  0.00     0.195 A 
ATOM     14  N   UNL A   1      33.228  22.934  27.094  1.00  0.00    -0.221 NA
ATOM     15  S   UNL A   1      31.836  22.174  25.070  1.00  0.00    -0.024 S 
ATOM     16  C   UNL A   1      33.656  21.658  26.769  1.00  0.00     0.212 A 
ATOM     17  C   UNL A   1      32.982  21.089  25.716  1.00  0.00     0.345 A 
BRANCH  17  18
ATOM     18  N   UNL A   1      33.123  19.760  25.221  1.00  0.00     0.076 N 
ATOM     19  O   UNL A   1      34.181  19.460  24.655  1.00  0.00    -0.257 OA
ATOM     20  O   UNL A   1      32.154  19.008  25.383  1.00  0.00    -0.257 OA
ENDBRANCH  17  18
ENDBRANCH  11  13
ENDBRANCH   8   9
ENDBRANCH   7   8
ENDBRANCH   5   7
ENDBRANCH   2   3
ENDBRANCH   1   2
BRANCH   1  21
ATOM     21  C   UNL A   1      37.785  22.375  25.340  1.00  0.00     0.002 C 
BRANCH  21  22
ATOM     22  C   UNL A   1      37.297  21.111  24.628  1.00  0.00     0.002 C 
BRANCH  22  23
ATOM     23  C   UNL A   1      38.100  19.838  24.905  1.00  0.00     0.021 C 
BRANCH  23  24
ATOM     24  C   UNL A   1      39.137  19.939  26.021  1.00  0.00     0.116 C 
BRANCH  24  25
ATOM     25  N   UNL A   1      40.210  18.967  25.901  1.00  0.00    -0.352 N 
ATOM     26  C   UNL A   1      41.566  19.136  26.021  1.00  0.00     0.251 C 
ATOM     27  H   UNL A   1      39.920  18.047  25.704  1.00  0.00     0.163 HD
ATOM     28  O   UNL A   1      42.320  18.194  25.786  1.00  0.00    -0.269 OA
BRANCH  26  29
ATOM     29  C   UNL A   1      42.134  20.452  26.390  1.00  0.00     0.039 A 
ATOM     30  C   UNL A   1      42.540  21.311  25.365  1.00  0.00     0.014 A 
ATOM     31  C   UNL A   1      42.277  20.844  27.724  1.00  0.00     0.014 A 
ATOM     32  C   UNL A   1      43.023  22.584  25.674  1.00  0.00     0.010 A 
ATOM     33  C   UNL A   1      42.691  22.140  28.029  1.00  0.00     0.010 A 
ATOM     34  C   UNL A   1      43.065  23.024  27.008  1.00  0.00    -0.014 A 
BRANCH  34  35
ATOM     35  C   UNL A   1      43.466  24.419  27.329  1.00  0.00     0.031 A 
ATOM     36  C   UNL A   1      44.897  24.860  27.213  1.00  0.00     0.074 A 
ATOM     37  C   UNL A   1      42.531  25.285  27.768  1.00  0.00     0.049 A 
ATOM     38  N   UNL A   1      45.417  26.043  27.426  1.00  0.00    -0.248 NA
ATOM     39  C   UNL A   1      45.879  23.835  26.829  1.00  0.00     0.031 C 
ATOM     40  C   UNL A   1      41.118  24.965  27.983  1.00  0.00     0.029 A 
ATOM     41  N   UNL A   1      42.626  26.611  28.106  1.00  0.00    -0.354 N 
ATOM     42  C   UNL A   1      46.782  25.902  27.215  1.00  0.00     0.074 A 
ATOM     43  C   UNL A   1      47.018  24.507  26.908  1.00  0.00     0.031 C 
ATOM     44  C   UNL A   1      40.471  26.074  28.374  1.00  0.00     0.029 A 
ATOM     45  C   UNL A   1      41.426  27.173  28.470  1.00  0.00     0.049 A 
ATOM     46  H   UNL A   1      43.474  27.112  28.091  1.00  0.00     0.167 HD
ATOM     47  C   UNL A   1      47.749  26.851  27.251  1.00  0.00     0.037 A 
ATOM     48  C   UNL A   1      41.126  28.434  28.831  1.00  0.00     0.037 A 
ATOM     49  C   UNL A   1      47.510  28.243  27.542  1.00  0.00     0.049 A 
ATOM     50  C   UNL A   1      42.216  29.468  28.862  1.00  0.00     0.074 A 
ATOM     51  C   UNL A   1      48.408  29.295  27.526  1.00  0.00     0.029 A 
ATOM     52  N   UNL A   1      46.283  28.773  27.913  1.00  0.00    -0.354 N 
ATOM     53  N   UNL A   1      43.486  29.341  28.567  1.00  0.00    -0.248 NA
ATOM     54  C   UNL A   1      41.824  30.824  29.272  1.00  0.00     0.031 C 
ATOM     55  C   UNL A   1      47.738  30.452  27.940  1.00  0.00     0.029 A 
ATOM     56  C   UNL A   1      46.408  30.131  28.162  1.00  0.00     0.049 A 
ATOM     57  H   UNL A   1      45.445  28.260  27.989  1.00  0.00     0.167 HD
ATOM     58  C   UNL A   1      44.042  30.604  28.734  1.00  0.00     0.074 A 
ATOM     59  C   UNL A   1      42.964  31.485  29.131  1.00  0.00     0.031 C 
ATOM     60  C   UNL A   1      45.330  30.997  28.571  1.00  0.00     0.037 A 
BRANCH  47  61
ATOM     61  C   UNL A   1      49.160  26.412  26.976  1.00  0.00     0.057 A 
ATOM     62  C   UNL A   1      50.026  26.009  28.002  1.00  0.00     0.134 A 
ATOM     63  C   UNL A   1      49.652  26.371  25.665  1.00  0.00     0.134 A 
ATOM     64  F   UNL A   1      49.623  26.033  29.281  1.00  0.00    -0.206 F 
ATOM     65  C   UNL A   1      51.339  25.612  27.737  1.00  0.00     0.040 A 
ATOM     66  C   UNL A   1      50.954  25.949  25.386  1.00  0.00     0.040 A 
ATOM     67  F   UNL A   1      48.876  26.735  24.633  1.00  0.00    -0.206 F 
ATOM     68  C   UNL A   1      51.803  25.577  26.425  1.00  0.00     0.006 A 
ENDBRANCH  47  61
BRANCH  48  69
ATOM     69  C   UNL A   1      39.723  28.800  29.149  1.00  0.00     0.057 A 
ATOM     70  C   UNL A   1      38.852  29.244  28.148  1.00  0.00     0.134 A 
ATOM     71  C   UNL A   1      39.220  28.717  30.453  1.00  0.00     0.134 A 
ATOM     72  F   UNL A   1      39.281  29.361  26.883  1.00  0.00    -0.206 F 
ATOM     73  C   UNL A   1      37.534  29.608  28.432  1.00  0.00     0.040 A 
ATOM     74  C   UNL A   1      37.898  29.054  30.748  1.00  0.00     0.040 A 
ATOM     75  F   UNL A   1      40.003  28.293  31.455  1.00  0.00    -0.206 F 
ATOM     76  C   UNL A   1      37.053  29.507  29.736  1.00  0.00     0.006 A 
ENDBRANCH  48  69
BRANCH  60  77
ATOM     77  C   UNL A   1      45.633  32.448  28.810  1.00  0.00     0.057 A 
ATOM     78  C   UNL A   1      45.518  33.405  27.792  1.00  0.00     0.134 A 
ATOM     79  C   UNL A   1      46.041  32.896  30.072  1.00  0.00     0.134 A 
ATOM     80  F   UNL A   1      45.146  33.041  26.555  1.00  0.00    -0.206 F 
ATOM     81  C   UNL A   1      45.833  34.747  28.012  1.00  0.00     0.040 A 
ATOM     82  C   UNL A   1      46.330  34.240  30.312  1.00  0.00     0.040 A 
ATOM     83  F   UNL A   1      46.164  32.035  31.094  1.00  0.00    -0.206 F 
ATOM     84  C   UNL A   1      46.236  35.168  29.278  1.00  0.00     0.006 A 
ENDBRANCH  60  77
ENDBRANCH  34  35
ENDBRANCH  26  29
ENDBRANCH  24  25
ENDBRANCH  23  24
ENDBRANCH  22  23
ENDBRANCH  21  22
ENDBRANCH   1  21
TORSDOF 17
ENDMDL
MODEL 3
REMARK VINA RESULT:     -10.9      6.736     11.321
REMARK SMILES O=C(CCC(=O)Nc1ncc([N+](=O)[O-])s1)NCCCCCCNC(=O)c1ccc(-c2c3nc(c(-c4c(F)cccc4F)c4ccc([nH]4)c(-c4c(F)cccc4F)c4nc(c(-c5c(F)cccc5F)c5ccc2[nH]5)C=C4)C=C3)cc1
REMARK SMILES IDX 18 1 17 2 16 3 1 4 2 5 3 7 4 8 5 9 6 10 7 11 8 13 9 14 15 15
REMARK SMILES IDX 10 16 11 17 12 18 13 19 14 20 19 21 20 22 21 23 22 24 23 25
REMARK SMILES IDX 24 26 25 28 26 29 27 30 79 31 28 32 78 33 29 34 30 35 31 36
REMARK SMILES IDX 72 37 32 38 77 39 71 40 73 41 33 42 76 43 70 44 69 45 34 47
REMARK SMILES IDX 60 48 43 49 59 50 44 51 47 52 58 53 74 54 45 55 46 56 57 58
REMARK SMILES IDX 75 59 48 60 35 61 36 62 41 63 37 64 38 65 40 66 42 67 39 68
REMARK SMILES IDX 61 69 62 70 67 71 63 72 64 73 66 74 68 75 65 76 49 77 50 78
REMARK SMILES IDX 55 79 51 80 52 81 54 82 56 83 53 84
REMARK H PARENT 16 6 7 12 23 27 73 46 47 57
REMARK Flexibility Score: inf
ROOT
ATOM      1  C   UNL A   1      34.373  32.745  28.986  1.00  0.00     0.021 C 
ENDROOT
BRANCH   1   2
ATOM      2  C   UNL A   1      34.905  31.535  28.226  1.00  0.00     0.116 C 
BRANCH   2   3
ATOM      3  N   UNL A   1      33.903  30.510  28.026  1.00  0.00    -0.356 N 
ATOM      4  O   UNL A   1      35.135  29.234  26.565  1.00  0.00    -0.275 OA
ATOM      5  C   UNL A   1      34.132  29.394  27.252  1.00  0.00     0.220 C 
ATOM      6  H   UNL A   1      33.025  30.615  28.459  1.00  0.00     0.163 HD
BRANCH   5   7
ATOM      7  C   UNL A   1      33.026  28.360  27.338  1.00  0.00     0.110 C 
BRANCH   7   8
ATOM      8  C   UNL A   1      31.661  28.874  26.890  1.00  0.00     0.110 C 
BRANCH   8   9
ATOM      9  C   UNL A   1      31.742  29.912  25.786  1.00  0.00     0.226 C 
ATOM     10  O   UNL A   1      31.549  31.105  26.054  1.00  0.00    -0.275 OA
ATOM     11  N   UNL A   1      31.955  29.588  24.483  1.00  0.00    -0.302 N 
ATOM     12  H   UNL A   1      32.191  30.324  23.873  1.00  0.00     0.172 HD
BRANCH  11  13
ATOM     13  C   UNL A   1      31.874  28.340  23.941  1.00  0.00     0.195 A 
ATOM     14  N   UNL A   1      30.810  27.677  23.576  1.00  0.00    -0.221 NA
ATOM     15  S   UNL A   1      33.380  27.635  23.543  1.00  0.00    -0.024 S 
ATOM     16  C   UNL A   1      31.183  26.630  22.752  1.00  0.00     0.212 A 
ATOM     17  C   UNL A   1      32.541  26.490  22.599  1.00  0.00     0.345 A 
BRANCH  17  18
ATOM     18  N   UNL A   1      33.221  25.579  21.739  1.00  0.00     0.076 N 
ATOM     19  O   UNL A   1      33.826  24.633  22.257  1.00  0.00    -0.257 OA
ATOM     20  O   UNL A   1      33.166  25.823  20.527  1.00  0.00    -0.257 OA
ENDBRANCH  17  18
ENDBRANCH  11  13
ENDBRANCH   8   9
ENDBRANCH   7   8
ENDBRANCH   5   7
ENDBRANCH   2   3
ENDBRANCH   1   2
BRANCH   1  21
ATOM     21  C   UNL A   1      35.247  34.003  28.910  1.00  0.00     0.002 C 
BRANCH  21  22
ATOM     22  C   UNL A   1      34.592  35.239  28.286  1.00  0.00     0.002 C 
BRANCH  22  23
ATOM     23  C   UNL A   1      33.237  35.642  28.872  1.00  0.00     0.021 C 
BRANCH  23  24
ATOM     24  C   UNL A   1      33.281  36.703  29.970  1.00  0.00     0.116 C 
BRANCH  24  25
ATOM     25  N   UNL A   1      32.388  36.418  31.081  1.00  0.00    -0.352 N 
ATOM     26  C   UNL A   1      32.545  35.555  32.135  1.00  0.00     0.251 C 
ATOM     27  H   UNL A   1      31.542  36.921  31.076  1.00  0.00     0.163 HD
ATOM     28  O   UNL A   1      31.621  35.387  32.928  1.00  0.00    -0.269 OA
BRANCH  26  29
ATOM     29  C   UNL A   1      33.802  34.792  32.306  1.00  0.00     0.039 A 
ATOM     30  C   UNL A   1      35.014  35.485  32.238  1.00  0.00     0.014 A 
ATOM     31  C   UNL A   1      33.801  33.411  32.523  1.00  0.00     0.014 A 
ATOM     32  C   UNL A   1      36.215  34.809  32.455  1.00  0.00     0.010 A 
ATOM     33  C   UNL A   1      34.995  32.750  32.812  1.00  0.00     0.010 A 
ATOM     34  C   UNL A   1      36.214  33.443  32.784  1.00  0.00    -0.014 A 
BRANCH  34  35
ATOM     35  C   UNL A   1      37.481  32.749  33.133  1.00  0.00     0.031 A 
ATOM     36  C   UNL A   1      38.206  33.058  34.412  1.00  0.00     0.074 A 
ATOM     37  C   UNL A   1      38.002  31.859  32.265  1.00  0.00     0.049 A 
ATOM     38  N   UNL A   1      39.307  32.529  34.887  1.00  0.00    -0.248 NA
ATOM     39  C   UNL A   1      37.636  34.115  35.261  1.00  0.00     0.031 C 
ATOM     40  C   UNL A   1      37.429  31.516  30.962  1.00  0.00     0.029 A 
ATOM     41  N   UNL A   1      39.126  31.077  32.350  1.00  0.00    -0.354 N 
ATOM     42  C   UNL A   1      39.565  33.194  36.077  1.00  0.00     0.074 A 
ATOM     43  C   UNL A   1      38.537  34.201  36.229  1.00  0.00     0.031 C 
ATOM     44  C   UNL A   1      38.179  30.561  30.390  1.00  0.00     0.029 A 
ATOM     45  C   UNL A   1      39.302  30.250  31.266  1.00  0.00     0.049 A 
ATOM     46  H   UNL A   1      39.747  31.107  33.113  1.00  0.00     0.167 HD
ATOM     47  C   UNL A   1      40.556  32.972  36.976  1.00  0.00     0.037 A 
ATOM     48  C   UNL A   1      40.258  29.337  31.012  1.00  0.00     0.037 A 
ATOM     49  C   UNL A   1      41.570  31.958  36.830  1.00  0.00     0.049 A 
ATOM     50  C   UNL A   1      41.344  29.109  32.024  1.00  0.00     0.074 A 
ATOM     51  C   UNL A   1      42.568  31.602  37.720  1.00  0.00     0.029 A 
ATOM     52  N   UNL A   1      41.722  31.145  35.717  1.00  0.00    -0.354 N 
ATOM     53  N   UNL A   1      41.522  29.679  33.190  1.00  0.00    -0.248 NA
ATOM     54  C   UNL A   1      42.360  28.103  31.683  1.00  0.00     0.031 C 
ATOM     55  C   UNL A   1      43.357  30.612  37.123  1.00  0.00     0.029 A 
ATOM     56  C   UNL A   1      42.818  30.312  35.882  1.00  0.00     0.049 A 
ATOM     57  H   UNL A   1      41.137  31.157  34.924  1.00  0.00     0.167 HD
ATOM     58  C   UNL A   1      42.656  29.086  33.733  1.00  0.00     0.074 A 
ATOM     59  C   UNL A   1      43.107  28.096  32.777  1.00  0.00     0.031 C 
ATOM     60  C   UNL A   1      43.267  29.340  34.917  1.00  0.00     0.037 A 
BRANCH  47  61
ATOM     61  C   UNL A   1      40.594  33.850  38.194  1.00  0.00     0.057 A 
ATOM     62  C   UNL A   1      39.825  33.575  39.333  1.00  0.00     0.134 A 
ATOM     63  C   UNL A   1      41.429  34.975  38.237  1.00  0.00     0.134 A 
ATOM     64  F   UNL A   1      38.998  32.520  39.356  1.00  0.00    -0.206 F 
ATOM     65  C   UNL A   1      39.860  34.403  40.457  1.00  0.00     0.040 A 
ATOM     66  C   UNL A   1      41.493  35.795  39.367  1.00  0.00     0.040 A 
ATOM     67  F   UNL A   1      42.199  35.295  37.186  1.00  0.00    -0.206 F 
ATOM     68  C   UNL A   1      40.699  35.514  40.477  1.00  0.00     0.006 A 
ENDBRANCH  47  61
BRANCH  48  69
ATOM     69  C   UNL A   1      40.203  28.536  29.763  1.00  0.00     0.057 A 
ATOM     70  C   UNL A   1      39.443  27.363  29.695  1.00  0.00     0.134 A 
ATOM     71  C   UNL A   1      40.904  28.920  28.614  1.00  0.00     0.134 A 
ATOM     72  F   UNL A   1      38.765  26.935  30.768  1.00  0.00    -0.206 F 
ATOM     73  C   UNL A   1      39.394  26.589  28.533  1.00  0.00     0.040 A 
ATOM     74  C   UNL A   1      40.845  28.170  27.438  1.00  0.00     0.040 A 
ATOM     75  F   UNL A   1      41.644  30.037  28.614  1.00  0.00    -0.206 F 
ATOM     76  C   UNL A   1      40.093  26.997  27.398  1.00  0.00     0.006 A 
ENDBRANCH  48  69
BRANCH  60  77
ATOM     77  C   UNL A   1      44.480  28.518  35.245  1.00  0.00     0.057 A 
ATOM     78  C   UNL A   1      44.385  27.291  35.914  1.00  0.00     0.134 A 
ATOM     79  C   UNL A   1      45.761  28.958  34.885  1.00  0.00     0.134 A 
ATOM     80  F   UNL A   1      43.190  26.818  36.300  1.00  0.00    -0.206 F 
ATOM     81  C   UNL A   1      45.520  26.549  36.245  1.00  0.00     0.040 A 
ATOM     82  C   UNL A   1      46.901  28.210  35.183  1.00  0.00     0.040 A 
ATOM     83  F   UNL A   1      45.925  30.120  34.236  1.00  0.00    -0.206 F 
ATOM     84  C   UNL A   1      46.783  27.007  35.875  1.00  0.00     0.006 A 
ENDBRANCH  60  77
ENDBRANCH  34  35
ENDBRANCH  26  29
ENDBRANCH  24  25
ENDBRANCH  23  24
ENDBRANCH  22  23
ENDBRANCH  21  22
ENDBRANCH   1  21
TORSDOF 17
ENDMDL
