MODEL 1
REMARK VINA RESULT:     -11.8      0.000      0.000
REMARK SMILES O=C(NCCCCCCNC(=O)c1ccc(-c2c3nc(c(-c4c(F)cccc4F)c4ccc([nH]4)c(-c4c(F)cccc4F)c4nc(c(-c5c(F)cccc5F)c5ccc2[nH]5)C=C4)C=C3)cc1)C1=Cc2cc(Cl)ccc2O[C@@H]1C(F)(F)F
REMARK SMILES IDX 7 1 6 2 5 3 4 4 3 5 1 6 2 7 67 9 68 10 77 11 69 12 76 13
REMARK SMILES IDX 70 14 75 15 71 16 74 17 72 18 73 19 78 20 79 21 80 22 81 23
REMARK SMILES IDX 8 24 9 25 10 26 11 27 12 29 13 30 14 31 66 32 15 33 65 34
REMARK SMILES IDX 16 35 17 36 18 37 59 38 19 39 64 40 58 41 60 42 20 43 63 44
REMARK SMILES IDX 57 45 56 46 21 48 47 49 30 50 46 51 31 52 34 53 45 54 61 55
REMARK SMILES IDX 32 56 33 57 44 59 62 60 35 61 22 62 23 63 28 64 24 65 25 66
REMARK SMILES IDX 27 67 29 68 26 69 48 70 49 71 54 72 50 73 51 74 53 75 55 76
REMARK SMILES IDX 52 77 36 78 37 79 42 80 38 81 39 82 41 83 43 84 40 85
REMARK H PARENT 3 8 10 28 60 47 34 58
REMARK Flexibility Score: inf
ROOT
ATOM      1  C   UNL A   1      37.920  21.304  24.943  1.00  0.00     0.002 C 
ENDROOT
BRANCH   1   2
ATOM      2  C   UNL A   1      38.364  22.259  26.060  1.00  0.00     0.002 C 
BRANCH   2   3
ATOM      3  C   UNL A   1      37.682  23.625  26.094  1.00  0.00     0.021 C 
BRANCH   3   4
ATOM      4  C   UNL A   1      36.193  23.619  25.766  1.00  0.00     0.116 C 
BRANCH   4   5
ATOM      5  N   UNL A   1      35.347  22.978  26.756  1.00  0.00    -0.352 N 
ATOM      6  O   UNL A   1      33.992  21.408  27.619  1.00  0.00    -0.270 OA
ATOM      7  C   UNL A   1      34.459  21.946  26.617  1.00  0.00     0.251 C 
ATOM      8  H   UNL A   1      35.421  23.342  27.668  1.00  0.00     0.163 HD
BRANCH   7   9
ATOM      9  C   UNL A   1      34.103  21.377  25.285  1.00  0.00     0.067 C 
ATOM     10  C   UNL A   1      34.871  20.448  24.688  1.00  0.00     0.025 C 
ATOM     11  C   UNL A   1      32.620  21.415  24.996  1.00  0.00     0.314 C 
ATOM     12  C   UNL A   1      34.191  19.127  24.650  1.00  0.00     0.019 A 
ATOM     13  O   UNL A   1      32.009  20.108  25.171  1.00  0.00    -0.475 OA
ATOM     14  C   UNL A   1      34.993  17.980  24.597  1.00  0.00     0.032 A 
ATOM     15  C   UNL A   1      32.834  19.023  25.006  1.00  0.00     0.128 A 
ATOM     16  C   UNL A   1      34.458  16.756  24.997  1.00  0.00     0.041 A 
ATOM     17  C   UNL A   1      32.300  17.786  25.360  1.00  0.00     0.048 A 
ATOM     18  Cl  UNL A   1      35.490  15.387  25.143  1.00  0.00    -0.084 Cl
ATOM     19  C   UNL A   1      33.121  16.656  25.384  1.00  0.00     0.024 A 
BRANCH  11  20
ATOM     20  C   UNL A   1      32.313  21.993  23.606  1.00  0.00     0.429 C 
ATOM     21  F   UNL A   1      31.235  22.814  23.644  1.00  0.00    -0.167 F 
ATOM     22  F   UNL A   1      33.347  22.723  23.124  1.00  0.00    -0.167 F 
ATOM     23  F   UNL A   1      32.048  21.027  22.694  1.00  0.00    -0.167 F 
ENDBRANCH  11  20
ENDBRANCH   7   9
ENDBRANCH   4   5
ENDBRANCH   3   4
ENDBRANCH   2   3
ENDBRANCH   1   2
BRANCH   1  24
ATOM     24  C   UNL A   1      38.615  19.940  24.886  1.00  0.00     0.021 C 
BRANCH  24  25
ATOM     25  C   UNL A   1      39.353  19.515  26.153  1.00  0.00     0.116 C 
BRANCH  25  26
ATOM     26  N   UNL A   1      40.659  18.941  25.873  1.00  0.00    -0.352 N 
ATOM     27  C   UNL A   1      41.904  19.513  25.897  1.00  0.00     0.251 C 
ATOM     28  H   UNL A   1      40.647  17.988  25.629  1.00  0.00     0.163 HD
ATOM     29  O   UNL A   1      42.869  18.878  25.464  1.00  0.00    -0.269 OA
BRANCH  27  30
ATOM     30  C   UNL A   1      42.109  20.884  26.413  1.00  0.00     0.039 A 
ATOM     31  C   UNL A   1      42.031  21.098  27.793  1.00  0.00     0.014 A 
ATOM     32  C   UNL A   1      42.331  21.963  25.554  1.00  0.00     0.014 A 
ATOM     33  C   UNL A   1      42.229  22.380  28.312  1.00  0.00     0.010 A 
ATOM     34  C   UNL A   1      42.605  23.226  26.078  1.00  0.00     0.010 A 
ATOM     35  C   UNL A   1      42.550  23.450  27.461  1.00  0.00    -0.014 A 
BRANCH  35  36
ATOM     36  C   UNL A   1      42.818  24.807  28.006  1.00  0.00     0.031 A 
ATOM     37  C   UNL A   1      44.209  25.194  28.431  1.00  0.00     0.074 A 
ATOM     38  C   UNL A   1      41.801  25.677  28.159  1.00  0.00     0.049 A 
ATOM     39  N   UNL A   1      44.627  26.307  28.979  1.00  0.00    -0.248 NA
ATOM     40  C   UNL A   1      45.265  24.187  28.238  1.00  0.00     0.031 C 
ATOM     41  C   UNL A   1      40.401  25.410  27.825  1.00  0.00     0.029 A 
ATOM     42  N   UNL A   1      41.787  26.961  28.645  1.00  0.00    -0.354 N 
ATOM     43  C   UNL A   1      45.988  26.134  29.197  1.00  0.00     0.074 A 
ATOM     44  C   UNL A   1      46.314  24.787  28.783  1.00  0.00     0.031 C 
ATOM     45  C   UNL A   1      39.668  26.500  28.099  1.00  0.00     0.029 A 
ATOM     46  C   UNL A   1      40.535  27.528  28.665  1.00  0.00     0.049 A 
ATOM     47  H   UNL A   1      42.596  27.432  28.950  1.00  0.00     0.167 HD
ATOM     48  C   UNL A   1      46.891  27.024  29.674  1.00  0.00     0.037 A 
ATOM     49  C   UNL A   1      40.129  28.735  29.103  1.00  0.00     0.037 A 
ATOM     50  C   UNL A   1      46.567  28.367  30.079  1.00  0.00     0.049 A 
ATOM     51  C   UNL A   1      41.147  29.698  29.649  1.00  0.00     0.074 A 
ATOM     52  C   UNL A   1      47.416  29.357  30.542  1.00  0.00     0.029 A 
ATOM     53  N   UNL A   1      45.290  28.909  30.070  1.00  0.00    -0.354 N 
ATOM     54  N   UNL A   1      42.440  29.541  29.794  1.00  0.00    -0.248 NA
ATOM     55  C   UNL A   1      40.650  31.011  30.086  1.00  0.00     0.031 C 
ATOM     56  C   UNL A   1      46.647  30.482  30.858  1.00  0.00     0.029 A 
ATOM     57  C   UNL A   1      45.326  30.213  30.539  1.00  0.00     0.049 A 
ATOM     58  H   UNL A   1      44.478  28.436  29.774  1.00  0.00     0.167 HD
ATOM     59  C   UNL A   1      42.915  30.740  30.311  1.00  0.00     0.074 A 
ATOM     60  C   UNL A   1      41.773  31.621  30.436  1.00  0.00     0.031 C 
ATOM     61  C   UNL A   1      44.182  31.081  30.652  1.00  0.00     0.037 A 
BRANCH  48  62
ATOM     62  C   UNL A   1      48.321  26.574  29.776  1.00  0.00     0.057 A 
ATOM     63  C   UNL A   1      49.238  26.792  28.738  1.00  0.00     0.134 A 
ATOM     64  C   UNL A   1      48.798  25.948  30.935  1.00  0.00     0.134 A 
ATOM     65  F   UNL A   1      48.845  27.377  27.596  1.00  0.00    -0.206 F 
ATOM     66  C   UNL A   1      50.568  26.382  28.839  1.00  0.00     0.040 A 
ATOM     67  C   UNL A   1      50.133  25.559  31.059  1.00  0.00     0.040 A 
ATOM     68  F   UNL A   1      47.978  25.715  31.970  1.00  0.00    -0.206 F 
ATOM     69  C   UNL A   1      51.021  25.770  30.005  1.00  0.00     0.006 A 
ENDBRANCH  48  62
BRANCH  49  70
ATOM     70  C   UNL A   1      38.692  29.106  29.037  1.00  0.00     0.057 A 
ATOM     71  C   UNL A   1      38.118  29.591  27.855  1.00  0.00     0.134 A 
ATOM     72  C   UNL A   1      37.859  28.999  30.158  1.00  0.00     0.134 A 
ATOM     73  F   UNL A   1      38.867  29.734  26.752  1.00  0.00    -0.206 F 
ATOM     74  C   UNL A   1      36.779  29.980  27.796  1.00  0.00     0.040 A 
ATOM     75  C   UNL A   1      36.511  29.356  30.106  1.00  0.00     0.040 A 
ATOM     76  F   UNL A   1      38.343  28.532  31.319  1.00  0.00    -0.206 F 
ATOM     77  C   UNL A   1      35.970  29.859  28.924  1.00  0.00     0.006 A 
ENDBRANCH  49  70
BRANCH  61  78
ATOM     78  C   UNL A   1      44.407  32.477  31.157  1.00  0.00     0.057 A 
ATOM     79  C   UNL A   1      44.396  32.783  32.524  1.00  0.00     0.134 A 
ATOM     80  C   UNL A   1      44.676  33.522  30.262  1.00  0.00     0.134 A 
ATOM     81  F   UNL A   1      44.132  31.830  33.431  1.00  0.00    -0.206 F 
ATOM     82  C   UNL A   1      44.620  34.082  32.981  1.00  0.00     0.040 A 
ATOM     83  C   UNL A   1      44.930  34.819  30.711  1.00  0.00     0.040 A 
ATOM     84  F   UNL A   1      44.711  33.296  28.941  1.00  0.00    -0.206 F 
ATOM     85  C   UNL A   1      44.895  35.103  32.074  1.00  0.00     0.006 A 
ENDBRANCH  61  78
ENDBRANCH  35  36
ENDBRANCH  27  30
ENDBRANCH  25  26
ENDBRANCH  24  25
ENDBRANCH   1  24
TORSDOF 14
ENDMDL
MODEL 2
REMARK VINA RESULT:     -11.8      0.110      1.649
REMARK SMILES O=C(NCCCCCCNC(=O)c1ccc(-c2c3nc(c(-c4c(F)cccc4F)c4ccc([nH]4)c(-c4c(F)cccc4F)c4nc(c(-c5c(F)cccc5F)c5ccc2[nH]5)C=C4)C=C3)cc1)C1=Cc2cc(Cl)ccc2O[C@@H]1C(F)(F)F
REMARK SMILES IDX 7 1 6 2 5 3 4 4 3 5 1 6 2 7 67 9 68 10 77 11 69 12 76 13
REMARK SMILES IDX 70 14 75 15 71 16 74 17 72 18 73 19 78 20 79 21 80 22 81 23
REMARK SMILES IDX 8 24 9 25 10 26 11 27 12 29 13 30 14 31 66 32 15 33 65 34
REMARK SMILES IDX 16 35 17 36 18 37 59 38 19 39 64 40 58 41 60 42 20 43 63 44
REMARK SMILES IDX 57 45 56 46 21 48 47 49 30 50 46 51 31 52 34 53 45 54 61 55
REMARK SMILES IDX 32 56 33 57 44 59 62 60 35 61 22 62 23 63 28 64 24 65 25 66
REMARK SMILES IDX 27 67 29 68 26 69 48 70 49 71 54 72 50 73 51 74 53 75 55 76
REMARK SMILES IDX 52 77 36 78 37 79 42 80 38 81 39 82 41 83 43 84 40 85
REMARK H PARENT 3 8 10 28 60 47 34 58
REMARK Flexibility Score: inf
ROOT
ATOM      1  C   UNL A   1      37.959  21.304  24.963  1.00  0.00     0.002 C 
ENDROOT
BRANCH   1   2
ATOM      2  C   UNL A   1      38.494  22.292  26.009  1.00  0.00     0.002 C 
BRANCH   2   3
ATOM      3  C   UNL A   1      37.722  23.601  26.160  1.00  0.00     0.021 C 
BRANCH   3   4
ATOM      4  C   UNL A   1      36.248  23.538  25.775  1.00  0.00     0.116 C 
BRANCH   4   5
ATOM      5  N   UNL A   1      35.379  22.924  26.763  1.00  0.00    -0.352 N 
ATOM      6  O   UNL A   1      33.980  21.395  27.626  1.00  0.00    -0.270 OA
ATOM      7  C   UNL A   1      34.467  21.914  26.624  1.00  0.00     0.251 C 
ATOM      8  H   UNL A   1      35.458  23.291  27.674  1.00  0.00     0.163 HD
BRANCH   7   9
ATOM      9  C   UNL A   1      34.103  21.348  25.292  1.00  0.00     0.067 C 
ATOM     10  C   UNL A   1      34.870  20.422  24.689  1.00  0.00     0.025 C 
ATOM     11  C   UNL A   1      32.619  21.383  25.013  1.00  0.00     0.314 C 
ATOM     12  C   UNL A   1      34.193  19.099  24.652  1.00  0.00     0.019 A 
ATOM     13  O   UNL A   1      32.012  20.074  25.188  1.00  0.00    -0.475 OA
ATOM     14  C   UNL A   1      34.997  17.954  24.591  1.00  0.00     0.032 A 
ATOM     15  C   UNL A   1      32.839  18.991  25.016  1.00  0.00     0.128 A 
ATOM     16  C   UNL A   1      34.467  16.728  24.991  1.00  0.00     0.041 A 
ATOM     17  C   UNL A   1      32.309  17.753  25.370  1.00  0.00     0.048 A 
ATOM     18  Cl  UNL A   1      35.503  15.361  25.128  1.00  0.00    -0.084 Cl
ATOM     19  C   UNL A   1      33.133  16.625  25.387  1.00  0.00     0.024 A 
BRANCH  11  20
ATOM     20  C   UNL A   1      32.302  21.964  23.626  1.00  0.00     0.429 C 
ATOM     21  F   UNL A   1      33.366  22.633  23.119  1.00  0.00    -0.167 F 
ATOM     22  F   UNL A   1      31.986  20.994  22.735  1.00  0.00    -0.167 F 
ATOM     23  F   UNL A   1      31.261  22.831  23.656  1.00  0.00    -0.167 F 
ENDBRANCH  11  20
ENDBRANCH   7   9
ENDBRANCH   4   5
ENDBRANCH   3   4
ENDBRANCH   2   3
ENDBRANCH   1   2
BRANCH   1  24
ATOM     24  C   UNL A   1      38.571  19.899  24.968  1.00  0.00     0.021 C 
BRANCH  24  25
ATOM     25  C   UNL A   1      39.388  19.532  26.203  1.00  0.00     0.116 C 
BRANCH  25  26
ATOM     26  N   UNL A   1      40.692  18.983  25.868  1.00  0.00    -0.352 N 
ATOM     27  C   UNL A   1      41.929  19.572  25.861  1.00  0.00     0.251 C 
ATOM     28  H   UNL A   1      40.685  18.034  25.607  1.00  0.00     0.163 HD
ATOM     29  O   UNL A   1      42.887  18.960  25.383  1.00  0.00    -0.269 OA
BRANCH  27  30
ATOM     30  C   UNL A   1      42.132  20.936  26.396  1.00  0.00     0.039 A 
ATOM     31  C   UNL A   1      42.055  21.131  27.778  1.00  0.00     0.014 A 
ATOM     32  C   UNL A   1      42.352  22.027  25.551  1.00  0.00     0.014 A 
ATOM     33  C   UNL A   1      42.251  22.405  28.315  1.00  0.00     0.010 A 
ATOM     34  C   UNL A   1      42.625  23.284  26.093  1.00  0.00     0.010 A 
ATOM     35  C   UNL A   1      42.570  23.488  27.479  1.00  0.00    -0.014 A 
BRANCH  35  36
ATOM     36  C   UNL A   1      42.837  24.838  28.042  1.00  0.00     0.031 A 
ATOM     37  C   UNL A   1      44.221  25.211  28.497  1.00  0.00     0.074 A 
ATOM     38  C   UNL A   1      41.823  25.713  28.185  1.00  0.00     0.049 A 
ATOM     39  N   UNL A   1      44.637  26.316  29.064  1.00  0.00    -0.248 NA
ATOM     40  C   UNL A   1      45.275  24.200  28.314  1.00  0.00     0.031 C 
ATOM     41  C   UNL A   1      40.428  25.458  27.822  1.00  0.00     0.029 A 
ATOM     42  N   UNL A   1      41.807  26.992  28.684  1.00  0.00    -0.354 N 
ATOM     43  C   UNL A   1      45.992  26.132  29.306  1.00  0.00     0.074 A 
ATOM     44  C   UNL A   1      46.318  24.787  28.884  1.00  0.00     0.031 C 
ATOM     45  C   UNL A   1      39.696  26.551  28.094  1.00  0.00     0.029 A 
ATOM     46  C   UNL A   1      40.559  27.567  28.686  1.00  0.00     0.049 A 
ATOM     47  H   UNL A   1      42.613  27.454  29.009  1.00  0.00     0.167 HD
ATOM     48  C   UNL A   1      46.891  27.011  29.809  1.00  0.00     0.037 A 
ATOM     49  C   UNL A   1      40.152  28.773  29.128  1.00  0.00     0.037 A 
ATOM     50  C   UNL A   1      46.569  28.353  30.220  1.00  0.00     0.049 A 
ATOM     51  C   UNL A   1      41.166  29.723  29.703  1.00  0.00     0.074 A 
ATOM     52  C   UNL A   1      47.416  29.332  30.709  1.00  0.00     0.029 A 
ATOM     53  N   UNL A   1      45.295  28.903  30.193  1.00  0.00    -0.354 N 
ATOM     54  N   UNL A   1      42.456  29.556  29.870  1.00  0.00    -0.248 NA
ATOM     55  C   UNL A   1      40.670  31.035  30.144  1.00  0.00     0.031 C 
ATOM     56  C   UNL A   1      46.648  30.459  31.022  1.00  0.00     0.029 A 
ATOM     57  C   UNL A   1      45.332  30.201  30.676  1.00  0.00     0.049 A 
ATOM     58  H   UNL A   1      44.487  28.438  29.878  1.00  0.00     0.167 HD
ATOM     59  C   UNL A   1      42.928  30.747  30.408  1.00  0.00     0.074 A 
ATOM     60  C   UNL A   1      41.789  31.634  30.521  1.00  0.00     0.031 C 
ATOM     61  C   UNL A   1      44.190  31.076  30.776  1.00  0.00     0.037 A 
BRANCH  48  62
ATOM     62  C   UNL A   1      48.317  26.551  29.932  1.00  0.00     0.057 A 
ATOM     63  C   UNL A   1      48.778  25.877  31.072  1.00  0.00     0.134 A 
ATOM     64  C   UNL A   1      49.231  26.751  28.890  1.00  0.00     0.134 A 
ATOM     65  F   UNL A   1      47.957  25.662  32.112  1.00  0.00    -0.206 F 
ATOM     66  C   UNL A   1      50.099  25.443  31.181  1.00  0.00     0.040 A 
ATOM     67  C   UNL A   1      50.548  26.295  28.975  1.00  0.00     0.040 A 
ATOM     68  F   UNL A   1      48.856  27.382  27.767  1.00  0.00    -0.206 F 
ATOM     69  C   UNL A   1      50.987  25.644  30.127  1.00  0.00     0.006 A 
ENDBRANCH  48  62
BRANCH  49  70
ATOM     70  C   UNL A   1      38.719  29.154  29.039  1.00  0.00     0.057 A 
ATOM     71  C   UNL A   1      37.871  29.061  30.149  1.00  0.00     0.134 A 
ATOM     72  C   UNL A   1      38.158  29.605  27.837  1.00  0.00     0.134 A 
ATOM     73  F   UNL A   1      38.344  28.619  31.324  1.00  0.00    -0.206 F 
ATOM     74  C   UNL A   1      36.515  29.379  30.063  1.00  0.00     0.040 A 
ATOM     75  C   UNL A   1      36.811  29.954  27.744  1.00  0.00     0.040 A 
ATOM     76  F   UNL A   1      38.918  29.726  26.739  1.00  0.00    -0.206 F 
ATOM     77  C   UNL A   1      35.982  29.831  28.858  1.00  0.00     0.006 A 
ENDBRANCH  49  70
BRANCH  61  78
ATOM     78  C   UNL A   1      44.416  32.465  31.299  1.00  0.00     0.057 A 
ATOM     79  C   UNL A   1      44.703  33.541  30.449  1.00  0.00     0.134 A 
ATOM     80  C   UNL A   1      44.306  32.735  32.669  1.00  0.00     0.134 A 
ATOM     81  F   UNL A   1      44.835  33.347  29.128  1.00  0.00    -0.206 F 
ATOM     82  C   UNL A   1      44.898  34.830  30.947  1.00  0.00     0.040 A 
ATOM     83  C   UNL A   1      44.469  34.026  33.175  1.00  0.00     0.040 A 
ATOM     84  F   UNL A   1      44.022  31.753  33.538  1.00  0.00    -0.206 F 
ATOM     85  C   UNL A   1      44.774  35.077  32.312  1.00  0.00     0.006 A 
ENDBRANCH  61  78
ENDBRANCH  35  36
ENDBRANCH  27  30
ENDBRANCH  25  26
ENDBRANCH  24  25
ENDBRANCH   1  24
TORSDOF 14
ENDMDL
MODEL 3
REMARK VINA RESULT:     -11.6      1.215      6.151
REMARK SMILES O=C(NCCCCCCNC(=O)c1ccc(-c2c3nc(c(-c4c(F)cccc4F)c4ccc([nH]4)c(-c4c(F)cccc4F)c4nc(c(-c5c(F)cccc5F)c5ccc2[nH]5)C=C4)C=C3)cc1)C1=Cc2cc(Cl)ccc2O[C@@H]1C(F)(F)F
REMARK SMILES IDX 7 1 6 2 5 3 4 4 3 5 1 6 2 7 67 9 68 10 77 11 69 12 76 13
REMARK SMILES IDX 70 14 75 15 71 16 74 17 72 18 73 19 78 20 79 21 80 22 81 23
REMARK SMILES IDX 8 24 9 25 10 26 11 27 12 29 13 30 14 31 66 32 15 33 65 34
REMARK SMILES IDX 16 35 17 36 18 37 59 38 19 39 64 40 58 41 60 42 20 43 63 44
REMARK SMILES IDX 57 45 56 46 21 48 47 49 30 50 46 51 31 52 34 53 45 54 61 55
REMARK SMILES IDX 32 56 33 57 44 59 62 60 35 61 22 62 23 63 28 64 24 65 25 66
REMARK SMILES IDX 27 67 29 68 26 69 48 70 49 71 54 72 50 73 51 74 53 75 55 76
REMARK SMILES IDX 52 77 36 78 37 79 42 80 38 81 39 82 41 83 43 84 40 85
REMARK H PARENT 3 8 10 28 60 47 34 58
REMARK Flexibility Score: inf
ROOT
ATOM      1  C   UNL A   1      37.788  21.585  24.891  1.00  0.00     0.002 C 
ENDROOT
BRANCH   1   2
ATOM      2  C   UNL A   1      38.301  22.584  25.937  1.00  0.00     0.002 C 
BRANCH   2   3
ATOM      3  C   UNL A   1      37.437  23.821  26.174  1.00  0.00     0.021 C 
BRANCH   3   4
ATOM      4  C   UNL A   1      35.971  23.678  25.777  1.00  0.00     0.116 C 
BRANCH   4   5
ATOM      5  N   UNL A   1      35.133  23.004  26.752  1.00  0.00    -0.352 N 
ATOM      6  O   UNL A   1      33.830  21.380  27.594  1.00  0.00    -0.270 OA
ATOM      7  C   UNL A   1      34.295  21.933  26.599  1.00  0.00     0.251 C 
ATOM      8  H   UNL A   1      35.172  23.375  27.664  1.00  0.00     0.163 HD
BRANCH   7   9
ATOM      9  C   UNL A   1      33.992  21.345  25.262  1.00  0.00     0.067 C 
ATOM     10  C   UNL A   1      34.808  20.440  24.691  1.00  0.00     0.025 C 
ATOM     11  C   UNL A   1      32.517  21.328  24.936  1.00  0.00     0.314 C 
ATOM     12  C   UNL A   1      34.176  19.095  24.645  1.00  0.00     0.019 A 
ATOM     13  O   UNL A   1      31.949  20.000  25.105  1.00  0.00    -0.475 OA
ATOM     14  C   UNL A   1      35.019  17.977  24.620  1.00  0.00     0.032 A 
ATOM     15  C   UNL A   1      32.816  18.945  24.968  1.00  0.00     0.128 A 
ATOM     16  C   UNL A   1      34.518  16.738  25.014  1.00  0.00     0.041 A 
ATOM     17  C   UNL A   1      32.317  17.692  25.317  1.00  0.00     0.048 A 
ATOM     18  Cl  UNL A   1      35.595  15.407  25.195  1.00  0.00    -0.084 Cl
ATOM     19  C   UNL A   1      33.177  16.592  25.369  1.00  0.00     0.024 A 
BRANCH  11  20
ATOM     20  C   UNL A   1      32.224  21.886  23.535  1.00  0.00     0.429 C 
ATOM     21  F   UNL A   1      31.145  22.706  23.550  1.00  0.00    -0.167 F 
ATOM     22  F   UNL A   1      33.262  22.611  23.055  1.00  0.00    -0.167 F 
ATOM     23  F   UNL A   1      31.970  20.908  22.633  1.00  0.00    -0.167 F 
ENDBRANCH  11  20
ENDBRANCH   7   9
ENDBRANCH   4   5
ENDBRANCH   3   4
ENDBRANCH   2   3
ENDBRANCH   1   2
BRANCH   1  24
ATOM     24  C   UNL A   1      38.532  20.250  24.791  1.00  0.00     0.021 C 
BRANCH  24  25
ATOM     25  C   UNL A   1      39.006  19.651  26.113  1.00  0.00     0.116 C 
BRANCH  25  26
ATOM     26  N   UNL A   1      40.220  18.863  25.966  1.00  0.00    -0.352 N 
ATOM     27  C   UNL A   1      41.535  19.245  25.997  1.00  0.00     0.251 C 
ATOM     28  H   UNL A   1      40.072  17.901  25.824  1.00  0.00     0.163 HD
ATOM     29  O   UNL A   1      42.408  18.431  25.687  1.00  0.00    -0.269 OA
BRANCH  27  30
ATOM     30  C   UNL A   1      41.926  20.620  26.376  1.00  0.00     0.039 A 
ATOM     31  C   UNL A   1      42.120  20.913  27.730  1.00  0.00     0.014 A 
ATOM     32  C   UNL A   1      42.060  21.632  25.422  1.00  0.00     0.014 A 
ATOM     33  C   UNL A   1      42.498  22.199  28.120  1.00  0.00     0.010 A 
ATOM     34  C   UNL A   1      42.513  22.895  25.803  1.00  0.00     0.010 A 
ATOM     35  C   UNL A   1      42.730  23.195  27.156  1.00  0.00    -0.014 A 
BRANCH  35  36
ATOM     36  C   UNL A   1      43.187  24.552  27.552  1.00  0.00     0.031 A 
ATOM     37  C   UNL A   1      42.190  25.600  27.965  1.00  0.00     0.074 A 
ATOM     38  C   UNL A   1      44.499  24.856  27.497  1.00  0.00     0.049 A 
ATOM     39  N   UNL A   1      42.392  26.853  28.289  1.00  0.00    -0.248 NA
ATOM     40  C   UNL A   1      40.776  25.195  27.994  1.00  0.00     0.031 C 
ATOM     41  C   UNL A   1      45.562  23.943  27.073  1.00  0.00     0.029 A 
ATOM     42  N   UNL A   1      45.161  26.023  27.791  1.00  0.00    -0.354 N 
ATOM     43  C   UNL A   1      41.136  27.382  28.557  1.00  0.00     0.074 A 
ATOM     44  C   UNL A   1      40.172  26.335  28.296  1.00  0.00     0.031 C 
ATOM     45  C   UNL A   1      46.743  24.577  27.150  1.00  0.00     0.029 A 
ATOM     46  C   UNL A   1      46.519  25.950  27.589  1.00  0.00     0.049 A 
ATOM     47  H   UNL A   1      44.707  26.833  28.115  1.00  0.00     0.167 HD
ATOM     48  C   UNL A   1      40.814  28.619  29.006  1.00  0.00     0.037 A 
ATOM     49  C   UNL A   1      47.474  26.889  27.729  1.00  0.00     0.037 A 
ATOM     50  C   UNL A   1      41.775  29.658  29.274  1.00  0.00     0.049 A 
ATOM     51  C   UNL A   1      47.090  28.262  28.206  1.00  0.00     0.074 A 
ATOM     52  C   UNL A   1      41.552  30.933  29.764  1.00  0.00     0.029 A 
ATOM     53  N   UNL A   1      43.142  29.541  29.071  1.00  0.00    -0.354 N 
ATOM     54  N   UNL A   1      45.904  28.730  28.513  1.00  0.00    -0.248 NA
ATOM     55  C   UNL A   1      48.178  29.237  28.367  1.00  0.00     0.031 C 
ATOM     56  C   UNL A   1      42.779  31.603  29.814  1.00  0.00     0.029 A 
ATOM     57  C   UNL A   1      43.773  30.728  29.407  1.00  0.00     0.049 A 
ATOM     58  H   UNL A   1      43.596  28.734  28.737  1.00  0.00     0.167 HD
ATOM     59  C   UNL A   1      46.105  30.040  28.927  1.00  0.00     0.074 A 
ATOM     60  C   UNL A   1      47.530  30.287  28.851  1.00  0.00     0.031 C 
ATOM     61  C   UNL A   1      45.194  30.957  29.333  1.00  0.00     0.037 A 
BRANCH  48  62
ATOM     62  C   UNL A   1      39.360  28.914  29.245  1.00  0.00     0.057 A 
ATOM     63  C   UNL A   1      38.525  29.385  28.222  1.00  0.00     0.134 A 
ATOM     64  C   UNL A   1      38.778  28.692  30.499  1.00  0.00     0.134 A 
ATOM     65  F   UNL A   1      39.022  29.629  26.999  1.00  0.00    -0.206 F 
ATOM     66  C   UNL A   1      37.173  29.650  28.444  1.00  0.00     0.040 A 
ATOM     67  C   UNL A   1      37.419  28.924  30.726  1.00  0.00     0.040 A 
ATOM     68  F   UNL A   1      39.515  28.234  31.522  1.00  0.00    -0.206 F 
ATOM     69  C   UNL A   1      36.615  29.412  29.698  1.00  0.00     0.006 A 
ENDBRANCH  48  62
BRANCH  49  70
ATOM     70  C   UNL A   1      48.890  26.562  27.418  1.00  0.00     0.057 A 
ATOM     71  C   UNL A   1      49.431  26.800  26.149  1.00  0.00     0.134 A 
ATOM     72  C   UNL A   1      49.733  25.989  28.379  1.00  0.00     0.134 A 
ATOM     73  F   UNL A   1      48.669  27.331  25.181  1.00  0.00    -0.206 F 
ATOM     74  C   UNL A   1      50.748  26.459  25.838  1.00  0.00     0.040 A 
ATOM     75  C   UNL A   1      51.060  25.669  28.091  1.00  0.00     0.040 A 
ATOM     76  F   UNL A   1      49.280  25.744  29.618  1.00  0.00    -0.206 F 
ATOM     77  C   UNL A   1      51.568  25.895  26.813  1.00  0.00     0.006 A 
ENDBRANCH  49  70
BRANCH  61  78
ATOM     78  C   UNL A   1      45.711  32.300  29.763  1.00  0.00     0.057 A 
ATOM     79  C   UNL A   1      46.159  32.539  31.069  1.00  0.00     0.134 A 
ATOM     80  C   UNL A   1      45.795  33.356  28.847  1.00  0.00     0.134 A 
ATOM     81  F   UNL A   1      46.093  31.573  31.998  1.00  0.00    -0.206 F 
ATOM     82  C   UNL A   1      46.650  33.788  31.453  1.00  0.00     0.040 A 
ATOM     83  C   UNL A   1      46.312  34.600  29.212  1.00  0.00     0.040 A 
ATOM     84  F   UNL A   1      45.392  33.192  27.578  1.00  0.00    -0.206 F 
ATOM     85  C   UNL A   1      46.734  34.820  30.521  1.00  0.00     0.006 A 
ENDBRANCH  61  78
ENDBRANCH  35  36
ENDBRANCH  27  30
ENDBRANCH  25  26
ENDBRANCH  24  25
ENDBRANCH   1  24
TORSDOF 14
ENDMDL
