MODEL 1
REMARK VINA RESULT:     -11.7      0.000      0.000
REMARK SMILES C[N@@H+]1CCC[C@@H](C(=O)N[C@H](C(=O)NCCCCCCNC(=O)c2ccc(-c3c4nc(c(-c5c(F)cccc5F)c5ccc([nH]5)c(-c5c(F)cccc5F)c5nc(c(-c6c(F)cccc6F)c6ccc3[nH]6)C=C5)C=C4)cc2)c2ccccc2)C1
REMARK SMILES IDX 16 1 15 2 14 3 13 4 11 5 12 6 10 8 9 9 7 10 8 11 6 13 1 14
REMARK SMILES IDX 2 15 3 16 83 17 4 19 5 20 77 21 78 22 82 23 79 24 81 25
REMARK SMILES IDX 80 26 17 27 18 28 19 29 20 30 21 31 22 33 23 34 24 35 76 36
REMARK SMILES IDX 25 37 75 38 26 39 27 40 28 41 69 42 29 43 74 44 68 45 70 46
REMARK SMILES IDX 30 47 73 48 67 49 66 50 31 52 57 53 40 54 56 55 41 56 44 57
REMARK SMILES IDX 55 58 71 59 42 60 43 61 54 63 72 64 45 65 32 66 33 67 38 68
REMARK SMILES IDX 34 69 35 70 37 71 39 72 36 73 58 74 59 75 64 76 60 77 61 78
REMARK SMILES IDX 63 79 65 80 62 81 46 82 47 83 52 84 48 85 49 86 51 87 53 88
REMARK SMILES IDX 50 89
REMARK H PARENT 13 7 9 12 2 18 20 32 70 51 44 62
REMARK Flexibility Score: inf
ROOT
ATOM      1  C   UNL A   1      36.330  22.816  25.795  1.00  0.00     0.002 C 
ENDROOT
BRANCH   1   2
ATOM      2  C   UNL A   1      35.005  22.854  26.559  1.00  0.00     0.021 C 
BRANCH   2   3
ATOM      3  C   UNL A   1      34.387  21.479  26.830  1.00  0.00     0.116 C 
BRANCH   3   4
ATOM      4  N   UNL A   1      32.931  21.529  26.761  1.00  0.00    -0.354 N 
ATOM      5  C   UNL A   1      32.113  21.733  25.673  1.00  0.00     0.247 C 
ATOM      6  O   UNL A   1      30.907  21.888  25.883  1.00  0.00    -0.272 OA
ATOM      7  H   UNL A   1      32.465  21.399  27.618  1.00  0.00     0.163 HD
BRANCH   5   8
ATOM      8  C   UNL A   1      32.721  21.745  24.246  1.00  0.00     0.202 C 
BRANCH   8   9
ATOM      9  N   UNL A   1      32.298  20.574  23.486  1.00  0.00    -0.340 N 
ATOM     10  C   UNL A   1      32.513  19.247  23.643  1.00  0.00     0.229 C 
ATOM     11  O   UNL A   1      31.975  18.515  22.798  1.00  0.00    -0.275 OA
ATOM     12  H   UNL A   1      31.745  20.793  22.702  1.00  0.00     0.164 HD
BRANCH  10  13
ATOM     13  C   UNL A   1      33.315  18.575  24.775  1.00  0.00     0.133 C 
ATOM     14  C   UNL A   1      31.881  15.253  25.948  1.00  0.00     0.332 C 
ATOM     15  N   UNL A   1      32.649  16.192  25.138  1.00  0.00    -0.337 N 
ATOM     16  C   UNL A   1      34.016  15.725  24.901  1.00  0.00     0.262 C 
ATOM     17  C   UNL A   1      32.608  17.555  25.672  1.00  0.00     0.275 C 
ATOM     18  H   UNL A   1      32.190  16.229  24.228  1.00  0.00     0.347 HD
ATOM     19  C   UNL A   1      34.782  16.652  23.950  1.00  0.00     0.062 C 
ATOM     20  C   UNL A   1      34.716  18.115  24.365  1.00  0.00     0.025 C 
ENDBRANCH  10  13
ENDBRANCH   8   9
BRANCH   8  21
ATOM     21  C   UNL A   1      32.548  23.039  23.455  1.00  0.00    -0.016 A 
ATOM     22  C   UNL A   1      31.303  23.632  23.219  1.00  0.00     0.006 A 
ATOM     23  C   UNL A   1      33.691  23.777  23.105  1.00  0.00     0.006 A 
ATOM     24  C   UNL A   1      31.210  24.976  22.843  1.00  0.00     0.000 A 
ATOM     25  C   UNL A   1      33.604  25.111  22.708  1.00  0.00     0.000 A 
ATOM     26  C   UNL A   1      32.362  25.724  22.621  1.00  0.00     0.000 A 
ENDBRANCH   8  21
ENDBRANCH   5   8
ENDBRANCH   3   4
ENDBRANCH   2   3
ENDBRANCH   1   2
BRANCH   1  27
ATOM     27  C   UNL A   1      36.362  21.845  24.614  1.00  0.00     0.002 C 
BRANCH  27  28
ATOM     28  C   UNL A   1      37.346  20.681  24.752  1.00  0.00     0.021 C 
BRANCH  28  29
ATOM     29  C   UNL A   1      38.563  20.957  25.633  1.00  0.00     0.116 C 
BRANCH  29  30
ATOM     30  N   UNL A   1      39.488  19.835  25.668  1.00  0.00    -0.352 N 
ATOM     31  C   UNL A   1      40.820  19.810  26.005  1.00  0.00     0.251 C 
ATOM     32  H   UNL A   1      39.103  18.966  25.413  1.00  0.00     0.163 HD
ATOM     33  O   UNL A   1      41.492  18.807  25.800  1.00  0.00    -0.269 OA
BRANCH  31  34
ATOM     34  C   UNL A   1      41.449  21.013  26.589  1.00  0.00     0.039 A 
ATOM     35  C   UNL A   1      42.009  21.965  25.732  1.00  0.00     0.014 A 
ATOM     36  C   UNL A   1      41.468  21.212  27.972  1.00  0.00     0.014 A 
ATOM     37  C   UNL A   1      42.507  23.158  26.257  1.00  0.00     0.010 A 
ATOM     38  C   UNL A   1      41.904  22.430  28.489  1.00  0.00     0.010 A 
ATOM     39  C   UNL A   1      42.410  23.422  27.634  1.00  0.00    -0.014 A 
BRANCH  39  40
ATOM     40  C   UNL A   1      42.766  24.753  28.188  1.00  0.00     0.031 A 
ATOM     41  C   UNL A   1      41.713  25.803  28.401  1.00  0.00     0.074 A 
ATOM     42  C   UNL A   1      44.061  25.039  28.424  1.00  0.00     0.049 A 
ATOM     43  N   UNL A   1      41.853  27.039  28.806  1.00  0.00    -0.248 NA
ATOM     44  C   UNL A   1      40.327  25.421  28.097  1.00  0.00     0.031 C 
ATOM     45  C   UNL A   1      45.181  24.116  28.222  1.00  0.00     0.029 A 
ATOM     46  N   UNL A   1      44.660  26.190  28.873  1.00  0.00    -0.354 N 
ATOM     47  C   UNL A   1      40.577  27.587  28.794  1.00  0.00     0.074 A 
ATOM     48  C   UNL A   1      39.683  26.561  28.300  1.00  0.00     0.031 C 
ATOM     49  C   UNL A   1      46.323  24.726  28.571  1.00  0.00     0.029 A 
ATOM     50  C   UNL A   1      46.026  26.097  28.973  1.00  0.00     0.049 A 
ATOM     51  H   UNL A   1      44.156  27.005  29.101  1.00  0.00     0.167 HD
ATOM     52  C   UNL A   1      40.186  28.828  29.173  1.00  0.00     0.037 A 
ATOM     53  C   UNL A   1      46.941  27.017  29.334  1.00  0.00     0.037 A 
ATOM     54  C   UNL A   1      41.081  29.840  29.676  1.00  0.00     0.049 A 
ATOM     55  C   UNL A   1      46.486  28.400  29.705  1.00  0.00     0.074 A 
ATOM     56  C   UNL A   1      40.770  31.098  30.163  1.00  0.00     0.029 A 
ATOM     57  N   UNL A   1      42.461  29.718  29.740  1.00  0.00    -0.354 N 
ATOM     58  N   UNL A   1      45.267  28.878  29.771  1.00  0.00    -0.248 NA
ATOM     59  C   UNL A   1      47.533  29.374  30.044  1.00  0.00     0.031 C 
ATOM     60  C   UNL A   1      41.966  31.761  30.457  1.00  0.00     0.029 A 
ATOM     61  C   UNL A   1      43.019  30.896  30.211  1.00  0.00     0.049 A 
ATOM     62  H   UNL A   1      42.969  28.912  29.488  1.00  0.00     0.167 HD
ATOM     63  C   UNL A   1      45.398  30.200  30.178  1.00  0.00     0.074 A 
ATOM     64  C   UNL A   1      46.814  30.441  30.362  1.00  0.00     0.031 C 
ATOM     65  C   UNL A   1      44.432  31.128  30.380  1.00  0.00     0.037 A 
BRANCH  52  66
ATOM     66  C   UNL A   1      38.729  29.169  29.043  1.00  0.00     0.057 A 
ATOM     67  C   UNL A   1      37.854  29.128  30.136  1.00  0.00     0.134 A 
ATOM     68  C   UNL A   1      38.204  29.583  27.811  1.00  0.00     0.134 A 
ATOM     69  F   UNL A   1      38.290  28.733  31.341  1.00  0.00    -0.206 F 
ATOM     70  C   UNL A   1      36.503  29.456  30.003  1.00  0.00     0.040 A 
ATOM     71  C   UNL A   1      36.861  29.942  27.673  1.00  0.00     0.040 A 
ATOM     72  F   UNL A   1      38.986  29.655  26.724  1.00  0.00    -0.206 F 
ATOM     73  C   UNL A   1      36.005  29.871  28.769  1.00  0.00     0.006 A 
ENDBRANCH  52  66
BRANCH  53  74
ATOM     74  C   UNL A   1      48.381  26.656  29.375  1.00  0.00     0.057 A 
ATOM     75  C   UNL A   1      49.216  26.909  28.281  1.00  0.00     0.134 A 
ATOM     76  C   UNL A   1      48.957  26.053  30.500  1.00  0.00     0.134 A 
ATOM     77  F   UNL A   1      48.719  27.468  27.168  1.00  0.00    -0.206 F 
ATOM     78  C   UNL A   1      50.569  26.566  28.298  1.00  0.00     0.040 A 
ATOM     79  C   UNL A   1      50.314  25.728  30.540  1.00  0.00     0.040 A 
ATOM     80  F   UNL A   1      48.212  25.788  31.584  1.00  0.00    -0.206 F 
ATOM     81  C   UNL A   1      51.123  25.979  29.435  1.00  0.00     0.006 A 
ENDBRANCH  53  74
BRANCH  65  82
ATOM     82  C   UNL A   1      44.871  32.490  30.834  1.00  0.00     0.057 A 
ATOM     83  C   UNL A   1      45.193  33.503  29.921  1.00  0.00     0.134 A 
ATOM     84  C   UNL A   1      44.930  32.807  32.197  1.00  0.00     0.134 A 
ATOM     85  F   UNL A   1      45.171  33.262  28.602  1.00  0.00    -0.206 F 
ATOM     86  C   UNL A   1      45.575  34.777  30.349  1.00  0.00     0.040 A 
ATOM     87  C   UNL A   1      45.283  34.083  32.637  1.00  0.00     0.040 A 
ATOM     88  F   UNL A   1      44.629  31.885  33.126  1.00  0.00    -0.206 F 
ATOM     89  C   UNL A   1      45.612  35.071  31.710  1.00  0.00     0.006 A 
ENDBRANCH  65  82
ENDBRANCH  39  40
ENDBRANCH  31  34
ENDBRANCH  29  30
ENDBRANCH  28  29
ENDBRANCH  27  28
ENDBRANCH   1  27
TORSDOF 16
ENDMDL
MODEL 2
REMARK VINA RESULT:     -11.5      4.935      9.390
REMARK SMILES C[N@@H+]1CCC[C@@H](C(=O)N[C@H](C(=O)NCCCCCCNC(=O)c2ccc(-c3c4nc(c(-c5c(F)cccc5F)c5ccc([nH]5)c(-c5c(F)cccc5F)c5nc(c(-c6c(F)cccc6F)c6ccc3[nH]6)C=C5)C=C4)cc2)c2ccccc2)C1
REMARK SMILES IDX 16 1 15 2 14 3 13 4 11 5 12 6 10 8 9 9 7 10 8 11 6 13 1 14
REMARK SMILES IDX 2 15 3 16 83 17 4 19 5 20 77 21 78 22 82 23 79 24 81 25
REMARK SMILES IDX 80 26 17 27 18 28 19 29 20 30 21 31 22 33 23 34 24 35 76 36
REMARK SMILES IDX 25 37 75 38 26 39 27 40 28 41 69 42 29 43 74 44 68 45 70 46
REMARK SMILES IDX 30 47 73 48 67 49 66 50 31 52 57 53 40 54 56 55 41 56 44 57
REMARK SMILES IDX 55 58 71 59 42 60 43 61 54 63 72 64 45 65 32 66 33 67 38 68
REMARK SMILES IDX 34 69 35 70 37 71 39 72 36 73 58 74 59 75 64 76 60 77 61 78
REMARK SMILES IDX 63 79 65 80 62 81 46 82 47 83 52 84 48 85 49 86 51 87 53 88
REMARK SMILES IDX 50 89
REMARK H PARENT 13 7 9 12 2 18 20 32 70 51 44 62
REMARK Flexibility Score: inf
ROOT
ATOM      1  C   UNL A   1      32.289  29.462  27.249  1.00  0.00     0.002 C 
ENDROOT
BRANCH   1   2
ATOM      2  C   UNL A   1      33.591  28.726  26.926  1.00  0.00     0.021 C 
BRANCH   2   3
ATOM      3  C   UNL A   1      33.406  27.398  26.187  1.00  0.00     0.116 C 
BRANCH   3   4
ATOM      4  N   UNL A   1      32.175  26.732  26.595  1.00  0.00    -0.354 N 
ATOM      5  C   UNL A   1      31.102  26.331  25.831  1.00  0.00     0.247 C 
ATOM      6  O   UNL A   1      30.098  25.921  26.420  1.00  0.00    -0.272 OA
ATOM      7  H   UNL A   1      32.099  26.541  27.557  1.00  0.00     0.163 HD
BRANCH   5   8
ATOM      8  C   UNL A   1      31.196  26.392  24.283  1.00  0.00     0.202 C 
BRANCH   8   9
ATOM      9  N   UNL A   1      31.109  25.058  23.700  1.00  0.00    -0.340 N 
ATOM     10  C   UNL A   1      31.850  23.936  23.851  1.00  0.00     0.229 C 
ATOM     11  O   UNL A   1      31.471  22.953  23.196  1.00  0.00    -0.275 OA
ATOM     12  H   UNL A   1      30.360  24.952  23.071  1.00  0.00     0.164 HD
BRANCH  10  13
ATOM     13  C   UNL A   1      33.073  23.762  24.773  1.00  0.00     0.133 C 
ATOM     14  C   UNL A   1      34.352  20.188  25.016  1.00  0.00     0.332 C 
ATOM     15  N   UNL A   1      34.179  21.537  24.490  1.00  0.00    -0.337 N 
ATOM     16  C   UNL A   1      35.458  22.164  24.150  1.00  0.00     0.262 C 
ATOM     17  C   UNL A   1      33.359  22.378  25.363  1.00  0.00     0.275 C 
ATOM     18  H   UNL A   1      33.659  21.441  23.617  1.00  0.00     0.347 HD
ATOM     19  C   UNL A   1      35.268  23.531  23.485  1.00  0.00     0.062 C 
ATOM     20  C   UNL A   1      34.343  24.452  24.270  1.00  0.00     0.025 C 
ENDBRANCH  10  13
ENDBRANCH   8   9
BRANCH   8  21
ATOM     21  C   UNL A   1      30.263  27.384  23.594  1.00  0.00    -0.016 A 
ATOM     22  C   UNL A   1      28.878  27.199  23.505  1.00  0.00     0.006 A 
ATOM     23  C   UNL A   1      30.773  28.631  23.196  1.00  0.00     0.006 A 
ATOM     24  C   UNL A   1      28.029  28.274  23.225  1.00  0.00     0.000 A 
ATOM     25  C   UNL A   1      29.932  29.701  22.894  1.00  0.00     0.000 A 
ATOM     26  C   UNL A   1      28.556  29.533  22.953  1.00  0.00     0.000 A 
ENDBRANCH   8  21
ENDBRANCH   5   8
ENDBRANCH   3   4
ENDBRANCH   2   3
ENDBRANCH   1   2
BRANCH   1  27
ATOM     27  C   UNL A   1      31.854  30.486  26.201  1.00  0.00     0.002 C 
BRANCH  27  28
ATOM     28  C   UNL A   1      31.527  31.879  26.745  1.00  0.00     0.021 C 
BRANCH  28  29
ATOM     29  C   UNL A   1      32.710  32.639  27.342  1.00  0.00     0.116 C 
BRANCH  29  30
ATOM     30  N   UNL A   1      32.406  34.042  27.577  1.00  0.00    -0.352 N 
ATOM     31  C   UNL A   1      32.961  34.919  28.479  1.00  0.00     0.251 C 
ATOM     32  H   UNL A   1      31.698  34.419  27.006  1.00  0.00     0.163 HD
ATOM     33  O   UNL A   1      32.454  36.017  28.668  1.00  0.00    -0.269 OA
BRANCH  31  34
ATOM     34  C   UNL A   1      34.159  34.517  29.246  1.00  0.00     0.039 A 
ATOM     35  C   UNL A   1      33.993  34.005  30.535  1.00  0.00     0.014 A 
ATOM     36  C   UNL A   1      35.435  34.626  28.689  1.00  0.00     0.014 A 
ATOM     37  C   UNL A   1      35.100  33.517  31.231  1.00  0.00     0.010 A 
ATOM     38  C   UNL A   1      36.529  34.079  29.356  1.00  0.00     0.010 A 
ATOM     39  C   UNL A   1      36.367  33.502  30.626  1.00  0.00    -0.014 A 
BRANCH  39  40
ATOM     40  C   UNL A   1      37.520  32.826  31.274  1.00  0.00     0.031 A 
ATOM     41  C   UNL A   1      38.177  31.640  30.628  1.00  0.00     0.074 A 
ATOM     42  C   UNL A   1      37.922  33.239  32.492  1.00  0.00     0.049 A 
ATOM     43  N   UNL A   1      39.145  30.885  31.082  1.00  0.00    -0.248 NA
ATOM     44  C   UNL A   1      37.665  31.236  29.310  1.00  0.00     0.031 C 
ATOM     45  C   UNL A   1      37.339  34.355  33.240  1.00  0.00     0.029 A 
ATOM     46  N   UNL A   1      38.904  32.762  33.323  1.00  0.00    -0.354 N 
ATOM     47  C   UNL A   1      39.349  29.910  30.114  1.00  0.00     0.074 A 
ATOM     48  C   UNL A   1      38.376  30.144  29.069  1.00  0.00     0.031 C 
ATOM     49  C   UNL A   1      37.993  34.494  34.404  1.00  0.00     0.029 A 
ATOM     50  C   UNL A   1      39.005  33.449  34.509  1.00  0.00     0.049 A 
ATOM     51  H   UNL A   1      39.483  31.999  33.091  1.00  0.00     0.167 HD
ATOM     52  C   UNL A   1      40.273  28.919  30.095  1.00  0.00     0.037 A 
ATOM     53  C   UNL A   1      39.810  33.250  35.569  1.00  0.00     0.037 A 
ATOM     54  C   UNL A   1      41.247  28.700  31.135  1.00  0.00     0.049 A 
ATOM     55  C   UNL A   1      40.795  32.114  35.541  1.00  0.00     0.074 A 
ATOM     56  C   UNL A   1      42.276  27.775  31.167  1.00  0.00     0.029 A 
ATOM     57  N   UNL A   1      41.302  29.400  32.330  1.00  0.00    -0.354 N 
ATOM     58  N   UNL A   1      41.035  31.253  34.583  1.00  0.00    -0.248 NA
ATOM     59  C   UNL A   1      41.614  31.920  36.746  1.00  0.00     0.031 C 
ATOM     60  C   UNL A   1      42.911  27.871  32.411  1.00  0.00     0.029 A 
ATOM     61  C   UNL A   1      42.315  28.894  33.130  1.00  0.00     0.049 A 
ATOM     62  H   UNL A   1      40.708  30.147  32.575  1.00  0.00     0.167 HD
ATOM     63  C   UNL A   1      42.046  30.427  35.059  1.00  0.00     0.074 A 
ATOM     64  C   UNL A   1      42.386  30.904  36.384  1.00  0.00     0.031 C 
ATOM     65  C   UNL A   1      42.637  29.370  34.452  1.00  0.00     0.037 A 
BRANCH  52  66
ATOM     66  C   UNL A   1      40.265  27.983  28.920  1.00  0.00     0.057 A 
ATOM     67  C   UNL A   1      40.983  28.253  27.748  1.00  0.00     0.134 A 
ATOM     68  C   UNL A   1      39.558  26.774  28.980  1.00  0.00     0.134 A 
ATOM     69  F   UNL A   1      41.675  29.395  27.623  1.00  0.00    -0.206 F 
ATOM     70  C   UNL A   1      40.976  27.370  26.666  1.00  0.00     0.040 A 
ATOM     71  C   UNL A   1      39.567  25.870  27.915  1.00  0.00     0.040 A 
ATOM     72  F   UNL A   1      38.857  26.446  30.075  1.00  0.00    -0.206 F 
ATOM     73  C   UNL A   1      40.270  26.171  26.751  1.00  0.00     0.006 A 
ENDBRANCH  52  66
BRANCH  53  74
ATOM     74  C   UNL A   1      39.730  34.156  36.742  1.00  0.00     0.057 A 
ATOM     75  C   UNL A   1      38.921  33.840  37.840  1.00  0.00     0.134 A 
ATOM     76  C   UNL A   1      40.455  35.354  36.799  1.00  0.00     0.134 A 
ATOM     77  F   UNL A   1      38.189  32.716  37.836  1.00  0.00    -0.206 F 
ATOM     78  C   UNL A   1      38.825  34.685  38.946  1.00  0.00     0.040 A 
ATOM     79  C   UNL A   1      40.387  36.196  37.910  1.00  0.00     0.040 A 
ATOM     80  F   UNL A   1      41.252  35.712  35.782  1.00  0.00    -0.206 F 
ATOM     81  C   UNL A   1      39.566  35.865  38.985  1.00  0.00     0.006 A 
ENDBRANCH  53  74
BRANCH  65  82
ATOM     82  C   UNL A   1      43.722  28.660  35.210  1.00  0.00     0.057 A 
ATOM     83  C   UNL A   1      45.064  29.052  35.116  1.00  0.00     0.134 A 
ATOM     84  C   UNL A   1      43.416  27.603  36.076  1.00  0.00     0.134 A 
ATOM     85  F   UNL A   1      45.426  30.047  34.294  1.00  0.00    -0.206 F 
ATOM     86  C   UNL A   1      46.064  28.405  35.845  1.00  0.00     0.040 A 
ATOM     87  C   UNL A   1      44.403  26.967  36.830  1.00  0.00     0.040 A 
ATOM     88  F   UNL A   1      42.150  27.181  36.218  1.00  0.00    -0.206 F 
ATOM     89  C   UNL A   1      45.733  27.365  36.711  1.00  0.00     0.006 A 
ENDBRANCH  65  82
ENDBRANCH  39  40
ENDBRANCH  31  34
ENDBRANCH  29  30
ENDBRANCH  28  29
ENDBRANCH  27  28
ENDBRANCH   1  27
TORSDOF 16
ENDMDL
MODEL 3
REMARK VINA RESULT:     -11.4      4.737      8.935
REMARK SMILES C[N@@H+]1CCC[C@@H](C(=O)N[C@H](C(=O)NCCCCCCNC(=O)c2ccc(-c3c4nc(c(-c5c(F)cccc5F)c5ccc([nH]5)c(-c5c(F)cccc5F)c5nc(c(-c6c(F)cccc6F)c6ccc3[nH]6)C=C5)C=C4)cc2)c2ccccc2)C1
REMARK SMILES IDX 16 1 15 2 14 3 13 4 11 5 12 6 10 8 9 9 7 10 8 11 6 13 1 14
REMARK SMILES IDX 2 15 3 16 83 17 4 19 5 20 77 21 78 22 82 23 79 24 81 25
REMARK SMILES IDX 80 26 17 27 18 28 19 29 20 30 21 31 22 33 23 34 24 35 76 36
REMARK SMILES IDX 25 37 75 38 26 39 27 40 28 41 69 42 29 43 74 44 68 45 70 46
REMARK SMILES IDX 30 47 73 48 67 49 66 50 31 52 57 53 40 54 56 55 41 56 44 57
REMARK SMILES IDX 55 58 71 59 42 60 43 61 54 63 72 64 45 65 32 66 33 67 38 68
REMARK SMILES IDX 34 69 35 70 37 71 39 72 36 73 58 74 59 75 64 76 60 77 61 78
REMARK SMILES IDX 63 79 65 80 62 81 46 82 47 83 52 84 48 85 49 86 51 87 53 88
REMARK SMILES IDX 50 89
REMARK H PARENT 13 7 9 12 2 18 20 32 70 51 44 62
REMARK Flexibility Score: inf
ROOT
ATOM      1  C   UNL A   1      32.510  29.820  27.176  1.00  0.00     0.002 C 
ENDROOT
BRANCH   1   2
ATOM      2  C   UNL A   1      33.745  29.154  26.564  1.00  0.00     0.021 C 
BRANCH   2   3
ATOM      3  C   UNL A   1      33.454  27.863  25.792  1.00  0.00     0.116 C 
BRANCH   3   4
ATOM      4  N   UNL A   1      32.320  27.147  26.365  1.00  0.00    -0.354 N 
ATOM      5  C   UNL A   1      31.198  26.646  25.745  1.00  0.00     0.247 C 
ATOM      6  O   UNL A   1      30.294  26.208  26.461  1.00  0.00    -0.272 OA
ATOM      7  H   UNL A   1      32.363  27.001  27.337  1.00  0.00     0.163 HD
BRANCH   5   8
ATOM      8  C   UNL A   1      31.118  26.634  24.195  1.00  0.00     0.202 C 
BRANCH   8   9
ATOM      9  N   UNL A   1      30.961  25.275  23.689  1.00  0.00    -0.340 N 
ATOM     10  C   UNL A   1      31.670  24.137  23.869  1.00  0.00     0.229 C 
ATOM     11  O   UNL A   1      31.231  23.135  23.285  1.00  0.00    -0.275 OA
ATOM     12  H   UNL A   1      30.182  25.163  23.099  1.00  0.00     0.164 HD
BRANCH  10  13
ATOM     13  C   UNL A   1      32.926  23.968  24.747  1.00  0.00     0.133 C 
ATOM     14  C   UNL A   1      34.081  20.366  25.149  1.00  0.00     0.332 C 
ATOM     15  N   UNL A   1      33.935  21.688  24.551  1.00  0.00    -0.337 N 
ATOM     16  C   UNL A   1      35.220  22.243  24.120  1.00  0.00     0.262 C 
ATOM     17  C   UNL A   1      33.186  22.610  25.406  1.00  0.00     0.275 C 
ATOM     18  H   UNL A   1      33.373  21.562  23.708  1.00  0.00     0.347 HD
ATOM     19  C   UNL A   1      35.050  23.576  23.383  1.00  0.00     0.062 C 
ATOM     20  C   UNL A   1      34.197  24.576  24.150  1.00  0.00     0.025 C 
ENDBRANCH  10  13
ENDBRANCH   8   9
BRANCH   8  21
ATOM     21  C   UNL A   1      30.117  27.601  23.569  1.00  0.00    -0.016 A 
ATOM     22  C   UNL A   1      28.750  27.322  23.455  1.00  0.00     0.006 A 
ATOM     23  C   UNL A   1      30.536  28.907  23.263  1.00  0.00     0.006 A 
ATOM     24  C   UNL A   1      27.825  28.350  23.244  1.00  0.00     0.000 A 
ATOM     25  C   UNL A   1      29.620  29.931  23.029  1.00  0.00     0.000 A 
ATOM     26  C   UNL A   1      28.260  29.660  23.065  1.00  0.00     0.000 A 
ENDBRANCH   8  21
ENDBRANCH   5   8
ENDBRANCH   3   4
ENDBRANCH   2   3
ENDBRANCH   1   2
BRANCH   1  27
ATOM     27  C   UNL A   1      31.663  30.627  26.192  1.00  0.00     0.002 C 
BRANCH  27  28
ATOM     28  C   UNL A   1      31.451  32.096  26.566  1.00  0.00     0.021 C 
BRANCH  28  29
ATOM     29  C   UNL A   1      32.594  32.742  27.347  1.00  0.00     0.116 C 
BRANCH  29  30
ATOM     30  N   UNL A   1      32.350  34.148  27.626  1.00  0.00    -0.352 N 
ATOM     31  C   UNL A   1      32.954  34.976  28.542  1.00  0.00     0.251 C 
ATOM     32  H   UNL A   1      31.649  34.569  27.078  1.00  0.00     0.163 HD
ATOM     33  O   UNL A   1      32.495  36.088  28.770  1.00  0.00    -0.269 OA
BRANCH  31  34
ATOM     34  C   UNL A   1      34.147  34.505  29.277  1.00  0.00     0.039 A 
ATOM     35  C   UNL A   1      33.985  33.994  30.567  1.00  0.00     0.014 A 
ATOM     36  C   UNL A   1      35.414  34.549  28.689  1.00  0.00     0.014 A 
ATOM     37  C   UNL A   1      35.081  33.443  31.233  1.00  0.00     0.010 A 
ATOM     38  C   UNL A   1      36.492  33.940  29.327  1.00  0.00     0.010 A 
ATOM     39  C   UNL A   1      36.331  33.363  30.597  1.00  0.00    -0.014 A 
BRANCH  39  40
ATOM     40  C   UNL A   1      37.461  32.622  31.212  1.00  0.00     0.031 A 
ATOM     41  C   UNL A   1      38.067  33.083  32.507  1.00  0.00     0.074 A 
ATOM     42  C   UNL A   1      37.993  31.574  30.554  1.00  0.00     0.049 A 
ATOM     43  N   UNL A   1      39.101  32.602  33.150  1.00  0.00    -0.248 NA
ATOM     44  C   UNL A   1      37.446  34.249  33.151  1.00  0.00     0.031 C 
ATOM     45  C   UNL A   1      37.516  31.053  29.270  1.00  0.00     0.029 A 
ATOM     46  N   UNL A   1      39.057  30.765  30.864  1.00  0.00    -0.354 N 
ATOM     47  C   UNL A   1      39.262  33.413  34.266  1.00  0.00     0.074 A 
ATOM     48  C   UNL A   1      38.246  34.442  34.188  1.00  0.00     0.031 C 
ATOM     49  C   UNL A   1      38.266  29.997  28.918  1.00  0.00     0.029 A 
ATOM     50  C   UNL A   1      39.306  29.797  29.922  1.00  0.00     0.049 A 
ATOM     51  H   UNL A   1      39.592  30.869  31.685  1.00  0.00     0.167 HD
ATOM     52  C   UNL A   1      40.166  33.301  35.268  1.00  0.00     0.037 A 
ATOM     53  C   UNL A   1      40.273  28.862  29.863  1.00  0.00     0.037 A 
ATOM     54  C   UNL A   1      41.167  32.266  35.344  1.00  0.00     0.049 A 
ATOM     55  C   UNL A   1      41.293  28.788  30.965  1.00  0.00     0.074 A 
ATOM     56  C   UNL A   1      42.073  32.019  36.361  1.00  0.00     0.029 A 
ATOM     57  N   UNL A   1      41.404  31.319  34.360  1.00  0.00    -0.354 N 
ATOM     58  N   UNL A   1      41.380  29.508  32.058  1.00  0.00    -0.248 NA
ATOM     59  C   UNL A   1      42.350  27.778  30.823  1.00  0.00     0.031 C 
ATOM     60  C   UNL A   1      42.903  30.966  35.961  1.00  0.00     0.029 A 
ATOM     61  C   UNL A   1      42.476  30.518  34.722  1.00  0.00     0.049 A 
ATOM     62  H   UNL A   1      40.887  31.229  33.526  1.00  0.00     0.167 HD
ATOM     63  C   UNL A   1      42.489  29.026  32.742  1.00  0.00     0.074 A 
ATOM     64  C   UNL A   1      43.028  27.939  31.950  1.00  0.00     0.031 C 
ATOM     65  C   UNL A   1      43.011  29.445  33.920  1.00  0.00     0.037 A 
BRANCH  52  66
ATOM     66  C   UNL A   1      40.129  34.333  36.359  1.00  0.00     0.057 A 
ATOM     67  C   UNL A   1      40.816  35.549  36.256  1.00  0.00     0.134 A 
ATOM     68  C   UNL A   1      39.361  34.121  37.512  1.00  0.00     0.134 A 
ATOM     69  F   UNL A   1      41.576  35.813  35.183  1.00  0.00    -0.206 F 
ATOM     70  C   UNL A   1      40.766  36.505  37.273  1.00  0.00     0.040 A 
ATOM     71  C   UNL A   1      39.280  35.082  38.523  1.00  0.00     0.040 A 
ATOM     72  F   UNL A   1      38.670  32.983  37.672  1.00  0.00    -0.206 F 
ATOM     73  C   UNL A   1      39.991  36.274  38.409  1.00  0.00     0.006 A 
ENDBRANCH  52  66
BRANCH  53  74
ATOM     74  C   UNL A   1      40.317  27.909  28.725  1.00  0.00     0.057 A 
ATOM     75  C   UNL A   1      41.030  28.213  27.560  1.00  0.00     0.134 A 
ATOM     76  C   UNL A   1      39.652  26.677  28.771  1.00  0.00     0.134 A 
ATOM     77  F   UNL A   1      41.671  29.386  27.449  1.00  0.00    -0.206 F 
ATOM     78  C   UNL A   1      41.072  27.335  26.477  1.00  0.00     0.040 A 
ATOM     79  C   UNL A   1      39.707  25.777  27.705  1.00  0.00     0.040 A 
ATOM     80  F   UNL A   1      38.955  26.322  29.860  1.00  0.00    -0.206 F 
ATOM     81  C   UNL A   1      40.414  26.108  26.551  1.00  0.00     0.006 A 
ENDBRANCH  53  74
BRANCH  65  82
ATOM     82  C   UNL A   1      44.224  28.723  34.431  1.00  0.00     0.057 A 
ATOM     83  C   UNL A   1      45.520  29.188  34.177  1.00  0.00     0.134 A 
ATOM     84  C   UNL A   1      44.093  27.575  35.223  1.00  0.00     0.134 A 
ATOM     85  F   UNL A   1      45.716  30.273  33.413  1.00  0.00    -0.206 F 
ATOM     86  C   UNL A   1      46.644  28.527  34.679  1.00  0.00     0.040 A 
ATOM     87  C   UNL A   1      45.206  26.922  35.753  1.00  0.00     0.040 A 
ATOM     88  F   UNL A   1      42.879  27.079  35.511  1.00  0.00    -0.206 F 
ATOM     89  C   UNL A   1      46.487  27.395  35.476  1.00  0.00     0.006 A 
ENDBRANCH  65  82
ENDBRANCH  39  40
ENDBRANCH  31  34
ENDBRANCH  29  30
ENDBRANCH  28  29
ENDBRANCH  27  28
ENDBRANCH   1  27
TORSDOF 16
ENDMDL
