MODEL 1
REMARK VINA RESULT:     -12.2      0.000      0.000
REMARK SMILES Cc1ccc(Nc2c(Cl)cc(Cl)cc2Cl)c(CC(=O)NCCCCCCNC(=O)c2ccc(-c3c4nc(c(-c5c(F)cccc5F)c5ccc([nH]5)c(-c5c(F)cccc5F)c5nc(c(-c6c(F)cccc6F)c6ccc3[nH]6)C=C5)C=C4)cc2)c1
REMARK SMILES IDX 23 1 22 2 21 3 20 4 18 5 19 6 17 8 16 9 1 10 2 11 3 12 84 13
REMARK SMILES IDX 4 14 5 15 6 16 7 18 8 19 14 20 9 21 10 22 13 23 15 24 11 25
REMARK SMILES IDX 12 26 24 27 25 28 26 29 27 30 28 31 29 33 30 34 31 35 83 36
REMARK SMILES IDX 32 37 82 38 33 39 34 40 35 41 76 42 36 43 81 44 75 45 77 46
REMARK SMILES IDX 37 47 80 48 74 49 73 50 38 52 64 53 47 54 63 55 48 56 51 57
REMARK SMILES IDX 62 58 78 59 49 60 50 61 61 63 79 64 52 65 39 66 40 67 45 68
REMARK SMILES IDX 41 69 42 70 44 71 46 72 43 73 65 74 66 75 71 76 67 77 68 78
REMARK SMILES IDX 70 79 72 80 69 81 53 82 54 83 59 84 55 85 56 86 58 87 60 88
REMARK SMILES IDX 57 89
REMARK H PARENT 20 7 6 17 27 32 77 51 51 62
REMARK Flexibility Score: inf
ROOT
ATOM      1  C   UNL A   1      32.369  29.072  24.812  1.00  0.00     0.002 C 
ENDROOT
BRANCH   1   2
ATOM      2  C   UNL A   1      33.121  29.221  23.481  1.00  0.00     0.021 C 
BRANCH   2   3
ATOM      3  C   UNL A   1      34.011  28.035  23.098  1.00  0.00     0.116 C 
BRANCH   3   4
ATOM      4  N   UNL A   1      33.545  27.373  21.899  1.00  0.00    -0.356 N 
ATOM      5  C   UNL A   1      33.237  26.058  21.714  1.00  0.00     0.224 C 
ATOM      6  O   UNL A   1      33.006  25.661  20.568  1.00  0.00    -0.275 OA
ATOM      7  H   UNL A   1      33.435  27.950  21.108  1.00  0.00     0.163 HD
BRANCH   5   8
ATOM      8  C   UNL A   1      33.205  25.093  22.885  1.00  0.00     0.137 C 
BRANCH   8   9
ATOM      9  C   UNL A   1      32.068  25.345  23.851  1.00  0.00    -0.015 A 
ATOM     10  C   UNL A   1      28.666  27.093  23.667  1.00  0.00     0.044 C 
ATOM     11  C   UNL A   1      29.858  26.350  24.192  1.00  0.00    -0.051 A 
ATOM     12  C   UNL A   1      29.924  25.993  25.536  1.00  0.00     0.005 A 
ATOM     13  C   UNL A   1      30.920  26.002  23.355  1.00  0.00     0.009 A 
ATOM     14  C   UNL A   1      31.034  25.300  26.029  1.00  0.00     0.026 A 
ATOM     15  C   UNL A   1      32.124  24.965  25.208  1.00  0.00     0.042 A 
BRANCH  15  16
ATOM     16  N   UNL A   1      33.213  24.217  25.712  1.00  0.00    -0.353 N 
ATOM     17  H   UNL A   1      33.762  24.674  26.389  1.00  0.00     0.167 HD
BRANCH  16  18
ATOM     18  C   UNL A   1      33.624  22.904  25.378  1.00  0.00     0.076 A 
ATOM     19  C   UNL A   1      32.751  21.798  25.406  1.00  0.00     0.067 A 
ATOM     20  C   UNL A   1      34.981  22.658  25.075  1.00  0.00     0.067 A 
ATOM     21  Cl  UNL A   1      31.046  21.981  25.657  1.00  0.00    -0.082 Cl
ATOM     22  C   UNL A   1      33.219  20.503  25.167  1.00  0.00     0.043 A 
ATOM     23  C   UNL A   1      35.451  21.365  24.834  1.00  0.00     0.043 A 
ATOM     24  Cl  UNL A   1      36.130  23.954  25.023  1.00  0.00    -0.082 Cl
ATOM     25  C   UNL A   1      34.567  20.294  24.891  1.00  0.00     0.044 A 
ATOM     26  Cl  UNL A   1      35.142  18.697  24.615  1.00  0.00    -0.084 Cl
ENDBRANCH  16  18
ENDBRANCH  15  16
ENDBRANCH   8   9
ENDBRANCH   5   8
ENDBRANCH   3   4
ENDBRANCH   2   3
ENDBRANCH   1   2
BRANCH   1  27
ATOM     27  C   UNL A   1      33.228  28.795  26.057  1.00  0.00     0.002 C 
BRANCH  27  28
ATOM     28  C   UNL A   1      34.093  29.958  26.546  1.00  0.00     0.021 C 
BRANCH  28  29
ATOM     29  C   UNL A   1      33.961  30.261  28.033  1.00  0.00     0.116 C 
BRANCH  29  30
ATOM     30  N   UNL A   1      34.867  31.299  28.503  1.00  0.00    -0.352 N 
ATOM     31  C   UNL A   1      36.175  31.213  28.952  1.00  0.00     0.251 C 
ATOM     32  H   UNL A   1      34.490  32.208  28.502  1.00  0.00     0.163 HD
ATOM     33  O   UNL A   1      36.733  32.215  29.369  1.00  0.00    -0.269 OA
BRANCH  31  34
ATOM     34  C   UNL A   1      36.948  29.955  28.774  1.00  0.00     0.039 A 
ATOM     35  C   UNL A   1      37.071  29.120  29.894  1.00  0.00     0.014 A 
ATOM     36  C   UNL A   1      37.718  29.707  27.642  1.00  0.00     0.014 A 
ATOM     37  C   UNL A   1      38.154  28.252  29.987  1.00  0.00     0.010 A 
ATOM     38  C   UNL A   1      38.844  28.919  27.765  1.00  0.00     0.010 A 
ATOM     39  C   UNL A   1      39.108  28.271  28.975  1.00  0.00    -0.014 A 
BRANCH  39  40
ATOM     40  C   UNL A   1      40.484  27.829  29.165  1.00  0.00     0.031 A 
ATOM     41  C   UNL A   1      40.937  26.515  28.676  1.00  0.00     0.074 A 
ATOM     42  C   UNL A   1      41.376  28.720  29.655  1.00  0.00     0.049 A 
ATOM     43  N   UNL A   1      42.093  26.011  28.946  1.00  0.00    -0.248 NA
ATOM     44  C   UNL A   1      40.092  25.616  27.894  1.00  0.00     0.031 C 
ATOM     45  C   UNL A   1      42.834  28.660  29.591  1.00  0.00     0.029 A 
ATOM     46  N   UNL A   1      41.115  29.778  30.541  1.00  0.00    -0.354 N 
ATOM     47  C   UNL A   1      42.261  24.905  28.155  1.00  0.00     0.074 A 
ATOM     48  C   UNL A   1      40.949  24.623  27.632  1.00  0.00     0.031 C 
ATOM     49  C   UNL A   1      43.341  29.400  30.590  1.00  0.00     0.029 A 
ATOM     50  C   UNL A   1      42.225  29.820  31.418  1.00  0.00     0.049 A 
ATOM     51  H   UNL A   1      40.326  30.367  30.551  1.00  0.00     0.167 HD
ATOM     52  C   UNL A   1      43.525  24.445  27.943  1.00  0.00     0.037 A 
ATOM     53  C   UNL A   1      42.074  29.508  32.740  1.00  0.00     0.037 A 
ATOM     54  C   UNL A   1      44.453  24.987  28.938  1.00  0.00     0.049 A 
ATOM     55  C   UNL A   1      42.850  28.289  33.201  1.00  0.00     0.074 A 
ATOM     56  C   UNL A   1      45.467  25.928  28.939  1.00  0.00     0.029 A 
ATOM     57  N   UNL A   1      44.210  24.689  30.269  1.00  0.00    -0.354 N 
ATOM     58  N   UNL A   1      43.575  27.534  32.422  1.00  0.00    -0.248 NA
ATOM     59  C   UNL A   1      42.788  27.773  34.571  1.00  0.00     0.031 C 
ATOM     60  C   UNL A   1      45.757  26.258  30.302  1.00  0.00     0.029 A 
ATOM     61  C   UNL A   1      44.943  25.491  31.119  1.00  0.00     0.049 A 
ATOM     62  H   UNL A   1      43.587  23.989  30.573  1.00  0.00     0.167 HD
ATOM     63  C   UNL A   1      43.998  26.437  33.121  1.00  0.00     0.074 A 
ATOM     64  C   UNL A   1      43.495  26.635  34.467  1.00  0.00     0.031 C 
ATOM     65  C   UNL A   1      44.684  25.409  32.547  1.00  0.00     0.037 A 
BRANCH  52  66
ATOM     66  C   UNL A   1      43.958  23.597  26.767  1.00  0.00     0.057 A 
ATOM     67  C   UNL A   1      44.653  24.185  25.691  1.00  0.00     0.134 A 
ATOM     68  C   UNL A   1      43.620  22.243  26.562  1.00  0.00     0.134 A 
ATOM     69  F   UNL A   1      45.027  25.471  25.719  1.00  0.00    -0.206 F 
ATOM     70  C   UNL A   1      44.973  23.487  24.516  1.00  0.00     0.040 A 
ATOM     71  C   UNL A   1      43.980  21.522  25.416  1.00  0.00     0.040 A 
ATOM     72  F   UNL A   1      42.866  21.549  27.421  1.00  0.00    -0.206 F 
ATOM     73  C   UNL A   1      44.648  22.146  24.379  1.00  0.00     0.006 A 
ENDBRANCH  52  66
BRANCH  53  74
ATOM     74  C   UNL A   1      40.757  29.936  33.285  1.00  0.00     0.057 A 
ATOM     75  C   UNL A   1      40.564  31.295  33.591  1.00  0.00     0.134 A 
ATOM     76  C   UNL A   1      39.616  29.140  33.164  1.00  0.00     0.134 A 
ATOM     77  F   UNL A   1      41.620  32.114  33.722  1.00  0.00    -0.206 F 
ATOM     78  C   UNL A   1      39.290  31.861  33.657  1.00  0.00     0.040 A 
ATOM     79  C   UNL A   1      38.333  29.695  33.246  1.00  0.00     0.040 A 
ATOM     80  F   UNL A   1      39.717  27.841  32.849  1.00  0.00    -0.206 F 
ATOM     81  C   UNL A   1      38.169  31.064  33.452  1.00  0.00     0.006 A 
ENDBRANCH  53  74
BRANCH  65  82
ATOM     82  C   UNL A   1      45.140  24.219  33.330  1.00  0.00     0.057 A 
ATOM     83  C   UNL A   1      44.329  23.088  33.494  1.00  0.00     0.134 A 
ATOM     84  C   UNL A   1      46.354  24.221  34.040  1.00  0.00     0.134 A 
ATOM     85  F   UNL A   1      43.141  23.000  32.876  1.00  0.00    -0.206 F 
ATOM     86  C   UNL A   1      44.707  22.016  34.309  1.00  0.00     0.040 A 
ATOM     87  C   UNL A   1      46.723  23.175  34.891  1.00  0.00     0.040 A 
ATOM     88  F   UNL A   1      47.231  25.227  33.917  1.00  0.00    -0.206 F 
ATOM     89  C   UNL A   1      45.899  22.065  35.024  1.00  0.00     0.006 A 
ENDBRANCH  65  82
ENDBRANCH  39  40
ENDBRANCH  31  34
ENDBRANCH  29  30
ENDBRANCH  28  29
ENDBRANCH  27  28
ENDBRANCH   1  27
TORSDOF 16
ENDMDL
MODEL 2
REMARK VINA RESULT:     -11.7      4.014      9.226
REMARK SMILES Cc1ccc(Nc2c(Cl)cc(Cl)cc2Cl)c(CC(=O)NCCCCCCNC(=O)c2ccc(-c3c4nc(c(-c5c(F)cccc5F)c5ccc([nH]5)c(-c5c(F)cccc5F)c5nc(c(-c6c(F)cccc6F)c6ccc3[nH]6)C=C5)C=C4)cc2)c1
REMARK SMILES IDX 23 1 22 2 21 3 20 4 18 5 19 6 17 8 16 9 1 10 2 11 3 12 84 13
REMARK SMILES IDX 4 14 5 15 6 16 7 18 8 19 14 20 9 21 10 22 13 23 15 24 11 25
REMARK SMILES IDX 12 26 24 27 25 28 26 29 27 30 28 31 29 33 30 34 31 35 83 36
REMARK SMILES IDX 32 37 82 38 33 39 34 40 35 41 76 42 36 43 81 44 75 45 77 46
REMARK SMILES IDX 37 47 80 48 74 49 73 50 38 52 64 53 47 54 63 55 48 56 51 57
REMARK SMILES IDX 62 58 78 59 49 60 50 61 61 63 79 64 52 65 39 66 40 67 45 68
REMARK SMILES IDX 41 69 42 70 44 71 46 72 43 73 65 74 66 75 71 76 67 77 68 78
REMARK SMILES IDX 70 79 72 80 69 81 53 82 54 83 59 84 55 85 56 86 58 87 60 88
REMARK SMILES IDX 57 89
REMARK H PARENT 20 7 6 17 27 32 77 51 51 62
REMARK Flexibility Score: inf
ROOT
ATOM      1  C   UNL A   1      36.208  21.244  25.478  1.00  0.00     0.002 C 
ENDROOT
BRANCH   1   2
ATOM      2  C   UNL A   1      35.673  22.579  26.019  1.00  0.00     0.021 C 
BRANCH   2   3
ATOM      3  C   UNL A   1      35.724  23.749  25.033  1.00  0.00     0.116 C 
BRANCH   3   4
ATOM      4  N   UNL A   1      35.146  23.403  23.752  1.00  0.00    -0.356 N 
ATOM      5  C   UNL A   1      34.181  24.057  23.045  1.00  0.00     0.224 C 
ATOM      6  O   UNL A   1      33.712  23.512  22.043  1.00  0.00    -0.275 OA
ATOM      7  H   UNL A   1      35.498  22.584  23.333  1.00  0.00     0.163 HD
BRANCH   5   8
ATOM      8  C   UNL A   1      33.671  25.414  23.495  1.00  0.00     0.137 C 
BRANCH   8   9
ATOM      9  C   UNL A   1      32.485  25.339  24.433  1.00  0.00    -0.015 A 
ATOM     10  C   UNL A   1      30.535  22.525  26.146  1.00  0.00     0.044 C 
ATOM     11  C   UNL A   1      30.967  23.888  25.699  1.00  0.00    -0.051 A 
ATOM     12  C   UNL A   1      30.242  25.014  26.080  1.00  0.00     0.005 A 
ATOM     13  C   UNL A   1      32.098  24.062  24.898  1.00  0.00     0.009 A 
ATOM     14  C   UNL A   1      30.643  26.287  25.665  1.00  0.00     0.026 A 
ATOM     15  C   UNL A   1      31.761  26.480  24.837  1.00  0.00     0.042 A 
BRANCH  15  16
ATOM     16  N   UNL A   1      32.183  27.778  24.472  1.00  0.00    -0.353 N 
ATOM     17  H   UNL A   1      32.663  27.842  23.615  1.00  0.00     0.167 HD
BRANCH  16  18
ATOM     18  C   UNL A   1      32.013  29.000  25.167  1.00  0.00     0.076 A 
ATOM     19  C   UNL A   1      31.039  29.955  24.809  1.00  0.00     0.067 A 
ATOM     20  C   UNL A   1      32.895  29.329  26.219  1.00  0.00     0.067 A 
ATOM     21  Cl  UNL A   1      29.831  29.628  23.611  1.00  0.00    -0.082 Cl
ATOM     22  C   UNL A   1      30.970  31.192  25.457  1.00  0.00     0.043 A 
ATOM     23  C   UNL A   1      32.826  30.563  26.868  1.00  0.00     0.043 A 
ATOM     24  Cl  UNL A   1      34.128  28.222  26.725  1.00  0.00    -0.082 Cl
ATOM     25  C   UNL A   1      31.868  31.491  26.476  1.00  0.00     0.044 A 
ATOM     26  Cl  UNL A   1      31.790  33.020  27.259  1.00  0.00    -0.084 Cl
ENDBRANCH  16  18
ENDBRANCH  15  16
ENDBRANCH   8   9
ENDBRANCH   5   8
ENDBRANCH   3   4
ENDBRANCH   2   3
ENDBRANCH   1   2
BRANCH   1  27
ATOM     27  C   UNL A   1      37.574  21.289  24.772  1.00  0.00     0.002 C 
BRANCH  27  28
ATOM     28  C   UNL A   1      38.800  21.305  25.687  1.00  0.00     0.021 C 
BRANCH  28  29
ATOM     29  C   UNL A   1      39.093  22.657  26.325  1.00  0.00     0.116 C 
BRANCH  29  30
ATOM     30  N   UNL A   1      40.509  22.902  26.555  1.00  0.00    -0.352 N 
ATOM     31  C   UNL A   1      41.185  24.080  26.830  1.00  0.00     0.251 C 
ATOM     32  H   UNL A   1      41.080  22.101  26.507  1.00  0.00     0.163 HD
ATOM     33  O   UNL A   1      42.401  24.067  26.920  1.00  0.00    -0.269 OA
BRANCH  31  34
ATOM     34  C   UNL A   1      40.429  25.313  27.175  1.00  0.00     0.039 A 
ATOM     35  C   UNL A   1      40.638  26.436  26.362  1.00  0.00     0.014 A 
ATOM     36  C   UNL A   1      39.731  25.449  28.372  1.00  0.00     0.014 A 
ATOM     37  C   UNL A   1      40.421  27.709  26.881  1.00  0.00     0.010 A 
ATOM     38  C   UNL A   1      39.602  26.706  28.926  1.00  0.00     0.010 A 
ATOM     39  C   UNL A   1      40.040  27.826  28.213  1.00  0.00    -0.014 A 
BRANCH  39  40
ATOM     40  C   UNL A   1      40.267  29.028  29.007  1.00  0.00     0.031 A 
ATOM     41  C   UNL A   1      39.232  30.070  29.124  1.00  0.00     0.074 A 
ATOM     42  C   UNL A   1      41.385  29.087  29.766  1.00  0.00     0.049 A 
ATOM     43  N   UNL A   1      39.430  31.214  29.684  1.00  0.00    -0.248 NA
ATOM     44  C   UNL A   1      37.894  29.939  28.551  1.00  0.00     0.031 C 
ATOM     45  C   UNL A   1      41.658  29.970  30.896  1.00  0.00     0.029 A 
ATOM     46  N   UNL A   1      42.624  28.485  29.493  1.00  0.00    -0.354 N 
ATOM     47  C   UNL A   1      38.212  31.830  29.817  1.00  0.00     0.074 A 
ATOM     48  C   UNL A   1      37.321  31.070  28.979  1.00  0.00     0.031 C 
ATOM     49  C   UNL A   1      42.987  30.094  31.037  1.00  0.00     0.029 A 
ATOM     50  C   UNL A   1      43.600  29.427  29.902  1.00  0.00     0.049 A 
ATOM     51  H   UNL A   1      42.783  27.597  29.100  1.00  0.00     0.167 HD
ATOM     52  C   UNL A   1      38.090  32.835  30.728  1.00  0.00     0.037 A 
ATOM     53  C   UNL A   1      44.403  30.035  28.979  1.00  0.00     0.037 A 
ATOM     54  C   UNL A   1      39.404  33.348  31.121  1.00  0.00     0.049 A 
ATOM     55  C   UNL A   1      44.238  31.540  28.883  1.00  0.00     0.074 A 
ATOM     56  C   UNL A   1      40.203  33.269  32.248  1.00  0.00     0.029 A 
ATOM     57  N   UNL A   1      40.200  33.896  30.128  1.00  0.00    -0.354 N 
ATOM     58  N   UNL A   1      43.372  32.235  29.568  1.00  0.00    -0.248 NA
ATOM     59  C   UNL A   1      44.981  32.366  27.928  1.00  0.00     0.031 C 
ATOM     60  C   UNL A   1      41.521  33.690  31.879  1.00  0.00     0.029 A 
ATOM     61  C   UNL A   1      41.506  34.054  30.544  1.00  0.00     0.049 A 
ATOM     62  H   UNL A   1      39.874  34.141  29.232  1.00  0.00     0.167 HD
ATOM     63  C   UNL A   1      43.375  33.528  29.121  1.00  0.00     0.074 A 
ATOM     64  C   UNL A   1      44.409  33.569  28.105  1.00  0.00     0.031 C 
ATOM     65  C   UNL A   1      42.499  34.471  29.568  1.00  0.00     0.037 A 
BRANCH  52  66
ATOM     66  C   UNL A   1      36.791  33.283  31.362  1.00  0.00     0.057 A 
ATOM     67  C   UNL A   1      36.489  32.915  32.689  1.00  0.00     0.134 A 
ATOM     68  C   UNL A   1      35.744  33.956  30.700  1.00  0.00     0.134 A 
ATOM     69  F   UNL A   1      37.370  32.249  33.448  1.00  0.00    -0.206 F 
ATOM     70  C   UNL A   1      35.253  33.188  33.295  1.00  0.00     0.040 A 
ATOM     71  C   UNL A   1      34.525  34.280  31.311  1.00  0.00     0.040 A 
ATOM     72  F   UNL A   1      35.801  34.285  29.405  1.00  0.00    -0.206 F 
ATOM     73  C   UNL A   1      34.268  33.884  32.611  1.00  0.00     0.006 A 
ENDBRANCH  52  66
BRANCH  53  74
ATOM     74  C   UNL A   1      44.752  29.142  27.842  1.00  0.00     0.057 A 
ATOM     75  C   UNL A   1      45.745  28.165  28.032  1.00  0.00     0.134 A 
ATOM     76  C   UNL A   1      43.907  28.987  26.741  1.00  0.00     0.134 A 
ATOM     77  F   UNL A   1      46.590  28.255  29.072  1.00  0.00    -0.206 F 
ATOM     78  C   UNL A   1      45.819  27.023  27.233  1.00  0.00     0.040 A 
ATOM     79  C   UNL A   1      43.984  27.855  25.920  1.00  0.00     0.040 A 
ATOM     80  F   UNL A   1      42.920  29.864  26.506  1.00  0.00    -0.206 F 
ATOM     81  C   UNL A   1      44.913  26.851  26.190  1.00  0.00     0.006 A 
ENDBRANCH  53  74
BRANCH  65  82
ATOM     82  C   UNL A   1      42.522  35.881  29.068  1.00  0.00     0.057 A 
ATOM     83  C   UNL A   1      41.820  36.268  27.918  1.00  0.00     0.134 A 
ATOM     84  C   UNL A   1      43.341  36.862  29.654  1.00  0.00     0.134 A 
ATOM     85  F   UNL A   1      41.028  35.397  27.272  1.00  0.00    -0.206 F 
ATOM     86  C   UNL A   1      41.919  37.558  27.388  1.00  0.00     0.040 A 
ATOM     87  C   UNL A   1      43.481  38.141  29.110  1.00  0.00     0.040 A 
ATOM     88  F   UNL A   1      44.017  36.618  30.787  1.00  0.00    -0.206 F 
ATOM     89  C   UNL A   1      42.765  38.494  27.974  1.00  0.00     0.006 A 
ENDBRANCH  65  82
ENDBRANCH  39  40
ENDBRANCH  31  34
ENDBRANCH  29  30
ENDBRANCH  28  29
ENDBRANCH  27  28
ENDBRANCH   1  27
TORSDOF 16
ENDMDL
MODEL 3
REMARK VINA RESULT:     -11.7      1.470      2.149
REMARK SMILES Cc1ccc(Nc2c(Cl)cc(Cl)cc2Cl)c(CC(=O)NCCCCCCNC(=O)c2ccc(-c3c4nc(c(-c5c(F)cccc5F)c5ccc([nH]5)c(-c5c(F)cccc5F)c5nc(c(-c6c(F)cccc6F)c6ccc3[nH]6)C=C5)C=C4)cc2)c1
REMARK SMILES IDX 23 1 22 2 21 3 20 4 18 5 19 6 17 8 16 9 1 10 2 11 3 12 84 13
REMARK SMILES IDX 4 14 5 15 6 16 7 18 8 19 14 20 9 21 10 22 13 23 15 24 11 25
REMARK SMILES IDX 12 26 24 27 25 28 26 29 27 30 28 31 29 33 30 34 31 35 83 36
REMARK SMILES IDX 32 37 82 38 33 39 34 40 35 41 76 42 36 43 81 44 75 45 77 46
REMARK SMILES IDX 37 47 80 48 74 49 73 50 38 52 64 53 47 54 63 55 48 56 51 57
REMARK SMILES IDX 62 58 78 59 49 60 50 61 61 63 79 64 52 65 39 66 40 67 45 68
REMARK SMILES IDX 41 69 42 70 44 71 46 72 43 73 65 74 66 75 71 76 67 77 68 78
REMARK SMILES IDX 70 79 72 80 69 81 53 82 54 83 59 84 55 85 56 86 58 87 60 88
REMARK SMILES IDX 57 89
REMARK H PARENT 20 7 6 17 27 32 77 51 51 62
REMARK Flexibility Score: inf
ROOT
ATOM      1  C   UNL A   1      31.785  28.781  26.032  1.00  0.00     0.002 C 
ENDROOT
BRANCH   1   2
ATOM      2  C   UNL A   1      32.200  27.493  26.759  1.00  0.00     0.021 C 
BRANCH   2   3
ATOM      3  C   UNL A   1      31.306  26.278  26.495  1.00  0.00     0.116 C 
BRANCH   3   4
ATOM      4  N   UNL A   1      31.827  25.077  27.112  1.00  0.00    -0.356 N 
ATOM      5  C   UNL A   1      31.656  23.779  26.734  1.00  0.00     0.224 C 
ATOM      6  O   UNL A   1      32.054  22.887  27.488  1.00  0.00    -0.275 OA
ATOM      7  H   UNL A   1      32.381  25.216  27.915  1.00  0.00     0.163 HD
BRANCH   5   8
ATOM      8  C   UNL A   1      30.964  23.433  25.428  1.00  0.00     0.137 C 
BRANCH   8   9
ATOM      9  C   UNL A   1      31.737  23.857  24.198  1.00  0.00    -0.015 A 
ATOM     10  C   UNL A   1      31.228  26.426  21.405  1.00  0.00     0.044 C 
ATOM     11  C   UNL A   1      31.816  25.327  22.237  1.00  0.00    -0.051 A 
ATOM     12  C   UNL A   1      32.983  24.687  21.829  1.00  0.00     0.005 A 
ATOM     13  C   UNL A   1      31.216  24.923  23.431  1.00  0.00     0.009 A 
ATOM     14  C   UNL A   1      33.535  23.662  22.603  1.00  0.00     0.026 A 
ATOM     15  C   UNL A   1      32.931  23.224  23.794  1.00  0.00     0.042 A 
BRANCH  15  16
ATOM     16  N   UNL A   1      33.532  22.224  24.591  1.00  0.00    -0.353 N 
ATOM     17  H   UNL A   1      32.931  21.502  24.889  1.00  0.00     0.167 HD
BRANCH  16  18
ATOM     18  C   UNL A   1      34.876  22.114  25.023  1.00  0.00     0.076 A 
ATOM     19  C   UNL A   1      35.656  23.231  25.386  1.00  0.00     0.067 A 
ATOM     20  C   UNL A   1      35.503  20.850  25.026  1.00  0.00     0.067 A 
ATOM     21  Cl  UNL A   1      34.977  24.818  25.527  1.00  0.00    -0.082 Cl
ATOM     22  C   UNL A   1      37.009  23.090  25.710  1.00  0.00     0.043 A 
ATOM     23  C   UNL A   1      36.853  20.707  25.351  1.00  0.00     0.043 A 
ATOM     24  Cl  UNL A   1      34.626  19.421  24.589  1.00  0.00    -0.082 Cl
ATOM     25  C   UNL A   1      37.600  21.831  25.683  1.00  0.00     0.044 A 
ATOM     26  Cl  UNL A   1      39.268  21.665  26.066  1.00  0.00    -0.084 Cl
ENDBRANCH  16  18
ENDBRANCH  15  16
ENDBRANCH   8   9
ENDBRANCH   5   8
ENDBRANCH   3   4
ENDBRANCH   2   3
ENDBRANCH   1   2
BRANCH   1  27
ATOM     27  C   UNL A   1      32.904  29.793  25.737  1.00  0.00     0.002 C 
BRANCH  27  28
ATOM     28  C   UNL A   1      34.137  29.710  26.640  1.00  0.00     0.021 C 
BRANCH  28  29
ATOM     29  C   UNL A   1      33.946  30.313  28.025  1.00  0.00     0.116 C 
BRANCH  29  30
ATOM     30  N   UNL A   1      34.892  31.374  28.338  1.00  0.00    -0.352 N 
ATOM     31  C   UNL A   1      36.228  31.310  28.698  1.00  0.00     0.251 C 
ATOM     32  H   UNL A   1      34.523  32.285  28.284  1.00  0.00     0.163 HD
ATOM     33  O   UNL A   1      36.822  32.336  28.987  1.00  0.00    -0.269 OA
BRANCH  31  34
ATOM     34  C   UNL A   1      36.976  30.030  28.577  1.00  0.00     0.039 A 
ATOM     35  C   UNL A   1      37.077  29.240  29.730  1.00  0.00     0.014 A 
ATOM     36  C   UNL A   1      37.747  29.721  27.460  1.00  0.00     0.014 A 
ATOM     37  C   UNL A   1      38.143  28.355  29.864  1.00  0.00     0.010 A 
ATOM     38  C   UNL A   1      38.856  28.917  27.621  1.00  0.00     0.010 A 
ATOM     39  C   UNL A   1      39.102  28.314  28.857  1.00  0.00    -0.014 A 
BRANCH  39  40
ATOM     40  C   UNL A   1      40.468  27.853  29.073  1.00  0.00     0.031 A 
ATOM     41  C   UNL A   1      40.909  26.529  28.601  1.00  0.00     0.074 A 
ATOM     42  C   UNL A   1      41.365  28.735  29.571  1.00  0.00     0.049 A 
ATOM     43  N   UNL A   1      42.053  26.011  28.893  1.00  0.00    -0.248 NA
ATOM     44  C   UNL A   1      40.063  25.637  27.812  1.00  0.00     0.031 C 
ATOM     45  C   UNL A   1      42.823  28.654  29.530  1.00  0.00     0.029 A 
ATOM     46  N   UNL A   1      41.106  29.803  30.444  1.00  0.00    -0.354 N 
ATOM     47  C   UNL A   1      42.217  24.896  28.113  1.00  0.00     0.074 A 
ATOM     48  C   UNL A   1      40.909  24.629  27.571  1.00  0.00     0.031 C 
ATOM     49  C   UNL A   1      43.325  29.393  30.532  1.00  0.00     0.029 A 
ATOM     50  C   UNL A   1      42.203  29.835  31.339  1.00  0.00     0.049 A 
ATOM     51  H   UNL A   1      40.325  30.404  30.438  1.00  0.00     0.167 HD
ATOM     52  C   UNL A   1      43.477  24.416  27.924  1.00  0.00     0.037 A 
ATOM     53  C   UNL A   1      42.025  29.536  32.661  1.00  0.00     0.037 A 
ATOM     54  C   UNL A   1      44.398  24.952  28.930  1.00  0.00     0.049 A 
ATOM     55  C   UNL A   1      42.776  28.309  33.143  1.00  0.00     0.074 A 
ATOM     56  C   UNL A   1      45.426  25.878  28.940  1.00  0.00     0.029 A 
ATOM     57  N   UNL A   1      44.129  24.668  30.259  1.00  0.00    -0.354 N 
ATOM     58  N   UNL A   1      43.502  27.538  32.381  1.00  0.00    -0.248 NA
ATOM     59  C   UNL A   1      42.685  27.804  34.515  1.00  0.00     0.031 C 
ATOM     60  C   UNL A   1      45.698  26.213  30.305  1.00  0.00     0.029 A 
ATOM     61  C   UNL A   1      44.861  25.465  31.114  1.00  0.00     0.049 A 
ATOM     62  H   UNL A   1      43.491  23.980  30.558  1.00  0.00     0.167 HD
ATOM     63  C   UNL A   1      43.898  26.440  33.094  1.00  0.00     0.074 A 
ATOM     64  C   UNL A   1      43.377  26.656  34.430  1.00  0.00     0.031 C 
ATOM     65  C   UNL A   1      44.578  25.398  32.539  1.00  0.00     0.037 A 
BRANCH  52  66
ATOM     66  C   UNL A   1      43.917  23.553  26.762  1.00  0.00     0.057 A 
ATOM     67  C   UNL A   1      44.626  24.125  25.687  1.00  0.00     0.134 A 
ATOM     68  C   UNL A   1      43.571  22.199  26.567  1.00  0.00     0.134 A 
ATOM     69  F   UNL A   1      45.009  25.409  25.705  1.00  0.00    -0.206 F 
ATOM     70  C   UNL A   1      44.953  23.413  24.522  1.00  0.00     0.040 A 
ATOM     71  C   UNL A   1      43.938  21.464  25.432  1.00  0.00     0.040 A 
ATOM     72  F   UNL A   1      42.804  21.520  27.425  1.00  0.00    -0.206 F 
ATOM     73  C   UNL A   1      44.620  22.073  24.395  1.00  0.00     0.006 A 
ENDBRANCH  52  66
BRANCH  53  74
ATOM     74  C   UNL A   1      40.707  29.987  33.181  1.00  0.00     0.057 A 
ATOM     75  C   UNL A   1      40.509  31.359  33.415  1.00  0.00     0.134 A 
ATOM     76  C   UNL A   1      39.569  29.182  33.101  1.00  0.00     0.134 A 
ATOM     77  F   UNL A   1      41.561  32.188  33.504  1.00  0.00    -0.206 F 
ATOM     78  C   UNL A   1      39.233  31.924  33.450  1.00  0.00     0.040 A 
ATOM     79  C   UNL A   1      38.283  29.736  33.153  1.00  0.00     0.040 A 
ATOM     80  F   UNL A   1      39.674  27.868  32.855  1.00  0.00    -0.206 F 
ATOM     81  C   UNL A   1      38.115  31.113  33.286  1.00  0.00     0.006 A 
ENDBRANCH  53  74
BRANCH  65  82
ATOM     82  C   UNL A   1      45.004  24.207  33.338  1.00  0.00     0.057 A 
ATOM     83  C   UNL A   1      44.215  23.052  33.419  1.00  0.00     0.134 A 
ATOM     84  C   UNL A   1      46.156  24.230  34.143  1.00  0.00     0.134 A 
ATOM     85  F   UNL A   1      43.083  22.942  32.706  1.00  0.00    -0.206 F 
ATOM     86  C   UNL A   1      44.557  21.977  34.245  1.00  0.00     0.040 A 
ATOM     87  C   UNL A   1      46.486  23.180  35.004  1.00  0.00     0.040 A 
ATOM     88  F   UNL A   1      47.012  25.262  34.106  1.00  0.00    -0.206 F 
ATOM     89  C   UNL A   1      45.687  22.045  35.055  1.00  0.00     0.006 A 
ENDBRANCH  65  82
ENDBRANCH  39  40
ENDBRANCH  31  34
ENDBRANCH  29  30
ENDBRANCH  28  29
ENDBRANCH  27  28
ENDBRANCH   1  27
TORSDOF 16
ENDMDL
