MODEL 1
REMARK VINA RESULT:     -12.0      0.000      0.000
REMARK SMILES N#CC1=C(N)N2C(=O)[C@@H](CC(=O)NCCCCCCNC(=O)c3ccc(-c4c5nc(c(-c6c(F)cccc6F)c6ccc([nH]6)c(-c6c(F)cccc6F)c6nc(c(-c7c(F)cccc7F)c7ccc4[nH]7)C=C6)C=C5)cc3)SC2=C(C#N)[C@H]1c1ccc(Cl)cc1
REMARK SMILES IDX 16 1 15 2 14 3 13 4 11 5 12 6 10 8 9 9 3 10 4 11 82 12 6 13
REMARK SMILES IDX 79 14 7 15 78 16 8 17 77 18 2 19 1 20 5 21 83 24 84 25 89 26
REMARK SMILES IDX 85 27 88 28 86 29 87 30 80 31 81 32 17 33 18 34 19 35 20 36
REMARK SMILES IDX 21 37 22 39 23 40 24 41 76 42 25 43 75 44 26 45 27 46 28 47
REMARK SMILES IDX 69 48 29 49 74 50 68 51 70 52 30 53 73 54 67 55 66 56 31 58
REMARK SMILES IDX 57 59 40 60 56 61 41 62 44 63 55 64 71 65 42 66 43 67 54 69
REMARK SMILES IDX 72 70 45 71 32 72 33 73 38 74 34 75 35 76 37 77 39 78 36 79
REMARK SMILES IDX 58 80 59 81 64 82 60 83 61 84 63 85 65 86 62 87 46 88 47 89
REMARK SMILES IDX 52 90 48 91 49 92 51 93 53 94 50 95
REMARK H PARENT 13 7 5 22 5 23 20 38 70 57 44 68
REMARK Flexibility Score: inf
ROOT
ATOM      1  C   UNL A   1      33.803  30.525  26.963  1.00  0.00     0.002 C 
ENDROOT
BRANCH   1   2
ATOM      2  C   UNL A   1      34.249  29.081  26.699  1.00  0.00     0.021 C 
BRANCH   2   3
ATOM      3  C   UNL A   1      33.997  28.616  25.263  1.00  0.00     0.116 C 
BRANCH   3   4
ATOM      4  N   UNL A   1      32.757  29.130  24.712  1.00  0.00    -0.356 N 
ATOM      5  C   UNL A   1      31.493  28.649  24.814  1.00  0.00     0.221 C 
ATOM      6  O   UNL A   1      30.576  29.208  24.214  1.00  0.00    -0.275 OA
ATOM      7  H   UNL A   1      32.848  29.954  24.181  1.00  0.00     0.163 HD
BRANCH   5   8
ATOM      8  C   UNL A   1      31.224  27.442  25.670  1.00  0.00     0.125 C 
BRANCH   8   9
ATOM      9  C   UNL A   1      30.218  26.476  25.061  1.00  0.00     0.152 C 
ATOM     10  C   UNL A   1      31.983  22.126  24.545  1.00  0.00     0.083 C 
ATOM     11  C   UNL A   1      31.064  22.844  25.218  1.00  0.00     0.126 C 
ATOM     12  C   UNL A   1      32.959  22.771  23.552  1.00  0.00     0.107 C 
ATOM     13  N   UNL A   1      30.922  24.191  24.903  1.00  0.00    -0.258 N 
ATOM     14  C   UNL A   1      32.348  24.044  22.999  1.00  0.00     0.073 C 
ATOM     15  C   UNL A   1      30.223  25.087  25.691  1.00  0.00     0.247 C 
ATOM     16  C   UNL A   1      31.408  24.674  23.711  1.00  0.00     0.099 C 
ATOM     17  O   UNL A   1      29.727  24.809  26.777  1.00  0.00    -0.273 OA
ATOM     18  S   UNL A   1      30.686  26.192  23.312  1.00  0.00    -0.093 SA
BRANCH  10  19
ATOM     19  C   UNL A   1      32.117  20.639  24.830  1.00  0.00     0.100 C 
ATOM     20  N   UNL A   1      32.229  19.405  25.066  1.00  0.00    -0.193 NA
ENDBRANCH  10  19
BRANCH  11  21
ATOM     21  N   UNL A   1      30.276  22.284  26.190  1.00  0.00    -0.384 N 
ATOM     22  H   UNL A   1      29.414  22.697  26.425  1.00  0.00     0.158 HD
ATOM     23  H   UNL A   1      30.573  21.467  26.654  1.00  0.00     0.158 HD
ENDBRANCH  11  21
BRANCH  12  24
ATOM     24  C   UNL A   1      34.348  23.015  24.189  1.00  0.00    -0.034 A 
ATOM     25  C   UNL A   1      35.557  22.835  23.479  1.00  0.00     0.006 A 
ATOM     26  C   UNL A   1      34.449  23.445  25.526  1.00  0.00     0.006 A 
ATOM     27  C   UNL A   1      36.799  23.074  24.076  1.00  0.00     0.021 A 
ATOM     28  C   UNL A   1      35.692  23.710  26.114  1.00  0.00     0.021 A 
ATOM     29  C   UNL A   1      36.863  23.519  25.388  1.00  0.00     0.041 A 
ATOM     30  Cl  UNL A   1      38.390  23.828  26.115  1.00  0.00    -0.084 Cl
ENDBRANCH  12  24
BRANCH  14  31
ATOM     31  C   UNL A   1      32.809  24.596  21.660  1.00  0.00     0.098 C 
ATOM     32  N   UNL A   1      33.192  25.055  20.550  1.00  0.00    -0.193 NA
ENDBRANCH  14  31
ENDBRANCH   8   9
ENDBRANCH   5   8
ENDBRANCH   3   4
ENDBRANCH   2   3
ENDBRANCH   1   2
BRANCH   1  33
ATOM     33  C   UNL A   1      32.346  30.618  27.421  1.00  0.00     0.002 C 
BRANCH  33  34
ATOM     34  C   UNL A   1      31.733  32.009  27.234  1.00  0.00     0.021 C 
BRANCH  34  35
ATOM     35  C   UNL A   1      32.742  33.067  26.806  1.00  0.00     0.116 C 
BRANCH  35  36
ATOM     36  N   UNL A   1      32.577  34.287  27.577  1.00  0.00    -0.352 N 
ATOM     37  C   UNL A   1      33.170  34.619  28.769  1.00  0.00     0.251 C 
ATOM     38  H   UNL A   1      31.964  34.956  27.197  1.00  0.00     0.163 HD
ATOM     39  O   UNL A   1      32.737  35.538  29.450  1.00  0.00    -0.269 OA
BRANCH  37  40
ATOM     40  C   UNL A   1      34.336  33.836  29.224  1.00  0.00     0.039 A 
ATOM     41  C   UNL A   1      35.619  34.291  28.920  1.00  0.00     0.014 A 
ATOM     42  C   UNL A   1      34.154  32.663  29.964  1.00  0.00     0.014 A 
ATOM     43  C   UNL A   1      36.725  33.588  29.396  1.00  0.00     0.010 A 
ATOM     44  C   UNL A   1      35.257  32.005  30.498  1.00  0.00     0.010 A 
ATOM     45  C   UNL A   1      36.554  32.457  30.212  1.00  0.00    -0.014 A 
BRANCH  45  46
ATOM     46  C   UNL A   1      37.726  31.739  30.770  1.00  0.00     0.031 A 
ATOM     47  C   UNL A   1      38.172  31.999  32.183  1.00  0.00     0.074 A 
ATOM     48  C   UNL A   1      38.412  30.881  29.990  1.00  0.00     0.049 A 
ATOM     49  N   UNL A   1      39.186  31.490  32.835  1.00  0.00    -0.248 NA
ATOM     50  C   UNL A   1      37.390  32.976  32.958  1.00  0.00     0.031 C 
ATOM     51  C   UNL A   1      38.106  30.579  28.590  1.00  0.00     0.029 A 
ATOM     52  N   UNL A   1      39.511  30.105  30.263  1.00  0.00    -0.354 N 
ATOM     53  C   UNL A   1      39.166  32.085  34.090  1.00  0.00     0.074 A 
ATOM     54  C   UNL A   1      38.076  33.037  34.090  1.00  0.00     0.031 C 
ATOM     55  C   UNL A   1      38.978  29.665  28.136  1.00  0.00     0.029 A 
ATOM     56  C   UNL A   1      39.927  29.344  29.197  1.00  0.00     0.049 A 
ATOM     57  H   UNL A   1      39.959  30.097  31.139  1.00  0.00     0.167 HD
ATOM     58  C   UNL A   1      39.965  31.840  35.156  1.00  0.00     0.037 A 
ATOM     59  C   UNL A   1      40.960  28.489  29.087  1.00  0.00     0.037 A 
ATOM     60  C   UNL A   1      41.038  30.881  35.158  1.00  0.00     0.049 A 
ATOM     61  C   UNL A   1      41.845  28.253  30.281  1.00  0.00     0.074 A 
ATOM     62  C   UNL A   1      41.873  30.526  36.202  1.00  0.00     0.029 A 
ATOM     63  N   UNL A   1      41.425  30.126  34.061  1.00  0.00    -0.354 N 
ATOM     64  N   UNL A   1      41.769  28.771  31.483  1.00  0.00    -0.248 NA
ATOM     65  C   UNL A   1      42.956  27.308  30.104  1.00  0.00     0.031 C 
ATOM     66  C   UNL A   1      42.799  29.593  35.724  1.00  0.00     0.029 A 
ATOM     67  C   UNL A   1      42.504  29.324  34.398  1.00  0.00     0.049 A 
ATOM     68  H   UNL A   1      40.997  30.155  33.175  1.00  0.00     0.167 HD
ATOM     69  C   UNL A   1      42.800  28.192  32.212  1.00  0.00     0.074 A 
ATOM     70  C   UNL A   1      43.474  27.269  31.323  1.00  0.00     0.031 C 
ATOM     71  C   UNL A   1      43.159  28.405  33.503  1.00  0.00     0.037 A 
BRANCH  58  72
ATOM     72  C   UNL A   1      39.705  32.617  36.414  1.00  0.00     0.057 A 
ATOM     73  C   UNL A   1      40.444  33.762  36.741  1.00  0.00     0.134 A 
ATOM     74  C   UNL A   1      38.670  32.249  37.283  1.00  0.00     0.134 A 
ATOM     75  F   UNL A   1      41.457  34.163  35.958  1.00  0.00    -0.206 F 
ATOM     76  C   UNL A   1      40.177  34.500  37.895  1.00  0.00     0.040 A 
ATOM     77  C   UNL A   1      38.374  32.996  38.425  1.00  0.00     0.040 A 
ATOM     78  F   UNL A   1      37.917  31.168  37.028  1.00  0.00    -0.206 F 
ATOM     79  C   UNL A   1      39.133  34.122  38.736  1.00  0.00     0.006 A 
ENDBRANCH  58  72
BRANCH  59  80
ATOM     80  C   UNL A   1      41.214  27.779  27.807  1.00  0.00     0.057 A 
ATOM     81  C   UNL A   1      40.743  26.478  27.594  1.00  0.00     0.134 A 
ATOM     82  C   UNL A   1      41.958  28.370  26.778  1.00  0.00     0.134 A 
ATOM     83  F   UNL A   1      40.038  25.851  28.547  1.00  0.00    -0.206 F 
ATOM     84  C   UNL A   1      41.029  25.778  26.420  1.00  0.00     0.040 A 
ATOM     85  C   UNL A   1      42.226  27.694  25.588  1.00  0.00     0.040 A 
ATOM     86  F   UNL A   1      42.431  29.618  26.914  1.00  0.00    -0.206 F 
ATOM     87  C   UNL A   1      41.770  26.389  25.411  1.00  0.00     0.006 A 
ENDBRANCH  59  80
BRANCH  71  88
ATOM     88  C   UNL A   1      44.308  27.600  34.037  1.00  0.00     0.057 A 
ATOM     89  C   UNL A   1      45.625  28.073  34.002  1.00  0.00     0.134 A 
ATOM     90  C   UNL A   1      44.087  26.345  34.620  1.00  0.00     0.134 A 
ATOM     91  F   UNL A   1      45.907  29.262  33.446  1.00  0.00    -0.206 F 
ATOM     92  C   UNL A   1      46.686  27.314  34.501  1.00  0.00     0.040 A 
ATOM     93  C   UNL A   1      45.135  25.591  35.149  1.00  0.00     0.040 A 
ATOM     94  F   UNL A   1      42.847  25.837  34.695  1.00  0.00    -0.206 F 
ATOM     95  C   UNL A   1      46.440  26.072  35.083  1.00  0.00     0.006 A 
ENDBRANCH  71  88
ENDBRANCH  45  46
ENDBRANCH  37  40
ENDBRANCH  35  36
ENDBRANCH  34  35
ENDBRANCH  33  34
ENDBRANCH   1  33
TORSDOF 18
ENDMDL
MODEL 2
REMARK VINA RESULT:     -12.0      2.910      7.983
REMARK SMILES N#CC1=C(N)N2C(=O)[C@@H](CC(=O)NCCCCCCNC(=O)c3ccc(-c4c5nc(c(-c6c(F)cccc6F)c6ccc([nH]6)c(-c6c(F)cccc6F)c6nc(c(-c7c(F)cccc7F)c7ccc4[nH]7)C=C6)C=C5)cc3)SC2=C(C#N)[C@H]1c1ccc(Cl)cc1
REMARK SMILES IDX 16 1 15 2 14 3 13 4 11 5 12 6 10 8 9 9 3 10 4 11 82 12 6 13
REMARK SMILES IDX 79 14 7 15 78 16 8 17 77 18 2 19 1 20 5 21 83 24 84 25 89 26
REMARK SMILES IDX 85 27 88 28 86 29 87 30 80 31 81 32 17 33 18 34 19 35 20 36
REMARK SMILES IDX 21 37 22 39 23 40 24 41 76 42 25 43 75 44 26 45 27 46 28 47
REMARK SMILES IDX 69 48 29 49 74 50 68 51 70 52 30 53 73 54 67 55 66 56 31 58
REMARK SMILES IDX 57 59 40 60 56 61 41 62 44 63 55 64 71 65 42 66 43 67 54 69
REMARK SMILES IDX 72 70 45 71 32 72 33 73 38 74 34 75 35 76 37 77 39 78 36 79
REMARK SMILES IDX 58 80 59 81 64 82 60 83 61 84 63 85 65 86 62 87 46 88 47 89
REMARK SMILES IDX 52 90 48 91 49 92 51 93 53 94 50 95
REMARK H PARENT 13 7 5 22 5 23 20 38 70 57 44 68
REMARK Flexibility Score: inf
ROOT
ATOM      1  C   UNL A   1      38.528  21.753  25.793  1.00  0.00     0.002 C 
ENDROOT
BRANCH   1   2
ATOM      2  C   UNL A   1      37.930  23.159  25.941  1.00  0.00     0.021 C 
BRANCH   2   3
ATOM      3  C   UNL A   1      36.417  23.158  26.170  1.00  0.00     0.116 C 
BRANCH   3   4
ATOM      4  N   UNL A   1      35.782  21.922  25.751  1.00  0.00    -0.356 N 
ATOM      5  C   UNL A   1      34.998  21.667  24.674  1.00  0.00     0.221 C 
ATOM      6  O   UNL A   1      34.503  20.550  24.529  1.00  0.00    -0.275 OA
ATOM      7  H   UNL A   1      35.946  21.150  26.340  1.00  0.00     0.163 HD
BRANCH   5   8
ATOM      8  C   UNL A   1      34.750  22.751  23.662  1.00  0.00     0.125 C 
BRANCH   8   9
ATOM      9  C   UNL A   1      33.422  22.611  22.933  1.00  0.00     0.152 C 
ATOM     10  C   UNL A   1      30.806  26.536  23.186  1.00  0.00     0.083 C 
ATOM     11  C   UNL A   1      31.491  25.748  22.334  1.00  0.00     0.126 C 
ATOM     12  C   UNL A   1      30.760  26.262  24.695  1.00  0.00     0.107 C 
ATOM     13  N   UNL A   1      32.068  24.586  22.832  1.00  0.00    -0.258 N 
ATOM     14  C   UNL A   1      30.987  24.784  24.947  1.00  0.00     0.073 C 
ATOM     15  C   UNL A   1      33.010  23.846  22.139  1.00  0.00     0.247 C 
ATOM     16  C   UNL A   1      31.640  24.063  24.029  1.00  0.00     0.099 C 
ATOM     17  O   UNL A   1      33.487  24.176  21.060  1.00  0.00    -0.273 OA
ATOM     18  S   UNL A   1      32.102  22.406  24.187  1.00  0.00    -0.093 SA
BRANCH  10  19
ATOM     19  C   UNL A   1      30.118  27.782  22.654  1.00  0.00     0.100 C 
ATOM     20  N   UNL A   1      29.546  28.816  22.213  1.00  0.00    -0.193 NA
ENDBRANCH  10  19
BRANCH  11  21
ATOM     21  N   UNL A   1      31.628  26.064  21.007  1.00  0.00    -0.384 N 
ATOM     22  H   UNL A   1      31.478  26.989  20.702  1.00  0.00     0.158 HD
ATOM     23  H   UNL A   1      31.876  25.366  20.357  1.00  0.00     0.158 HD
ENDBRANCH  11  21
BRANCH  12  24
ATOM     24  C   UNL A   1      31.763  27.150  25.470  1.00  0.00    -0.034 A 
ATOM     25  C   UNL A   1      33.022  27.519  24.944  1.00  0.00     0.006 A 
ATOM     26  C   UNL A   1      31.436  27.637  26.750  1.00  0.00     0.006 A 
ATOM     27  C   UNL A   1      33.906  28.332  25.662  1.00  0.00     0.021 A 
ATOM     28  C   UNL A   1      32.311  28.473  27.456  1.00  0.00     0.021 A 
ATOM     29  C   UNL A   1      33.544  28.814  26.911  1.00  0.00     0.041 A 
ATOM     30  Cl  UNL A   1      34.623  29.827  27.785  1.00  0.00    -0.084 Cl
ENDBRANCH  12  24
BRANCH  14  31
ATOM     31  C   UNL A   1      30.488  24.140  26.230  1.00  0.00     0.098 C 
ATOM     32  N   UNL A   1      30.075  23.605  27.294  1.00  0.00    -0.193 NA
ENDBRANCH  14  31
ENDBRANCH   8   9
ENDBRANCH   5   8
ENDBRANCH   3   4
ENDBRANCH   2   3
ENDBRANCH   1   2
BRANCH   1  33
ATOM     33  C   UNL A   1      40.021  21.709  26.124  1.00  0.00     0.002 C 
BRANCH  33  34
ATOM     34  C   UNL A   1      40.361  22.291  27.498  1.00  0.00     0.021 C 
BRANCH  34  35
ATOM     35  C   UNL A   1      41.604  23.171  27.496  1.00  0.00     0.116 C 
BRANCH  35  36
ATOM     36  N   UNL A   1      41.688  23.952  26.274  1.00  0.00    -0.352 N 
ATOM     37  C   UNL A   1      41.390  25.279  26.098  1.00  0.00     0.251 C 
ATOM     38  H   UNL A   1      41.997  23.468  25.475  1.00  0.00     0.163 HD
ATOM     39  O   UNL A   1      41.231  25.743  24.979  1.00  0.00    -0.269 OA
BRANCH  37  40
ATOM     40  C   UNL A   1      41.251  26.140  27.291  1.00  0.00     0.039 A 
ATOM     41  C   UNL A   1      42.215  27.116  27.539  1.00  0.00     0.014 A 
ATOM     42  C   UNL A   1      40.157  25.986  28.149  1.00  0.00     0.014 A 
ATOM     43  C   UNL A   1      42.060  27.969  28.631  1.00  0.00     0.010 A 
ATOM     44  C   UNL A   1      39.966  26.885  29.193  1.00  0.00     0.010 A 
ATOM     45  C   UNL A   1      40.922  27.880  29.449  1.00  0.00    -0.014 A 
BRANCH  45  46
ATOM     46  C   UNL A   1      40.720  28.823  30.577  1.00  0.00     0.031 A 
ATOM     47  C   UNL A   1      39.647  29.874  30.504  1.00  0.00     0.074 A 
ATOM     48  C   UNL A   1      41.532  28.757  31.650  1.00  0.00     0.049 A 
ATOM     49  N   UNL A   1      39.339  30.801  31.375  1.00  0.00    -0.248 NA
ATOM     50  C   UNL A   1      38.825  29.901  29.283  1.00  0.00     0.031 C 
ATOM     51  C   UNL A   1      42.639  27.814  31.818  1.00  0.00     0.029 A 
ATOM     52  N   UNL A   1      41.554  29.501  32.804  1.00  0.00    -0.354 N 
ATOM     53  C   UNL A   1      38.295  31.521  30.807  1.00  0.00     0.074 A 
ATOM     54  C   UNL A   1      38.060  30.962  29.493  1.00  0.00     0.031 C 
ATOM     55  C   UNL A   1      43.213  28.016  33.015  1.00  0.00     0.029 A 
ATOM     56  C   UNL A   1      42.543  29.127  33.681  1.00  0.00     0.049 A 
ATOM     57  H   UNL A   1      40.921  30.233  32.983  1.00  0.00     0.167 HD
ATOM     58  C   UNL A   1      37.578  32.537  31.344  1.00  0.00     0.037 A 
ATOM     59  C   UNL A   1      42.874  29.628  34.886  1.00  0.00     0.037 A 
ATOM     60  C   UNL A   1      37.802  33.079  32.658  1.00  0.00     0.049 A 
ATOM     61  C   UNL A   1      42.073  30.772  35.448  1.00  0.00     0.074 A 
ATOM     62  C   UNL A   1      37.099  34.076  33.310  1.00  0.00     0.029 A 
ATOM     63  N   UNL A   1      38.811  32.671  33.519  1.00  0.00    -0.354 N 
ATOM     64  N   UNL A   1      41.044  31.395  34.929  1.00  0.00    -0.248 NA
ATOM     65  C   UNL A   1      42.479  31.277  36.767  1.00  0.00     0.031 C 
ATOM     66  C   UNL A   1      37.712  34.307  34.546  1.00  0.00     0.029 A 
ATOM     67  C   UNL A   1      38.762  33.414  34.688  1.00  0.00     0.049 A 
ATOM     68  H   UNL A   1      39.463  31.960  33.329  1.00  0.00     0.167 HD
ATOM     69  C   UNL A   1      40.659  32.342  35.870  1.00  0.00     0.074 A 
ATOM     70  C   UNL A   1      41.555  32.198  36.998  1.00  0.00     0.031 C 
ATOM     71  C   UNL A   1      39.656  33.253  35.805  1.00  0.00     0.037 A 
BRANCH  58  72
ATOM     72  C   UNL A   1      36.475  33.125  30.513  1.00  0.00     0.057 A 
ATOM     73  C   UNL A   1      36.736  34.017  29.464  1.00  0.00     0.134 A 
ATOM     74  C   UNL A   1      35.140  32.757  30.728  1.00  0.00     0.134 A 
ATOM     75  F   UNL A   1      37.991  34.421  29.212  1.00  0.00    -0.206 F 
ATOM     76  C   UNL A   1      35.710  34.536  28.673  1.00  0.00     0.040 A 
ATOM     77  C   UNL A   1      34.109  33.247  29.924  1.00  0.00     0.040 A 
ATOM     78  F   UNL A   1      34.819  31.902  31.710  1.00  0.00    -0.206 F 
ATOM     79  C   UNL A   1      34.393  34.144  28.897  1.00  0.00     0.006 A 
ENDBRANCH  58  72
BRANCH  59  80
ATOM     80  C   UNL A   1      44.007  29.050  35.654  1.00  0.00     0.057 A 
ATOM     81  C   UNL A   1      45.316  29.509  35.468  1.00  0.00     0.134 A 
ATOM     82  C   UNL A   1      43.815  28.005  36.566  1.00  0.00     0.134 A 
ATOM     83  F   UNL A   1      45.568  30.497  34.596  1.00  0.00    -0.206 F 
ATOM     84  C   UNL A   1      46.397  28.932  36.137  1.00  0.00     0.040 A 
ATOM     85  C   UNL A   1      44.881  27.438  37.264  1.00  0.00     0.040 A 
ATOM     86  F   UNL A   1      42.584  27.524  36.797  1.00  0.00    -0.206 F 
ATOM     87  C   UNL A   1      46.179  27.894  37.042  1.00  0.00     0.006 A 
ENDBRANCH  59  80
BRANCH  71  88
ATOM     88  C   UNL A   1      39.452  34.135  37.004  1.00  0.00     0.057 A 
ATOM     89  C   UNL A   1      39.930  35.450  37.046  1.00  0.00     0.134 A 
ATOM     90  C   UNL A   1      38.743  33.669  38.118  1.00  0.00     0.134 A 
ATOM     91  F   UNL A   1      40.629  35.954  36.017  1.00  0.00    -0.206 F 
ATOM     92  C   UNL A   1      39.737  36.260  38.166  1.00  0.00     0.040 A 
ATOM     93  C   UNL A   1      38.516  34.479  39.231  1.00  0.00     0.040 A 
ATOM     94  F   UNL A   1      38.248  32.421  38.138  1.00  0.00    -0.206 F 
ATOM     95  C   UNL A   1      39.021  35.776  39.260  1.00  0.00     0.006 A 
ENDBRANCH  71  88
ENDBRANCH  45  46
ENDBRANCH  37  40
ENDBRANCH  35  36
ENDBRANCH  34  35
ENDBRANCH  33  34
ENDBRANCH   1  33
TORSDOF 18
ENDMDL
MODEL 3
REMARK VINA RESULT:     -11.8      1.663      2.399
REMARK SMILES N#CC1=C(N)N2C(=O)[C@@H](CC(=O)NCCCCCCNC(=O)c3ccc(-c4c5nc(c(-c6c(F)cccc6F)c6ccc([nH]6)c(-c6c(F)cccc6F)c6nc(c(-c7c(F)cccc7F)c7ccc4[nH]7)C=C6)C=C5)cc3)SC2=C(C#N)[C@H]1c1ccc(Cl)cc1
REMARK SMILES IDX 16 1 15 2 14 3 13 4 11 5 12 6 10 8 9 9 3 10 4 11 82 12 6 13
REMARK SMILES IDX 79 14 7 15 78 16 8 17 77 18 2 19 1 20 5 21 83 24 84 25 89 26
REMARK SMILES IDX 85 27 88 28 86 29 87 30 80 31 81 32 17 33 18 34 19 35 20 36
REMARK SMILES IDX 21 37 22 39 23 40 24 41 76 42 25 43 75 44 26 45 27 46 28 47
REMARK SMILES IDX 69 48 29 49 74 50 68 51 70 52 30 53 73 54 67 55 66 56 31 58
REMARK SMILES IDX 57 59 40 60 56 61 41 62 44 63 55 64 71 65 42 66 43 67 54 69
REMARK SMILES IDX 72 70 45 71 32 72 33 73 38 74 34 75 35 76 37 77 39 78 36 79
REMARK SMILES IDX 58 80 59 81 64 82 60 83 61 84 63 85 65 86 62 87 46 88 47 89
REMARK SMILES IDX 52 90 48 91 49 92 51 93 53 94 50 95
REMARK H PARENT 13 7 5 22 5 23 20 38 70 57 44 68
REMARK Flexibility Score: inf
ROOT
ATOM      1  C   UNL A   1      34.402  32.298  28.992  1.00  0.00     0.002 C 
ENDROOT
BRANCH   1   2
ATOM      2  C   UNL A   1      34.919  31.431  27.836  1.00  0.00     0.021 C 
BRANCH   2   3
ATOM      3  C   UNL A   1      33.972  30.291  27.457  1.00  0.00     0.116 C 
BRANCH   3   4
ATOM      4  N   UNL A   1      32.767  30.753  26.793  1.00  0.00    -0.356 N 
ATOM      5  C   UNL A   1      31.982  30.129  25.879  1.00  0.00     0.221 C 
ATOM      6  O   UNL A   1      31.024  30.724  25.388  1.00  0.00    -0.275 OA
ATOM      7  H   UNL A   1      32.475  31.659  27.045  1.00  0.00     0.163 HD
BRANCH   5   8
ATOM      8  C   UNL A   1      32.286  28.711  25.484  1.00  0.00     0.125 C 
BRANCH   8   9
ATOM      9  C   UNL A   1      31.061  27.930  25.029  1.00  0.00     0.152 C 
ATOM     10  C   UNL A   1      31.900  23.293  24.706  1.00  0.00     0.083 C 
ATOM     11  C   UNL A   1      31.201  24.218  25.392  1.00  0.00     0.126 C 
ATOM     12  C   UNL A   1      32.889  23.672  23.595  1.00  0.00     0.107 C 
ATOM     13  N   UNL A   1      31.294  25.545  24.989  1.00  0.00    -0.258 N 
ATOM     14  C   UNL A   1      32.487  25.006  22.997  1.00  0.00     0.073 C 
ATOM     15  C   UNL A   1      30.856  26.607  25.759  1.00  0.00     0.247 C 
ATOM     16  C   UNL A   1      31.755  25.851  23.730  1.00  0.00     0.099 C 
ATOM     17  O   UNL A   1      30.415  26.497  26.897  1.00  0.00    -0.273 OA
ATOM     18  S   UNL A   1      31.306  27.457  23.275  1.00  0.00    -0.093 SA
BRANCH  10  19
ATOM     19  C   UNL A   1      31.770  21.828  25.091  1.00  0.00     0.100 C 
ATOM     20  N   UNL A   1      31.662  20.613  25.410  1.00  0.00    -0.193 NA
ENDBRANCH  10  19
BRANCH  11  21
ATOM     21  N   UNL A   1      30.411  23.883  26.461  1.00  0.00    -0.384 N 
ATOM     22  H   UNL A   1      29.508  23.518  26.312  1.00  0.00     0.158 HD
ATOM     23  H   UNL A   1      30.746  24.007  27.379  1.00  0.00     0.158 HD
ENDBRANCH  11  21
BRANCH  12  24
ATOM     24  C   UNL A   1      34.350  23.673  24.104  1.00  0.00    -0.034 A 
ATOM     25  C   UNL A   1      34.736  24.286  25.317  1.00  0.00     0.006 A 
ATOM     26  C   UNL A   1      35.360  23.037  23.357  1.00  0.00     0.006 A 
ATOM     27  C   UNL A   1      36.064  24.263  25.758  1.00  0.00     0.021 A 
ATOM     28  C   UNL A   1      36.684  22.991  23.814  1.00  0.00     0.021 A 
ATOM     29  C   UNL A   1      37.031  23.608  25.011  1.00  0.00     0.041 A 
ATOM     30  Cl  UNL A   1      38.659  23.565  25.563  1.00  0.00    -0.084 Cl
ENDBRANCH  12  24
BRANCH  14  31
ATOM     31  C   UNL A   1      32.924  25.377  21.589  1.00  0.00     0.098 C 
ATOM     32  N   UNL A   1      33.286  25.684  20.422  1.00  0.00    -0.193 NA
ENDBRANCH  14  31
ENDBRANCH   8   9
ENDBRANCH   5   8
ENDBRANCH   3   4
ENDBRANCH   2   3
ENDBRANCH   1   2
BRANCH   1  33
ATOM     33  C   UNL A   1      34.544  33.796  28.716  1.00  0.00     0.002 C 
BRANCH  33  34
ATOM     34  C   UNL A   1      33.244  34.581  28.916  1.00  0.00     0.021 C 
BRANCH  34  35
ATOM     35  C   UNL A   1      33.458  35.980  29.479  1.00  0.00     0.116 C 
BRANCH  35  36
ATOM     36  N   UNL A   1      32.556  36.239  30.588  1.00  0.00    -0.352 N 
ATOM     37  C   UNL A   1      32.587  35.693  31.846  1.00  0.00     0.251 C 
ATOM     38  H   UNL A   1      31.835  36.885  30.414  1.00  0.00     0.163 HD
ATOM     39  O   UNL A   1      31.619  35.774  32.588  1.00  0.00    -0.269 OA
BRANCH  37  40
ATOM     40  C   UNL A   1      33.810  34.991  32.285  1.00  0.00     0.039 A 
ATOM     41  C   UNL A   1      33.710  33.678  32.743  1.00  0.00     0.014 A 
ATOM     42  C   UNL A   1      35.052  35.631  32.224  1.00  0.00     0.014 A 
ATOM     43  C   UNL A   1      34.867  32.989  33.105  1.00  0.00     0.010 A 
ATOM     44  C   UNL A   1      36.211  34.918  32.515  1.00  0.00     0.010 A 
ATOM     45  C   UNL A   1      36.128  33.592  32.967  1.00  0.00    -0.014 A 
BRANCH  45  46
ATOM     46  C   UNL A   1      37.368  32.846  33.293  1.00  0.00     0.031 A 
ATOM     47  C   UNL A   1      38.122  33.145  34.559  1.00  0.00     0.074 A 
ATOM     48  C   UNL A   1      37.836  31.926  32.427  1.00  0.00     0.049 A 
ATOM     49  N   UNL A   1      39.236  32.619  35.001  1.00  0.00    -0.248 NA
ATOM     50  C   UNL A   1      37.563  34.188  35.436  1.00  0.00     0.031 C 
ATOM     51  C   UNL A   1      37.221  31.580  31.144  1.00  0.00     0.029 A 
ATOM     52  N   UNL A   1      38.941  31.114  32.493  1.00  0.00    -0.354 N 
ATOM     53  C   UNL A   1      39.512  33.267  36.198  1.00  0.00     0.074 A 
ATOM     54  C   UNL A   1      38.482  34.266  36.387  1.00  0.00     0.031 C 
ATOM     55  C   UNL A   1      37.939  30.609  30.558  1.00  0.00     0.029 A 
ATOM     56  C   UNL A   1      39.086  30.291  31.402  1.00  0.00     0.049 A 
ATOM     57  H   UNL A   1      39.570  31.123  33.250  1.00  0.00     0.167 HD
ATOM     58  C   UNL A   1      40.516  33.031  37.076  1.00  0.00     0.037 A 
ATOM     59  C   UNL A   1      40.040  29.386  31.114  1.00  0.00     0.037 A 
ATOM     60  C   UNL A   1      41.529  32.025  36.894  1.00  0.00     0.049 A 
ATOM     61  C   UNL A   1      41.157  29.161  32.098  1.00  0.00     0.074 A 
ATOM     62  C   UNL A   1      42.561  31.677  37.748  1.00  0.00     0.029 A 
ATOM     63  N   UNL A   1      41.640  31.208  35.778  1.00  0.00    -0.354 N 
ATOM     64  N   UNL A   1      41.364  29.732  33.259  1.00  0.00    -0.248 NA
ATOM     65  C   UNL A   1      42.168  28.160  31.732  1.00  0.00     0.031 C 
ATOM     66  C   UNL A   1      43.326  30.684  37.128  1.00  0.00     0.029 A 
ATOM     67  C   UNL A   1      42.738  30.373  35.913  1.00  0.00     0.049 A 
ATOM     68  H   UNL A   1      41.030  31.219  35.007  1.00  0.00     0.167 HD
ATOM     69  C   UNL A   1      42.509  29.138  33.776  1.00  0.00     0.074 A 
ATOM     70  C   UNL A   1      42.939  28.150  32.809  1.00  0.00     0.031 C 
ATOM     71  C   UNL A   1      43.149  29.389  34.945  1.00  0.00     0.037 A 
BRANCH  58  72
ATOM     72  C   UNL A   1      40.565  33.871  38.319  1.00  0.00     0.057 A 
ATOM     73  C   UNL A   1      41.335  35.041  38.390  1.00  0.00     0.134 A 
ATOM     74  C   UNL A   1      39.795  33.537  39.441  1.00  0.00     0.134 A 
ATOM     75  F   UNL A   1      42.104  35.411  37.356  1.00  0.00    -0.206 F 
ATOM     76  C   UNL A   1      41.351  35.836  39.537  1.00  0.00     0.040 A 
ATOM     77  C   UNL A   1      39.782  34.341  40.583  1.00  0.00     0.040 A 
ATOM     78  F   UNL A   1      39.031  32.435  39.440  1.00  0.00    -0.206 F 
ATOM     79  C   UNL A   1      40.566  35.491  40.634  1.00  0.00     0.006 A 
ENDBRANCH  58  72
BRANCH  59  80
ATOM     80  C   UNL A   1      39.982  28.613  29.847  1.00  0.00     0.057 A 
ATOM     81  C   UNL A   1      39.276  27.406  29.766  1.00  0.00     0.134 A 
ATOM     82  C   UNL A   1      40.655  29.043  28.697  1.00  0.00     0.134 A 
ATOM     83  F   UNL A   1      38.624  26.933  30.839  1.00  0.00    -0.206 F 
ATOM     84  C   UNL A   1      39.266  26.640  28.600  1.00  0.00     0.040 A 
ATOM     85  C   UNL A   1      40.630  28.302  27.515  1.00  0.00     0.040 A 
ATOM     86  F   UNL A   1      41.343  30.194  28.704  1.00  0.00    -0.206 F 
ATOM     87  C   UNL A   1      39.943  27.091  27.467  1.00  0.00     0.006 A 
ENDBRANCH  59  80
BRANCH  71  88
ATOM     88  C   UNL A   1      44.358  28.556  35.257  1.00  0.00     0.057 A 
ATOM     89  C   UNL A   1      45.649  28.955  34.890  1.00  0.00     0.134 A 
ATOM     90  C   UNL A   1      44.230  27.351  35.959  1.00  0.00     0.134 A 
ATOM     91  F   UNL A   1      45.841  30.093  34.204  1.00  0.00    -0.206 F 
ATOM     92  C   UNL A   1      46.766  28.171  35.184  1.00  0.00     0.040 A 
ATOM     93  C   UNL A   1      45.342  26.574  36.286  1.00  0.00     0.040 A 
ATOM     94  F   UNL A   1      43.022  26.914  36.350  1.00  0.00    -0.206 F 
ATOM     95  C   UNL A   1      46.614  26.980  35.891  1.00  0.00     0.006 A 
ENDBRANCH  71  88
ENDBRANCH  45  46
ENDBRANCH  37  40
ENDBRANCH  35  36
ENDBRANCH  34  35
ENDBRANCH  33  34
ENDBRANCH   1  33
TORSDOF 18
ENDMDL
