MODEL 1
REMARK VINA RESULT:     -12.1      0.000      0.000
REMARK SMILES Nc1nccc(N2CCC[C@@](Cc3ccc(F)cc3F)(C(=O)NCCCCCCNC(=O)c3ccc(-c4c5nc(c(-c6c(F)cccc6F)c6ccc([nH]6)c(-c6c(F)cccc6F)c6nc(c(-c7c(F)cccc7F)c7ccc4[nH]7)C=C6)C=C5)cc3)C2)n1
REMARK SMILES IDX 26 1 25 2 24 3 23 4 21 5 22 6 11 8 7 9 8 10 87 11 9 12 10 13
REMARK SMILES IDX 6 14 2 15 3 16 88 17 4 18 5 19 1 20 12 23 13 24 14 25 19 26
REMARK SMILES IDX 15 27 18 28 20 29 16 30 17 31 27 32 28 33 29 34 30 35 31 36
REMARK SMILES IDX 32 38 33 39 34 40 86 41 35 42 85 43 36 44 37 45 38 46 79 47
REMARK SMILES IDX 39 48 84 49 78 50 80 51 40 52 83 53 77 54 76 55 41 57 67 58
REMARK SMILES IDX 50 59 66 60 51 61 54 62 65 63 81 64 52 65 53 66 64 68 82 69
REMARK SMILES IDX 55 70 42 71 43 72 48 73 44 74 45 75 47 76 49 77 46 78 68 79
REMARK SMILES IDX 69 80 74 81 70 82 71 83 73 84 75 85 72 86 56 87 57 88 62 89
REMARK SMILES IDX 58 90 59 91 61 92 63 93 60 94
REMARK H PARENT 23 7 1 21 1 22 30 37 80 56 54 67
REMARK Flexibility Score: inf
ROOT
ATOM      1  C   UNL A   1      35.997  22.391  25.522  1.00  0.00     0.002 C 
ENDROOT
BRANCH   1   2
ATOM      2  C   UNL A   1      34.782  23.124  26.099  1.00  0.00     0.021 C 
BRANCH   2   3
ATOM      3  C   UNL A   1      34.618  24.552  25.602  1.00  0.00     0.116 C 
BRANCH   3   4
ATOM      4  N   UNL A   1      33.625  25.314  26.323  1.00  0.00    -0.356 N 
ATOM      5  C   UNL A   1      32.556  26.044  25.901  1.00  0.00     0.228 C 
ATOM      6  O   UNL A   1      31.739  26.325  26.785  1.00  0.00    -0.274 OA
ATOM      7  H   UNL A   1      33.742  25.304  27.300  1.00  0.00     0.163 HD
BRANCH   5   8
ATOM      8  C   UNL A   1      32.333  26.490  24.437  1.00  0.00     0.071 C 
ATOM      9  N   UNL A   1      31.311  28.352  23.196  1.00  0.00    -0.355 N 
ATOM     10  C   UNL A   1      32.516  28.884  22.592  1.00  0.00     0.118 C 
ATOM     11  C   UNL A   1      31.449  27.789  24.537  1.00  0.00     0.135 C 
ATOM     12  C   UNL A   1      33.502  27.735  22.456  1.00  0.00     0.023 C 
ATOM     13  C   UNL A   1      33.662  26.926  23.751  1.00  0.00     0.021 C 
BRANCH   9  14
ATOM     14  C   UNL A   1      30.093  28.872  22.810  1.00  0.00     0.134 A 
ATOM     15  C   UNL A   1      27.809  28.823  22.797  1.00  0.00     0.221 A 
ATOM     16  N   UNL A   1      27.704  29.846  21.945  1.00  0.00    -0.222 NA
ATOM     17  N   UNL A   1      28.958  28.298  23.234  1.00  0.00    -0.196 NA
ATOM     18  C   UNL A   1      28.857  30.385  21.523  1.00  0.00     0.119 A 
ATOM     19  C   UNL A   1      30.086  29.946  21.942  1.00  0.00     0.067 A 
BRANCH  15  20
ATOM     20  N   UNL A   1      26.648  28.285  23.271  1.00  0.00    -0.368 N 
ATOM     21  H   UNL A   1      26.608  27.329  23.502  1.00  0.00     0.159 HD
ATOM     22  H   UNL A   1      25.852  28.853  23.382  1.00  0.00     0.159 HD
ENDBRANCH  15  20
ENDBRANCH   9  14
BRANCH   8  23
ATOM     23  C   UNL A   1      31.462  25.462  23.642  1.00  0.00     0.057 C 
BRANCH  23  24
ATOM     24  C   UNL A   1      31.797  23.992  23.651  1.00  0.00    -0.011 A 
ATOM     25  C   UNL A   1      31.272  23.149  24.644  1.00  0.00     0.010 A 
ATOM     26  C   UNL A   1      32.601  23.427  22.653  1.00  0.00     0.129 A 
ATOM     27  C   UNL A   1      31.603  21.791  24.662  1.00  0.00     0.040 A 
ATOM     28  C   UNL A   1      32.933  22.078  22.663  1.00  0.00     0.078 A 
ATOM     29  F   UNL A   1      33.082  24.196  21.667  1.00  0.00    -0.207 F 
ATOM     30  C   UNL A   1      32.439  21.274  23.677  1.00  0.00     0.126 A 
ATOM     31  F   UNL A   1      32.786  19.981  23.723  1.00  0.00    -0.207 F 
ENDBRANCH  23  24
ENDBRANCH   8  23
ENDBRANCH   5   8
ENDBRANCH   3   4
ENDBRANCH   2   3
ENDBRANCH   1   2
BRANCH   1  32
ATOM     32  C   UNL A   1      35.815  20.889  25.254  1.00  0.00     0.002 C 
BRANCH  32  33
ATOM     33  C   UNL A   1      37.082  20.116  24.878  1.00  0.00     0.021 C 
BRANCH  33  34
ATOM     34  C   UNL A   1      38.380  20.685  25.436  1.00  0.00     0.116 C 
BRANCH  34  35
ATOM     35  N   UNL A   1      39.417  19.676  25.565  1.00  0.00    -0.352 N 
ATOM     36  C   UNL A   1      40.710  19.807  25.996  1.00  0.00     0.251 C 
ATOM     37  H   UNL A   1      39.151  18.764  25.305  1.00  0.00     0.163 HD
ATOM     38  O   UNL A   1      41.493  18.862  25.879  1.00  0.00    -0.269 OA
BRANCH  36  39
ATOM     39  C   UNL A   1      41.181  21.079  26.581  1.00  0.00     0.039 A 
ATOM     40  C   UNL A   1      41.762  22.031  25.740  1.00  0.00     0.014 A 
ATOM     41  C   UNL A   1      41.078  21.328  27.954  1.00  0.00     0.014 A 
ATOM     42  C   UNL A   1      42.197  23.249  26.266  1.00  0.00     0.010 A 
ATOM     43  C   UNL A   1      41.444  22.569  28.464  1.00  0.00     0.010 A 
ATOM     44  C   UNL A   1      42.017  23.538  27.627  1.00  0.00    -0.014 A 
BRANCH  44  45
ATOM     45  C   UNL A   1      42.437  24.843  28.195  1.00  0.00     0.031 A 
ATOM     46  C   UNL A   1      41.427  25.936  28.405  1.00  0.00     0.074 A 
ATOM     47  C   UNL A   1      43.735  25.058  28.479  1.00  0.00     0.049 A 
ATOM     48  N   UNL A   1      41.609  27.156  28.843  1.00  0.00    -0.248 NA
ATOM     49  C   UNL A   1      40.033  25.627  28.052  1.00  0.00     0.031 C 
ATOM     50  C   UNL A   1      44.814  24.087  28.284  1.00  0.00     0.029 A 
ATOM     51  N   UNL A   1      44.369  26.162  28.991  1.00  0.00    -0.354 N 
ATOM     52  C   UNL A   1      40.359  27.760  28.808  1.00  0.00     0.074 A 
ATOM     53  C   UNL A   1      39.438  26.794  28.253  1.00  0.00     0.031 C 
ATOM     54  C   UNL A   1      45.969  24.626  28.704  1.00  0.00     0.029 A 
ATOM     55  C   UNL A   1      45.721  25.990  29.161  1.00  0.00     0.049 A 
ATOM     56  H   UNL A   1      43.899  26.997  29.214  1.00  0.00     0.167 HD
ATOM     57  C   UNL A   1      40.006  28.998  29.228  1.00  0.00     0.037 A 
ATOM     58  C   UNL A   1      46.655  26.837  29.634  1.00  0.00     0.037 A 
ATOM     59  C   UNL A   1      40.923  29.947  29.802  1.00  0.00     0.049 A 
ATOM     60  C   UNL A   1      46.244  28.211  30.079  1.00  0.00     0.074 A 
ATOM     61  C   UNL A   1      40.655  31.208  30.303  1.00  0.00     0.029 A 
ATOM     62  N   UNL A   1      42.286  29.738  29.951  1.00  0.00    -0.354 N 
ATOM     63  N   UNL A   1      45.051  28.753  30.086  1.00  0.00    -0.248 NA
ATOM     64  C   UNL A   1      47.308  29.092  30.580  1.00  0.00     0.031 C 
ATOM     65  C   UNL A   1      41.863  31.781  30.714  1.00  0.00     0.029 A 
ATOM     66  C   UNL A   1      42.877  30.856  30.517  1.00  0.00     0.049 A 
ATOM     67  H   UNL A   1      42.763  28.916  29.694  1.00  0.00     0.167 HD
ATOM     68  C   UNL A   1      45.213  30.027  30.613  1.00  0.00     0.074 A 
ATOM     69  C   UNL A   1      46.621  30.174  30.924  1.00  0.00     0.031 C 
ATOM     70  C   UNL A   1      44.279  30.988  30.820  1.00  0.00     0.037 A 
BRANCH  57  71
ATOM     71  C   UNL A   1      38.565  29.394  29.086  1.00  0.00     0.057 A 
ATOM     72  C   UNL A   1      37.702  29.374  30.189  1.00  0.00     0.134 A 
ATOM     73  C   UNL A   1      38.019  29.761  27.847  1.00  0.00     0.134 A 
ATOM     74  F   UNL A   1      38.156  29.026  31.402  1.00  0.00    -0.206 F 
ATOM     75  C   UNL A   1      36.351  29.703  30.067  1.00  0.00     0.040 A 
ATOM     76  C   UNL A   1      36.676  30.120  27.719  1.00  0.00     0.040 A 
ATOM     77  F   UNL A   1      38.792  29.812  26.752  1.00  0.00    -0.206 F 
ATOM     78  C   UNL A   1      35.836  30.083  28.830  1.00  0.00     0.006 A 
ENDBRANCH  57  71
BRANCH  58  79
ATOM     79  C   UNL A   1      48.063  26.380  29.749  1.00  0.00     0.057 A 
ATOM     80  C   UNL A   1      48.973  26.531  28.697  1.00  0.00     0.134 A 
ATOM     81  C   UNL A   1      48.516  25.741  30.908  1.00  0.00     0.134 A 
ATOM     82  F   UNL A   1      48.598  27.129  27.557  1.00  0.00    -0.206 F 
ATOM     83  C   UNL A   1      50.279  26.046  28.786  1.00  0.00     0.040 A 
ATOM     84  C   UNL A   1      49.825  25.270  31.020  1.00  0.00     0.040 A 
ATOM     85  F   UNL A   1      47.694  25.582  31.956  1.00  0.00    -0.206 F 
ATOM     86  C   UNL A   1      50.709  25.414  29.951  1.00  0.00     0.006 A 
ENDBRANCH  58  79
BRANCH  70  87
ATOM     87  C   UNL A   1      44.738  32.280  31.428  1.00  0.00     0.057 A 
ATOM     88  C   UNL A   1      44.717  32.463  32.817  1.00  0.00     0.134 A 
ATOM     89  C   UNL A   1      45.131  33.368  30.639  1.00  0.00     0.134 A 
ATOM     90  F   UNL A   1      44.341  31.463  33.630  1.00  0.00    -0.206 F 
ATOM     91  C   UNL A   1      45.056  33.685  33.398  1.00  0.00     0.040 A 
ATOM     92  C   UNL A   1      45.497  34.587  31.209  1.00  0.00     0.040 A 
ATOM     93  F   UNL A   1      45.183  33.253  29.303  1.00  0.00    -0.206 F 
ATOM     94  C   UNL A   1      45.450  34.751  32.593  1.00  0.00     0.006 A 
ENDBRANCH  70  87
ENDBRANCH  44  45
ENDBRANCH  36  39
ENDBRANCH  34  35
ENDBRANCH  33  34
ENDBRANCH  32  33
ENDBRANCH   1  32
TORSDOF 17
ENDMDL
MODEL 2
REMARK VINA RESULT:     -11.9      4.504      9.023
REMARK SMILES Nc1nccc(N2CCC[C@@](Cc3ccc(F)cc3F)(C(=O)NCCCCCCNC(=O)c3ccc(-c4c5nc(c(-c6c(F)cccc6F)c6ccc([nH]6)c(-c6c(F)cccc6F)c6nc(c(-c7c(F)cccc7F)c7ccc4[nH]7)C=C6)C=C5)cc3)C2)n1
REMARK SMILES IDX 26 1 25 2 24 3 23 4 21 5 22 6 11 8 7 9 8 10 87 11 9 12 10 13
REMARK SMILES IDX 6 14 2 15 3 16 88 17 4 18 5 19 1 20 12 23 13 24 14 25 19 26
REMARK SMILES IDX 15 27 18 28 20 29 16 30 17 31 27 32 28 33 29 34 30 35 31 36
REMARK SMILES IDX 32 38 33 39 34 40 86 41 35 42 85 43 36 44 37 45 38 46 79 47
REMARK SMILES IDX 39 48 84 49 78 50 80 51 40 52 83 53 77 54 76 55 41 57 67 58
REMARK SMILES IDX 50 59 66 60 51 61 54 62 65 63 81 64 52 65 53 66 64 68 82 69
REMARK SMILES IDX 55 70 42 71 43 72 48 73 44 74 45 75 47 76 49 77 46 78 68 79
REMARK SMILES IDX 69 80 74 81 70 82 71 83 73 84 75 85 72 86 56 87 57 88 62 89
REMARK SMILES IDX 58 90 59 91 61 92 63 93 60 94
REMARK H PARENT 23 7 1 21 1 22 30 37 80 56 54 67
REMARK Flexibility Score: inf
ROOT
ATOM      1  C   UNL A   1      34.029  32.168  28.643  1.00  0.00     0.002 C 
ENDROOT
BRANCH   1   2
ATOM      2  C   UNL A   1      34.756  31.243  27.662  1.00  0.00     0.021 C 
BRANCH   2   3
ATOM      3  C   UNL A   1      33.835  30.352  26.842  1.00  0.00     0.116 C 
BRANCH   3   4
ATOM      4  N   UNL A   1      32.933  29.550  27.637  1.00  0.00    -0.356 N 
ATOM      5  C   UNL A   1      32.215  28.431  27.346  1.00  0.00     0.228 C 
ATOM      6  O   UNL A   1      31.776  27.827  28.330  1.00  0.00    -0.274 OA
ATOM      7  H   UNL A   1      32.816  29.873  28.559  1.00  0.00     0.163 HD
BRANCH   5   8
ATOM      8  C   UNL A   1      31.962  27.911  25.911  1.00  0.00     0.071 C 
ATOM      9  N   UNL A   1      31.230  28.768  23.725  1.00  0.00    -0.355 N 
ATOM     10  C   UNL A   1      32.460  28.545  22.993  1.00  0.00     0.118 C 
ATOM     11  C   UNL A   1      31.367  29.142  25.130  1.00  0.00     0.135 C 
ATOM     12  C   UNL A   1      33.182  27.384  23.658  1.00  0.00     0.023 C 
ATOM     13  C   UNL A   1      33.287  27.539  25.182  1.00  0.00     0.021 C 
BRANCH   9  14
ATOM     14  C   UNL A   1      30.112  29.178  23.029  1.00  0.00     0.134 A 
ATOM     15  C   UNL A   1      27.873  29.061  22.589  1.00  0.00     0.221 A 
ATOM     16  N   UNL A   1      27.939  29.920  21.567  1.00  0.00    -0.222 NA
ATOM     17  N   UNL A   1      28.914  28.653  23.322  1.00  0.00    -0.196 NA
ATOM     18  C   UNL A   1      29.155  30.411  21.285  1.00  0.00     0.119 A 
ATOM     19  C   UNL A   1      30.277  30.086  22.002  1.00  0.00     0.067 A 
BRANCH  15  20
ATOM     20  N   UNL A   1      26.640  28.580  22.919  1.00  0.00    -0.368 N 
ATOM     21  H   UNL A   1      26.505  28.126  23.781  1.00  0.00     0.159 HD
ATOM     22  H   UNL A   1      25.886  28.687  22.294  1.00  0.00     0.159 HD
ENDBRANCH  15  20
ENDBRANCH   9  14
BRANCH   8  23
ATOM     23  C   UNL A   1      30.838  26.823  25.878  1.00  0.00     0.057 C 
BRANCH  23  24
ATOM     24  C   UNL A   1      31.162  25.383  25.571  1.00  0.00    -0.011 A 
ATOM     25  C   UNL A   1      31.783  24.573  26.537  1.00  0.00     0.010 A 
ATOM     26  C   UNL A   1      30.818  24.810  24.341  1.00  0.00     0.129 A 
ATOM     27  C   UNL A   1      32.103  23.245  26.240  1.00  0.00     0.040 A 
ATOM     28  C   UNL A   1      31.131  23.489  24.040  1.00  0.00     0.078 A 
ATOM     29  F   UNL A   1      30.186  25.542  23.415  1.00  0.00    -0.207 F 
ATOM     30  C   UNL A   1      31.783  22.722  24.992  1.00  0.00     0.126 A 
ATOM     31  F   UNL A   1      32.129  21.462  24.699  1.00  0.00    -0.207 F 
ENDBRANCH  23  24
ENDBRANCH   8  23
ENDBRANCH   5   8
ENDBRANCH   3   4
ENDBRANCH   2   3
ENDBRANCH   1   2
BRANCH   1  32
ATOM     32  C   UNL A   1      34.266  33.674  28.453  1.00  0.00     0.002 C 
BRANCH  32  33
ATOM     33  C   UNL A   1      33.028  34.568  28.563  1.00  0.00     0.021 C 
BRANCH  33  34
ATOM     34  C   UNL A   1      33.281  35.960  29.129  1.00  0.00     0.116 C 
BRANCH  34  35
ATOM     35  N   UNL A   1      32.528  36.208  30.346  1.00  0.00    -0.352 N 
ATOM     36  C   UNL A   1      32.718  35.706  31.604  1.00  0.00     0.251 C 
ATOM     37  H   UNL A   1      31.769  36.828  30.251  1.00  0.00     0.163 HD
ATOM     38  O   UNL A   1      31.872  35.905  32.478  1.00  0.00    -0.269 OA
BRANCH  36  39
ATOM     39  C   UNL A   1      33.922  34.910  31.921  1.00  0.00     0.039 A 
ATOM     40  C   UNL A   1      35.175  35.526  31.842  1.00  0.00     0.014 A 
ATOM     41  C   UNL A   1      33.828  33.558  32.267  1.00  0.00     0.014 A 
ATOM     42  C   UNL A   1      36.326  34.800  32.155  1.00  0.00     0.010 A 
ATOM     43  C   UNL A   1      34.967  32.857  32.649  1.00  0.00     0.010 A 
ATOM     44  C   UNL A   1      36.229  33.468  32.586  1.00  0.00    -0.014 A 
BRANCH  44  45
ATOM     45  C   UNL A   1      37.439  32.694  32.962  1.00  0.00     0.031 A 
ATOM     46  C   UNL A   1      38.145  32.978  34.257  1.00  0.00     0.074 A 
ATOM     47  C   UNL A   1      37.925  31.769  32.114  1.00  0.00     0.049 A 
ATOM     48  N   UNL A   1      39.240  32.443  34.735  1.00  0.00    -0.248 NA
ATOM     49  C   UNL A   1      37.559  34.018  35.118  1.00  0.00     0.031 C 
ATOM     50  C   UNL A   1      37.348  31.431  30.811  1.00  0.00     0.029 A 
ATOM     51  N   UNL A   1      39.016  30.944  32.220  1.00  0.00    -0.354 N 
ATOM     52  C   UNL A   1      39.478  33.087  35.943  1.00  0.00     0.074 A 
ATOM     53  C   UNL A   1      38.448  34.090  36.098  1.00  0.00     0.031 C 
ATOM     54  C   UNL A   1      38.070  30.445  30.256  1.00  0.00     0.029 A 
ATOM     55  C   UNL A   1      39.180  30.108  31.142  1.00  0.00     0.049 A 
ATOM     56  H   UNL A   1      39.623  30.951  32.994  1.00  0.00     0.167 HD
ATOM     57  C   UNL A   1      40.451  32.844  36.853  1.00  0.00     0.037 A 
ATOM     58  C   UNL A   1      40.119  29.176  30.897  1.00  0.00     0.037 A 
ATOM     59  C   UNL A   1      41.459  31.827  36.705  1.00  0.00     0.049 A 
ATOM     60  C   UNL A   1      41.198  28.933  31.913  1.00  0.00     0.074 A 
ATOM     61  C   UNL A   1      42.457  31.469  37.593  1.00  0.00     0.029 A 
ATOM     62  N   UNL A   1      41.595  31.006  35.595  1.00  0.00    -0.354 N 
ATOM     63  N   UNL A   1      41.384  29.515  33.073  1.00  0.00    -0.248 NA
ATOM     64  C   UNL A   1      42.198  27.907  31.588  1.00  0.00     0.031 C 
ATOM     65  C   UNL A   1      43.227  30.462  37.001  1.00  0.00     0.029 A 
ATOM     66  C   UNL A   1      42.676  30.157  35.766  1.00  0.00     0.049 A 
ATOM     67  H   UNL A   1      41.010  31.024  34.804  1.00  0.00     0.167 HD
ATOM     68  C   UNL A   1      42.504  28.911  33.628  1.00  0.00     0.074 A 
ATOM     69  C   UNL A   1      42.951  27.909  32.680  1.00  0.00     0.031 C 
ATOM     70  C   UNL A   1      43.108  29.165  34.814  1.00  0.00     0.037 A 
BRANCH  57  71
ATOM     71  C   UNL A   1      40.466  33.689  38.094  1.00  0.00     0.057 A 
ATOM     72  C   UNL A   1      41.306  34.805  38.193  1.00  0.00     0.134 A 
ATOM     73  C   UNL A   1      39.674  33.377  39.209  1.00  0.00     0.134 A 
ATOM     74  F   UNL A   1      42.094  35.157  37.167  1.00  0.00    -0.206 F 
ATOM     75  C   UNL A   1      41.359  35.579  39.353  1.00  0.00     0.040 A 
ATOM     76  C   UNL A   1      39.698  34.161  40.364  1.00  0.00     0.040 A 
ATOM     77  F   UNL A   1      38.839  32.328  39.177  1.00  0.00    -0.206 F 
ATOM     78  C   UNL A   1      40.549  35.262  40.441  1.00  0.00     0.006 A 
ENDBRANCH  57  71
BRANCH  58  79
ATOM     79  C   UNL A   1      40.044  28.374  29.650  1.00  0.00     0.057 A 
ATOM     80  C   UNL A   1      39.297  27.192  29.580  1.00  0.00     0.134 A 
ATOM     81  C   UNL A   1      40.756  28.756  28.508  1.00  0.00     0.134 A 
ATOM     82  F   UNL A   1      38.598  26.768  30.643  1.00  0.00    -0.206 F 
ATOM     83  C   UNL A   1      39.278  26.407  28.426  1.00  0.00     0.040 A 
ATOM     84  C   UNL A   1      40.729  27.993  27.339  1.00  0.00     0.040 A 
ATOM     85  F   UNL A   1      41.476  29.887  28.510  1.00  0.00    -0.206 F 
ATOM     86  C   UNL A   1      39.995  26.809  27.300  1.00  0.00     0.006 A 
ENDBRANCH  58  79
BRANCH  70  87
ATOM     87  C   UNL A   1      44.308  28.338  35.172  1.00  0.00     0.057 A 
ATOM     88  C   UNL A   1      44.160  27.128  35.863  1.00  0.00     0.134 A 
ATOM     89  C   UNL A   1      45.610  28.772  34.899  1.00  0.00     0.134 A 
ATOM     90  F   UNL A   1      42.938  26.660  36.164  1.00  0.00    -0.206 F 
ATOM     91  C   UNL A   1      45.265  26.387  36.282  1.00  0.00     0.040 A 
ATOM     92  C   UNL A   1      46.723  28.027  35.291  1.00  0.00     0.040 A 
ATOM     93  F   UNL A   1      45.819  29.917  34.231  1.00  0.00    -0.206 F 
ATOM     94  C   UNL A   1      46.552  26.835  35.994  1.00  0.00     0.006 A 
ENDBRANCH  70  87
ENDBRANCH  44  45
ENDBRANCH  36  39
ENDBRANCH  34  35
ENDBRANCH  33  34
ENDBRANCH  32  33
ENDBRANCH   1  32
TORSDOF 17
ENDMDL
MODEL 3
REMARK VINA RESULT:     -11.8      3.373      8.679
REMARK SMILES Nc1nccc(N2CCC[C@@](Cc3ccc(F)cc3F)(C(=O)NCCCCCCNC(=O)c3ccc(-c4c5nc(c(-c6c(F)cccc6F)c6ccc([nH]6)c(-c6c(F)cccc6F)c6nc(c(-c7c(F)cccc7F)c7ccc4[nH]7)C=C6)C=C5)cc3)C2)n1
REMARK SMILES IDX 26 1 25 2 24 3 23 4 21 5 22 6 11 8 7 9 8 10 87 11 9 12 10 13
REMARK SMILES IDX 6 14 2 15 3 16 88 17 4 18 5 19 1 20 12 23 13 24 14 25 19 26
REMARK SMILES IDX 15 27 18 28 20 29 16 30 17 31 27 32 28 33 29 34 30 35 31 36
REMARK SMILES IDX 32 38 33 39 34 40 86 41 35 42 85 43 36 44 37 45 38 46 79 47
REMARK SMILES IDX 39 48 84 49 78 50 80 51 40 52 83 53 77 54 76 55 41 57 67 58
REMARK SMILES IDX 50 59 66 60 51 61 54 62 65 63 81 64 52 65 53 66 64 68 82 69
REMARK SMILES IDX 55 70 42 71 43 72 48 73 44 74 45 75 47 76 49 77 46 78 68 79
REMARK SMILES IDX 69 80 74 81 70 82 71 83 73 84 75 85 72 86 56 87 57 88 62 89
REMARK SMILES IDX 58 90 59 91 61 92 63 93 60 94
REMARK H PARENT 23 7 1 21 1 22 30 37 80 56 54 67
REMARK Flexibility Score: inf
ROOT
ATOM      1  C   UNL A   1      32.241  28.912  25.931  1.00  0.00     0.002 C 
ENDROOT
BRANCH   1   2
ATOM      2  C   UNL A   1      33.046  28.057  24.949  1.00  0.00     0.021 C 
BRANCH   2   3
ATOM      3  C   UNL A   1      33.749  26.867  25.585  1.00  0.00     0.116 C 
BRANCH   3   4
ATOM      4  N   UNL A   1      34.422  26.007  24.638  1.00  0.00    -0.356 N 
ATOM      5  C   UNL A   1      34.191  24.722  24.255  1.00  0.00     0.228 C 
ATOM      6  O   UNL A   1      34.763  24.382  23.213  1.00  0.00    -0.274 OA
ATOM      7  H   UNL A   1      35.188  26.429  24.187  1.00  0.00     0.163 HD
BRANCH   5   8
ATOM      8  C   UNL A   1      33.278  23.737  25.022  1.00  0.00     0.071 C 
ATOM      9  N   UNL A   1      33.173  21.341  25.569  1.00  0.00    -0.355 N 
ATOM     10  C   UNL A   1      33.329  21.450  27.005  1.00  0.00     0.118 C 
ATOM     11  C   UNL A   1      33.901  22.315  24.760  1.00  0.00     0.135 C 
ATOM     12  C   UNL A   1      32.793  22.811  27.420  1.00  0.00     0.023 C 
ATOM     13  C   UNL A   1      33.346  23.958  26.563  1.00  0.00     0.021 C 
BRANCH   9  14
ATOM     14  C   UNL A   1      32.878  20.107  25.028  1.00  0.00     0.134 A 
ATOM     15  C   UNL A   1      32.734  17.833  25.190  1.00  0.00     0.221 A 
ATOM     16  N   UNL A   1      32.399  17.674  23.906  1.00  0.00    -0.222 NA
ATOM     17  N   UNL A   1      32.997  19.003  25.779  1.00  0.00    -0.196 NA
ATOM     18  C   UNL A   1      32.309  18.794  23.176  1.00  0.00     0.119 A 
ATOM     19  C   UNL A   1      32.520  20.045  23.695  1.00  0.00     0.067 A 
BRANCH  15  20
ATOM     20  N   UNL A   1      32.792  16.709  25.962  1.00  0.00    -0.368 N 
ATOM     21  H   UNL A   1      32.445  16.728  26.883  1.00  0.00     0.159 HD
ATOM     22  H   UNL A   1      33.181  15.881  25.598  1.00  0.00     0.159 HD
ENDBRANCH  15  20
ENDBRANCH   9  14
BRANCH   8  23
ATOM     23  C   UNL A   1      31.842  23.675  24.406  1.00  0.00     0.057 C 
BRANCH  23  24
ATOM     24  C   UNL A   1      31.068  24.936  24.116  1.00  0.00    -0.011 A 
ATOM     25  C   UNL A   1      30.245  25.508  25.101  1.00  0.00     0.010 A 
ATOM     26  C   UNL A   1      31.182  25.588  22.882  1.00  0.00     0.129 A 
ATOM     27  C   UNL A   1      29.512  26.664  24.821  1.00  0.00     0.040 A 
ATOM     28  C   UNL A   1      30.458  26.740  22.597  1.00  0.00     0.078 A 
ATOM     29  F   UNL A   1      31.992  25.094  21.937  1.00  0.00    -0.207 F 
ATOM     30  C   UNL A   1      29.618  27.260  23.569  1.00  0.00     0.126 A 
ATOM     31  F   UNL A   1      28.883  28.344  23.292  1.00  0.00    -0.207 F 
ENDBRANCH  23  24
ENDBRANCH   8  23
ENDBRANCH   5   8
ENDBRANCH   3   4
ENDBRANCH   2   3
ENDBRANCH   1   2
BRANCH   1  32
ATOM     32  C   UNL A   1      31.441  30.072  25.318  1.00  0.00     0.002 C 
BRANCH  32  33
ATOM     33  C   UNL A   1      31.177  31.267  26.239  1.00  0.00     0.021 C 
BRANCH  33  34
ATOM     34  C   UNL A   1      32.414  31.863  26.900  1.00  0.00     0.116 C 
BRANCH  34  35
ATOM     35  N   UNL A   1      32.226  33.253  27.275  1.00  0.00    -0.352 N 
ATOM     36  C   UNL A   1      32.987  34.044  28.092  1.00  0.00     0.251 C 
ATOM     37  H   UNL A   1      31.435  33.691  26.885  1.00  0.00     0.163 HD
ATOM     38  O   UNL A   1      32.575  35.158  28.424  1.00  0.00    -0.269 OA
BRANCH  36  39
ATOM     39  C   UNL A   1      34.292  33.567  28.596  1.00  0.00     0.039 A 
ATOM     40  C   UNL A   1      34.329  32.862  29.802  1.00  0.00     0.014 A 
ATOM     41  C   UNL A   1      35.478  33.832  27.904  1.00  0.00     0.014 A 
ATOM     42  C   UNL A   1      35.547  32.385  30.290  1.00  0.00     0.010 A 
ATOM     43  C   UNL A   1      36.679  33.293  28.352  1.00  0.00     0.010 A 
ATOM     44  C   UNL A   1      36.727  32.573  29.555  1.00  0.00    -0.014 A 
BRANCH  44  45
ATOM     45  C   UNL A   1      38.024  32.036  30.039  1.00  0.00     0.031 A 
ATOM     46  C   UNL A   1      38.540  30.724  29.518  1.00  0.00     0.074 A 
ATOM     47  C   UNL A   1      38.713  32.710  30.979  1.00  0.00     0.049 A 
ATOM     48  N   UNL A   1      39.624  30.072  29.854  1.00  0.00    -0.248 NA
ATOM     49  C   UNL A   1      37.718  30.043  28.506  1.00  0.00     0.031 C 
ATOM     50  C   UNL A   1      38.296  33.974  31.588  1.00  0.00     0.029 A 
ATOM     51  N   UNL A   1      39.908  32.424  31.589  1.00  0.00    -0.354 N 
ATOM     52  C   UNL A   1      39.608  28.903  29.104  1.00  0.00     0.074 A 
ATOM     53  C   UNL A   1      38.380  28.907  28.340  1.00  0.00     0.031 C 
ATOM     54  C   UNL A   1      39.237  34.373  32.458  1.00  0.00     0.029 A 
ATOM     55  C   UNL A   1      40.303  33.376  32.497  1.00  0.00     0.049 A 
ATOM     56  H   UNL A   1      40.432  31.614  31.395  1.00  0.00     0.167 HD
ATOM     57  C   UNL A   1      40.544  27.927  29.038  1.00  0.00     0.037 A 
ATOM     58  C   UNL A   1      41.401  33.439  33.273  1.00  0.00     0.037 A 
ATOM     59  C   UNL A   1      41.776  27.940  29.784  1.00  0.00     0.049 A 
ATOM     60  C   UNL A   1      42.420  32.338  33.196  1.00  0.00     0.074 A 
ATOM     61  C   UNL A   1      42.812  27.024  29.749  1.00  0.00     0.029 A 
ATOM     62  N   UNL A   1      42.136  28.918  30.698  1.00  0.00    -0.354 N 
ATOM     63  N   UNL A   1      42.416  31.262  32.447  1.00  0.00    -0.248 NA
ATOM     64  C   UNL A   1      43.595  32.458  34.070  1.00  0.00     0.031 C 
ATOM     65  C   UNL A   1      43.779  27.424  30.677  1.00  0.00     0.029 A 
ATOM     66  C   UNL A   1      43.369  28.616  31.252  1.00  0.00     0.049 A 
ATOM     67  H   UNL A   1      41.595  29.710  30.921  1.00  0.00     0.167 HD
ATOM     68  C   UNL A   1      43.595  30.589  32.740  1.00  0.00     0.074 A 
ATOM     69  C   UNL A   1      44.295  31.384  33.728  1.00  0.00     0.031 C 
ATOM     70  C   UNL A   1      44.053  29.418  32.235  1.00  0.00     0.037 A 
BRANCH  57  71
ATOM     71  C   UNL A   1      40.275  26.768  28.123  1.00  0.00     0.057 A 
ATOM     72  C   UNL A   1      39.489  25.688  28.543  1.00  0.00     0.134 A 
ATOM     73  C   UNL A   1      40.825  26.702  26.835  1.00  0.00     0.134 A 
ATOM     74  F   UNL A   1      38.938  25.682  29.766  1.00  0.00    -0.206 F 
ATOM     75  C   UNL A   1      39.260  24.585  27.718  1.00  0.00     0.040 A 
ATOM     76  C   UNL A   1      40.579  25.618  25.990  1.00  0.00     0.040 A 
ATOM     77  F   UNL A   1      41.578  27.708  26.365  1.00  0.00    -0.206 F 
ATOM     78  C   UNL A   1      39.801  24.551  26.434  1.00  0.00     0.006 A 
ENDBRANCH  57  71
BRANCH  58  79
ATOM     79  C   UNL A   1      41.606  34.615  34.155  1.00  0.00     0.057 A 
ATOM     80  C   UNL A   1      42.289  35.754  33.714  1.00  0.00     0.134 A 
ATOM     81  C   UNL A   1      41.155  34.604  35.479  1.00  0.00     0.134 A 
ATOM     82  F   UNL A   1      42.753  35.822  32.458  1.00  0.00    -0.206 F 
ATOM     83  C   UNL A   1      42.535  36.833  34.565  1.00  0.00     0.040 A 
ATOM     84  C   UNL A   1      41.374  35.686  36.335  1.00  0.00     0.040 A 
ATOM     85  F   UNL A   1      40.480  33.548  35.954  1.00  0.00    -0.206 F 
ATOM     86  C   UNL A   1      42.075  36.801  35.880  1.00  0.00     0.006 A 
ENDBRANCH  58  79
BRANCH  70  87
ATOM     87  C   UNL A   1      45.385  28.927  32.723  1.00  0.00     0.057 A 
ATOM     88  C   UNL A   1      46.564  29.271  32.049  1.00  0.00     0.134 A 
ATOM     89  C   UNL A   1      45.494  28.057  33.815  1.00  0.00     0.134 A 
ATOM     90  F   UNL A   1      46.527  30.094  30.989  1.00  0.00    -0.206 F 
ATOM     91  C   UNL A   1      47.801  28.755  32.434  1.00  0.00     0.040 A 
ATOM     92  C   UNL A   1      46.729  27.554  34.225  1.00  0.00     0.040 A 
ATOM     93  F   UNL A   1      44.403  27.697  34.509  1.00  0.00    -0.206 F 
ATOM     94  C   UNL A   1      47.887  27.896  33.527  1.00  0.00     0.006 A 
ENDBRANCH  70  87
ENDBRANCH  44  45
ENDBRANCH  36  39
ENDBRANCH  34  35
ENDBRANCH  33  34
ENDBRANCH  32  33
ENDBRANCH   1  32
TORSDOF 17
ENDMDL
