MODEL 1
REMARK VINA RESULT:     -10.4      0.000      0.000
REMARK SMILES CN(CCCC(=O)NCCCCCCNC(=O)c1ccc(-c2c3nc(c(-c4c(F)cccc4F)c4ccc([nH]4)c(-c4c(F)cccc4F)c4nc(c(-c5c(F)cccc5F)c5ccc2[nH]5)C=C4)C=C3)cc1)C(=O)c1ccc(Br)o1
REMARK SMILES IDX 10 1 9 2 8 3 6 4 7 5 5 7 4 8 3 9 2 10 1 11 72 12 73 13 74 14
REMARK SMILES IDX 75 15 79 16 76 17 77 18 78 19 11 20 12 21 13 22 14 23 15 24
REMARK SMILES IDX 16 25 17 27 18 28 19 29 71 30 20 31 70 32 21 33 22 34 23 35
REMARK SMILES IDX 64 36 24 37 69 38 63 39 65 40 25 41 68 42 62 43 61 44 26 46
REMARK SMILES IDX 52 47 35 48 51 49 36 50 39 51 50 52 66 53 37 54 38 55 49 57
REMARK SMILES IDX 67 58 40 59 27 60 28 61 33 62 29 63 30 64 32 65 34 66 31 67
REMARK SMILES IDX 53 68 54 69 59 70 55 71 56 72 58 73 60 74 57 75 41 76 42 77
REMARK SMILES IDX 47 78 43 79 44 80 46 81 48 82 45 83
REMARK H PARENT 8 6 15 26 65 45 39 56
REMARK Flexibility Score: inf
ROOT
ATOM      1  C   UNL A   1      32.864  29.318  24.526  1.00  0.00     0.021 C 
ENDROOT
BRANCH   1   2
ATOM      2  C   UNL A   1      33.142  27.814  24.491  1.00  0.00     0.116 C 
BRANCH   2   3
ATOM      3  N   UNL A   1      33.571  27.408  23.172  1.00  0.00    -0.356 N 
ATOM      4  C   UNL A   1      33.069  26.517  22.286  1.00  0.00     0.220 C 
ATOM      5  O   UNL A   1      33.724  26.337  21.254  1.00  0.00    -0.275 OA
ATOM      6  H   UNL A   1      34.381  27.869  22.858  1.00  0.00     0.163 HD
BRANCH   4   7
ATOM      7  C   UNL A   1      31.711  25.852  22.437  1.00  0.00     0.102 C 
BRANCH   7   8
ATOM      8  C   UNL A   1      31.543  24.429  22.946  1.00  0.00     0.031 C 
BRANCH   8   9
ATOM      9  C   UNL A   1      30.579  24.068  24.076  1.00  0.00     0.120 C 
BRANCH   9  10
ATOM     10  N   UNL A   1      30.858  24.336  25.504  1.00  0.00    -0.339 N 
ATOM     11  C   UNL A   1      30.468  25.679  25.942  1.00  0.00     0.147 C 
BRANCH  10  12
ATOM     12  C   UNL A   1      31.153  23.489  26.599  1.00  0.00     0.289 C 
ATOM     13  O   UNL A   1      30.267  23.228  27.419  1.00  0.00    -0.265 OA
BRANCH  12  14
ATOM     14  C   UNL A   1      32.443  22.867  26.777  1.00  0.00     0.193 A 
ATOM     15  C   UNL A   1      33.105  22.456  27.922  1.00  0.00     0.057 A 
ATOM     16  O   UNL A   1      33.063  22.313  25.685  1.00  0.00    -0.444 OA
ATOM     17  C   UNL A   1      34.237  21.710  27.502  1.00  0.00     0.059 A 
ATOM     18  C   UNL A   1      34.149  21.626  26.133  1.00  0.00     0.170 A 
ATOM     19  Br  UNL A   1      35.338  20.691  25.039  1.00  0.00    -0.008 Br
ENDBRANCH  12  14
ENDBRANCH  10  12
ENDBRANCH   9  10
ENDBRANCH   8   9
ENDBRANCH   7   8
ENDBRANCH   4   7
ENDBRANCH   2   3
ENDBRANCH   1   2
BRANCH   1  20
ATOM     20  C   UNL A   1      31.511  29.639  25.161  1.00  0.00     0.002 C 
BRANCH  20  21
ATOM     21  C   UNL A   1      31.613  30.199  26.586  1.00  0.00     0.002 C 
BRANCH  21  22
ATOM     22  C   UNL A   1      31.501  31.724  26.710  1.00  0.00     0.021 C 
BRANCH  22  23
ATOM     23  C   UNL A   1      32.792  32.445  27.090  1.00  0.00     0.116 C 
BRANCH  23  24
ATOM     24  N   UNL A   1      32.555  33.812  27.525  1.00  0.00    -0.352 N 
ATOM     25  C   UNL A   1      33.163  34.541  28.515  1.00  0.00     0.251 C 
ATOM     26  H   UNL A   1      31.848  34.288  27.032  1.00  0.00     0.163 HD
ATOM     27  O   UNL A   1      32.706  35.629  28.847  1.00  0.00    -0.269 OA
BRANCH  25  28
ATOM     28  C   UNL A   1      34.359  34.008  29.198  1.00  0.00     0.039 A 
ATOM     29  C   UNL A   1      34.182  33.136  30.276  1.00  0.00     0.014 A 
ATOM     30  C   UNL A   1      35.646  34.377  28.794  1.00  0.00     0.014 A 
ATOM     31  C   UNL A   1      35.296  32.579  30.905  1.00  0.00     0.010 A 
ATOM     32  C   UNL A   1      36.755  33.777  29.386  1.00  0.00     0.010 A 
ATOM     33  C   UNL A   1      36.590  32.869  30.442  1.00  0.00    -0.014 A 
BRANCH  33  34
ATOM     34  C   UNL A   1      37.778  32.203  31.030  1.00  0.00     0.031 A 
ATOM     35  C   UNL A   1      38.472  31.094  30.293  1.00  0.00     0.074 A 
ATOM     36  C   UNL A   1      38.190  32.559  32.263  1.00  0.00     0.049 A 
ATOM     37  N   UNL A   1      39.479  30.351  30.678  1.00  0.00    -0.248 NA
ATOM     38  C   UNL A   1      37.955  30.761  28.957  1.00  0.00     0.031 C 
ATOM     39  C   UNL A   1      37.569  33.591  33.096  1.00  0.00     0.029 A 
ATOM     40  N   UNL A   1      39.218  32.082  33.035  1.00  0.00    -0.354 N 
ATOM     41  C   UNL A   1      39.709  29.459  29.640  1.00  0.00     0.074 A 
ATOM     42  C   UNL A   1      38.710  29.723  28.626  1.00  0.00     0.031 C 
ATOM     43  C   UNL A   1      38.238  33.679  34.256  1.00  0.00     0.029 A 
ATOM     44  C   UNL A   1      39.311  32.690  34.263  1.00  0.00     0.049 A 
ATOM     45  H   UNL A   1      39.831  31.371  32.737  1.00  0.00     0.167 HD
ATOM     46  C   UNL A   1      40.677  28.517  29.534  1.00  0.00     0.037 A 
ATOM     47  C   UNL A   1      40.161  32.468  35.283  1.00  0.00     0.037 A 
ATOM     48  C   UNL A   1      41.684  28.271  30.533  1.00  0.00     0.049 A 
ATOM     49  C   UNL A   1      41.221  31.414  35.141  1.00  0.00     0.074 A 
ATOM     50  C   UNL A   1      42.742  27.381  30.491  1.00  0.00     0.029 A 
ATOM     51  N   UNL A   1      41.754  28.918  31.758  1.00  0.00    -0.354 N 
ATOM     52  N   UNL A   1      41.465  30.619  34.128  1.00  0.00    -0.248 NA
ATOM     53  C   UNL A   1      42.126  31.226  36.284  1.00  0.00     0.031 C 
ATOM     54  C   UNL A   1      43.431  27.460  31.706  1.00  0.00     0.029 A 
ATOM     55  C   UNL A   1      42.825  28.431  32.489  1.00  0.00     0.049 A 
ATOM     56  H   UNL A   1      41.134  29.620  32.063  1.00  0.00     0.167 HD
ATOM     57  C   UNL A   1      42.562  29.855  34.501  1.00  0.00     0.074 A 
ATOM     58  C   UNL A   1      42.946  30.291  35.827  1.00  0.00     0.031 C 
ATOM     59  C   UNL A   1      43.194  28.877  33.807  1.00  0.00     0.037 A 
BRANCH  46  60
ATOM     60  C   UNL A   1      40.701  27.686  28.285  1.00  0.00     0.057 A 
ATOM     61  C   UNL A   1      41.454  28.062  27.165  1.00  0.00     0.134 A 
ATOM     62  C   UNL A   1      40.003  26.474  28.218  1.00  0.00     0.134 A 
ATOM     63  F   UNL A   1      42.136  29.217  27.161  1.00  0.00    -0.206 F 
ATOM     64  C   UNL A   1      41.495  27.272  26.015  1.00  0.00     0.040 A 
ATOM     65  C   UNL A   1      40.056  25.664  27.082  1.00  0.00     0.040 A 
ATOM     66  F   UNL A   1      39.268  26.052  29.258  1.00  0.00    -0.206 F 
ATOM     67  C   UNL A   1      40.800  26.065  25.975  1.00  0.00     0.006 A 
ENDBRANCH  46  60
BRANCH  47  68
ATOM     68  C   UNL A   1      40.053  33.272  36.527  1.00  0.00     0.057 A 
ATOM     69  C   UNL A   1      39.182  32.894  37.555  1.00  0.00     0.134 A 
ATOM     70  C   UNL A   1      40.809  34.436  36.713  1.00  0.00     0.134 A 
ATOM     71  F   UNL A   1      38.420  31.799  37.425  1.00  0.00    -0.206 F 
ATOM     72  C   UNL A   1      39.052  33.655  38.718  1.00  0.00     0.040 A 
ATOM     73  C   UNL A   1      40.705  35.193  37.881  1.00  0.00     0.040 A 
ATOM     74  F   UNL A   1      41.666  34.845  35.767  1.00  0.00    -0.206 F 
ATOM     75  C   UNL A   1      39.820  34.806  38.885  1.00  0.00     0.006 A 
ENDBRANCH  47  68
BRANCH  59  76
ATOM     76  C   UNL A   1      44.377  28.231  34.463  1.00  0.00     0.057 A 
ATOM     77  C   UNL A   1      44.247  27.076  35.243  1.00  0.00     0.134 A 
ATOM     78  C   UNL A   1      45.664  28.753  34.287  1.00  0.00     0.134 A 
ATOM     79  F   UNL A   1      43.038  26.535  35.462  1.00  0.00    -0.206 F 
ATOM     80  C   UNL A   1      45.354  26.474  35.844  1.00  0.00     0.040 A 
ATOM     81  C   UNL A   1      46.782  28.147  34.862  1.00  0.00     0.040 A 
ATOM     82  F   UNL A   1      45.858  29.854  33.544  1.00  0.00    -0.206 F 
ATOM     83  C   UNL A   1      46.627  27.007  35.648  1.00  0.00     0.006 A 
ENDBRANCH  59  76
ENDBRANCH  33  34
ENDBRANCH  25  28
ENDBRANCH  23  24
ENDBRANCH  22  23
ENDBRANCH  21  22
ENDBRANCH  20  21
ENDBRANCH   1  20
TORSDOF 18
ENDMDL
MODEL 2
REMARK VINA RESULT:     -10.4      5.109     10.098
REMARK SMILES CN(CCCC(=O)NCCCCCCNC(=O)c1ccc(-c2c3nc(c(-c4c(F)cccc4F)c4ccc([nH]4)c(-c4c(F)cccc4F)c4nc(c(-c5c(F)cccc5F)c5ccc2[nH]5)C=C4)C=C3)cc1)C(=O)c1ccc(Br)o1
REMARK SMILES IDX 10 1 9 2 8 3 6 4 7 5 5 7 4 8 3 9 2 10 1 11 72 12 73 13 74 14
REMARK SMILES IDX 75 15 79 16 76 17 77 18 78 19 11 20 12 21 13 22 14 23 15 24
REMARK SMILES IDX 16 25 17 27 18 28 19 29 71 30 20 31 70 32 21 33 22 34 23 35
REMARK SMILES IDX 64 36 24 37 69 38 63 39 65 40 25 41 68 42 62 43 61 44 26 46
REMARK SMILES IDX 52 47 35 48 51 49 36 50 39 51 50 52 66 53 37 54 38 55 49 57
REMARK SMILES IDX 67 58 40 59 27 60 28 61 33 62 29 63 30 64 32 65 34 66 31 67
REMARK SMILES IDX 53 68 54 69 59 70 55 71 56 72 58 73 60 74 57 75 41 76 42 77
REMARK SMILES IDX 47 78 43 79 44 80 46 81 48 82 45 83
REMARK H PARENT 8 6 15 26 65 45 39 56
REMARK Flexibility Score: inf
ROOT
ATOM      1  C   UNL A   1      35.716  22.707  24.591  1.00  0.00     0.021 C 
ENDROOT
BRANCH   1   2
ATOM      2  C   UNL A   1      35.597  23.738  25.715  1.00  0.00     0.116 C 
BRANCH   2   3
ATOM      3  N   UNL A   1      34.212  23.940  26.074  1.00  0.00    -0.356 N 
ATOM      4  C   UNL A   1      33.416  25.035  26.053  1.00  0.00     0.220 C 
ATOM      5  O   UNL A   1      32.276  24.894  26.507  1.00  0.00    -0.275 OA
ATOM      6  H   UNL A   1      33.761  23.126  26.393  1.00  0.00     0.163 HD
BRANCH   4   7
ATOM      7  C   UNL A   1      33.805  26.347  25.393  1.00  0.00     0.102 C 
BRANCH   7   8
ATOM      8  C   UNL A   1      33.490  26.660  23.938  1.00  0.00     0.031 C 
BRANCH   8   9
ATOM      9  C   UNL A   1      32.243  26.128  23.233  1.00  0.00     0.120 C 
BRANCH   9  10
ATOM     10  N   UNL A   1      31.942  24.686  23.084  1.00  0.00    -0.339 N 
ATOM     11  C   UNL A   1      30.529  24.353  23.273  1.00  0.00     0.147 C 
BRANCH  10  12
ATOM     12  C   UNL A   1      32.669  23.609  22.522  1.00  0.00     0.289 C 
ATOM     13  O   UNL A   1      33.608  23.847  21.756  1.00  0.00    -0.265 OA
BRANCH  12  14
ATOM     14  C   UNL A   1      32.393  22.230  22.846  1.00  0.00     0.193 A 
ATOM     15  C   UNL A   1      32.012  21.166  22.045  1.00  0.00     0.057 A 
ATOM     16  O   UNL A   1      32.809  21.743  24.061  1.00  0.00    -0.444 OA
ATOM     17  C   UNL A   1      32.097  19.995  22.843  1.00  0.00     0.059 A 
ATOM     18  C   UNL A   1      32.615  20.396  24.051  1.00  0.00     0.170 A 
ATOM     19  Br  UNL A   1      33.016  19.258  25.476  1.00  0.00    -0.008 Br
ENDBRANCH  12  14
ENDBRANCH  10  12
ENDBRANCH   9  10
ENDBRANCH   8   9
ENDBRANCH   7   8
ENDBRANCH   4   7
ENDBRANCH   2   3
ENDBRANCH   1   2
BRANCH   1  20
ATOM     20  C   UNL A   1      37.022  21.917  24.669  1.00  0.00     0.002 C 
BRANCH  20  21
ATOM     21  C   UNL A   1      36.827  20.429  24.989  1.00  0.00     0.002 C 
BRANCH  21  22
ATOM     22  C   UNL A   1      38.084  19.557  24.879  1.00  0.00     0.021 C 
BRANCH  22  23
ATOM     23  C   UNL A   1      39.259  19.991  25.754  1.00  0.00     0.116 C 
BRANCH  23  24
ATOM     24  N   UNL A   1      40.277  18.959  25.864  1.00  0.00    -0.352 N 
ATOM     25  C   UNL A   1      41.624  19.070  26.095  1.00  0.00     0.251 C 
ATOM     26  H   UNL A   1      39.947  18.037  25.758  1.00  0.00     0.163 HD
ATOM     27  O   UNL A   1      42.350  18.089  25.985  1.00  0.00    -0.269 OA
BRANCH  25  28
ATOM     28  C   UNL A   1      42.207  20.378  26.458  1.00  0.00     0.039 A 
ATOM     29  C   UNL A   1      42.778  21.159  25.449  1.00  0.00     0.014 A 
ATOM     30  C   UNL A   1      42.210  20.825  27.782  1.00  0.00     0.014 A 
ATOM     31  C   UNL A   1      43.290  22.420  25.757  1.00  0.00     0.010 A 
ATOM     32  C   UNL A   1      42.670  22.106  28.079  1.00  0.00     0.010 A 
ATOM     33  C   UNL A   1      43.208  22.917  27.068  1.00  0.00    -0.014 A 
BRANCH  33  34
ATOM     34  C   UNL A   1      43.649  24.296  27.391  1.00  0.00     0.031 A 
ATOM     35  C   UNL A   1      42.653  25.333  27.823  1.00  0.00     0.074 A 
ATOM     36  C   UNL A   1      44.945  24.627  27.229  1.00  0.00     0.049 A 
ATOM     37  N   UNL A   1      42.843  26.603  28.079  1.00  0.00    -0.248 NA
ATOM     38  C   UNL A   1      41.258  24.892  27.967  1.00  0.00     0.031 C 
ATOM     39  C   UNL A   1      45.999  23.719  26.771  1.00  0.00     0.029 A 
ATOM     40  N   UNL A   1      45.593  25.822  27.417  1.00  0.00    -0.354 N 
ATOM     41  C   UNL A   1      41.592  27.113  28.403  1.00  0.00     0.074 A 
ATOM     42  C   UNL A   1      40.645  26.028  28.270  1.00  0.00     0.031 C 
ATOM     43  C   UNL A   1      47.164  24.385  26.729  1.00  0.00     0.029 A 
ATOM     44  C   UNL A   1      46.934  25.771  27.122  1.00  0.00     0.049 A 
ATOM     45  H   UNL A   1      45.141  26.637  27.733  1.00  0.00     0.167 HD
ATOM     46  C   UNL A   1      41.269  28.369  28.794  1.00  0.00     0.037 A 
ATOM     47  C   UNL A   1      47.871  26.738  27.157  1.00  0.00     0.037 A 
ATOM     48  C   UNL A   1      42.216  29.442  28.948  1.00  0.00     0.049 A 
ATOM     49  C   UNL A   1      47.483  28.123  27.588  1.00  0.00     0.074 A 
ATOM     50  C   UNL A   1      41.993  30.732  29.396  1.00  0.00     0.029 A 
ATOM     51  N   UNL A   1      43.568  29.349  28.653  1.00  0.00    -0.354 N 
ATOM     52  N   UNL A   1      46.308  28.576  27.951  1.00  0.00    -0.248 NA
ATOM     53  C   UNL A   1      48.551  29.132  27.617  1.00  0.00     0.031 C 
ATOM     54  C   UNL A   1      43.204  31.432  29.337  1.00  0.00     0.029 A 
ATOM     55  C   UNL A   1      44.188  30.564  28.891  1.00  0.00     0.049 A 
ATOM     56  H   UNL A   1      44.020  28.538  28.325  1.00  0.00     0.167 HD
ATOM     57  C   UNL A   1      46.499  29.913  28.272  1.00  0.00     0.074 A 
ATOM     58  C   UNL A   1      47.906  30.194  28.076  1.00  0.00     0.031 C 
ATOM     59  C   UNL A   1      45.590  30.827  28.691  1.00  0.00     0.037 A 
BRANCH  46  60
ATOM     60  C   UNL A   1      39.826  28.651  29.094  1.00  0.00     0.057 A 
ATOM     61  C   UNL A   1      39.291  28.466  30.376  1.00  0.00     0.134 A 
ATOM     62  C   UNL A   1      38.974  29.155  28.105  1.00  0.00     0.134 A 
ATOM     63  F   UNL A   1      40.053  27.975  31.366  1.00  0.00    -0.206 F 
ATOM     64  C   UNL A   1      37.955  28.755  30.658  1.00  0.00     0.040 A 
ATOM     65  C   UNL A   1      37.641  29.470  28.381  1.00  0.00     0.040 A 
ATOM     66  F   UNL A   1      39.423  29.361  26.858  1.00  0.00    -0.206 F 
ATOM     67  C   UNL A   1      37.128  29.265  29.659  1.00  0.00     0.006 A 
ENDBRANCH  46  60
BRANCH  47  68
ATOM     68  C   UNL A   1      49.273  26.425  26.785  1.00  0.00     0.057 A 
ATOM     69  C   UNL A   1      50.175  25.924  27.731  1.00  0.00     0.134 A 
ATOM     70  C   UNL A   1      49.747  26.625  25.483  1.00  0.00     0.134 A 
ATOM     71  F   UNL A   1      49.783  25.729  28.998  1.00  0.00    -0.206 F 
ATOM     72  C   UNL A   1      51.503  25.650  27.401  1.00  0.00     0.040 A 
ATOM     73  C   UNL A   1      51.066  26.333  25.134  1.00  0.00     0.040 A 
ATOM     74  F   UNL A   1      48.929  27.095  24.530  1.00  0.00    -0.206 F 
ATOM     75  C   UNL A   1      51.950  25.851  26.096  1.00  0.00     0.006 A 
ENDBRANCH  47  68
BRANCH  59  76
ATOM     76  C   UNL A   1      46.096  32.207  28.984  1.00  0.00     0.057 A 
ATOM     77  C   UNL A   1      46.571  32.563  30.252  1.00  0.00     0.134 A 
ATOM     78  C   UNL A   1      46.139  33.180  27.978  1.00  0.00     0.134 A 
ATOM     79  F   UNL A   1      46.544  31.679  31.262  1.00  0.00    -0.206 F 
ATOM     80  C   UNL A   1      47.050  33.847  30.516  1.00  0.00     0.040 A 
ATOM     81  C   UNL A   1      46.638  34.460  28.224  1.00  0.00     0.040 A 
ATOM     82  F   UNL A   1      45.705  32.900  26.740  1.00  0.00    -0.206 F 
ATOM     83  C   UNL A   1      47.090  34.798  29.498  1.00  0.00     0.006 A 
ENDBRANCH  59  76
ENDBRANCH  33  34
ENDBRANCH  25  28
ENDBRANCH  23  24
ENDBRANCH  22  23
ENDBRANCH  21  22
ENDBRANCH  20  21
ENDBRANCH   1  20
TORSDOF 18
ENDMDL
MODEL 3
REMARK VINA RESULT:     -10.3      0.571      6.331
REMARK SMILES CN(CCCC(=O)NCCCCCCNC(=O)c1ccc(-c2c3nc(c(-c4c(F)cccc4F)c4ccc([nH]4)c(-c4c(F)cccc4F)c4nc(c(-c5c(F)cccc5F)c5ccc2[nH]5)C=C4)C=C3)cc1)C(=O)c1ccc(Br)o1
REMARK SMILES IDX 10 1 9 2 8 3 6 4 7 5 5 7 4 8 3 9 2 10 1 11 72 12 73 13 74 14
REMARK SMILES IDX 75 15 79 16 76 17 77 18 78 19 11 20 12 21 13 22 14 23 15 24
REMARK SMILES IDX 16 25 17 27 18 28 19 29 71 30 20 31 70 32 21 33 22 34 23 35
REMARK SMILES IDX 64 36 24 37 69 38 63 39 65 40 25 41 68 42 62 43 61 44 26 46
REMARK SMILES IDX 52 47 35 48 51 49 36 50 39 51 50 52 66 53 37 54 38 55 49 57
REMARK SMILES IDX 67 58 40 59 27 60 28 61 33 62 29 63 30 64 32 65 34 66 31 67
REMARK SMILES IDX 53 68 54 69 59 70 55 71 56 72 58 73 60 74 57 75 41 76 42 77
REMARK SMILES IDX 47 78 43 79 44 80 46 81 48 82 45 83
REMARK H PARENT 8 6 15 26 65 45 39 56
REMARK Flexibility Score: inf
ROOT
ATOM      1  C   UNL A   1      32.671  29.328  24.450  1.00  0.00     0.021 C 
ENDROOT
BRANCH   1   2
ATOM      2  C   UNL A   1      33.180  27.886  24.477  1.00  0.00     0.116 C 
BRANCH   2   3
ATOM      3  N   UNL A   1      33.558  27.457  23.150  1.00  0.00    -0.356 N 
ATOM      4  C   UNL A   1      33.040  26.530  22.310  1.00  0.00     0.220 C 
ATOM      5  O   UNL A   1      33.653  26.341  21.254  1.00  0.00    -0.275 OA
ATOM      6  H   UNL A   1      34.341  27.930  22.787  1.00  0.00     0.163 HD
BRANCH   4   7
ATOM      7  C   UNL A   1      31.709  25.835  22.539  1.00  0.00     0.102 C 
BRANCH   7   8
ATOM      8  C   UNL A   1      31.604  24.404  23.045  1.00  0.00     0.031 C 
BRANCH   8   9
ATOM      9  C   UNL A   1      30.572  23.973  24.087  1.00  0.00     0.120 C 
BRANCH   9  10
ATOM     10  N   UNL A   1      30.659  24.333  25.520  1.00  0.00    -0.339 N 
ATOM     11  C   UNL A   1      29.935  25.557  25.869  1.00  0.00     0.147 C 
BRANCH  10  12
ATOM     12  C   UNL A   1      31.049  23.604  26.669  1.00  0.00     0.289 C 
ATOM     13  O   UNL A   1      30.180  23.134  27.410  1.00  0.00    -0.265 OA
BRANCH  12  14
ATOM     14  C   UNL A   1      32.429  23.338  26.992  1.00  0.00     0.193 A 
ATOM     15  C   UNL A   1      33.001  22.413  27.851  1.00  0.00     0.057 A 
ATOM     16  O   UNL A   1      33.407  23.843  26.171  1.00  0.00    -0.444 OA
ATOM     17  C   UNL A   1      34.400  22.437  27.614  1.00  0.00     0.059 A 
ATOM     18  C   UNL A   1      34.592  23.300  26.563  1.00  0.00     0.170 A 
ATOM     19  Br  UNL A   1      36.241  23.669  25.767  1.00  0.00    -0.008 Br
ENDBRANCH  12  14
ENDBRANCH  10  12
ENDBRANCH   9  10
ENDBRANCH   8   9
ENDBRANCH   7   8
ENDBRANCH   4   7
ENDBRANCH   2   3
ENDBRANCH   1   2
BRANCH   1  20
ATOM     20  C   UNL A   1      31.401  29.507  25.282  1.00  0.00     0.002 C 
BRANCH  20  21
ATOM     21  C   UNL A   1      31.642  30.169  26.646  1.00  0.00     0.002 C 
BRANCH  21  22
ATOM     22  C   UNL A   1      31.472  31.692  26.683  1.00  0.00     0.021 C 
BRANCH  22  23
ATOM     23  C   UNL A   1      32.766  32.490  26.836  1.00  0.00     0.116 C 
BRANCH  23  24
ATOM     24  N   UNL A   1      32.534  33.823  27.367  1.00  0.00    -0.352 N 
ATOM     25  C   UNL A   1      33.112  34.460  28.436  1.00  0.00     0.251 C 
ATOM     26  H   UNL A   1      31.857  34.351  26.885  1.00  0.00     0.163 HD
ATOM     27  O   UNL A   1      32.660  35.527  28.834  1.00  0.00    -0.269 OA
BRANCH  25  28
ATOM     28  C   UNL A   1      34.268  33.850  29.123  1.00  0.00     0.039 A 
ATOM     29  C   UNL A   1      34.030  32.925  30.143  1.00  0.00     0.014 A 
ATOM     30  C   UNL A   1      35.578  34.199  28.780  1.00  0.00     0.014 A 
ATOM     31  C   UNL A   1      35.105  32.297  30.773  1.00  0.00     0.010 A 
ATOM     32  C   UNL A   1      36.648  33.531  29.370  1.00  0.00     0.010 A 
ATOM     33  C   UNL A   1      36.421  32.570  30.367  1.00  0.00    -0.014 A 
BRANCH  33  34
ATOM     34  C   UNL A   1      37.569  31.833  30.951  1.00  0.00     0.031 A 
ATOM     35  C   UNL A   1      38.075  32.176  32.322  1.00  0.00     0.074 A 
ATOM     36  C   UNL A   1      38.195  30.896  30.212  1.00  0.00     0.049 A 
ATOM     37  N   UNL A   1      39.107  31.690  32.966  1.00  0.00    -0.248 NA
ATOM     38  C   UNL A   1      37.341  33.215  33.059  1.00  0.00     0.031 C 
ATOM     39  C   UNL A   1      37.823  30.507  28.850  1.00  0.00     0.029 A 
ATOM     40  N   UNL A   1      39.284  30.112  30.497  1.00  0.00    -0.354 N 
ATOM     41  C   UNL A   1      39.151  32.370  34.176  1.00  0.00     0.074 A 
ATOM     42  C   UNL A   1      38.071  33.333  34.160  1.00  0.00     0.031 C 
ATOM     43  C   UNL A   1      38.660  29.548  28.424  1.00  0.00     0.029 A 
ATOM     44  C   UNL A   1      39.646  29.279  29.467  1.00  0.00     0.049 A 
ATOM     45  H   UNL A   1      39.760  30.144  31.358  1.00  0.00     0.167 HD
ATOM     46  C   UNL A   1      40.004  32.193  35.213  1.00  0.00     0.037 A 
ATOM     47  C   UNL A   1      40.664  28.403  29.370  1.00  0.00     0.037 A 
ATOM     48  C   UNL A   1      41.064  31.220  35.236  1.00  0.00     0.049 A 
ATOM     49  C   UNL A   1      41.598  28.233  30.533  1.00  0.00     0.074 A 
ATOM     50  C   UNL A   1      41.943  30.925  36.264  1.00  0.00     0.029 A 
ATOM     51  N   UNL A   1      41.391  30.384  34.179  1.00  0.00    -0.354 N 
ATOM     52  N   UNL A   1      41.591  28.839  31.695  1.00  0.00    -0.248 NA
ATOM     53  C   UNL A   1      42.683  27.254  30.373  1.00  0.00     0.031 C 
ATOM     54  C   UNL A   1      42.826  29.937  35.816  1.00  0.00     0.029 A 
ATOM     55  C   UNL A   1      42.471  29.587  34.522  1.00  0.00     0.049 A 
ATOM     56  H   UNL A   1      40.924  30.359  33.313  1.00  0.00     0.167 HD
ATOM     57  C   UNL A   1      42.651  28.301  32.411  1.00  0.00     0.074 A 
ATOM     58  C   UNL A   1      43.272  27.307  31.559  1.00  0.00     0.031 C 
ATOM     59  C   UNL A   1      43.075  28.603  33.662  1.00  0.00     0.037 A 
BRANCH  46  60
ATOM     60  C   UNL A   1      39.821  33.068  36.418  1.00  0.00     0.057 A 
ATOM     61  C   UNL A   1      40.526  34.270  36.569  1.00  0.00     0.134 A 
ATOM     62  C   UNL A   1      38.897  32.731  37.414  1.00  0.00     0.134 A 
ATOM     63  F   UNL A   1      41.434  34.645  35.654  1.00  0.00    -0.206 F 
ATOM     64  C   UNL A   1      40.333  35.095  37.678  1.00  0.00     0.040 A 
ATOM     65  C   UNL A   1      38.678  33.560  38.516  1.00  0.00     0.040 A 
ATOM     66  F   UNL A   1      38.185  31.598  37.328  1.00  0.00    -0.206 F 
ATOM     67  C   UNL A   1      39.401  34.743  38.652  1.00  0.00     0.006 A 
ENDBRANCH  46  60
BRANCH  47  68
ATOM     68  C   UNL A   1      40.844  27.609  28.130  1.00  0.00     0.057 A 
ATOM     69  C   UNL A   1      41.623  28.093  27.072  1.00  0.00     0.134 A 
ATOM     70  C   UNL A   1      40.240  26.357  27.968  1.00  0.00     0.134 A 
ATOM     71  F   UNL A   1      42.212  29.293  27.162  1.00  0.00    -0.206 F 
ATOM     72  C   UNL A   1      41.780  27.367  25.890  1.00  0.00     0.040 A 
ATOM     73  C   UNL A   1      40.407  25.611  26.801  1.00  0.00     0.040 A 
ATOM     74  F   UNL A   1      39.487  25.837  28.949  1.00  0.00    -0.206 F 
ATOM     75  C   UNL A   1      41.174  26.119  25.754  1.00  0.00     0.006 A 
ENDBRANCH  47  68
BRANCH  59  76
ATOM     76  C   UNL A   1      44.251  27.835  34.188  1.00  0.00     0.057 A 
ATOM     77  C   UNL A   1      45.559  28.322  34.073  1.00  0.00     0.134 A 
ATOM     78  C   UNL A   1      44.069  26.613  34.845  1.00  0.00     0.134 A 
ATOM     79  F   UNL A   1      45.801  29.481  33.441  1.00  0.00    -0.206 F 
ATOM     80  C   UNL A   1      46.648  27.606  34.573  1.00  0.00     0.040 A 
ATOM     81  C   UNL A   1      45.147  25.900  35.371  1.00  0.00     0.040 A 
ATOM     82  F   UNL A   1      42.839  26.096  34.995  1.00  0.00    -0.206 F 
ATOM     83  C   UNL A   1      46.442  26.395  35.230  1.00  0.00     0.006 A 
ENDBRANCH  59  76
ENDBRANCH  33  34
ENDBRANCH  25  28
ENDBRANCH  23  24
ENDBRANCH  22  23
ENDBRANCH  21  22
ENDBRANCH  20  21
ENDBRANCH   1  20
TORSDOF 18
ENDMDL
