MODEL 1
REMARK VINA RESULT:     -10.7      0.000      0.000
REMARK SMILES C[NH2+][C@]1(C(=O)NCCCCCCNC(=O)c2ccc(-c3c4nc(c(-c5c(F)cccc5F)c5ccc([nH]5)c(-c5c(F)cccc5F)c5nc(c(-c6c(F)cccc6F)c6ccc3[nH]6)C=C5)C=C4)cc2)CCC[C@@H]1CCOC[C@@H]1CCCO1
REMARK SMILES IDX 8 1 7 2 6 3 4 4 5 5 3 7 70 8 73 9 71 10 72 11 2 12 1 13
REMARK SMILES IDX 74 16 75 17 76 18 77 19 78 20 79 21 82 22 80 23 81 24 9 25
REMARK SMILES IDX 10 26 11 27 12 28 13 29 14 30 15 32 16 33 17 34 69 35 18 36
REMARK SMILES IDX 68 37 19 38 20 39 21 40 62 41 22 42 67 43 61 44 63 45 23 46
REMARK SMILES IDX 66 47 60 48 59 49 24 51 50 52 33 53 49 54 34 55 37 56 48 57
REMARK SMILES IDX 64 58 35 59 36 60 47 62 65 63 38 64 25 65 26 66 31 67 27 68
REMARK SMILES IDX 28 69 30 70 32 71 29 72 51 73 52 74 57 75 53 76 54 77 56 78
REMARK SMILES IDX 58 79 55 80 39 81 40 82 45 83 41 84 42 85 44 86 46 87 43 88
REMARK H PARENT 6 6 2 14 2 15 13 31 63 50 37 61
REMARK Flexibility Score: inf
ROOT
ATOM      1  C   UNL A   1      31.770  28.161  27.550  1.00  0.00     0.021 C 
ENDROOT
BRANCH   1   2
ATOM      2  C   UNL A   1      32.025  26.982  26.620  1.00  0.00     0.116 C 
BRANCH   2   3
ATOM      3  N   UNL A   1      31.168  25.854  26.909  1.00  0.00    -0.351 N 
ATOM      4  C   UNL A   1      31.059  24.589  26.428  1.00  0.00     0.281 C 
ATOM      5  O   UNL A   1      30.186  23.932  27.011  1.00  0.00    -0.268 OA
ATOM      6  H   UNL A   1      30.513  26.049  27.618  1.00  0.00     0.163 HD
BRANCH   4   7
ATOM      7  C   UNL A   1      31.927  24.007  25.252  1.00  0.00     0.178 C 
ATOM      8  C   UNL A   1      31.871  22.457  25.265  1.00  0.00     0.079 C 
ATOM      9  C   UNL A   1      31.399  24.301  23.811  1.00  0.00     0.063 C 
ATOM     10  C   UNL A   1      32.156  21.995  23.831  1.00  0.00     0.008 C 
ATOM     11  C   UNL A   1      32.139  23.249  22.958  1.00  0.00     0.011 C 
BRANCH   7  12
ATOM     12  N   UNL A   1      33.388  24.307  25.395  1.00  0.00    -0.336 N 
ATOM     13  C   UNL A   1      34.119  23.639  26.456  1.00  0.00     0.331 C 
ATOM     14  H   UNL A   1      33.836  24.058  24.513  1.00  0.00     0.346 HD
ATOM     15  H   UNL A   1      33.423  25.295  25.643  1.00  0.00     0.346 HD
ENDBRANCH   7  12
BRANCH   9  16
ATOM     16  C   UNL A   1      31.533  25.744  23.300  1.00  0.00     0.039 C 
BRANCH  16  17
ATOM     17  C   UNL A   1      30.259  26.608  23.403  1.00  0.00     0.161 C 
BRANCH  17  18
ATOM     18  O   UNL A   1      30.467  27.983  23.696  1.00  0.00    -0.379 OA
BRANCH  18  19
ATOM     19  C   UNL A   1      30.878  28.889  22.679  1.00  0.00     0.192 C 
BRANCH  19  20
ATOM     20  C   UNL A   1      29.979  30.100  22.362  1.00  0.00     0.144 C 
ATOM     21  C   UNL A   1      29.183  30.644  23.533  1.00  0.00     0.037 C 
ATOM     22  O   UNL A   1      29.053  29.812  21.305  1.00  0.00    -0.376 OA
ATOM     23  C   UNL A   1      27.864  31.042  22.931  1.00  0.00     0.031 C 
ATOM     24  C   UNL A   1      27.728  30.072  21.779  1.00  0.00     0.160 C 
ENDBRANCH  19  20
ENDBRANCH  18  19
ENDBRANCH  17  18
ENDBRANCH  16  17
ENDBRANCH   9  16
ENDBRANCH   4   7
ENDBRANCH   2   3
ENDBRANCH   1   2
BRANCH   1  25
ATOM     25  C   UNL A   1      32.438  29.473  27.120  1.00  0.00     0.002 C 
BRANCH  25  26
ATOM     26  C   UNL A   1      31.638  30.346  26.147  1.00  0.00     0.002 C 
BRANCH  26  27
ATOM     27  C   UNL A   1      31.493  31.818  26.542  1.00  0.00     0.021 C 
BRANCH  27  28
ATOM     28  C   UNL A   1      32.712  32.424  27.227  1.00  0.00     0.116 C 
BRANCH  28  29
ATOM     29  N   UNL A   1      32.519  33.819  27.581  1.00  0.00    -0.352 N 
ATOM     30  C   UNL A   1      33.168  34.576  28.526  1.00  0.00     0.251 C 
ATOM     31  H   UNL A   1      31.823  34.291  27.070  1.00  0.00     0.163 HD
ATOM     32  O   UNL A   1      32.770  35.702  28.794  1.00  0.00    -0.269 OA
BRANCH  30  33
ATOM     33  C   UNL A   1      34.337  34.015  29.238  1.00  0.00     0.039 A 
ATOM     34  C   UNL A   1      34.120  33.061  30.236  1.00  0.00     0.014 A 
ATOM     35  C   UNL A   1      35.636  34.424  28.926  1.00  0.00     0.014 A 
ATOM     36  C   UNL A   1      35.210  32.474  30.879  1.00  0.00     0.010 A 
ATOM     37  C   UNL A   1      36.722  33.781  29.512  1.00  0.00     0.010 A 
ATOM     38  C   UNL A   1      36.521  32.804  30.497  1.00  0.00    -0.014 A 
BRANCH  38  39
ATOM     39  C   UNL A   1      37.691  32.134  31.119  1.00  0.00     0.031 A 
ATOM     40  C   UNL A   1      38.413  31.036  30.388  1.00  0.00     0.074 A 
ATOM     41  C   UNL A   1      38.065  32.473  32.368  1.00  0.00     0.049 A 
ATOM     42  N   UNL A   1      39.414  30.295  30.789  1.00  0.00    -0.248 NA
ATOM     43  C   UNL A   1      37.927  30.709  29.039  1.00  0.00     0.031 C 
ATOM     44  C   UNL A   1      37.414  33.487  33.200  1.00  0.00     0.029 A 
ATOM     45  N   UNL A   1      39.076  31.994  33.161  1.00  0.00    -0.354 N 
ATOM     46  C   UNL A   1      39.668  29.408  29.750  1.00  0.00     0.074 A 
ATOM     47  C   UNL A   1      38.679  29.665  28.726  1.00  0.00     0.031 C 
ATOM     48  C   UNL A   1      38.055  33.569  34.376  1.00  0.00     0.029 A 
ATOM     49  C   UNL A   1      39.133  32.586  34.399  1.00  0.00     0.049 A 
ATOM     50  H   UNL A   1      39.702  31.291  32.870  1.00  0.00     0.167 HD
ATOM     51  C   UNL A   1      40.651  28.482  29.649  1.00  0.00     0.037 A 
ATOM     52  C   UNL A   1      39.954  32.354  35.442  1.00  0.00     0.037 A 
ATOM     53  C   UNL A   1      41.643  28.244  30.666  1.00  0.00     0.049 A 
ATOM     54  C   UNL A   1      41.028  31.310  35.311  1.00  0.00     0.074 A 
ATOM     55  C   UNL A   1      42.716  27.371  30.634  1.00  0.00     0.029 A 
ATOM     56  N   UNL A   1      41.676  28.873  31.902  1.00  0.00    -0.354 N 
ATOM     57  N   UNL A   1      41.306  30.532  34.293  1.00  0.00    -0.248 NA
ATOM     58  C   UNL A   1      41.910  31.117  36.471  1.00  0.00     0.031 C 
ATOM     59  C   UNL A   1      43.364  27.430  31.872  1.00  0.00     0.029 A 
ATOM     60  C   UNL A   1      42.734  28.386  32.652  1.00  0.00     0.049 A 
ATOM     61  H   UNL A   1      41.043  29.564  32.200  1.00  0.00     0.167 HD
ATOM     62  C   UNL A   1      42.408  29.779  34.677  1.00  0.00     0.074 A 
ATOM     63  C   UNL A   1      42.757  30.206  36.016  1.00  0.00     0.031 C 
ATOM     64  C   UNL A   1      43.071  28.822  33.985  1.00  0.00     0.037 A 
BRANCH  51  65
ATOM     65  C   UNL A   1      40.696  27.654  28.396  1.00  0.00     0.057 A 
ATOM     66  C   UNL A   1      40.008  26.437  28.286  1.00  0.00     0.134 A 
ATOM     67  C   UNL A   1      41.415  28.090  27.276  1.00  0.00     0.134 A 
ATOM     68  F   UNL A   1      39.308  25.955  29.324  1.00  0.00    -0.206 F 
ATOM     69  C   UNL A   1      40.059  25.671  27.120  1.00  0.00     0.040 A 
ATOM     70  C   UNL A   1      41.448  27.347  26.094  1.00  0.00     0.040 A 
ATOM     71  F   UNL A   1      42.092  29.248  27.307  1.00  0.00    -0.206 F 
ATOM     72  C   UNL A   1      40.776  26.130  26.017  1.00  0.00     0.006 A 
ENDBRANCH  51  65
BRANCH  52  73
ATOM     73  C   UNL A   1      39.799  33.135  36.696  1.00  0.00     0.057 A 
ATOM     74  C   UNL A   1      38.899  32.738  37.691  1.00  0.00     0.134 A 
ATOM     75  C   UNL A   1      40.543  34.299  36.928  1.00  0.00     0.134 A 
ATOM     76  F   UNL A   1      38.145  31.642  37.520  1.00  0.00    -0.206 F 
ATOM     77  C   UNL A   1      38.727  33.479  38.861  1.00  0.00     0.040 A 
ATOM     78  C   UNL A   1      40.403  35.034  38.106  1.00  0.00     0.040 A 
ATOM     79  F   UNL A   1      41.429  34.729  36.018  1.00  0.00    -0.206 F 
ATOM     80  C   UNL A   1      39.486  34.629  39.073  1.00  0.00     0.006 A 
ENDBRANCH  52  73
BRANCH  64  81
ATOM     81  C   UNL A   1      44.265  28.194  34.646  1.00  0.00     0.057 A 
ATOM     82  C   UNL A   1      45.543  28.761  34.566  1.00  0.00     0.134 A 
ATOM     83  C   UNL A   1      44.123  27.026  35.407  1.00  0.00     0.134 A 
ATOM     84  F   UNL A   1      45.750  29.873  33.844  1.00  0.00    -0.206 F 
ATOM     85  C   UNL A   1      46.641  28.176  35.198  1.00  0.00     0.040 A 
ATOM     86  C   UNL A   1      45.208  26.449  36.069  1.00  0.00     0.040 A 
ATOM     87  F   UNL A   1      42.925  26.436  35.534  1.00  0.00    -0.206 F 
ATOM     88  C   UNL A   1      46.474  27.020  35.958  1.00  0.00     0.006 A 
ENDBRANCH  64  81
ENDBRANCH  38  39
ENDBRANCH  30  33
ENDBRANCH  28  29
ENDBRANCH  27  28
ENDBRANCH  26  27
ENDBRANCH  25  26
ENDBRANCH   1  25
TORSDOF 19
ENDMDL
MODEL 2
REMARK VINA RESULT:     -10.7      1.359      6.283
REMARK SMILES C[NH2+][C@]1(C(=O)NCCCCCCNC(=O)c2ccc(-c3c4nc(c(-c5c(F)cccc5F)c5ccc([nH]5)c(-c5c(F)cccc5F)c5nc(c(-c6c(F)cccc6F)c6ccc3[nH]6)C=C5)C=C4)cc2)CCC[C@@H]1CCOC[C@@H]1CCCO1
REMARK SMILES IDX 8 1 7 2 6 3 4 4 5 5 3 7 70 8 73 9 71 10 72 11 2 12 1 13
REMARK SMILES IDX 74 16 75 17 76 18 77 19 78 20 79 21 82 22 80 23 81 24 9 25
REMARK SMILES IDX 10 26 11 27 12 28 13 29 14 30 15 32 16 33 17 34 69 35 18 36
REMARK SMILES IDX 68 37 19 38 20 39 21 40 62 41 22 42 67 43 61 44 63 45 23 46
REMARK SMILES IDX 66 47 60 48 59 49 24 51 50 52 33 53 49 54 34 55 37 56 48 57
REMARK SMILES IDX 64 58 35 59 36 60 47 62 65 63 38 64 25 65 26 66 31 67 27 68
REMARK SMILES IDX 28 69 30 70 32 71 29 72 51 73 52 74 57 75 53 76 54 77 56 78
REMARK SMILES IDX 58 79 55 80 39 81 40 82 45 83 41 84 42 85 44 86 46 87 43 88
REMARK H PARENT 6 6 2 14 2 15 13 31 63 50 37 61
REMARK Flexibility Score: inf
ROOT
ATOM      1  C   UNL A   1      31.789  28.187  27.552  1.00  0.00     0.021 C 
ENDROOT
BRANCH   1   2
ATOM      2  C   UNL A   1      32.025  27.050  26.566  1.00  0.00     0.116 C 
BRANCH   2   3
ATOM      3  N   UNL A   1      31.112  25.947  26.767  1.00  0.00    -0.351 N 
ATOM      4  C   UNL A   1      31.002  24.693  26.256  1.00  0.00     0.281 C 
ATOM      5  O   UNL A   1      30.065  24.057  26.757  1.00  0.00    -0.268 OA
ATOM      6  H   UNL A   1      30.410  26.151  27.426  1.00  0.00     0.163 HD
BRANCH   4   7
ATOM      7  C   UNL A   1      31.941  24.102  25.140  1.00  0.00     0.178 C 
ATOM      8  C   UNL A   1      31.861  22.552  25.143  1.00  0.00     0.079 C 
ATOM      9  C   UNL A   1      31.518  24.408  23.667  1.00  0.00     0.063 C 
ATOM     10  C   UNL A   1      32.238  22.091  23.731  1.00  0.00     0.008 C 
ATOM     11  C   UNL A   1      32.299  23.348  22.863  1.00  0.00     0.011 C 
BRANCH   7  12
ATOM     12  N   UNL A   1      33.393  24.380  25.385  1.00  0.00    -0.336 N 
ATOM     13  C   UNL A   1      34.052  23.657  26.457  1.00  0.00     0.331 C 
ATOM     14  H   UNL A   1      33.891  24.165  24.521  1.00  0.00     0.346 HD
ATOM     15  H   UNL A   1      33.420  25.355  25.679  1.00  0.00     0.346 HD
ENDBRANCH   7  12
BRANCH   9  16
ATOM     16  C   UNL A   1      31.708  25.850  23.172  1.00  0.00     0.039 C 
BRANCH  16  17
ATOM     17  C   UNL A   1      30.443  26.731  23.187  1.00  0.00     0.161 C 
BRANCH  17  18
ATOM     18  O   UNL A   1      30.633  28.080  23.594  1.00  0.00    -0.379 OA
BRANCH  18  19
ATOM     19  C   UNL A   1      30.767  29.118  22.631  1.00  0.00     0.192 C 
BRANCH  19  20
ATOM     20  C   UNL A   1      29.554  30.028  22.353  1.00  0.00     0.144 C 
ATOM     21  C   UNL A   1      29.119  30.904  23.513  1.00  0.00     0.037 C 
ATOM     22  O   UNL A   1      28.410  29.275  21.926  1.00  0.00    -0.376 OA
ATOM     23  C   UNL A   1      27.617  30.919  23.421  1.00  0.00     0.031 C 
ATOM     24  C   UNL A   1      27.318  29.574  22.799  1.00  0.00     0.160 C 
ENDBRANCH  19  20
ENDBRANCH  18  19
ENDBRANCH  17  18
ENDBRANCH  16  17
ENDBRANCH   9  16
ENDBRANCH   4   7
ENDBRANCH   2   3
ENDBRANCH   1   2
BRANCH   1  25
ATOM     25  C   UNL A   1      32.373  29.539  27.122  1.00  0.00     0.002 C 
BRANCH  25  26
ATOM     26  C   UNL A   1      31.497  30.382  26.188  1.00  0.00     0.002 C 
BRANCH  26  27
ATOM     27  C   UNL A   1      31.404  31.871  26.531  1.00  0.00     0.021 C 
BRANCH  27  28
ATOM     28  C   UNL A   1      32.650  32.462  27.179  1.00  0.00     0.116 C 
BRANCH  28  29
ATOM     29  N   UNL A   1      32.445  33.820  27.650  1.00  0.00    -0.352 N 
ATOM     30  C   UNL A   1      33.172  34.546  28.561  1.00  0.00     0.251 C 
ATOM     31  H   UNL A   1      31.673  34.290  27.259  1.00  0.00     0.163 HD
ATOM     32  O   UNL A   1      32.766  35.632  28.952  1.00  0.00    -0.269 OA
BRANCH  30  33
ATOM     33  C   UNL A   1      34.440  33.998  29.090  1.00  0.00     0.039 A 
ATOM     34  C   UNL A   1      34.400  33.203  30.238  1.00  0.00     0.014 A 
ATOM     35  C   UNL A   1      35.659  34.264  28.461  1.00  0.00     0.014 A 
ATOM     36  C   UNL A   1      35.576  32.625  30.720  1.00  0.00     0.010 A 
ATOM     37  C   UNL A   1      36.816  33.624  28.895  1.00  0.00     0.010 A 
ATOM     38  C   UNL A   1      36.787  32.803  30.032  1.00  0.00    -0.014 A 
BRANCH  38  39
ATOM     39  C   UNL A   1      38.032  32.135  30.488  1.00  0.00     0.031 A 
ATOM     40  C   UNL A   1      38.881  32.764  31.558  1.00  0.00     0.074 A 
ATOM     41  C   UNL A   1      38.431  30.993  29.895  1.00  0.00     0.049 A 
ATOM     42  N   UNL A   1      40.029  32.365  32.045  1.00  0.00    -0.248 NA
ATOM     43  C   UNL A   1      38.389  34.023  32.139  1.00  0.00     0.031 C 
ATOM     44  C   UNL A   1      37.721  30.311  28.810  1.00  0.00     0.029 A 
ATOM     45  N   UNL A   1      39.536  30.210  30.111  1.00  0.00    -0.354 N 
ATOM     46  C   UNL A   1      40.400  33.326  32.976  1.00  0.00     0.074 A 
ATOM     47  C   UNL A   1      39.386  34.358  32.944  1.00  0.00     0.031 C 
ATOM     48  C   UNL A   1      38.397  29.202  28.472  1.00  0.00     0.029 A 
ATOM     49  C   UNL A   1      39.607  29.116  29.283  1.00  0.00     0.049 A 
ATOM     50  H   UNL A   1      40.215  30.414  30.794  1.00  0.00     0.167 HD
ATOM     51  C   UNL A   1      41.474  33.337  33.800  1.00  0.00     0.037 A 
ATOM     52  C   UNL A   1      40.548  28.158  29.179  1.00  0.00     0.037 A 
ATOM     53  C   UNL A   1      42.471  32.299  33.840  1.00  0.00     0.049 A 
ATOM     54  C   UNL A   1      41.740  28.200  30.095  1.00  0.00     0.074 A 
ATOM     55  C   UNL A   1      43.565  32.186  34.680  1.00  0.00     0.029 A 
ATOM     56  N   UNL A   1      42.501  31.198  32.994  1.00  0.00    -0.354 N 
ATOM     57  N   UNL A   1      42.039  29.074  31.024  1.00  0.00    -0.248 NA
ATOM     58  C   UNL A   1      42.722  27.115  29.953  1.00  0.00     0.031 C 
ATOM     59  C   UNL A   1      44.288  31.049  34.305  1.00  0.00     0.029 A 
ATOM     60  C   UNL A   1      43.612  30.418  33.274  1.00  0.00     0.049 A 
ATOM     61  H   UNL A   1      41.832  31.002  32.300  1.00  0.00     0.167 HD
ATOM     62  C   UNL A   1      43.225  28.633  31.597  1.00  0.00     0.074 A 
ATOM     63  C   UNL A   1      43.582  27.403  30.920  1.00  0.00     0.031 C 
ATOM     64  C   UNL A   1      43.953  29.194  32.592  1.00  0.00     0.037 A 
BRANCH  51  65
ATOM     65  C   UNL A   1      41.629  34.514  34.722  1.00  0.00     0.057 A 
ATOM     66  C   UNL A   1      42.336  35.664  34.345  1.00  0.00     0.134 A 
ATOM     67  C   UNL A   1      41.042  34.508  35.994  1.00  0.00     0.134 A 
ATOM     68  F   UNL A   1      42.932  35.734  33.144  1.00  0.00    -0.206 F 
ATOM     69  C   UNL A   1      42.479  36.751  35.209  1.00  0.00     0.040 A 
ATOM     70  C   UNL A   1      41.153  35.601  36.855  1.00  0.00     0.040 A 
ATOM     71  F   UNL A   1      40.345  33.443  36.419  1.00  0.00    -0.206 F 
ATOM     72  C   UNL A   1      41.881  36.723  36.467  1.00  0.00     0.006 A 
ENDBRANCH  51  65
BRANCH  52  73
ATOM     73  C   UNL A   1      40.393  27.072  28.178  1.00  0.00     0.057 A 
ATOM     74  C   UNL A   1      40.995  27.156  26.917  1.00  0.00     0.134 A 
ATOM     75  C   UNL A   1      39.637  25.926  28.455  1.00  0.00     0.134 A 
ATOM     76  F   UNL A   1      41.717  28.236  26.585  1.00  0.00    -0.206 F 
ATOM     77  C   UNL A   1      40.834  26.152  25.961  1.00  0.00     0.040 A 
ATOM     78  C   UNL A   1      39.491  24.901  27.520  1.00  0.00     0.040 A 
ATOM     79  F   UNL A   1      39.041  25.780  29.648  1.00  0.00    -0.206 F 
ATOM     80  C   UNL A   1      40.084  25.017  26.264  1.00  0.00     0.006 A 
ENDBRANCH  52  73
BRANCH  64  81
ATOM     81  C   UNL A   1      45.190  28.466  33.037  1.00  0.00     0.057 A 
ATOM     82  C   UNL A   1      45.153  27.473  34.024  1.00  0.00     0.134 A 
ATOM     83  C   UNL A   1      46.428  28.737  32.439  1.00  0.00     0.134 A 
ATOM     84  F   UNL A   1      44.002  27.173  34.645  1.00  0.00    -0.206 F 
ATOM     85  C   UNL A   1      46.307  26.793  34.418  1.00  0.00     0.040 A 
ATOM     86  C   UNL A   1      47.582  28.042  32.802  1.00  0.00     0.040 A 
ATOM     87  F   UNL A   1      46.533  29.669  31.479  1.00  0.00    -0.206 F 
ATOM     88  C   UNL A   1      47.525  27.072  33.801  1.00  0.00     0.006 A 
ENDBRANCH  64  81
ENDBRANCH  38  39
ENDBRANCH  30  33
ENDBRANCH  28  29
ENDBRANCH  27  28
ENDBRANCH  26  27
ENDBRANCH  25  26
ENDBRANCH   1  25
TORSDOF 19
ENDMDL
MODEL 3
REMARK VINA RESULT:     -10.5      4.325      9.075
REMARK SMILES C[NH2+][C@]1(C(=O)NCCCCCCNC(=O)c2ccc(-c3c4nc(c(-c5c(F)cccc5F)c5ccc([nH]5)c(-c5c(F)cccc5F)c5nc(c(-c6c(F)cccc6F)c6ccc3[nH]6)C=C5)C=C4)cc2)CCC[C@@H]1CCOC[C@@H]1CCCO1
REMARK SMILES IDX 8 1 7 2 6 3 4 4 5 5 3 7 70 8 73 9 71 10 72 11 2 12 1 13
REMARK SMILES IDX 74 16 75 17 76 18 77 19 78 20 79 21 82 22 80 23 81 24 9 25
REMARK SMILES IDX 10 26 11 27 12 28 13 29 14 30 15 32 16 33 17 34 69 35 18 36
REMARK SMILES IDX 68 37 19 38 20 39 21 40 62 41 22 42 67 43 61 44 63 45 23 46
REMARK SMILES IDX 66 47 60 48 59 49 24 51 50 52 33 53 49 54 34 55 37 56 48 57
REMARK SMILES IDX 64 58 35 59 36 60 47 62 65 63 38 64 25 65 26 66 31 67 27 68
REMARK SMILES IDX 28 69 30 70 32 71 29 72 51 73 52 74 57 75 53 76 54 77 56 78
REMARK SMILES IDX 58 79 55 80 39 81 40 82 45 83 41 84 42 85 44 86 46 87 43 88
REMARK H PARENT 6 6 2 14 2 15 13 31 63 50 37 61
REMARK Flexibility Score: inf
ROOT
ATOM      1  C   UNL A   1      33.719  20.137  25.579  1.00  0.00     0.021 C 
ENDROOT
BRANCH   1   2
ATOM      2  C   UNL A   1      32.491  20.510  24.758  1.00  0.00     0.116 C 
BRANCH   2   3
ATOM      3  N   UNL A   1      31.603  21.403  25.467  1.00  0.00    -0.351 N 
ATOM      4  C   UNL A   1      31.588  22.738  25.713  1.00  0.00     0.281 C 
ATOM      5  O   UNL A   1      30.586  23.094  26.347  1.00  0.00    -0.268 OA
ATOM      6  H   UNL A   1      30.832  20.936  25.862  1.00  0.00     0.163 HD
BRANCH   4   7
ATOM      7  C   UNL A   1      32.717  23.738  25.262  1.00  0.00     0.178 C 
ATOM      8  C   UNL A   1      33.885  23.717  26.283  1.00  0.00     0.079 C 
ATOM      9  C   UNL A   1      33.475  23.357  23.950  1.00  0.00     0.063 C 
ATOM     10  C   UNL A   1      35.140  24.161  25.522  1.00  0.00     0.008 C 
ATOM     11  C   UNL A   1      34.760  24.205  24.042  1.00  0.00     0.011 C 
BRANCH   7  12
ATOM     12  N   UNL A   1      32.272  25.169  25.267  1.00  0.00    -0.336 N 
ATOM     13  C   UNL A   1      32.333  25.896  26.521  1.00  0.00     0.331 C 
ATOM     14  H   UNL A   1      32.856  25.669  24.596  1.00  0.00     0.346 HD
ATOM     15  H   UNL A   1      31.279  25.129  25.042  1.00  0.00     0.346 HD
ENDBRANCH   7  12
BRANCH   9  16
ATOM     16  C   UNL A   1      32.704  23.509  22.629  1.00  0.00     0.039 C 
BRANCH  16  17
ATOM     17  C   UNL A   1      32.876  24.862  21.910  1.00  0.00     0.161 C 
BRANCH  17  18
ATOM     18  O   UNL A   1      32.284  25.984  22.552  1.00  0.00    -0.379 OA
BRANCH  18  19
ATOM     19  C   UNL A   1      31.228  26.704  21.928  1.00  0.00     0.192 C 
BRANCH  19  20
ATOM     20  C   UNL A   1      30.314  27.582  22.806  1.00  0.00     0.144 C 
ATOM     21  C   UNL A   1      30.122  29.007  22.323  1.00  0.00     0.037 C 
ATOM     22  O   UNL A   1      30.779  27.644  24.162  1.00  0.00    -0.376 OA
ATOM     23  C   UNL A   1      30.084  29.824  23.586  1.00  0.00     0.031 C 
ATOM     24  C   UNL A   1      30.958  29.018  24.519  1.00  0.00     0.160 C 
ENDBRANCH  19  20
ENDBRANCH  18  19
ENDBRANCH  17  18
ENDBRANCH  16  17
ENDBRANCH   9  16
ENDBRANCH   4   7
ENDBRANCH   2   3
ENDBRANCH   1   2
BRANCH   1  25
ATOM     25  C   UNL A   1      34.990  19.889  24.756  1.00  0.00     0.002 C 
BRANCH  25  26
ATOM     26  C   UNL A   1      36.214  20.728  25.142  1.00  0.00     0.002 C 
BRANCH  26  27
ATOM     27  C   UNL A   1      37.571  20.141  24.749  1.00  0.00     0.021 C 
BRANCH  27  28
ATOM     28  C   UNL A   1      38.725  20.512  25.672  1.00  0.00     0.116 C 
BRANCH  28  29
ATOM     29  N   UNL A   1      39.742  19.477  25.741  1.00  0.00    -0.352 N 
ATOM     30  C   UNL A   1      41.066  19.577  26.094  1.00  0.00     0.251 C 
ATOM     31  H   UNL A   1      39.439  18.572  25.500  1.00  0.00     0.163 HD
ATOM     32  O   UNL A   1      41.817  18.623  25.950  1.00  0.00    -0.269 OA
BRANCH  30  33
ATOM     33  C   UNL A   1      41.587  20.856  26.626  1.00  0.00     0.039 A 
ATOM     34  C   UNL A   1      42.057  21.815  25.726  1.00  0.00     0.014 A 
ATOM     35  C   UNL A   1      41.613  21.108  28.000  1.00  0.00     0.014 A 
ATOM     36  C   UNL A   1      42.497  23.051  26.201  1.00  0.00     0.010 A 
ATOM     37  C   UNL A   1      41.977  22.368  28.465  1.00  0.00     0.010 A 
ATOM     38  C   UNL A   1      42.427  23.350  27.571  1.00  0.00    -0.014 A 
BRANCH  38  39
ATOM     39  C   UNL A   1      42.821  24.687  28.084  1.00  0.00     0.031 A 
ATOM     40  C   UNL A   1      41.780  25.745  28.319  1.00  0.00     0.074 A 
ATOM     41  C   UNL A   1      44.124  24.967  28.279  1.00  0.00     0.049 A 
ATOM     42  N   UNL A   1      41.935  26.986  28.706  1.00  0.00    -0.248 NA
ATOM     43  C   UNL A   1      40.382  25.368  28.060  1.00  0.00     0.031 C 
ATOM     44  C   UNL A   1      45.233  24.041  28.038  1.00  0.00     0.029 A 
ATOM     45  N   UNL A   1      44.739  26.114  28.712  1.00  0.00    -0.354 N 
ATOM     46  C   UNL A   1      40.660  27.539  28.723  1.00  0.00     0.074 A 
ATOM     47  C   UNL A   1      39.751  26.517  28.252  1.00  0.00     0.031 C 
ATOM     48  C   UNL A   1      46.388  24.649  28.348  1.00  0.00     0.029 A 
ATOM     49  C   UNL A   1      46.108  26.018  28.767  1.00  0.00     0.049 A 
ATOM     50  H   UNL A   1      44.245  26.929  28.960  1.00  0.00     0.167 HD
ATOM     51  C   UNL A   1      40.279  28.777  29.119  1.00  0.00     0.037 A 
ATOM     52  C   UNL A   1      47.035  26.935  29.105  1.00  0.00     0.037 A 
ATOM     53  C   UNL A   1      41.187  29.784  29.603  1.00  0.00     0.049 A 
ATOM     54  C   UNL A   1      46.589  28.308  29.526  1.00  0.00     0.074 A 
ATOM     55  C   UNL A   1      40.895  31.048  30.084  1.00  0.00     0.029 A 
ATOM     56  N   UNL A   1      42.567  29.646  29.656  1.00  0.00    -0.354 N 
ATOM     57  N   UNL A   1      45.374  28.793  29.611  1.00  0.00    -0.248 NA
ATOM     58  C   UNL A   1      47.643  29.260  29.907  1.00  0.00     0.031 C 
ATOM     59  C   UNL A   1      42.100  31.695  30.375  1.00  0.00     0.029 A 
ATOM     60  C   UNL A   1      43.141  30.812  30.135  1.00  0.00     0.049 A 
ATOM     61  H   UNL A   1      43.064  28.838  29.394  1.00  0.00     0.167 HD
ATOM     62  C   UNL A   1      45.513  30.093  30.081  1.00  0.00     0.074 A 
ATOM     63  C   UNL A   1      46.931  30.315  30.277  1.00  0.00     0.031 C 
ATOM     64  C   UNL A   1      44.555  31.019  30.327  1.00  0.00     0.037 A 
BRANCH  51  65
ATOM     65  C   UNL A   1      38.816  29.111  29.037  1.00  0.00     0.057 A 
ATOM     66  C   UNL A   1      37.969  29.013  30.150  1.00  0.00     0.134 A 
ATOM     67  C   UNL A   1      38.253  29.563  27.837  1.00  0.00     0.134 A 
ATOM     68  F   UNL A   1      38.442  28.578  31.328  1.00  0.00    -0.206 F 
ATOM     69  C   UNL A   1      36.610  29.321  30.064  1.00  0.00     0.040 A 
ATOM     70  C   UNL A   1      36.901  29.903  27.748  1.00  0.00     0.040 A 
ATOM     71  F   UNL A   1      39.005  29.688  26.734  1.00  0.00    -0.206 F 
ATOM     72  C   UNL A   1      36.074  29.774  28.860  1.00  0.00     0.006 A 
ENDBRANCH  51  65
BRANCH  52  73
ATOM     73  C   UNL A   1      48.477  26.580  29.070  1.00  0.00     0.057 A 
ATOM     74  C   UNL A   1      49.263  26.848  27.944  1.00  0.00     0.134 A 
ATOM     75  C   UNL A   1      49.103  25.960  30.159  1.00  0.00     0.134 A 
ATOM     76  F   UNL A   1      48.718  27.423  26.862  1.00  0.00    -0.206 F 
ATOM     77  C   UNL A   1      50.613  26.494  27.892  1.00  0.00     0.040 A 
ATOM     78  C   UNL A   1      50.458  25.627  30.133  1.00  0.00     0.040 A 
ATOM     79  F   UNL A   1      48.407  25.684  31.273  1.00  0.00    -0.206 F 
ATOM     80  C   UNL A   1      51.215  25.887  28.992  1.00  0.00     0.006 A 
ENDBRANCH  52  73
BRANCH  64  81
ATOM     81  C   UNL A   1      45.002  32.345  30.871  1.00  0.00     0.057 A 
ATOM     82  C   UNL A   1      45.156  32.572  32.245  1.00  0.00     0.134 A 
ATOM     83  C   UNL A   1      45.321  33.399  30.004  1.00  0.00     0.134 A 
ATOM     84  F   UNL A   1      44.857  31.609  33.131  1.00  0.00    -0.206 F 
ATOM     85  C   UNL A   1      45.587  33.805  32.737  1.00  0.00     0.040 A 
ATOM     86  C   UNL A   1      45.782  34.626  30.482  1.00  0.00     0.040 A 
ATOM     87  F   UNL A   1      45.206  33.247  28.675  1.00  0.00    -0.206 F 
ATOM     88  C   UNL A   1      45.908  34.834  31.854  1.00  0.00     0.006 A 
ENDBRANCH  64  81
ENDBRANCH  38  39
ENDBRANCH  30  33
ENDBRANCH  28  29
ENDBRANCH  27  28
ENDBRANCH  26  27
ENDBRANCH  25  26
ENDBRANCH   1  25
TORSDOF 19
ENDMDL
