MODEL 1
REMARK VINA RESULT:     -11.8      0.000      0.000
REMARK SMILES Cc1noc(C)c1CCC(=O)N1CCC2(CC1)NC(=O)C[C@@H]2C(=O)NCCCCCCNC(=O)c1ccc(-c2c3nc(c(-c4c(F)cccc4F)c4ccc([nH]4)c(-c4c(F)cccc4F)c4nc(c(-c5c(F)cccc5F)c5ccc2[nH]5)C=C4)C=C3)cc1
REMARK SMILES IDX 28 1 27 2 26 3 25 4 23 5 24 6 22 8 10 9 11 10 12 11 13 12
REMARK SMILES IDX 17 13 14 14 16 15 15 16 18 17 19 18 21 20 20 21 9 22 8 23
REMARK SMILES IDX 7 24 1 25 2 26 3 27 4 28 5 29 6 30 29 31 30 32 31 33 32 34
REMARK SMILES IDX 33 35 34 37 35 38 36 39 88 40 37 41 87 42 38 43 39 44 40 45
REMARK SMILES IDX 81 46 41 47 86 48 80 49 82 50 42 51 85 52 79 53 78 54 43 56
REMARK SMILES IDX 69 57 52 58 68 59 53 60 56 61 67 62 83 63 54 64 55 65 66 67
REMARK SMILES IDX 84 68 57 69 44 70 45 71 50 72 46 73 47 74 49 75 51 76 48 77
REMARK SMILES IDX 70 78 71 79 76 80 72 81 73 82 75 83 77 84 74 85 58 86 59 87
REMARK SMILES IDX 64 88 60 89 61 90 63 91 65 92 62 93
REMARK H PARENT 25 7 18 19 32 36 82 55 56 66
REMARK Flexibility Score: inf
ROOT
ATOM      1  C   UNL A   1      38.510  22.313  26.018  1.00  0.00     0.002 C 
ENDROOT
BRANCH   1   2
ATOM      2  C   UNL A   1      37.841  23.680  26.197  1.00  0.00     0.021 C 
BRANCH   2   3
ATOM      3  C   UNL A   1      36.755  23.937  25.175  1.00  0.00     0.116 C 
BRANCH   3   4
ATOM      4  N   UNL A   1      35.411  24.105  25.674  1.00  0.00    -0.356 N 
ATOM      5  C   UNL A   1      34.730  22.989  26.079  1.00  0.00     0.226 C 
ATOM      6  O   UNL A   1      34.790  22.700  27.280  1.00  0.00    -0.275 OA
ATOM      7  H   UNL A   1      34.996  24.997  25.722  1.00  0.00     0.163 HD
BRANCH   5   8
ATOM      8  C   UNL A   1      33.701  22.279  25.189  1.00  0.00     0.113 C 
ATOM      9  C   UNL A   1      30.412  25.993  25.482  1.00  0.00     0.222 C 
ATOM     10  O   UNL A   1      30.765  26.689  26.438  1.00  0.00    -0.275 OA
ATOM     11  N   UNL A   1      30.691  24.618  25.423  1.00  0.00    -0.343 N 
ATOM     12  C   UNL A   1      31.290  24.092  26.618  1.00  0.00     0.122 C 
ATOM     13  C   UNL A   1      31.100  23.987  24.180  1.00  0.00     0.122 C 
ATOM     14  C   UNL A   1      31.461  22.576  26.659  1.00  0.00     0.051 C 
ATOM     15  C   UNL A   1      31.325  22.483  24.224  1.00  0.00     0.051 C 
ATOM     16  C   UNL A   1      32.179  22.017  25.433  1.00  0.00     0.055 C 
ATOM     17  N   UNL A   1      32.083  20.568  25.449  1.00  0.00    -0.350 N 
ATOM     18  C   UNL A   1      33.201  19.914  25.005  1.00  0.00     0.221 C 
ATOM     19  H   UNL A   1      31.278  20.092  25.756  1.00  0.00     0.164 HD
ATOM     20  C   UNL A   1      34.322  20.892  24.889  1.00  0.00     0.116 C 
ATOM     21  O   UNL A   1      33.252  18.725  24.755  1.00  0.00    -0.275 OA
BRANCH   9  22
ATOM     22  C   UNL A   1      29.600  26.615  24.369  1.00  0.00     0.105 C 
BRANCH  22  23
ATOM     23  C   UNL A   1      30.226  27.863  23.747  1.00  0.00     0.051 C 
BRANCH  23  24
ATOM     24  C   UNL A   1      31.683  27.751  23.447  1.00  0.00     0.018 A 
ATOM     25  C   UNL A   1      31.700  26.159  21.353  1.00  0.00     0.071 C 
ATOM     26  C   UNL A   1      32.316  26.989  22.419  1.00  0.00     0.084 A 
ATOM     27  N   UNL A   1      33.640  27.182  22.416  1.00  0.00    -0.085 NA
ATOM     28  O   UNL A   1      33.896  28.078  23.430  1.00  0.00    -0.361 OA
ATOM     29  C   UNL A   1      32.733  28.430  24.037  1.00  0.00     0.137 A 
ATOM     30  C   UNL A   1      32.844  29.491  25.060  1.00  0.00     0.091 C 
ENDBRANCH  23  24
ENDBRANCH  22  23
ENDBRANCH   9  22
ENDBRANCH   5   8
ENDBRANCH   3   4
ENDBRANCH   2   3
ENDBRANCH   1   2
BRANCH   1  31
ATOM     31  C   UNL A   1      37.963  21.372  24.931  1.00  0.00     0.002 C 
BRANCH  31  32
ATOM     32  C   UNL A   1      38.423  19.914  24.947  1.00  0.00     0.021 C 
BRANCH  32  33
ATOM     33  C   UNL A   1      39.236  19.472  26.160  1.00  0.00     0.116 C 
BRANCH  33  34
ATOM     34  N   UNL A   1      40.552  18.963  25.809  1.00  0.00    -0.352 N 
ATOM     35  C   UNL A   1      41.787  19.558  25.853  1.00  0.00     0.251 C 
ATOM     36  H   UNL A   1      40.557  18.035  25.483  1.00  0.00     0.163 HD
ATOM     37  O   UNL A   1      42.761  18.973  25.389  1.00  0.00    -0.269 OA
BRANCH  35  38
ATOM     38  C   UNL A   1      41.952  20.908  26.428  1.00  0.00     0.039 A 
ATOM     39  C   UNL A   1      41.846  21.059  27.815  1.00  0.00     0.014 A 
ATOM     40  C   UNL A   1      42.188  22.020  25.616  1.00  0.00     0.014 A 
ATOM     41  C   UNL A   1      42.056  22.311  28.395  1.00  0.00     0.010 A 
ATOM     42  C   UNL A   1      42.456  23.256  26.200  1.00  0.00     0.010 A 
ATOM     43  C   UNL A   1      42.407  23.410  27.595  1.00  0.00    -0.014 A 
BRANCH  43  44
ATOM     44  C   UNL A   1      42.765  24.718  28.196  1.00  0.00     0.031 A 
ATOM     45  C   UNL A   1      41.713  25.768  28.412  1.00  0.00     0.074 A 
ATOM     46  C   UNL A   1      44.058  24.988  28.461  1.00  0.00     0.049 A 
ATOM     47  N   UNL A   1      41.853  27.008  28.804  1.00  0.00    -0.248 NA
ATOM     48  C   UNL A   1      40.325  25.379  28.124  1.00  0.00     0.031 C 
ATOM     49  C   UNL A   1      45.174  24.061  28.262  1.00  0.00     0.029 A 
ATOM     50  N   UNL A   1      44.656  26.130  28.934  1.00  0.00    -0.354 N 
ATOM     51  C   UNL A   1      40.576  27.553  28.797  1.00  0.00     0.074 A 
ATOM     52  C   UNL A   1      39.679  26.520  28.322  1.00  0.00     0.031 C 
ATOM     53  C   UNL A   1      46.318  24.667  28.616  1.00  0.00     0.029 A 
ATOM     54  C   UNL A   1      46.024  26.038  29.021  1.00  0.00     0.049 A 
ATOM     55  H   UNL A   1      44.152  26.938  29.186  1.00  0.00     0.167 HD
ATOM     56  C   UNL A   1      40.185  28.795  29.167  1.00  0.00     0.037 A 
ATOM     57  C   UNL A   1      46.941  26.961  29.367  1.00  0.00     0.037 A 
ATOM     58  C   UNL A   1      41.081  29.811  29.657  1.00  0.00     0.049 A 
ATOM     59  C   UNL A   1      46.486  28.343  29.743  1.00  0.00     0.074 A 
ATOM     60  C   UNL A   1      40.774  31.078  30.122  1.00  0.00     0.029 A 
ATOM     61  N   UNL A   1      42.459  29.678  29.737  1.00  0.00    -0.354 N 
ATOM     62  N   UNL A   1      45.268  28.825  29.794  1.00  0.00    -0.248 NA
ATOM     63  C   UNL A   1      47.530  29.311  30.105  1.00  0.00     0.031 C 
ATOM     64  C   UNL A   1      41.972  31.730  30.434  1.00  0.00     0.029 A 
ATOM     65  C   UNL A   1      43.020  30.853  30.212  1.00  0.00     0.049 A 
ATOM     66  H   UNL A   1      42.964  28.869  29.494  1.00  0.00     0.167 HD
ATOM     67  C   UNL A   1      45.396  30.143  30.212  1.00  0.00     0.074 A 
ATOM     68  C   UNL A   1      46.810  30.380  30.417  1.00  0.00     0.031 C 
ATOM     69  C   UNL A   1      44.431  31.073  30.409  1.00  0.00     0.037 A 
BRANCH  56  70
ATOM     70  C   UNL A   1      38.727  29.130  29.053  1.00  0.00     0.057 A 
ATOM     71  C   UNL A   1      37.867  29.075  30.157  1.00  0.00     0.134 A 
ATOM     72  C   UNL A   1      38.185  29.554  27.833  1.00  0.00     0.134 A 
ATOM     73  F   UNL A   1      38.319  28.667  31.352  1.00  0.00    -0.206 F 
ATOM     74  C   UNL A   1      36.515  29.406  30.047  1.00  0.00     0.040 A 
ATOM     75  C   UNL A   1      36.841  29.915  27.716  1.00  0.00     0.040 A 
ATOM     76  F   UNL A   1      38.954  29.638  26.737  1.00  0.00    -0.206 F 
ATOM     77  C   UNL A   1      36.000  29.835  28.824  1.00  0.00     0.006 A 
ENDBRANCH  56  70
BRANCH  57  78
ATOM     78  C   UNL A   1      48.384  26.610  29.368  1.00  0.00     0.057 A 
ATOM     79  C   UNL A   1      48.980  26.011  30.484  1.00  0.00     0.134 A 
ATOM     80  C   UNL A   1      49.202  26.867  28.261  1.00  0.00     0.134 A 
ATOM     81  F   UNL A   1      48.252  25.758  31.583  1.00  0.00    -0.206 F 
ATOM     82  C   UNL A   1      50.339  25.695  30.506  1.00  0.00     0.040 A 
ATOM     83  C   UNL A   1      50.557  26.532  28.260  1.00  0.00     0.040 A 
ATOM     84  F   UNL A   1      48.692  27.434  27.158  1.00  0.00    -0.206 F 
ATOM     85  C   UNL A   1      51.131  25.951  29.389  1.00  0.00     0.006 A 
ENDBRANCH  57  78
BRANCH  69  86
ATOM     86  C   UNL A   1      44.866  32.427  30.883  1.00  0.00     0.057 A 
ATOM     87  C   UNL A   1      45.020  32.717  32.245  1.00  0.00     0.134 A 
ATOM     88  C   UNL A   1      45.187  33.437  29.966  1.00  0.00     0.134 A 
ATOM     89  F   UNL A   1      44.716  31.797  33.173  1.00  0.00    -0.206 F 
ATOM     90  C   UNL A   1      45.464  33.967  32.679  1.00  0.00     0.040 A 
ATOM     91  C   UNL A   1      45.656  34.682  30.386  1.00  0.00     0.040 A 
ATOM     92  F   UNL A   1      45.068  33.222  28.647  1.00  0.00    -0.206 F 
ATOM     93  C   UNL A   1      45.792  34.950  31.747  1.00  0.00     0.006 A 
ENDBRANCH  69  86
ENDBRANCH  43  44
ENDBRANCH  35  38
ENDBRANCH  33  34
ENDBRANCH  32  33
ENDBRANCH  31  32
ENDBRANCH   1  31
TORSDOF 16
ENDMDL
MODEL 2
REMARK VINA RESULT:     -11.7      1.835      2.498
REMARK SMILES Cc1noc(C)c1CCC(=O)N1CCC2(CC1)NC(=O)C[C@@H]2C(=O)NCCCCCCNC(=O)c1ccc(-c2c3nc(c(-c4c(F)cccc4F)c4ccc([nH]4)c(-c4c(F)cccc4F)c4nc(c(-c5c(F)cccc5F)c5ccc2[nH]5)C=C4)C=C3)cc1
REMARK SMILES IDX 28 1 27 2 26 3 25 4 23 5 24 6 22 8 10 9 11 10 12 11 13 12
REMARK SMILES IDX 17 13 14 14 16 15 15 16 18 17 19 18 21 20 20 21 9 22 8 23
REMARK SMILES IDX 7 24 1 25 2 26 3 27 4 28 5 29 6 30 29 31 30 32 31 33 32 34
REMARK SMILES IDX 33 35 34 37 35 38 36 39 88 40 37 41 87 42 38 43 39 44 40 45
REMARK SMILES IDX 81 46 41 47 86 48 80 49 82 50 42 51 85 52 79 53 78 54 43 56
REMARK SMILES IDX 69 57 52 58 68 59 53 60 56 61 67 62 83 63 54 64 55 65 66 67
REMARK SMILES IDX 84 68 57 69 44 70 45 71 50 72 46 73 47 74 49 75 51 76 48 77
REMARK SMILES IDX 70 78 71 79 76 80 72 81 73 82 75 83 77 84 74 85 58 86 59 87
REMARK SMILES IDX 64 88 60 89 61 90 63 91 65 92 62 93
REMARK H PARENT 25 7 18 19 32 36 82 55 56 66
REMARK Flexibility Score: inf
ROOT
ATOM      1  C   UNL A   1      36.008  21.746  25.582  1.00  0.00     0.002 C 
ENDROOT
BRANCH   1   2
ATOM      2  C   UNL A   1      36.790  22.964  25.080  1.00  0.00     0.021 C 
BRANCH   2   3
ATOM      3  C   UNL A   1      36.190  23.569  23.829  1.00  0.00     0.116 C 
BRANCH   3   4
ATOM      4  N   UNL A   1      35.226  22.770  23.111  1.00  0.00    -0.356 N 
ATOM      5  C   UNL A   1      34.014  23.334  22.815  1.00  0.00     0.226 C 
ATOM      6  O   UNL A   1      33.903  23.875  21.708  1.00  0.00    -0.275 OA
ATOM      7  H   UNL A   1      35.434  21.845  22.842  1.00  0.00     0.163 HD
BRANCH   5   8
ATOM      8  C   UNL A   1      32.755  23.076  23.654  1.00  0.00     0.113 C 
ATOM      9  C   UNL A   1      32.216  27.859  24.894  1.00  0.00     0.222 C 
ATOM     10  O   UNL A   1      33.297  28.402  24.645  1.00  0.00    -0.275 OA
ATOM     11  N   UNL A   1      32.130  26.498  25.231  1.00  0.00    -0.343 N 
ATOM     12  C   UNL A   1      33.405  25.853  25.388  1.00  0.00     0.122 C 
ATOM     13  C   UNL A   1      31.058  25.663  24.717  1.00  0.00     0.122 C 
ATOM     14  C   UNL A   1      33.359  24.420  25.911  1.00  0.00     0.051 C 
ATOM     15  C   UNL A   1      31.037  24.218  25.191  1.00  0.00     0.051 C 
ATOM     16  C   UNL A   1      32.419  23.518  25.116  1.00  0.00     0.055 C 
ATOM     17  N   UNL A   1      32.264  22.258  25.822  1.00  0.00    -0.350 N 
ATOM     18  C   UNL A   1      32.184  21.154  25.017  1.00  0.00     0.221 C 
ATOM     19  H   UNL A   1      32.220  22.202  26.804  1.00  0.00     0.164 HD
ATOM     20  C   UNL A   1      32.564  21.540  23.626  1.00  0.00     0.116 C 
ATOM     21  O   UNL A   1      31.857  20.046  25.394  1.00  0.00    -0.275 OA
BRANCH   9  22
ATOM     22  C   UNL A   1      30.952  28.688  24.902  1.00  0.00     0.105 C 
BRANCH  22  23
ATOM     23  C   UNL A   1      30.525  29.208  23.530  1.00  0.00     0.051 C 
BRANCH  23  24
ATOM     24  C   UNL A   1      29.059  29.437  23.375  1.00  0.00     0.018 A 
ATOM     25  C   UNL A   1      28.087  27.004  23.611  1.00  0.00     0.071 C 
ATOM     26  C   UNL A   1      28.009  28.470  23.387  1.00  0.00     0.084 A 
ATOM     27  N   UNL A   1      26.810  29.053  23.280  1.00  0.00    -0.085 NA
ATOM     28  O   UNL A   1      27.050  30.408  23.207  1.00  0.00    -0.361 OA
ATOM     29  C   UNL A   1      28.386  30.641  23.278  1.00  0.00     0.137 A 
ATOM     30  C   UNL A   1      28.782  32.064  23.345  1.00  0.00     0.091 C 
ENDBRANCH  23  24
ENDBRANCH  22  23
ENDBRANCH   9  22
ENDBRANCH   5   8
ENDBRANCH   3   4
ENDBRANCH   2   3
ENDBRANCH   1   2
BRANCH   1  31
ATOM     31  C   UNL A   1      36.385  20.362  25.028  1.00  0.00     0.002 C 
BRANCH  31  32
ATOM     32  C   UNL A   1      37.853  20.101  24.688  1.00  0.00     0.021 C 
BRANCH  32  33
ATOM     33  C   UNL A   1      38.856  20.294  25.821  1.00  0.00     0.116 C 
BRANCH  33  34
ATOM     34  N   UNL A   1      39.878  19.259  25.860  1.00  0.00    -0.352 N 
ATOM     35  C   UNL A   1      41.221  19.332  26.124  1.00  0.00     0.251 C 
ATOM     36  H   UNL A   1      39.549  18.354  25.662  1.00  0.00     0.163 HD
ATOM     37  O   UNL A   1      41.924  18.337  25.981  1.00  0.00    -0.269 OA
BRANCH  35  38
ATOM     38  C   UNL A   1      41.837  20.605  26.550  1.00  0.00     0.039 A 
ATOM     39  C   UNL A   1      42.183  21.540  25.568  1.00  0.00     0.014 A 
ATOM     40  C   UNL A   1      42.094  20.874  27.896  1.00  0.00     0.014 A 
ATOM     41  C   UNL A   1      42.712  22.776  25.941  1.00  0.00     0.010 A 
ATOM     42  C   UNL A   1      42.565  22.130  28.272  1.00  0.00     0.010 A 
ATOM     43  C   UNL A   1      42.865  23.097  27.299  1.00  0.00    -0.014 A 
BRANCH  43  44
ATOM     44  C   UNL A   1      43.298  24.449  27.728  1.00  0.00     0.031 A 
ATOM     45  C   UNL A   1      42.281  25.492  28.092  1.00  0.00     0.074 A 
ATOM     46  C   UNL A   1      44.609  24.761  27.700  1.00  0.00     0.049 A 
ATOM     47  N   UNL A   1      42.459  26.759  28.367  1.00  0.00    -0.248 NA
ATOM     48  C   UNL A   1      40.876  25.059  28.126  1.00  0.00     0.031 C 
ATOM     49  C   UNL A   1      45.688  23.843  27.330  1.00  0.00     0.029 A 
ATOM     50  N   UNL A   1      45.255  25.943  27.965  1.00  0.00    -0.354 N 
ATOM     51  C   UNL A   1      41.191  27.278  28.593  1.00  0.00     0.074 A 
ATOM     52  C   UNL A   1      40.249  26.199  28.382  1.00  0.00     0.031 C 
ATOM     53  C   UNL A   1      46.860  24.492  27.399  1.00  0.00     0.029 A 
ATOM     54  C   UNL A   1      46.613  25.882  27.770  1.00  0.00     0.049 A 
ATOM     55  H   UNL A   1      44.788  26.756  28.264  1.00  0.00     0.167 HD
ATOM     56  C   UNL A   1      40.846  28.536  28.957  1.00  0.00     0.037 A 
ATOM     57  C   UNL A   1      47.552  26.843  27.857  1.00  0.00     0.037 A 
ATOM     58  C   UNL A   1      41.790  29.599  29.184  1.00  0.00     0.049 A 
ATOM     59  C   UNL A   1      47.140  28.239  28.231  1.00  0.00     0.074 A 
ATOM     60  C   UNL A   1      41.547  30.889  29.622  1.00  0.00     0.029 A 
ATOM     61  N   UNL A   1      43.159  29.497  28.983  1.00  0.00    -0.354 N 
ATOM     62  N   UNL A   1      45.944  28.701  28.506  1.00  0.00    -0.248 NA
ATOM     63  C   UNL A   1      48.206  29.248  28.305  1.00  0.00     0.031 C 
ATOM     64  C   UNL A   1      42.761  31.583  29.636  1.00  0.00     0.029 A 
ATOM     65  C   UNL A   1      43.769  30.711  29.255  1.00  0.00     0.049 A 
ATOM     66  H   UNL A   1      43.628  28.682  28.691  1.00  0.00     0.167 HD
ATOM     67  C   UNL A   1      46.115  30.047  28.804  1.00  0.00     0.074 A 
ATOM     68  C   UNL A   1      47.532  30.323  28.693  1.00  0.00     0.031 C 
ATOM     69  C   UNL A   1      45.182  30.970  29.138  1.00  0.00     0.037 A 
BRANCH  56  70
ATOM     70  C   UNL A   1      39.385  28.835  29.130  1.00  0.00     0.057 A 
ATOM     71  C   UNL A   1      38.745  28.706  30.368  1.00  0.00     0.134 A 
ATOM     72  C   UNL A   1      38.620  29.300  28.052  1.00  0.00     0.134 A 
ATOM     73  F   UNL A   1      39.418  28.256  31.438  1.00  0.00    -0.206 F 
ATOM     74  C   UNL A   1      37.390  29.005  30.525  1.00  0.00     0.040 A 
ATOM     75  C   UNL A   1      37.271  29.628  28.202  1.00  0.00     0.040 A 
ATOM     76  F   UNL A   1      39.172  29.454  26.840  1.00  0.00    -0.206 F 
ATOM     77  C   UNL A   1      36.651  29.475  29.440  1.00  0.00     0.006 A 
ENDBRANCH  56  70
BRANCH  57  78
ATOM     78  C   UNL A   1      48.974  26.520  27.579  1.00  0.00     0.057 A 
ATOM     79  C   UNL A   1      49.853  26.182  28.614  1.00  0.00     0.134 A 
ATOM     80  C   UNL A   1      49.491  26.542  26.278  1.00  0.00     0.134 A 
ATOM     81  F   UNL A   1      49.422  26.163  29.885  1.00  0.00    -0.206 F 
ATOM     82  C   UNL A   1      51.197  25.896  28.370  1.00  0.00     0.040 A 
ATOM     83  C   UNL A   1      50.826  26.233  26.015  1.00  0.00     0.040 A 
ATOM     84  F   UNL A   1      48.700  26.852  25.240  1.00  0.00    -0.206 F 
ATOM     85  C   UNL A   1      51.686  25.916  27.065  1.00  0.00     0.006 A 
ENDBRANCH  57  78
BRANCH  69  86
ATOM     86  C   UNL A   1      45.662  32.361  29.425  1.00  0.00     0.057 A 
ATOM     87  C   UNL A   1      45.708  33.344  28.428  1.00  0.00     0.134 A 
ATOM     88  C   UNL A   1      46.032  32.737  30.723  1.00  0.00     0.134 A 
ATOM     89  F   UNL A   1      45.380  33.045  27.162  1.00  0.00    -0.206 F 
ATOM     90  C   UNL A   1      46.118  34.648  28.709  1.00  0.00     0.040 A 
ATOM     91  C   UNL A   1      46.420  34.043  31.022  1.00  0.00     0.040 A 
ATOM     92  F   UNL A   1      46.005  31.844  31.724  1.00  0.00    -0.206 F 
ATOM     93  C   UNL A   1      46.466  35.003  30.012  1.00  0.00     0.006 A 
ENDBRANCH  69  86
ENDBRANCH  43  44
ENDBRANCH  35  38
ENDBRANCH  33  34
ENDBRANCH  32  33
ENDBRANCH  31  32
ENDBRANCH   1  31
TORSDOF 16
ENDMDL
MODEL 3
REMARK VINA RESULT:     -11.6      1.578      6.273
REMARK SMILES Cc1noc(C)c1CCC(=O)N1CCC2(CC1)NC(=O)C[C@@H]2C(=O)NCCCCCCNC(=O)c1ccc(-c2c3nc(c(-c4c(F)cccc4F)c4ccc([nH]4)c(-c4c(F)cccc4F)c4nc(c(-c5c(F)cccc5F)c5ccc2[nH]5)C=C4)C=C3)cc1
REMARK SMILES IDX 28 1 27 2 26 3 25 4 23 5 24 6 22 8 10 9 11 10 12 11 13 12
REMARK SMILES IDX 17 13 14 14 16 15 15 16 18 17 19 18 21 20 20 21 9 22 8 23
REMARK SMILES IDX 7 24 1 25 2 26 3 27 4 28 5 29 6 30 29 31 30 32 31 33 32 34
REMARK SMILES IDX 33 35 34 37 35 38 36 39 88 40 37 41 87 42 38 43 39 44 40 45
REMARK SMILES IDX 81 46 41 47 86 48 80 49 82 50 42 51 85 52 79 53 78 54 43 56
REMARK SMILES IDX 69 57 52 58 68 59 53 60 56 61 67 62 83 63 54 64 55 65 66 67
REMARK SMILES IDX 84 68 57 69 44 70 45 71 50 72 46 73 47 74 49 75 51 76 48 77
REMARK SMILES IDX 70 78 71 79 76 80 72 81 73 82 75 83 77 84 74 85 58 86 59 87
REMARK SMILES IDX 64 88 60 89 61 90 63 91 65 92 62 93
REMARK H PARENT 25 7 18 19 32 36 82 55 56 66
REMARK Flexibility Score: inf
ROOT
ATOM      1  C   UNL A   1      36.986  22.237  23.908  1.00  0.00     0.002 C 
ENDROOT
BRANCH   1   2
ATOM      2  C   UNL A   1      36.925  23.580  24.642  1.00  0.00     0.021 C 
BRANCH   2   3
ATOM      3  C   UNL A   1      36.062  23.527  25.885  1.00  0.00     0.116 C 
BRANCH   3   4
ATOM      4  N   UNL A   1      34.809  24.244  25.845  1.00  0.00    -0.356 N 
ATOM      5  C   UNL A   1      33.685  23.555  25.475  1.00  0.00     0.226 C 
ATOM      6  O   UNL A   1      33.002  23.068  26.384  1.00  0.00    -0.275 OA
ATOM      7  H   UNL A   1      34.765  25.199  26.076  1.00  0.00     0.163 HD
BRANCH   5   8
ATOM      8  C   UNL A   1      33.110  23.612  24.054  1.00  0.00     0.113 C 
ATOM      9  C   UNL A   1      31.337  28.221  24.614  1.00  0.00     0.222 C 
ATOM     10  O   UNL A   1      31.327  28.440  25.830  1.00  0.00    -0.275 OA
ATOM     11  N   UNL A   1      31.207  26.923  24.093  1.00  0.00    -0.343 N 
ATOM     12  C   UNL A   1      30.931  25.921  25.084  1.00  0.00     0.122 C 
ATOM     13  C   UNL A   1      32.000  26.487  22.957  1.00  0.00     0.122 C 
ATOM     14  C   UNL A   1      30.622  24.527  24.545  1.00  0.00     0.051 C 
ATOM     15  C   UNL A   1      31.738  25.079  22.446  1.00  0.00     0.051 C 
ATOM     16  C   UNL A   1      31.677  24.011  23.570  1.00  0.00     0.055 C 
ATOM     17  N   UNL A   1      31.184  22.799  22.938  1.00  0.00    -0.350 N 
ATOM     18  C   UNL A   1      32.134  21.839  22.719  1.00  0.00     0.221 C 
ATOM     19  H   UNL A   1      30.240  22.678  22.687  1.00  0.00     0.164 HD
ATOM     20  C   UNL A   1      33.377  22.208  23.458  1.00  0.00     0.116 C 
ATOM     21  O   UNL A   1      31.970  20.848  22.033  1.00  0.00    -0.275 OA
BRANCH   9  22
ATOM     22  C   UNL A   1      31.426  29.383  23.651  1.00  0.00     0.105 C 
BRANCH  22  23
ATOM     23  C   UNL A   1      30.457  29.307  22.474  1.00  0.00     0.051 C 
BRANCH  23  24
ATOM     24  C   UNL A   1      29.052  29.697  22.792  1.00  0.00     0.018 A 
ATOM     25  C   UNL A   1      27.962  27.390  23.427  1.00  0.00     0.071 C 
ATOM     26  C   UNL A   1      27.969  28.854  23.182  1.00  0.00     0.084 A 
ATOM     27  N   UNL A   1      26.868  29.567  23.445  1.00  0.00    -0.085 NA
ATOM     28  O   UNL A   1      27.211  30.886  23.244  1.00  0.00    -0.361 OA
ATOM     29  C   UNL A   1      28.513  30.969  22.869  1.00  0.00     0.137 A 
ATOM     30  C   UNL A   1      29.055  32.339  22.747  1.00  0.00     0.091 C 
ENDBRANCH  23  24
ENDBRANCH  22  23
ENDBRANCH   9  22
ENDBRANCH   5   8
ENDBRANCH   3   4
ENDBRANCH   2   3
ENDBRANCH   1   2
BRANCH   1  31
ATOM     31  C   UNL A   1      36.690  20.956  24.707  1.00  0.00     0.002 C 
BRANCH  31  32
ATOM     32  C   UNL A   1      37.816  19.935  24.868  1.00  0.00     0.021 C 
BRANCH  32  33
ATOM     33  C   UNL A   1      38.899  20.273  25.888  1.00  0.00     0.116 C 
BRANCH  33  34
ATOM     34  N   UNL A   1      40.040  19.373  25.827  1.00  0.00    -0.352 N 
ATOM     35  C   UNL A   1      41.371  19.592  26.068  1.00  0.00     0.251 C 
ATOM     36  H   UNL A   1      39.818  18.450  25.569  1.00  0.00     0.163 HD
ATOM     37  O   UNL A   1      42.186  18.703  25.837  1.00  0.00    -0.269 OA
BRANCH  35  38
ATOM     38  C   UNL A   1      41.840  20.896  26.577  1.00  0.00     0.039 A 
ATOM     39  C   UNL A   1      42.314  21.839  25.657  1.00  0.00     0.014 A 
ATOM     40  C   UNL A   1      41.836  21.189  27.942  1.00  0.00     0.014 A 
ATOM     41  C   UNL A   1      42.709  23.103  26.098  1.00  0.00     0.010 A 
ATOM     42  C   UNL A   1      42.173  22.469  28.375  1.00  0.00     0.010 A 
ATOM     43  C   UNL A   1      42.599  23.442  27.456  1.00  0.00    -0.014 A 
BRANCH  43  44
ATOM     44  C   UNL A   1      42.884  24.817  27.932  1.00  0.00     0.031 A 
ATOM     45  C   UNL A   1      44.272  25.201  28.359  1.00  0.00     0.074 A 
ATOM     46  C   UNL A   1      41.868  25.693  28.064  1.00  0.00     0.049 A 
ATOM     47  N   UNL A   1      44.689  26.308  28.918  1.00  0.00    -0.248 NA
ATOM     48  C   UNL A   1      45.326  24.196  28.152  1.00  0.00     0.031 C 
ATOM     49  C   UNL A   1      40.472  25.425  27.716  1.00  0.00     0.029 A 
ATOM     50  N   UNL A   1      41.849  26.977  28.550  1.00  0.00    -0.354 N 
ATOM     51  C   UNL A   1      46.046  26.130  29.144  1.00  0.00     0.074 A 
ATOM     52  C   UNL A   1      46.377  24.792  28.700  1.00  0.00     0.031 C 
ATOM     53  C   UNL A   1      39.734  26.512  27.991  1.00  0.00     0.029 A 
ATOM     54  C   UNL A   1      40.594  27.534  28.579  1.00  0.00     0.049 A 
ATOM     55  H   UNL A   1      42.657  27.451  28.850  1.00  0.00     0.167 HD
ATOM     56  C   UNL A   1      46.939  27.007  29.661  1.00  0.00     0.037 A 
ATOM     57  C   UNL A   1      40.178  28.726  29.047  1.00  0.00     0.037 A 
ATOM     58  C   UNL A   1      46.607  28.343  30.083  1.00  0.00     0.049 A 
ATOM     59  C   UNL A   1      41.182  29.670  29.646  1.00  0.00     0.074 A 
ATOM     60  C   UNL A   1      47.451  29.332  30.557  1.00  0.00     0.029 A 
ATOM     61  N   UNL A   1      45.325  28.874  30.091  1.00  0.00    -0.354 N 
ATOM     62  N   UNL A   1      42.476  29.513  29.794  1.00  0.00    -0.248 NA
ATOM     63  C   UNL A   1      40.671  30.953  30.147  1.00  0.00     0.031 C 
ATOM     64  C   UNL A   1      46.674  30.443  30.900  1.00  0.00     0.029 A 
ATOM     65  C   UNL A   1      45.352  30.165  30.593  1.00  0.00     0.049 A 
ATOM     66  H   UNL A   1      44.517  28.404  29.784  1.00  0.00     0.167 HD
ATOM     67  C   UNL A   1      42.936  30.683  30.385  1.00  0.00     0.074 A 
ATOM     68  C   UNL A   1      41.785  31.546  30.553  1.00  0.00     0.031 C 
ATOM     69  C   UNL A   1      44.196  31.011  30.755  1.00  0.00     0.037 A 
BRANCH  56  70
ATOM     70  C   UNL A   1      48.362  26.551  29.805  1.00  0.00     0.057 A 
ATOM     71  C   UNL A   1      48.830  25.945  30.977  1.00  0.00     0.134 A 
ATOM     72  C   UNL A   1      49.263  26.679  28.740  1.00  0.00     0.134 A 
ATOM     73  F   UNL A   1      48.021  25.801  32.038  1.00  0.00    -0.206 F 
ATOM     74  C   UNL A   1      50.150  25.506  31.096  1.00  0.00     0.040 A 
ATOM     75  C   UNL A   1      50.578  26.219  28.837  1.00  0.00     0.040 A 
ATOM     76  F   UNL A   1      48.879  27.242  27.585  1.00  0.00    -0.206 F 
ATOM     77  C   UNL A   1      51.026  25.636  30.020  1.00  0.00     0.006 A 
ENDBRANCH  56  70
BRANCH  57  78
ATOM     78  C   UNL A   1      38.741  29.092  28.974  1.00  0.00     0.057 A 
ATOM     79  C   UNL A   1      38.177  29.565  27.784  1.00  0.00     0.134 A 
ATOM     80  C   UNL A   1      37.898  28.983  30.087  1.00  0.00     0.134 A 
ATOM     81  F   UNL A   1      38.938  29.710  26.688  1.00  0.00    -0.206 F 
ATOM     82  C   UNL A   1      36.832  29.933  27.706  1.00  0.00     0.040 A 
ATOM     83  C   UNL A   1      36.546  29.322  30.017  1.00  0.00     0.040 A 
ATOM     84  F   UNL A   1      38.375  28.531  31.256  1.00  0.00    -0.206 F 
ATOM     85  C   UNL A   1      36.012  29.807  28.825  1.00  0.00     0.006 A 
ENDBRANCH  57  78
BRANCH  69  86
ATOM     86  C   UNL A   1      44.404  32.366  31.364  1.00  0.00     0.057 A 
ATOM     87  C   UNL A   1      44.400  32.559  32.751  1.00  0.00     0.134 A 
ATOM     88  C   UNL A   1      44.663  33.481  30.556  1.00  0.00     0.134 A 
ATOM     89  F   UNL A   1      44.144  31.534  33.579  1.00  0.00    -0.206 F 
ATOM     90  C   UNL A   1      44.634  33.815  33.313  1.00  0.00     0.040 A 
ATOM     91  C   UNL A   1      44.923  34.736  31.106  1.00  0.00     0.040 A 
ATOM     92  F   UNL A   1      44.687  33.363  29.220  1.00  0.00    -0.206 F 
ATOM     93  C   UNL A   1      44.906  34.906  32.490  1.00  0.00     0.006 A 
ENDBRANCH  69  86
ENDBRANCH  43  44
ENDBRANCH  35  38
ENDBRANCH  33  34
ENDBRANCH  32  33
ENDBRANCH  31  32
ENDBRANCH   1  31
TORSDOF 16
ENDMDL
