MODEL 1
REMARK VINA RESULT:     -11.4      0.000      0.000
REMARK SMILES O=C(Cn1nc(-c2ccco2)ccc1=O)NCCCCCCNC(=O)c1ccc(-c2c3nc(c(-c4c(F)cccc4F)c4ccc([nH]4)c(-c4c(F)cccc4F)c4nc(c(-c5c(F)cccc5F)c5ccc2[nH]5)C=C4)C=C3)cc1
REMARK SMILES IDX 19 1 18 2 17 3 16 4 1 5 2 6 3 8 4 9 5 10 14 11 6 12 13 13
REMARK SMILES IDX 15 14 12 15 7 16 8 17 11 18 9 19 10 20 20 21 21 22 22 23
REMARK SMILES IDX 23 24 24 25 25 27 26 28 27 29 79 30 28 31 78 32 29 33 30 34
REMARK SMILES IDX 31 35 72 36 32 37 77 38 71 39 73 40 33 41 76 42 70 43 69 44
REMARK SMILES IDX 34 46 60 47 43 48 59 49 44 50 47 51 58 52 74 53 45 54 46 55
REMARK SMILES IDX 57 57 75 58 48 59 35 60 36 61 41 62 37 63 38 64 40 65 42 66
REMARK SMILES IDX 39 67 61 68 62 69 67 70 63 71 64 72 66 73 68 74 65 75 49 76
REMARK SMILES IDX 50 77 55 78 51 79 52 80 54 81 56 82 53 83
REMARK H PARENT 16 7 23 26 73 45 47 56
REMARK Flexibility Score: inf
ROOT
ATOM      1  C   UNL A   1      36.805  22.173  24.185  1.00  0.00     0.002 C 
ENDROOT
BRANCH   1   2
ATOM      2  C   UNL A   1      37.022  23.501  24.923  1.00  0.00     0.021 C 
BRANCH   2   3
ATOM      3  C   UNL A   1      36.166  23.686  26.175  1.00  0.00     0.116 C 
BRANCH   3   4
ATOM      4  N   UNL A   1      34.754  23.643  25.869  1.00  0.00    -0.354 N 
ATOM      5  O   UNL A   1      34.145  22.442  27.719  1.00  0.00    -0.273 OA
ATOM      6  C   UNL A   1      33.826  23.051  26.698  1.00  0.00     0.241 C 
ATOM      7  H   UNL A   1      34.442  24.056  25.032  1.00  0.00     0.163 HD
BRANCH   6   8
ATOM      8  C   UNL A   1      32.402  23.005  26.151  1.00  0.00     0.248 C 
BRANCH   8   9
ATOM      9  N   UNL A   1      32.236  22.126  24.994  1.00  0.00    -0.220 N 
ATOM     10  N   UNL A   1      32.496  20.787  25.209  1.00  0.00    -0.166 NA
ATOM     11  C   UNL A   1      31.866  22.647  23.766  1.00  0.00     0.267 A 
ATOM     12  C   UNL A   1      32.529  20.000  24.178  1.00  0.00     0.126 A 
ATOM     13  C   UNL A   1      31.957  21.728  22.613  1.00  0.00     0.076 A 
ATOM     14  O   UNL A   1      31.466  23.796  23.594  1.00  0.00    -0.268 OA
ATOM     15  C   UNL A   1      32.306  20.451  22.788  1.00  0.00     0.040 A 
BRANCH  12  16
ATOM     16  C   UNL A   1      32.784  18.597  24.393  1.00  0.00     0.154 A 
ATOM     17  C   UNL A   1      33.572  17.697  23.703  1.00  0.00     0.052 A 
ATOM     18  O   UNL A   1      32.155  17.956  25.427  1.00  0.00    -0.463 OA
ATOM     19  C   UNL A   1      33.412  16.444  24.340  1.00  0.00     0.043 A 
ATOM     20  C   UNL A   1      32.517  16.649  25.364  1.00  0.00     0.196 A 
ENDBRANCH  12  16
ENDBRANCH   8   9
ENDBRANCH   6   8
ENDBRANCH   3   4
ENDBRANCH   2   3
ENDBRANCH   1   2
BRANCH   1  21
ATOM     21  C   UNL A   1      36.707  20.927  25.073  1.00  0.00     0.002 C 
BRANCH  21  22
ATOM     22  C   UNL A   1      37.837  19.911  24.911  1.00  0.00     0.021 C 
BRANCH  22  23
ATOM     23  C   UNL A   1      39.087  20.193  25.737  1.00  0.00     0.116 C 
BRANCH  23  24
ATOM     24  N   UNL A   1      40.026  19.081  25.754  1.00  0.00    -0.352 N 
ATOM     25  C   UNL A   1      41.381  19.093  25.993  1.00  0.00     0.251 C 
ATOM     26  H   UNL A   1      39.637  18.196  25.571  1.00  0.00     0.163 HD
ATOM     27  O   UNL A   1      42.046  18.072  25.851  1.00  0.00    -0.269 OA
BRANCH  25  28
ATOM     28  C   UNL A   1      42.048  20.359  26.378  1.00  0.00     0.039 A 
ATOM     29  C   UNL A   1      42.154  20.731  27.719  1.00  0.00     0.014 A 
ATOM     30  C   UNL A   1      42.540  21.202  25.377  1.00  0.00     0.014 A 
ATOM     31  C   UNL A   1      42.583  22.013  28.046  1.00  0.00     0.010 A 
ATOM     32  C   UNL A   1      43.049  22.461  25.715  1.00  0.00     0.010 A 
ATOM     33  C   UNL A   1      43.021  22.899  27.048  1.00  0.00    -0.014 A 
BRANCH  33  34
ATOM     34  C   UNL A   1      43.410  24.285  27.423  1.00  0.00     0.031 A 
ATOM     35  C   UNL A   1      44.837  24.750  27.283  1.00  0.00     0.074 A 
ATOM     36  C   UNL A   1      42.461  25.151  27.828  1.00  0.00     0.049 A 
ATOM     37  N   UNL A   1      45.347  25.935  27.516  1.00  0.00    -0.248 NA
ATOM     38  C   UNL A   1      45.820  23.757  26.823  1.00  0.00     0.031 C 
ATOM     39  C   UNL A   1      41.044  24.830  28.000  1.00  0.00     0.029 A 
ATOM     40  N   UNL A   1      42.541  26.485  28.140  1.00  0.00    -0.354 N 
ATOM     41  C   UNL A   1      46.707  25.824  27.250  1.00  0.00     0.074 A 
ATOM     42  C   UNL A   1      46.950  24.449  26.868  1.00  0.00     0.031 C 
ATOM     43  C   UNL A   1      40.378  25.946  28.332  1.00  0.00     0.029 A 
ATOM     44  C   UNL A   1      41.327  27.048  28.450  1.00  0.00     0.049 A 
ATOM     45  H   UNL A   1      43.386  26.990  28.141  1.00  0.00     0.167 HD
ATOM     46  C   UNL A   1      47.665  26.782  27.302  1.00  0.00     0.037 A 
ATOM     47  C   UNL A   1      41.013  28.309  28.799  1.00  0.00     0.037 A 
ATOM     48  C   UNL A   1      47.424  28.156  27.662  1.00  0.00     0.049 A 
ATOM     49  C   UNL A   1      42.101  29.340  28.887  1.00  0.00     0.074 A 
ATOM     50  C   UNL A   1      48.327  29.205  27.720  1.00  0.00     0.029 A 
ATOM     51  N   UNL A   1      46.190  28.673  28.023  1.00  0.00    -0.354 N 
ATOM     52  N   UNL A   1      43.378  29.222  28.616  1.00  0.00    -0.248 NA
ATOM     53  C   UNL A   1      41.702  30.680  29.340  1.00  0.00     0.031 C 
ATOM     54  C   UNL A   1      47.645  30.348  28.153  1.00  0.00     0.029 A 
ATOM     55  C   UNL A   1      46.310  30.021  28.325  1.00  0.00     0.049 A 
ATOM     56  H   UNL A   1      45.351  28.159  28.059  1.00  0.00     0.167 HD
ATOM     57  C   UNL A   1      43.932  30.474  28.850  1.00  0.00     0.074 A 
ATOM     58  C   UNL A   1      42.847  31.341  29.262  1.00  0.00     0.031 C 
ATOM     59  C   UNL A   1      45.223  30.869  28.738  1.00  0.00     0.037 A 
BRANCH  46  60
ATOM     60  C   UNL A   1      49.071  26.370  26.977  1.00  0.00     0.057 A 
ATOM     61  C   UNL A   1      49.944  25.948  27.988  1.00  0.00     0.134 A 
ATOM     62  C   UNL A   1      49.572  26.416  25.669  1.00  0.00     0.134 A 
ATOM     63  F   UNL A   1      49.532  25.887  29.263  1.00  0.00    -0.206 F 
ATOM     64  C   UNL A   1      51.263  25.584  27.710  1.00  0.00     0.040 A 
ATOM     65  C   UNL A   1      50.883  26.032  25.375  1.00  0.00     0.040 A 
ATOM     66  F   UNL A   1      48.785  26.798  24.653  1.00  0.00    -0.206 F 
ATOM     67  C   UNL A   1      51.733  25.620  26.399  1.00  0.00     0.006 A 
ENDBRANCH  46  60
BRANCH  47  68
ATOM     68  C   UNL A   1      39.605  28.669  29.096  1.00  0.00     0.057 A 
ATOM     69  C   UNL A   1      39.077  28.542  30.385  1.00  0.00     0.134 A 
ATOM     70  C   UNL A   1      38.761  29.168  28.097  1.00  0.00     0.134 A 
ATOM     71  F   UNL A   1      39.835  28.068  31.384  1.00  0.00    -0.206 F 
ATOM     72  C   UNL A   1      37.756  28.889  30.670  1.00  0.00     0.040 A 
ATOM     73  C   UNL A   1      37.446  29.543  28.373  1.00  0.00     0.040 A 
ATOM     74  F   UNL A   1      39.218  29.332  26.847  1.00  0.00    -0.206 F 
ATOM     75  C   UNL A   1      36.939  29.399  29.663  1.00  0.00     0.006 A 
ENDBRANCH  47  68
BRANCH  59  76
ATOM     76  C   UNL A   1      45.520  32.307  29.046  1.00  0.00     0.057 A 
ATOM     77  C   UNL A   1      45.829  32.710  30.350  1.00  0.00     0.134 A 
ATOM     78  C   UNL A   1      45.499  33.293  28.050  1.00  0.00     0.134 A 
ATOM     79  F   UNL A   1      45.860  31.816  31.350  1.00  0.00    -0.206 F 
ATOM     80  C   UNL A   1      46.110  34.043  30.654  1.00  0.00     0.040 A 
ATOM     81  C   UNL A   1      45.803  34.624  28.336  1.00  0.00     0.040 A 
ATOM     82  F   UNL A   1      45.227  32.968  26.777  1.00  0.00    -0.206 F 
ATOM     83  C   UNL A   1      46.106  35.003  29.644  1.00  0.00     0.006 A 
ENDBRANCH  59  76
ENDBRANCH  33  34
ENDBRANCH  25  28
ENDBRANCH  23  24
ENDBRANCH  22  23
ENDBRANCH  21  22
ENDBRANCH   1  21
TORSDOF 15
ENDMDL
MODEL 2
REMARK VINA RESULT:     -11.3      5.407     10.314
REMARK SMILES O=C(Cn1nc(-c2ccco2)ccc1=O)NCCCCCCNC(=O)c1ccc(-c2c3nc(c(-c4c(F)cccc4F)c4ccc([nH]4)c(-c4c(F)cccc4F)c4nc(c(-c5c(F)cccc5F)c5ccc2[nH]5)C=C4)C=C3)cc1
REMARK SMILES IDX 19 1 18 2 17 3 16 4 1 5 2 6 3 8 4 9 5 10 14 11 6 12 13 13
REMARK SMILES IDX 15 14 12 15 7 16 8 17 11 18 9 19 10 20 20 21 21 22 22 23
REMARK SMILES IDX 23 24 24 25 25 27 26 28 27 29 79 30 28 31 78 32 29 33 30 34
REMARK SMILES IDX 31 35 72 36 32 37 77 38 71 39 73 40 33 41 76 42 70 43 69 44
REMARK SMILES IDX 34 46 60 47 43 48 59 49 44 50 47 51 58 52 74 53 45 54 46 55
REMARK SMILES IDX 57 57 75 58 48 59 35 60 36 61 41 62 37 63 38 64 40 65 42 66
REMARK SMILES IDX 39 67 61 68 62 69 67 70 63 71 64 72 66 73 68 74 65 75 49 76
REMARK SMILES IDX 50 77 55 78 51 79 52 80 54 81 56 82 53 83
REMARK H PARENT 16 7 23 26 73 45 47 56
REMARK Flexibility Score: inf
ROOT
ATOM      1  C   UNL A   1      33.563  28.790  25.501  1.00  0.00     0.002 C 
ENDROOT
BRANCH   1   2
ATOM      2  C   UNL A   1      33.654  27.313  25.910  1.00  0.00     0.021 C 
BRANCH   2   3
ATOM      3  C   UNL A   1      34.131  26.370  24.806  1.00  0.00     0.116 C 
BRANCH   3   4
ATOM      4  N   UNL A   1      33.092  26.115  23.836  1.00  0.00    -0.354 N 
ATOM      5  O   UNL A   1      34.145  27.138  22.081  1.00  0.00    -0.273 OA
ATOM      6  C   UNL A   1      33.195  26.486  22.513  1.00  0.00     0.241 C 
ATOM      7  H   UNL A   1      32.274  25.654  24.132  1.00  0.00     0.163 HD
BRANCH   6   8
ATOM      8  C   UNL A   1      31.949  26.233  21.668  1.00  0.00     0.248 C 
BRANCH   8   9
ATOM      9  N   UNL A   1      30.700  26.640  22.310  1.00  0.00    -0.220 N 
ATOM     10  N   UNL A   1      30.291  27.936  22.071  1.00  0.00    -0.166 NA
ATOM     11  C   UNL A   1      30.013  25.756  23.126  1.00  0.00     0.267 A 
ATOM     12  C   UNL A   1      29.286  28.393  22.753  1.00  0.00     0.126 A 
ATOM     13  C   UNL A   1      28.902  26.328  23.915  1.00  0.00     0.076 A 
ATOM     14  O   UNL A   1      30.263  24.557  23.213  1.00  0.00    -0.268 OA
ATOM     15  C   UNL A   1      28.555  27.609  23.771  1.00  0.00     0.040 A 
BRANCH  12  16
ATOM     16  C   UNL A   1      28.840  29.741  22.499  1.00  0.00     0.154 A 
ATOM     17  C   UNL A   1      28.336  30.709  23.346  1.00  0.00     0.052 A 
ATOM     18  O   UNL A   1      28.861  30.219  21.217  1.00  0.00    -0.463 OA
ATOM     19  C   UNL A   1      28.027  31.832  22.542  1.00  0.00     0.043 A 
ATOM     20  C   UNL A   1      28.337  31.472  21.251  1.00  0.00     0.196 A 
ENDBRANCH  12  16
ENDBRANCH   8   9
ENDBRANCH   6   8
ENDBRANCH   3   4
ENDBRANCH   2   3
ENDBRANCH   1   2
BRANCH   1  21
ATOM     21  C   UNL A   1      32.277  29.202  24.777  1.00  0.00     0.002 C 
BRANCH  21  22
ATOM     22  C   UNL A   1      31.507  30.361  25.410  1.00  0.00     0.021 C 
BRANCH  22  23
ATOM     23  C   UNL A   1      31.977  30.771  26.800  1.00  0.00     0.116 C 
BRANCH  23  24
ATOM     24  N   UNL A   1      31.956  32.211  27.012  1.00  0.00    -0.352 N 
ATOM     25  C   UNL A   1      32.907  33.016  27.595  1.00  0.00     0.251 C 
ATOM     26  H   UNL A   1      31.149  32.674  26.693  1.00  0.00     0.163 HD
ATOM     27  O   UNL A   1      32.675  34.203  27.801  1.00  0.00    -0.269 OA
BRANCH  25  28
ATOM     28  C   UNL A   1      34.203  32.435  28.019  1.00  0.00     0.039 A 
ATOM     29  C   UNL A   1      34.302  31.087  28.366  1.00  0.00     0.014 A 
ATOM     30  C   UNL A   1      35.326  33.263  28.104  1.00  0.00     0.014 A 
ATOM     31  C   UNL A   1      35.464  30.614  28.966  1.00  0.00     0.010 A 
ATOM     32  C   UNL A   1      36.521  32.763  28.631  1.00  0.00     0.010 A 
ATOM     33  C   UNL A   1      36.583  31.449  29.120  1.00  0.00    -0.014 A 
BRANCH  33  34
ATOM     34  C   UNL A   1      37.786  30.932  29.825  1.00  0.00     0.031 A 
ATOM     35  C   UNL A   1      38.031  31.261  31.275  1.00  0.00     0.074 A 
ATOM     36  C   UNL A   1      38.629  30.105  29.175  1.00  0.00     0.049 A 
ATOM     37  N   UNL A   1      38.999  30.859  32.062  1.00  0.00    -0.248 NA
ATOM     38  C   UNL A   1      37.065  32.159  31.927  1.00  0.00     0.031 C 
ATOM     39  C   UNL A   1      38.503  29.703  27.774  1.00  0.00     0.029 A 
ATOM     40  N   UNL A   1      39.740  29.432  29.616  1.00  0.00    -0.354 N 
ATOM     41  C   UNL A   1      38.769  31.467  33.291  1.00  0.00     0.074 A 
ATOM     42  C   UNL A   1      37.589  32.291  33.138  1.00  0.00     0.031 C 
ATOM     43  C   UNL A   1      39.462  28.811  27.485  1.00  0.00     0.029 A 
ATOM     44  C   UNL A   1      40.304  28.622  28.662  1.00  0.00     0.049 A 
ATOM     45  H   UNL A   1      40.098  29.521  30.529  1.00  0.00     0.167 HD
ATOM     46  C   UNL A   1      39.467  31.341  34.446  1.00  0.00     0.037 A 
ATOM     47  C   UNL A   1      41.382  27.819  28.724  1.00  0.00     0.037 A 
ATOM     48  C   UNL A   1      40.630  30.506  34.608  1.00  0.00     0.049 A 
ATOM     49  C   UNL A   1      42.159  27.729  30.005  1.00  0.00     0.074 A 
ATOM     50  C   UNL A   1      41.389  30.295  35.747  1.00  0.00     0.029 A 
ATOM     51  N   UNL A   1      41.202  29.744  33.601  1.00  0.00    -0.354 N 
ATOM     52  N   UNL A   1      41.918  28.297  31.162  1.00  0.00    -0.248 NA
ATOM     53  C   UNL A   1      43.365  26.890  29.985  1.00  0.00     0.031 C 
ATOM     54  C   UNL A   1      42.443  29.434  35.418  1.00  0.00     0.029 A 
ATOM     55  C   UNL A   1      42.316  29.077  34.086  1.00  0.00     0.049 A 
ATOM     56  H   UNL A   1      40.866  29.685  32.678  1.00  0.00     0.167 HD
ATOM     57  C   UNL A   1      42.932  27.874  32.010  1.00  0.00     0.074 A 
ATOM     58  C   UNL A   1      43.777  26.982  31.241  1.00  0.00     0.031 C 
ATOM     59  C   UNL A   1      43.148  28.197  33.308  1.00  0.00     0.037 A 
BRANCH  46  60
ATOM     60  C   UNL A   1      38.997  32.139  35.627  1.00  0.00     0.057 A 
ATOM     61  C   UNL A   1      39.377  33.478  35.781  1.00  0.00     0.134 A 
ATOM     62  C   UNL A   1      38.191  31.578  36.627  1.00  0.00     0.134 A 
ATOM     63  F   UNL A   1      40.154  34.076  34.865  1.00  0.00    -0.206 F 
ATOM     64  C   UNL A   1      38.972  34.232  36.885  1.00  0.00     0.040 A 
ATOM     65  C   UNL A   1      37.759  32.328  37.723  1.00  0.00     0.040 A 
ATOM     66  F   UNL A   1      37.780  30.305  36.533  1.00  0.00    -0.206 F 
ATOM     67  C   UNL A   1      38.154  33.658  37.856  1.00  0.00     0.006 A 
ENDBRANCH  46  60
BRANCH  47  68
ATOM     68  C   UNL A   1      41.797  27.038  27.532  1.00  0.00     0.057 A 
ATOM     69  C   UNL A   1      42.604  27.601  26.537  1.00  0.00     0.134 A 
ATOM     70  C   UNL A   1      41.409  25.703  27.373  1.00  0.00     0.134 A 
ATOM     71  F   UNL A   1      43.005  28.877  26.631  1.00  0.00    -0.206 F 
ATOM     72  C   UNL A   1      43.004  26.867  25.420  1.00  0.00     0.040 A 
ATOM     73  C   UNL A   1      41.823  24.950  26.275  1.00  0.00     0.040 A 
ATOM     74  F   UNL A   1      40.654  25.104  28.305  1.00  0.00    -0.206 F 
ATOM     75  C   UNL A   1      42.619  25.533  25.291  1.00  0.00     0.006 A 
ENDBRANCH  47  68
BRANCH  59  76
ATOM     76  C   UNL A   1      44.331  27.561  33.976  1.00  0.00     0.057 A 
ATOM     77  C   UNL A   1      44.204  26.339  34.646  1.00  0.00     0.134 A 
ATOM     78  C   UNL A   1      45.597  28.161  33.957  1.00  0.00     0.134 A 
ATOM     79  F   UNL A   1      43.017  25.715  34.706  1.00  0.00    -0.206 F 
ATOM     80  C   UNL A   1      45.294  25.732  35.270  1.00  0.00     0.040 A 
ATOM     81  C   UNL A   1      46.702  27.552  34.556  1.00  0.00     0.040 A 
ATOM     82  F   UNL A   1      45.789  29.325  33.317  1.00  0.00    -0.206 F 
ATOM     83  C   UNL A   1      46.550  26.335  35.219  1.00  0.00     0.006 A 
ENDBRANCH  59  76
ENDBRANCH  33  34
ENDBRANCH  25  28
ENDBRANCH  23  24
ENDBRANCH  22  23
ENDBRANCH  21  22
ENDBRANCH   1  21
TORSDOF 15
ENDMDL
MODEL 3
REMARK VINA RESULT:     -11.3      6.049     10.974
REMARK SMILES O=C(Cn1nc(-c2ccco2)ccc1=O)NCCCCCCNC(=O)c1ccc(-c2c3nc(c(-c4c(F)cccc4F)c4ccc([nH]4)c(-c4c(F)cccc4F)c4nc(c(-c5c(F)cccc5F)c5ccc2[nH]5)C=C4)C=C3)cc1
REMARK SMILES IDX 19 1 18 2 17 3 16 4 1 5 2 6 3 8 4 9 5 10 14 11 6 12 13 13
REMARK SMILES IDX 15 14 12 15 7 16 8 17 11 18 9 19 10 20 20 21 21 22 22 23
REMARK SMILES IDX 23 24 24 25 25 27 26 28 27 29 79 30 28 31 78 32 29 33 30 34
REMARK SMILES IDX 31 35 72 36 32 37 77 38 71 39 73 40 33 41 76 42 70 43 69 44
REMARK SMILES IDX 34 46 60 47 43 48 59 49 44 50 47 51 58 52 74 53 45 54 46 55
REMARK SMILES IDX 57 57 75 58 48 59 35 60 36 61 41 62 37 63 38 64 40 65 42 66
REMARK SMILES IDX 39 67 61 68 62 69 67 70 63 71 64 72 66 73 68 74 65 75 49 76
REMARK SMILES IDX 50 77 55 78 51 79 52 80 54 81 56 82 53 83
REMARK H PARENT 16 7 23 26 73 45 47 56
REMARK Flexibility Score: inf
ROOT
ATOM      1  C   UNL A   1      32.844  29.869  27.304  1.00  0.00     0.002 C 
ENDROOT
BRANCH   1   2
ATOM      2  C   UNL A   1      32.948  28.339  27.248  1.00  0.00     0.021 C 
BRANCH   2   3
ATOM      3  C   UNL A   1      33.916  27.800  26.195  1.00  0.00     0.116 C 
BRANCH   3   4
ATOM      4  N   UNL A   1      33.225  27.078  25.152  1.00  0.00    -0.354 N 
ATOM      5  O   UNL A   1      34.008  28.349  23.419  1.00  0.00    -0.273 OA
ATOM      6  C   UNL A   1      33.356  27.384  23.815  1.00  0.00     0.241 C 
ATOM      7  H   UNL A   1      32.634  26.333  25.408  1.00  0.00     0.163 HD
BRANCH   6   8
ATOM      8  C   UNL A   1      32.460  26.584  22.874  1.00  0.00     0.248 C 
BRANCH   8   9
ATOM      9  N   UNL A   1      31.037  26.894  23.000  1.00  0.00    -0.220 N 
ATOM     10  N   UNL A   1      30.650  28.148  22.573  1.00  0.00    -0.166 NA
ATOM     11  C   UNL A   1      30.164  25.967  23.546  1.00  0.00     0.267 A 
ATOM     12  C   UNL A   1      29.435  28.529  22.823  1.00  0.00     0.126 A 
ATOM     13  C   UNL A   1      28.803  26.454  23.851  1.00  0.00     0.076 A 
ATOM     14  O   UNL A   1      30.451  24.794  23.769  1.00  0.00    -0.268 OA
ATOM     15  C   UNL A   1      28.441  27.700  23.538  1.00  0.00     0.040 A 
BRANCH  12  16
ATOM     16  C   UNL A   1      29.017  29.832  22.368  1.00  0.00     0.154 A 
ATOM     17  C   UNL A   1      29.072  31.071  22.976  1.00  0.00     0.052 A 
ATOM     18  O   UNL A   1      28.427  29.951  21.139  1.00  0.00    -0.463 OA
ATOM     19  C   UNL A   1      28.480  31.991  22.078  1.00  0.00     0.043 A 
ATOM     20  C   UNL A   1      28.077  31.255  20.989  1.00  0.00     0.196 A 
ENDBRANCH  12  16
ENDBRANCH   8   9
ENDBRANCH   6   8
ENDBRANCH   3   4
ENDBRANCH   2   3
ENDBRANCH   1   2
BRANCH   1  21
ATOM     21  C   UNL A   1      31.801  30.500  26.376  1.00  0.00     0.002 C 
BRANCH  21  22
ATOM     22  C   UNL A   1      31.541  31.990  26.593  1.00  0.00     0.021 C 
BRANCH  22  23
ATOM     23  C   UNL A   1      32.651  32.746  27.314  1.00  0.00     0.116 C 
BRANCH  23  24
ATOM     24  N   UNL A   1      32.294  34.119  27.639  1.00  0.00    -0.352 N 
ATOM     25  C   UNL A   1      32.890  34.983  28.528  1.00  0.00     0.251 C 
ATOM     26  H   UNL A   1      31.519  34.481  27.153  1.00  0.00     0.163 HD
ATOM     27  O   UNL A   1      32.384  36.075  28.767  1.00  0.00    -0.269 OA
BRANCH  25  28
ATOM     28  C   UNL A   1      34.125  34.573  29.237  1.00  0.00     0.039 A 
ATOM     29  C   UNL A   1      35.367  34.635  28.603  1.00  0.00     0.014 A 
ATOM     30  C   UNL A   1      34.031  34.083  30.543  1.00  0.00     0.014 A 
ATOM     31  C   UNL A   1      36.476  34.045  29.200  1.00  0.00     0.010 A 
ATOM     32  C   UNL A   1      35.165  33.565  31.176  1.00  0.00     0.010 A 
ATOM     33  C   UNL A   1      36.386  33.490  30.487  1.00  0.00    -0.014 A 
BRANCH  33  34
ATOM     34  C   UNL A   1      37.572  32.808  31.071  1.00  0.00     0.031 A 
ATOM     35  C   UNL A   1      38.110  33.215  32.418  1.00  0.00     0.074 A 
ATOM     36  C   UNL A   1      38.127  31.770  30.415  1.00  0.00     0.049 A 
ATOM     37  N   UNL A   1      39.103  32.701  33.102  1.00  0.00    -0.248 NA
ATOM     38  C   UNL A   1      37.450  34.348  33.086  1.00  0.00     0.031 C 
ATOM     39  C   UNL A   1      37.697  31.271  29.108  1.00  0.00     0.029 A 
ATOM     40  N   UNL A   1      39.150  30.929  30.772  1.00  0.00    -0.354 N 
ATOM     41  C   UNL A   1      39.197  33.456  34.265  1.00  0.00     0.074 A 
ATOM     42  C   UNL A   1      38.182  34.484  34.182  1.00  0.00     0.031 C 
ATOM     43  C   UNL A   1      38.413  30.180  28.797  1.00  0.00     0.029 A 
ATOM     44  C   UNL A   1      39.388  29.935  29.855  1.00  0.00     0.049 A 
ATOM     45  H   UNL A   1      39.665  31.029  31.605  1.00  0.00     0.167 HD
ATOM     46  C   UNL A   1      40.041  33.299  35.315  1.00  0.00     0.037 A 
ATOM     47  C   UNL A   1      40.294  28.940  29.861  1.00  0.00     0.037 A 
ATOM     48  C   UNL A   1      41.040  32.265  35.411  1.00  0.00     0.049 A 
ATOM     49  C   UNL A   1      41.242  28.815  31.018  1.00  0.00     0.074 A 
ATOM     50  C   UNL A   1      41.925  32.012  36.445  1.00  0.00     0.029 A 
ATOM     51  N   UNL A   1      41.285  31.311  34.434  1.00  0.00    -0.354 N 
ATOM     52  N   UNL A   1      41.306  29.526  32.117  1.00  0.00    -0.248 NA
ATOM     53  C   UNL A   1      42.251  27.750  30.929  1.00  0.00     0.031 C 
ATOM     54  C   UNL A   1      42.731  30.928  36.078  1.00  0.00     0.029 A 
ATOM     55  C   UNL A   1      42.320  30.480  34.834  1.00  0.00     0.049 A 
ATOM     56  H   UNL A   1      40.795  31.235  33.584  1.00  0.00     0.167 HD
ATOM     57  C   UNL A   1      42.350  28.987  32.857  1.00  0.00     0.074 A 
ATOM     58  C   UNL A   1      42.874  27.874  32.091  1.00  0.00     0.031 C 
ATOM     59  C   UNL A   1      42.834  29.380  34.060  1.00  0.00     0.037 A 
BRANCH  46  60
ATOM     60  C   UNL A   1      39.930  34.284  36.442  1.00  0.00     0.057 A 
ATOM     61  C   UNL A   1      40.626  35.499  36.401  1.00  0.00     0.134 A 
ATOM     62  C   UNL A   1      39.157  34.021  37.581  1.00  0.00     0.134 A 
ATOM     63  F   UNL A   1      41.390  35.811  35.343  1.00  0.00    -0.206 F 
ATOM     64  C   UNL A   1      40.556  36.418  37.450  1.00  0.00     0.040 A 
ATOM     65  C   UNL A   1      39.061  34.943  38.626  1.00  0.00     0.040 A 
ATOM     66  F   UNL A   1      38.455  32.882  37.678  1.00  0.00    -0.206 F 
ATOM     67  C   UNL A   1      39.766  36.143  38.564  1.00  0.00     0.006 A 
ENDBRANCH  46  60
BRANCH  47  68
ATOM     68  C   UNL A   1      40.353  27.982  28.729  1.00  0.00     0.057 A 
ATOM     69  C   UNL A   1      39.665  26.765  28.768  1.00  0.00     0.134 A 
ATOM     70  C   UNL A   1      41.086  28.275  27.573  1.00  0.00     0.134 A 
ATOM     71  F   UNL A   1      38.948  26.427  29.849  1.00  0.00    -0.206 F 
ATOM     72  C   UNL A   1      39.709  25.866  27.702  1.00  0.00     0.040 A 
ATOM     73  C   UNL A   1      41.119  27.398  26.489  1.00  0.00     0.040 A 
ATOM     74  F   UNL A   1      41.748  29.436  27.469  1.00  0.00    -0.206 F 
ATOM     75  C   UNL A   1      40.432  26.186  26.554  1.00  0.00     0.006 A 
ENDBRANCH  47  68
BRANCH  59  76
ATOM     76  C   UNL A   1      43.972  28.584  34.624  1.00  0.00     0.057 A 
ATOM     77  C   UNL A   1      43.732  27.451  35.411  1.00  0.00     0.134 A 
ATOM     78  C   UNL A   1      45.307  28.939  34.389  1.00  0.00     0.134 A 
ATOM     79  F   UNL A   1      42.477  27.061  35.678  1.00  0.00    -0.206 F 
ATOM     80  C   UNL A   1      44.779  26.697  35.942  1.00  0.00     0.040 A 
ATOM     81  C   UNL A   1      46.364  28.178  34.893  1.00  0.00     0.040 A 
ATOM     82  F   UNL A   1      45.604  30.004  33.628  1.00  0.00    -0.206 F 
ATOM     83  C   UNL A   1      46.100  27.055  35.677  1.00  0.00     0.006 A 
ENDBRANCH  59  76
ENDBRANCH  33  34
ENDBRANCH  25  28
ENDBRANCH  23  24
ENDBRANCH  22  23
ENDBRANCH  21  22
ENDBRANCH   1  21
TORSDOF 15
ENDMDL
