MODEL 1
REMARK VINA RESULT:     -10.3      0.000      0.000
REMARK SMILES C[C@](NC(=O)CSCc1cccs1)(C(=O)NCCCCCCNC(=O)c1ccc(-c2c3nc(c(-c4c(F)cccc4F)c4ccc([nH]4)c(-c4c(F)cccc4F)c4nc(c(-c5c(F)cccc5F)c5ccc2[nH]5)C=C4)C=C3)cc1)C(F)(F)F
REMARK SMILES IDX 18 1 17 2 16 3 14 4 15 5 2 7 1 8 80 9 81 10 82 11 83 12 3 13
REMARK SMILES IDX 4 14 5 16 6 17 7 18 8 19 9 20 10 21 13 22 11 23 12 24 19 25
REMARK SMILES IDX 20 26 21 27 22 28 23 29 24 30 25 32 26 33 27 34 79 35 28 36
REMARK SMILES IDX 78 37 29 38 30 39 31 40 72 41 32 42 77 43 71 44 73 45 33 46
REMARK SMILES IDX 76 47 70 48 69 49 34 51 60 52 43 53 59 54 44 55 47 56 58 57
REMARK SMILES IDX 74 58 45 59 46 60 57 62 75 63 48 64 35 65 36 66 41 67 37 68
REMARK SMILES IDX 38 69 40 70 42 71 39 72 61 73 62 74 67 75 63 76 64 77 66 78
REMARK SMILES IDX 68 79 65 80 49 81 50 82 55 83 51 84 52 85 54 86 56 87 53 88
REMARK H PARENT 16 6 3 15 23 31 73 50 47 61
REMARK Flexibility Score: inf
ROOT
ATOM      1  C   UNL A   1      36.505  23.065  25.868  1.00  0.00     0.021 C 
ENDROOT
BRANCH   1   2
ATOM      2  C   UNL A   1      35.373  24.050  25.571  1.00  0.00     0.116 C 
BRANCH   2   3
ATOM      3  N   UNL A   1      34.163  23.648  26.274  1.00  0.00    -0.354 N 
ATOM      4  C   UNL A   1      32.837  23.919  26.097  1.00  0.00     0.254 C 
ATOM      5  O   UNL A   1      32.077  23.326  26.866  1.00  0.00    -0.272 OA
ATOM      6  H   UNL A   1      34.338  23.055  27.041  1.00  0.00     0.163 HD
BRANCH   4   7
ATOM      7  C   UNL A   1      32.328  24.725  24.885  1.00  0.00     0.212 C 
ATOM      8  C   UNL A   1      30.823  24.445  24.822  1.00  0.00     0.056 C 
BRANCH   7   9
ATOM      9  C   UNL A   1      32.580  26.210  25.214  1.00  0.00     0.420 C 
ATOM     10  F   UNL A   1      33.666  26.694  24.569  1.00  0.00    -0.168 F 
ATOM     11  F   UNL A   1      31.530  26.969  24.806  1.00  0.00    -0.168 F 
ATOM     12  F   UNL A   1      32.722  26.446  26.536  1.00  0.00    -0.168 F 
ENDBRANCH   7   9
BRANCH   7  13
ATOM     13  N   UNL A   1      33.076  24.269  23.669  1.00  0.00    -0.334 N 
ATOM     14  C   UNL A   1      33.043  23.162  22.884  1.00  0.00     0.231 C 
ATOM     15  H   UNL A   1      33.748  24.924  23.370  1.00  0.00     0.164 HD
ATOM     16  O   UNL A   1      33.806  23.163  21.911  1.00  0.00    -0.274 OA
BRANCH  14  17
ATOM     17  C   UNL A   1      32.164  21.960  23.167  1.00  0.00     0.169 C 
BRANCH  17  18
ATOM     18  S   UNL A   1      32.968  20.698  24.205  1.00  0.00    -0.146 SA
BRANCH  18  19
ATOM     19  C   UNL A   1      32.335  19.155  23.476  1.00  0.00     0.116 C 
BRANCH  19  20
ATOM     20  C   UNL A   1      32.855  17.976  24.223  1.00  0.00     0.014 A 
ATOM     21  C   UNL A   1      32.174  17.130  25.075  1.00  0.00     0.016 A 
ATOM     22  S   UNL A   1      34.508  17.537  24.091  1.00  0.00    -0.148 S 
ATOM     23  C   UNL A   1      33.032  16.173  25.684  1.00  0.00     0.012 A 
ATOM     24  C   UNL A   1      34.330  16.287  25.239  1.00  0.00     0.065 A 
ENDBRANCH  19  20
ENDBRANCH  18  19
ENDBRANCH  17  18
ENDBRANCH  14  17
ENDBRANCH   7  13
ENDBRANCH   4   7
ENDBRANCH   2   3
ENDBRANCH   1   2
BRANCH   1  25
ATOM     25  C   UNL A   1      36.819  22.115  24.703  1.00  0.00     0.002 C 
BRANCH  25  26
ATOM     26  C   UNL A   1      36.501  20.641  24.974  1.00  0.00     0.002 C 
BRANCH  26  27
ATOM     27  C   UNL A   1      37.716  19.712  24.961  1.00  0.00     0.021 C 
BRANCH  27  28
ATOM     28  C   UNL A   1      38.985  20.326  25.538  1.00  0.00     0.116 C 
BRANCH  28  29
ATOM     29  N   UNL A   1      40.050  19.348  25.687  1.00  0.00    -0.352 N 
ATOM     30  C   UNL A   1      41.349  19.538  26.085  1.00  0.00     0.251 C 
ATOM     31  H   UNL A   1      39.805  18.419  25.472  1.00  0.00     0.163 HD
ATOM     32  O   UNL A   1      42.168  18.627  25.978  1.00  0.00    -0.269 OA
BRANCH  30  33
ATOM     33  C   UNL A   1      41.767  20.848  26.621  1.00  0.00     0.039 A 
ATOM     34  C   UNL A   1      42.246  21.818  25.738  1.00  0.00     0.014 A 
ATOM     35  C   UNL A   1      41.683  21.121  27.990  1.00  0.00     0.014 A 
ATOM     36  C   UNL A   1      42.590  23.081  26.221  1.00  0.00     0.010 A 
ATOM     37  C   UNL A   1      41.951  22.404  28.457  1.00  0.00     0.010 A 
ATOM     38  C   UNL A   1      42.414  23.395  27.579  1.00  0.00    -0.014 A 
BRANCH  38  39
ATOM     39  C   UNL A   1      42.712  24.755  28.096  1.00  0.00     0.031 A 
ATOM     40  C   UNL A   1      44.118  25.127  28.479  1.00  0.00     0.074 A 
ATOM     41  C   UNL A   1      41.707  25.634  28.273  1.00  0.00     0.049 A 
ATOM     42  N   UNL A   1      44.565  26.245  28.992  1.00  0.00    -0.248 NA
ATOM     43  C   UNL A   1      45.153  24.099  28.284  1.00  0.00     0.031 C 
ATOM     44  C   UNL A   1      40.296  25.377  27.984  1.00  0.00     0.029 A 
ATOM     45  N   UNL A   1      41.720  26.923  28.744  1.00  0.00    -0.354 N 
ATOM     46  C   UNL A   1      45.926  26.050  29.193  1.00  0.00     0.074 A 
ATOM     47  C   UNL A   1      46.221  24.690  28.799  1.00  0.00     0.031 C 
ATOM     48  C   UNL A   1      39.582  26.480  28.260  1.00  0.00     0.029 A 
ATOM     49  C   UNL A   1      40.477  27.508  28.780  1.00  0.00     0.049 A 
ATOM     50  H   UNL A   1      42.541  27.384  29.029  1.00  0.00     0.167 HD
ATOM     51  C   UNL A   1      46.851  26.933  29.640  1.00  0.00     0.037 A 
ATOM     52  C   UNL A   1      40.101  28.732  29.194  1.00  0.00     0.037 A 
ATOM     53  C   UNL A   1      46.557  28.293  30.012  1.00  0.00     0.049 A 
ATOM     54  C   UNL A   1      41.145  29.690  29.698  1.00  0.00     0.074 A 
ATOM     55  C   UNL A   1      47.434  29.282  30.420  1.00  0.00     0.029 A 
ATOM     56  N   UNL A   1      45.287  28.851  30.024  1.00  0.00    -0.354 N 
ATOM     57  N   UNL A   1      42.440  29.517  29.813  1.00  0.00    -0.248 NA
ATOM     58  C   UNL A   1      40.677  31.017  30.121  1.00  0.00     0.031 C 
ATOM     59  C   UNL A   1      46.688  30.423  30.732  1.00  0.00     0.029 A 
ATOM     60  C   UNL A   1      45.354  30.165  30.460  1.00  0.00     0.049 A 
ATOM     61  H   UNL A   1      44.461  28.384  29.763  1.00  0.00     0.167 HD
ATOM     62  C   UNL A   1      42.944  30.720  30.292  1.00  0.00     0.074 A 
ATOM     63  C   UNL A   1      41.816  31.619  30.431  1.00  0.00     0.031 C 
ATOM     64  C   UNL A   1      44.225  31.051  30.587  1.00  0.00     0.037 A 
BRANCH  51  65
ATOM     65  C   UNL A   1      48.271  26.453  29.753  1.00  0.00     0.057 A 
ATOM     66  C   UNL A   1      48.751  25.828  30.911  1.00  0.00     0.134 A 
ATOM     67  C   UNL A   1      49.158  26.587  28.677  1.00  0.00     0.134 A 
ATOM     68  F   UNL A   1      47.958  25.678  31.983  1.00  0.00    -0.206 F 
ATOM     69  C   UNL A   1      50.070  25.378  31.005  1.00  0.00     0.040 A 
ATOM     70  C   UNL A   1      50.469  26.114  28.749  1.00  0.00     0.040 A 
ATOM     71  F   UNL A   1      48.762  27.170  27.536  1.00  0.00    -0.206 F 
ATOM     72  C   UNL A   1      50.930  25.514  29.918  1.00  0.00     0.006 A 
ENDBRANCH  51  65
BRANCH  52  73
ATOM     73  C   UNL A   1      38.672  29.133  29.130  1.00  0.00     0.057 A 
ATOM     74  C   UNL A   1      38.105  29.602  27.939  1.00  0.00     0.134 A 
ATOM     75  C   UNL A   1      37.843  29.068  30.256  1.00  0.00     0.134 A 
ATOM     76  F   UNL A   1      38.853  29.704  26.831  1.00  0.00    -0.206 F 
ATOM     77  C   UNL A   1      36.773  30.013  27.874  1.00  0.00     0.040 A 
ATOM     78  C   UNL A   1      36.501  29.449  30.199  1.00  0.00     0.040 A 
ATOM     79  F   UNL A   1      38.321  28.620  31.425  1.00  0.00    -0.206 F 
ATOM     80  C   UNL A   1      35.965  29.932  29.007  1.00  0.00     0.006 A 
ENDBRANCH  52  73
BRANCH  64  81
ATOM     81  C   UNL A   1      44.483  32.455  31.053  1.00  0.00     0.057 A 
ATOM     82  C   UNL A   1      44.710  33.506  30.156  1.00  0.00     0.134 A 
ATOM     83  C   UNL A   1      44.471  32.764  32.420  1.00  0.00     0.134 A 
ATOM     84  F   UNL A   1      44.747  33.277  28.834  1.00  0.00    -0.206 F 
ATOM     85  C   UNL A   1      44.942  34.809  30.602  1.00  0.00     0.040 A 
ATOM     86  C   UNL A   1      44.671  34.067  32.876  1.00  0.00     0.040 A 
ATOM     87  F   UNL A   1      44.249  31.806  33.333  1.00  0.00    -0.206 F 
ATOM     88  C   UNL A   1      44.916  35.092  31.966  1.00  0.00     0.006 A 
ENDBRANCH  64  81
ENDBRANCH  38  39
ENDBRANCH  30  33
ENDBRANCH  28  29
ENDBRANCH  27  28
ENDBRANCH  26  27
ENDBRANCH  25  26
ENDBRANCH   1  25
TORSDOF 19
ENDMDL
MODEL 2
REMARK VINA RESULT:     -10.3      1.131      6.383
REMARK SMILES C[C@](NC(=O)CSCc1cccs1)(C(=O)NCCCCCCNC(=O)c1ccc(-c2c3nc(c(-c4c(F)cccc4F)c4ccc([nH]4)c(-c4c(F)cccc4F)c4nc(c(-c5c(F)cccc5F)c5ccc2[nH]5)C=C4)C=C3)cc1)C(F)(F)F
REMARK SMILES IDX 18 1 17 2 16 3 14 4 15 5 2 7 1 8 80 9 81 10 82 11 83 12 3 13
REMARK SMILES IDX 4 14 5 16 6 17 7 18 8 19 9 20 10 21 13 22 11 23 12 24 19 25
REMARK SMILES IDX 20 26 21 27 22 28 23 29 24 30 25 32 26 33 27 34 79 35 28 36
REMARK SMILES IDX 78 37 29 38 30 39 31 40 72 41 32 42 77 43 71 44 73 45 33 46
REMARK SMILES IDX 76 47 70 48 69 49 34 51 60 52 43 53 59 54 44 55 47 56 58 57
REMARK SMILES IDX 74 58 45 59 46 60 57 62 75 63 48 64 35 65 36 66 41 67 37 68
REMARK SMILES IDX 38 69 40 70 42 71 39 72 61 73 62 74 67 75 63 76 64 77 66 78
REMARK SMILES IDX 68 79 65 80 49 81 50 82 55 83 51 84 52 85 54 86 56 87 53 88
REMARK H PARENT 16 6 3 15 23 31 73 50 47 61
REMARK Flexibility Score: inf
ROOT
ATOM      1  C   UNL A   1      35.992  23.571  25.813  1.00  0.00     0.021 C 
ENDROOT
BRANCH   1   2
ATOM      2  C   UNL A   1      35.045  24.587  25.175  1.00  0.00     0.116 C 
BRANCH   2   3
ATOM      3  N   UNL A   1      33.816  24.682  25.950  1.00  0.00    -0.354 N 
ATOM      4  C   UNL A   1      32.798  25.590  25.993  1.00  0.00     0.254 C 
ATOM      5  O   UNL A   1      31.866  25.292  26.744  1.00  0.00    -0.272 OA
ATOM      6  H   UNL A   1      33.694  23.933  26.578  1.00  0.00     0.163 HD
BRANCH   4   7
ATOM      7  C   UNL A   1      32.724  26.774  25.008  1.00  0.00     0.212 C 
ATOM      8  C   UNL A   1      31.236  27.129  24.920  1.00  0.00     0.056 C 
BRANCH   7   9
ATOM      9  C   UNL A   1      33.508  27.931  25.661  1.00  0.00     0.420 C 
ATOM     10  F   UNL A   1      34.407  28.476  24.809  1.00  0.00    -0.168 F 
ATOM     11  F   UNL A   1      32.664  28.935  26.012  1.00  0.00    -0.168 F 
ATOM     12  F   UNL A   1      34.150  27.568  26.791  1.00  0.00    -0.168 F 
ENDBRANCH   7   9
BRANCH   7  13
ATOM     13  N   UNL A   1      33.317  26.339  23.703  1.00  0.00    -0.334 N 
ATOM     14  C   UNL A   1      32.852  25.679  22.612  1.00  0.00     0.231 C 
ATOM     15  H   UNL A   1      34.265  26.590  23.616  1.00  0.00     0.164 HD
ATOM     16  O   UNL A   1      33.651  25.537  21.680  1.00  0.00    -0.274 OA
BRANCH  14  17
ATOM     17  C   UNL A   1      31.453  25.102  22.516  1.00  0.00     0.169 C 
BRANCH  17  18
ATOM     18  S   UNL A   1      31.218  23.589  23.502  1.00  0.00    -0.146 SA
BRANCH  18  19
ATOM     19  C   UNL A   1      32.439  22.463  22.756  1.00  0.00     0.116 C 
BRANCH  19  20
ATOM     20  C   UNL A   1      32.529  21.201  23.542  1.00  0.00     0.014 A 
ATOM     21  C   UNL A   1      32.528  19.900  23.079  1.00  0.00     0.016 A 
ATOM     22  S   UNL A   1      32.632  21.259  25.253  1.00  0.00    -0.148 S 
ATOM     23  C   UNL A   1      32.527  18.951  24.139  1.00  0.00     0.012 A 
ATOM     24  C   UNL A   1      32.578  19.558  25.374  1.00  0.00     0.065 A 
ENDBRANCH  19  20
ENDBRANCH  18  19
ENDBRANCH  17  18
ENDBRANCH  14  17
ENDBRANCH   7  13
ENDBRANCH   4   7
ENDBRANCH   2   3
ENDBRANCH   1   2
BRANCH   1  25
ATOM     25  C   UNL A   1      36.774  22.729  24.795  1.00  0.00     0.002 C 
BRANCH  25  26
ATOM     26  C   UNL A   1      36.293  21.282  24.654  1.00  0.00     0.002 C 
BRANCH  26  27
ATOM     27  C   UNL A   1      37.402  20.230  24.724  1.00  0.00     0.021 C 
BRANCH  27  28
ATOM     28  C   UNL A   1      38.508  20.546  25.723  1.00  0.00     0.116 C 
BRANCH  28  29
ATOM     29  N   UNL A   1      39.533  19.516  25.752  1.00  0.00    -0.352 N 
ATOM     30  C   UNL A   1      40.870  19.634  26.032  1.00  0.00     0.251 C 
ATOM     31  H   UNL A   1      39.224  18.605  25.542  1.00  0.00     0.163 HD
ATOM     32  O   UNL A   1      41.631  18.690  25.830  1.00  0.00    -0.269 OA
BRANCH  30  33
ATOM     33  C   UNL A   1      41.399  20.909  26.554  1.00  0.00     0.039 A 
ATOM     34  C   UNL A   1      41.901  21.853  25.654  1.00  0.00     0.014 A 
ATOM     35  C   UNL A   1      41.397  21.177  27.926  1.00  0.00     0.014 A 
ATOM     36  C   UNL A   1      42.351  23.086  26.126  1.00  0.00     0.010 A 
ATOM     37  C   UNL A   1      41.771  22.435  28.387  1.00  0.00     0.010 A 
ATOM     38  C   UNL A   1      42.258  23.400  27.492  1.00  0.00    -0.014 A 
BRANCH  38  39
ATOM     39  C   UNL A   1      42.671  24.733  28.002  1.00  0.00     0.031 A 
ATOM     40  C   UNL A   1      41.642  25.803  28.242  1.00  0.00     0.074 A 
ATOM     41  C   UNL A   1      43.978  24.996  28.194  1.00  0.00     0.049 A 
ATOM     42  N   UNL A   1      41.814  27.039  28.638  1.00  0.00    -0.248 NA
ATOM     43  C   UNL A   1      40.239  25.446  27.979  1.00  0.00     0.031 C 
ATOM     44  C   UNL A   1      45.075  24.058  27.950  1.00  0.00     0.029 A 
ATOM     45  N   UNL A   1      44.606  26.134  28.633  1.00  0.00    -0.354 N 
ATOM     46  C   UNL A   1      40.546  27.608  28.658  1.00  0.00     0.074 A 
ATOM     47  C   UNL A   1      39.624  26.601  28.181  1.00  0.00     0.031 C 
ATOM     48  C   UNL A   1      46.238  24.649  28.268  1.00  0.00     0.029 A 
ATOM     49  C   UNL A   1      45.974  26.018  28.698  1.00  0.00     0.049 A 
ATOM     50  H   UNL A   1      44.122  26.956  28.876  1.00  0.00     0.167 HD
ATOM     51  C   UNL A   1      40.181  28.848  29.060  1.00  0.00     0.037 A 
ATOM     52  C   UNL A   1      46.909  26.917  29.057  1.00  0.00     0.037 A 
ATOM     53  C   UNL A   1      41.100  29.842  29.552  1.00  0.00     0.049 A 
ATOM     54  C   UNL A   1      46.479  28.292  29.489  1.00  0.00     0.074 A 
ATOM     55  C   UNL A   1      40.822  31.106  30.040  1.00  0.00     0.029 A 
ATOM     56  N   UNL A   1      42.477  29.682  29.614  1.00  0.00    -0.354 N 
ATOM     57  N   UNL A   1      45.270  28.792  29.573  1.00  0.00    -0.248 NA
ATOM     58  C   UNL A   1      47.544  29.225  29.885  1.00  0.00     0.031 C 
ATOM     59  C   UNL A   1      42.034  31.732  30.346  1.00  0.00     0.029 A 
ATOM     60  C   UNL A   1      43.064  30.837  30.107  1.00  0.00     0.049 A 
ATOM     61  H   UNL A   1      42.965  28.870  29.347  1.00  0.00     0.167 HD
ATOM     62  C   UNL A   1      45.425  30.085  30.059  1.00  0.00     0.074 A 
ATOM     63  C   UNL A   1      46.845  30.285  30.265  1.00  0.00     0.031 C 
ATOM     64  C   UNL A   1      44.478  31.020  30.313  1.00  0.00     0.037 A 
BRANCH  51  65
ATOM     65  C   UNL A   1      38.722  29.201  28.984  1.00  0.00     0.057 A 
ATOM     66  C   UNL A   1      38.116  29.590  27.782  1.00  0.00     0.134 A 
ATOM     67  C   UNL A   1      37.907  29.118  30.120  1.00  0.00     0.134 A 
ATOM     68  F   UNL A   1      38.841  29.702  26.659  1.00  0.00    -0.206 F 
ATOM     69  C   UNL A   1      36.758  29.910  27.718  1.00  0.00     0.040 A 
ATOM     70  C   UNL A   1      36.542  29.405  30.062  1.00  0.00     0.040 A 
ATOM     71  F   UNL A   1      38.420  28.746  31.302  1.00  0.00    -0.206 F 
ATOM     72  C   UNL A   1      35.966  29.810  28.860  1.00  0.00     0.006 A 
ENDBRANCH  51  65
BRANCH  52  73
ATOM     73  C   UNL A   1      48.346  26.541  29.046  1.00  0.00     0.057 A 
ATOM     74  C   UNL A   1      48.939  25.918  30.150  1.00  0.00     0.134 A 
ATOM     75  C   UNL A   1      49.162  26.802  27.939  1.00  0.00     0.134 A 
ATOM     76  F   UNL A   1      48.214  25.658  31.248  1.00  0.00    -0.206 F 
ATOM     77  C   UNL A   1      50.296  25.590  30.165  1.00  0.00     0.040 A 
ATOM     78  C   UNL A   1      50.514  26.453  27.928  1.00  0.00     0.040 A 
ATOM     79  F   UNL A   1      48.654  27.387  26.845  1.00  0.00    -0.206 F 
ATOM     80  C   UNL A   1      51.086  25.853  29.048  1.00  0.00     0.006 A 
ENDBRANCH  52  73
BRANCH  64  81
ATOM     81  C   UNL A   1      44.940  32.331  30.880  1.00  0.00     0.057 A 
ATOM     82  C   UNL A   1      45.041  32.551  32.260  1.00  0.00     0.134 A 
ATOM     83  C   UNL A   1      45.321  33.379  30.030  1.00  0.00     0.134 A 
ATOM     84  F   UNL A   1      44.680  31.595  33.130  1.00  0.00    -0.206 F 
ATOM     85  C   UNL A   1      45.479  33.774  32.774  1.00  0.00     0.040 A 
ATOM     86  C   UNL A   1      45.790  34.593  30.531  1.00  0.00     0.040 A 
ATOM     87  F   UNL A   1      45.259  33.231  28.698  1.00  0.00    -0.206 F 
ATOM     88  C   UNL A   1      45.862  34.796  31.908  1.00  0.00     0.006 A 
ENDBRANCH  64  81
ENDBRANCH  38  39
ENDBRANCH  30  33
ENDBRANCH  28  29
ENDBRANCH  27  28
ENDBRANCH  26  27
ENDBRANCH  25  26
ENDBRANCH   1  25
TORSDOF 19
ENDMDL
MODEL 3
REMARK VINA RESULT:     -10.1      2.553      7.326
REMARK SMILES C[C@](NC(=O)CSCc1cccs1)(C(=O)NCCCCCCNC(=O)c1ccc(-c2c3nc(c(-c4c(F)cccc4F)c4ccc([nH]4)c(-c4c(F)cccc4F)c4nc(c(-c5c(F)cccc5F)c5ccc2[nH]5)C=C4)C=C3)cc1)C(F)(F)F
REMARK SMILES IDX 18 1 17 2 16 3 14 4 15 5 2 7 1 8 80 9 81 10 82 11 83 12 3 13
REMARK SMILES IDX 4 14 5 16 6 17 7 18 8 19 9 20 10 21 13 22 11 23 12 24 19 25
REMARK SMILES IDX 20 26 21 27 22 28 23 29 24 30 25 32 26 33 27 34 79 35 28 36
REMARK SMILES IDX 78 37 29 38 30 39 31 40 72 41 32 42 77 43 71 44 73 45 33 46
REMARK SMILES IDX 76 47 70 48 69 49 34 51 60 52 43 53 59 54 44 55 47 56 58 57
REMARK SMILES IDX 74 58 45 59 46 60 57 62 75 63 48 64 35 65 36 66 41 67 37 68
REMARK SMILES IDX 38 69 40 70 42 71 39 72 61 73 62 74 67 75 63 76 64 77 66 78
REMARK SMILES IDX 68 79 65 80 49 81 50 82 55 83 51 84 52 85 54 86 56 87 53 88
REMARK H PARENT 16 6 3 15 23 31 73 50 47 61
REMARK Flexibility Score: inf
ROOT
ATOM      1  C   UNL A   1      36.570  23.085  25.731  1.00  0.00     0.021 C 
ENDROOT
BRANCH   1   2
ATOM      2  C   UNL A   1      35.095  23.455  25.571  1.00  0.00     0.116 C 
BRANCH   2   3
ATOM      3  N   UNL A   1      34.761  23.583  24.159  1.00  0.00    -0.354 N 
ATOM      4  C   UNL A   1      33.674  23.232  23.413  1.00  0.00     0.254 C 
ATOM      5  O   UNL A   1      33.722  23.574  22.229  1.00  0.00    -0.272 OA
ATOM      6  H   UNL A   1      35.472  24.013  23.630  1.00  0.00     0.163 HD
BRANCH   4   7
ATOM      7  C   UNL A   1      32.397  22.657  24.059  1.00  0.00     0.212 C 
ATOM      8  C   UNL A   1      31.255  23.071  23.126  1.00  0.00     0.056 C 
BRANCH   7   9
ATOM      9  C   UNL A   1      32.560  21.123  24.052  1.00  0.00     0.420 C 
ATOM     10  F   UNL A   1      31.799  20.529  24.999  1.00  0.00    -0.168 F 
ATOM     11  F   UNL A   1      32.150  20.611  22.862  1.00  0.00    -0.168 F 
ATOM     12  F   UNL A   1      33.839  20.722  24.212  1.00  0.00    -0.168 F 
ENDBRANCH   7   9
BRANCH   7  13
ATOM     13  N   UNL A   1      32.277  23.217  25.444  1.00  0.00    -0.334 N 
ATOM     14  C   UNL A   1      31.706  24.324  25.982  1.00  0.00     0.231 C 
ATOM     15  H   UNL A   1      32.713  22.650  26.121  1.00  0.00     0.164 HD
ATOM     16  O   UNL A   1      31.776  24.429  27.211  1.00  0.00    -0.274 OA
BRANCH  14  17
ATOM     17  C   UNL A   1      31.042  25.410  25.158  1.00  0.00     0.169 C 
BRANCH  17  18
ATOM     18  S   UNL A   1      32.223  26.487  24.285  1.00  0.00    -0.146 SA
BRANCH  18  19
ATOM     19  C   UNL A   1      33.387  26.921  25.615  1.00  0.00     0.116 C 
BRANCH  19  20
ATOM     20  C   UNL A   1      33.022  28.235  26.215  1.00  0.00     0.014 A 
ATOM     21  C   UNL A   1      31.779  28.833  26.282  1.00  0.00     0.016 A 
ATOM     22  S   UNL A   1      34.232  29.220  26.927  1.00  0.00    -0.148 S 
ATOM     23  C   UNL A   1      31.839  30.139  26.843  1.00  0.00     0.012 A 
ATOM     24  C   UNL A   1      33.117  30.474  27.233  1.00  0.00     0.065 A 
ENDBRANCH  19  20
ENDBRANCH  18  19
ENDBRANCH  17  18
ENDBRANCH  14  17
ENDBRANCH   7  13
ENDBRANCH   4   7
ENDBRANCH   2   3
ENDBRANCH   1   2
BRANCH   1  25
ATOM     25  C   UNL A   1      37.076  22.089  24.678  1.00  0.00     0.002 C 
BRANCH  25  26
ATOM     26  C   UNL A   1      36.800  20.618  25.003  1.00  0.00     0.002 C 
BRANCH  26  27
ATOM     27  C   UNL A   1      38.019  19.699  24.897  1.00  0.00     0.021 C 
BRANCH  27  28
ATOM     28  C   UNL A   1      39.209  20.132  25.745  1.00  0.00     0.116 C 
BRANCH  28  29
ATOM     29  N   UNL A   1      40.200  19.076  25.879  1.00  0.00    -0.352 N 
ATOM     30  C   UNL A   1      41.550  19.181  26.093  1.00  0.00     0.251 C 
ATOM     31  H   UNL A   1      39.853  18.158  25.806  1.00  0.00     0.163 HD
ATOM     32  O   UNL A   1      42.271  18.189  25.997  1.00  0.00    -0.269 OA
BRANCH  30  33
ATOM     33  C   UNL A   1      42.141  20.494  26.418  1.00  0.00     0.039 A 
ATOM     34  C   UNL A   1      42.587  21.310  25.376  1.00  0.00     0.014 A 
ATOM     35  C   UNL A   1      42.252  20.921  27.744  1.00  0.00     0.014 A 
ATOM     36  C   UNL A   1      43.094  22.578  25.662  1.00  0.00     0.010 A 
ATOM     37  C   UNL A   1      42.683  22.214  28.021  1.00  0.00     0.010 A 
ATOM     38  C   UNL A   1      43.116  23.053  26.983  1.00  0.00    -0.014 A 
BRANCH  38  39
ATOM     39  C   UNL A   1      43.591  24.426  27.297  1.00  0.00     0.031 A 
ATOM     40  C   UNL A   1      42.618  25.477  27.753  1.00  0.00     0.074 A 
ATOM     41  C   UNL A   1      44.889  24.737  27.116  1.00  0.00     0.049 A 
ATOM     42  N   UNL A   1      42.834  26.739  28.027  1.00  0.00    -0.248 NA
ATOM     43  C   UNL A   1      41.213  25.065  27.896  1.00  0.00     0.031 C 
ATOM     44  C   UNL A   1      45.921  23.819  26.632  1.00  0.00     0.029 A 
ATOM     45  N   UNL A   1      45.561  25.917  27.313  1.00  0.00    -0.354 N 
ATOM     46  C   UNL A   1      41.595  27.271  28.360  1.00  0.00     0.074 A 
ATOM     47  C   UNL A   1      40.624  26.211  28.200  1.00  0.00     0.031 C 
ATOM     48  C   UNL A   1      47.099  24.462  26.594  1.00  0.00     0.029 A 
ATOM     49  C   UNL A   1      46.899  25.845  27.012  1.00  0.00     0.049 A 
ATOM     50  H   UNL A   1      45.124  26.738  27.638  1.00  0.00     0.167 HD
ATOM     51  C   UNL A   1      41.297  28.522  28.785  1.00  0.00     0.037 A 
ATOM     52  C   UNL A   1      47.857  26.790  27.062  1.00  0.00     0.037 A 
ATOM     53  C   UNL A   1      42.270  29.569  28.962  1.00  0.00     0.049 A 
ATOM     54  C   UNL A   1      47.498  28.176  27.526  1.00  0.00     0.074 A 
ATOM     55  C   UNL A   1      42.077  30.851  29.445  1.00  0.00     0.029 A 
ATOM     56  N   UNL A   1      43.618  29.453  28.658  1.00  0.00    -0.354 N 
ATOM     57  N   UNL A   1      46.335  28.644  27.908  1.00  0.00    -0.248 NA
ATOM     58  C   UNL A   1      48.588  29.160  27.574  1.00  0.00     0.031 C 
ATOM     59  C   UNL A   1      43.298  31.529  29.381  1.00  0.00     0.029 A 
ATOM     60  C   UNL A   1      44.265  30.651  28.917  1.00  0.00     0.049 A 
ATOM     61  H   UNL A   1      44.052  28.642  28.309  1.00  0.00     0.167 HD
ATOM     62  C   UNL A   1      46.557  29.967  28.271  1.00  0.00     0.074 A 
ATOM     63  C   UNL A   1      47.971  30.220  28.076  1.00  0.00     0.031 C 
ATOM     64  C   UNL A   1      45.673  30.888  28.725  1.00  0.00     0.037 A 
BRANCH  51  65
ATOM     65  C   UNL A   1      39.857  28.827  29.088  1.00  0.00     0.057 A 
ATOM     66  C   UNL A   1      38.965  29.251  28.095  1.00  0.00     0.134 A 
ATOM     67  C   UNL A   1      39.348  28.661  30.383  1.00  0.00     0.134 A 
ATOM     68  F   UNL A   1      39.388  29.442  26.836  1.00  0.00    -0.206 F 
ATOM     69  C   UNL A   1      37.626  29.526  28.383  1.00  0.00     0.040 A 
ATOM     70  C   UNL A   1      38.006  28.904  30.677  1.00  0.00     0.040 A 
ATOM     71  F   UNL A   1      40.145  28.253  31.381  1.00  0.00    -0.206 F 
ATOM     72  C   UNL A   1      37.142  29.345  29.676  1.00  0.00     0.006 A 
ENDBRANCH  51  65
BRANCH  52  73
ATOM     73  C   UNL A   1      49.253  26.456  26.682  1.00  0.00     0.057 A 
ATOM     74  C   UNL A   1      49.719  26.670  25.380  1.00  0.00     0.134 A 
ATOM     75  C   UNL A   1      50.151  25.907  27.606  1.00  0.00     0.134 A 
ATOM     76  F   UNL A   1      48.902  27.177  24.446  1.00  0.00    -0.206 F 
ATOM     77  C   UNL A   1      51.019  26.330  25.002  1.00  0.00     0.040 A 
ATOM     78  C   UNL A   1      51.463  25.588  27.250  1.00  0.00     0.040 A 
ATOM     79  F   UNL A   1      49.770  25.685  28.872  1.00  0.00    -0.206 F 
ATOM     80  C   UNL A   1      51.897  25.791  25.941  1.00  0.00     0.006 A 
ENDBRANCH  52  73
BRANCH  64  81
ATOM     81  C   UNL A   1      46.212  32.243  29.082  1.00  0.00     0.057 A 
ATOM     82  C   UNL A   1      46.705  32.535  30.360  1.00  0.00     0.134 A 
ATOM     83  C   UNL A   1      46.268  33.261  28.120  1.00  0.00     0.134 A 
ATOM     84  F   UNL A   1      46.670  31.609  31.331  1.00  0.00    -0.206 F 
ATOM     85  C   UNL A   1      47.210  33.798  30.676  1.00  0.00     0.040 A 
ATOM     86  C   UNL A   1      46.798  34.517  28.415  1.00  0.00     0.040 A 
ATOM     87  F   UNL A   1      45.822  33.046  26.873  1.00  0.00    -0.206 F 
ATOM     88  C   UNL A   1      47.264  34.790  29.700  1.00  0.00     0.006 A 
ENDBRANCH  64  81
ENDBRANCH  38  39
ENDBRANCH  30  33
ENDBRANCH  28  29
ENDBRANCH  27  28
ENDBRANCH  26  27
ENDBRANCH  25  26
ENDBRANCH   1  25
TORSDOF 19
ENDMDL
