MODEL 1
REMARK VINA RESULT:     -11.6      0.000      0.000
REMARK SMILES O=C(NCCCCCCNC(=O)c1c(F)cccc1NC(=O)c1ccc(Cl)nc1)c1ccc(-c2c3nc(c(-c4c(F)cccc4F)c4ccc([nH]4)c(-c4c(F)cccc4F)c4nc(c(-c5c(F)cccc5F)c5ccc2[nH]5)C=C4)C=C3)cc1
REMARK SMILES IDX 6 1 5 2 4 3 3 4 1 5 2 6 30 8 31 9 83 10 32 11 82 12 33 13
REMARK SMILES IDX 34 14 35 15 76 16 36 17 81 18 75 19 77 20 37 21 80 22 74 23
REMARK SMILES IDX 73 24 38 26 64 27 47 28 63 29 48 30 51 31 62 32 78 33 49 34
REMARK SMILES IDX 50 35 61 37 79 38 52 39 39 40 40 41 45 42 41 43 42 44 44 45
REMARK SMILES IDX 46 46 43 47 65 48 66 49 71 50 67 51 68 52 70 53 72 54 69 55
REMARK SMILES IDX 53 56 54 57 59 58 55 59 56 60 58 61 60 62 57 63 7 64 8 65
REMARK SMILES IDX 9 66 10 67 11 68 12 70 13 71 14 72 19 73 15 74 16 75 18 76
REMARK SMILES IDX 17 77 20 78 21 79 22 81 23 82 24 83 29 84 25 85 28 86 26 87
REMARK SMILES IDX 27 88
REMARK H PARENT 3 7 77 25 51 36 10 69 20 80
REMARK Flexibility Score: inf
ROOT
ATOM      1  C   UNL A   1      36.590  19.337  24.903  1.00  0.00     0.002 C 
ENDROOT
BRANCH   1   2
ATOM      2  C   UNL A   1      37.955  19.966  24.624  1.00  0.00     0.021 C 
BRANCH   2   3
ATOM      3  C   UNL A   1      38.873  20.094  25.832  1.00  0.00     0.116 C 
BRANCH   3   4
ATOM      4  N   UNL A   1      40.025  19.210  25.767  1.00  0.00    -0.352 N 
ATOM      5  O   UNL A   1      42.212  18.653  25.812  1.00  0.00    -0.269 OA
ATOM      6  C   UNL A   1      41.345  19.486  26.043  1.00  0.00     0.251 C 
ATOM      7  H   UNL A   1      39.834  18.286  25.487  1.00  0.00     0.163 HD
BRANCH   6   8
ATOM      8  C   UNL A   1      41.718  20.808  26.598  1.00  0.00     0.039 A 
ATOM      9  C   UNL A   1      41.741  21.022  27.977  1.00  0.00     0.014 A 
ATOM     10  C   UNL A   1      42.060  21.845  25.723  1.00  0.00     0.014 A 
ATOM     11  C   UNL A   1      41.969  22.300  28.474  1.00  0.00     0.010 A 
ATOM     12  C   UNL A   1      42.375  23.110  26.230  1.00  0.00     0.010 A 
ATOM     13  C   UNL A   1      42.309  23.355  27.608  1.00  0.00    -0.014 A 
BRANCH  13  14
ATOM     14  C   UNL A   1      42.672  24.669  28.195  1.00  0.00     0.031 A 
ATOM     15  C   UNL A   1      44.101  25.041  28.476  1.00  0.00     0.074 A 
ATOM     16  C   UNL A   1      41.685  25.562  28.412  1.00  0.00     0.049 A 
ATOM     17  N   UNL A   1      44.580  26.179  28.913  1.00  0.00    -0.248 NA
ATOM     18  C   UNL A   1      45.125  24.012  28.241  1.00  0.00     0.031 C 
ATOM     19  C   UNL A   1      40.260  25.307  28.187  1.00  0.00     0.029 A 
ATOM     20  N   UNL A   1      41.725  26.868  28.828  1.00  0.00    -0.354 N 
ATOM     21  C   UNL A   1      45.953  26.001  29.017  1.00  0.00     0.074 A 
ATOM     22  C   UNL A   1      46.233  24.639  28.616  1.00  0.00     0.031 C 
ATOM     23  C   UNL A   1      39.571  26.438  28.395  1.00  0.00     0.029 A 
ATOM     24  C   UNL A   1      40.496  27.479  28.829  1.00  0.00     0.049 A 
ATOM     25  H   UNL A   1      42.555  27.323  29.099  1.00  0.00     0.167 HD
ATOM     26  C   UNL A   1      46.891  26.900  29.402  1.00  0.00     0.037 A 
ATOM     27  C   UNL A   1      40.144  28.739  29.146  1.00  0.00     0.037 A 
ATOM     28  C   UNL A   1      46.609  28.261  29.783  1.00  0.00     0.049 A 
ATOM     29  C   UNL A   1      41.205  29.703  29.585  1.00  0.00     0.074 A 
ATOM     30  C   UNL A   1      47.501  29.249  30.166  1.00  0.00     0.029 A 
ATOM     31  N   UNL A   1      45.344  28.825  29.828  1.00  0.00    -0.354 N 
ATOM     32  N   UNL A   1      42.501  29.522  29.661  1.00  0.00    -0.248 NA
ATOM     33  C   UNL A   1      40.756  31.040  29.995  1.00  0.00     0.031 C 
ATOM     34  C   UNL A   1      46.772  30.400  30.478  1.00  0.00     0.029 A 
ATOM     35  C   UNL A   1      45.430  30.142  30.251  1.00  0.00     0.049 A 
ATOM     36  H   UNL A   1      44.508  28.360  29.596  1.00  0.00     0.167 HD
ATOM     37  C   UNL A   1      43.022  30.719  30.128  1.00  0.00     0.074 A 
ATOM     38  C   UNL A   1      41.907  31.630  30.286  1.00  0.00     0.031 C 
ATOM     39  C   UNL A   1      44.309  31.032  30.412  1.00  0.00     0.037 A 
BRANCH  26  40
ATOM     40  C   UNL A   1      48.324  26.457  29.433  1.00  0.00     0.057 A 
ATOM     41  C   UNL A   1      48.868  25.878  30.587  1.00  0.00     0.134 A 
ATOM     42  C   UNL A   1      49.193  26.708  28.364  1.00  0.00     0.134 A 
ATOM     43  F   UNL A   1      48.091  25.620  31.650  1.00  0.00    -0.206 F 
ATOM     44  C   UNL A   1      50.229  25.582  30.684  1.00  0.00     0.040 A 
ATOM     45  C   UNL A   1      50.553  26.400  28.443  1.00  0.00     0.040 A 
ATOM     46  F   UNL A   1      48.733  27.254  27.228  1.00  0.00    -0.206 F 
ATOM     47  C   UNL A   1      51.076  25.846  29.610  1.00  0.00     0.006 A 
ENDBRANCH  26  40
BRANCH  27  48
ATOM     48  C   UNL A   1      38.723  29.153  29.056  1.00  0.00     0.057 A 
ATOM     49  C   UNL A   1      37.871  29.084  30.166  1.00  0.00     0.134 A 
ATOM     50  C   UNL A   1      38.177  29.607  27.851  1.00  0.00     0.134 A 
ATOM     51  F   UNL A   1      38.333  28.651  31.348  1.00  0.00    -0.206 F 
ATOM     52  C   UNL A   1      36.524  29.433  30.076  1.00  0.00     0.040 A 
ATOM     53  C   UNL A   1      36.838  29.985  27.753  1.00  0.00     0.040 A 
ATOM     54  F   UNL A   1      38.947  29.710  26.758  1.00  0.00    -0.206 F 
ATOM     55  C   UNL A   1      36.004  29.890  28.867  1.00  0.00     0.006 A 
ENDBRANCH  27  48
BRANCH  39  56
ATOM     56  C   UNL A   1      44.577  32.414  30.924  1.00  0.00     0.057 A 
ATOM     57  C   UNL A   1      44.565  32.685  32.298  1.00  0.00     0.134 A 
ATOM     58  C   UNL A   1      44.812  33.484  30.052  1.00  0.00     0.134 A 
ATOM     59  F   UNL A   1      44.338  31.705  33.185  1.00  0.00    -0.206 F 
ATOM     60  C   UNL A   1      44.771  33.976  32.785  1.00  0.00     0.040 A 
ATOM     61  C   UNL A   1      45.043  34.774  30.529  1.00  0.00     0.040 A 
ATOM     62  F   UNL A   1      44.850  33.284  28.725  1.00  0.00    -0.206 F 
ATOM     63  C   UNL A   1      45.016  35.024  31.900  1.00  0.00     0.006 A 
ENDBRANCH  39  56
ENDBRANCH  13  14
ENDBRANCH   6   8
ENDBRANCH   3   4
ENDBRANCH   2   3
ENDBRANCH   1   2
BRANCH   1  64
ATOM     64  C   UNL A   1      35.414  20.312  25.012  1.00  0.00     0.002 C 
BRANCH  64  65
ATOM     65  C   UNL A   1      34.040  19.748  24.637  1.00  0.00     0.021 C 
BRANCH  65  66
ATOM     66  C   UNL A   1      32.849  20.446  25.284  1.00  0.00     0.116 C 
BRANCH  66  67
ATOM     67  N   UNL A   1      31.974  21.081  24.312  1.00  0.00    -0.352 N 
ATOM     68  C   UNL A   1      32.000  22.381  23.862  1.00  0.00     0.256 C 
ATOM     69  H   UNL A   1      31.273  20.509  23.927  1.00  0.00     0.163 HD
ATOM     70  O   UNL A   1      31.118  22.811  23.125  1.00  0.00    -0.269 OA
BRANCH  68  71
ATOM     71  C   UNL A   1      33.038  23.295  24.366  1.00  0.00     0.099 A 
ATOM     72  C   UNL A   1      34.253  23.372  23.678  1.00  0.00     0.138 A 
ATOM     73  C   UNL A   1      32.841  24.021  25.555  1.00  0.00     0.057 A 
ATOM     74  F   UNL A   1      34.420  22.738  22.507  1.00  0.00    -0.206 F 
ATOM     75  C   UNL A   1      35.331  24.063  24.214  1.00  0.00     0.040 A 
ATOM     76  C   UNL A   1      33.968  24.617  26.132  1.00  0.00     0.027 A 
ATOM     77  C   UNL A   1      35.200  24.652  25.465  1.00  0.00     0.005 A 
BRANCH  73  78
ATOM     78  N   UNL A   1      31.540  24.093  26.120  1.00  0.00    -0.321 N 
ATOM     79  C   UNL A   1      30.551  25.050  26.078  1.00  0.00     0.257 C 
ATOM     80  H   UNL A   1      31.296  23.298  26.646  1.00  0.00     0.170 HD
ATOM     81  O   UNL A   1      29.558  24.959  26.796  1.00  0.00    -0.269 OA
BRANCH  79  82
ATOM     82  C   UNL A   1      30.624  26.189  25.157  1.00  0.00     0.058 A 
ATOM     83  C   UNL A   1      31.273  27.381  25.489  1.00  0.00     0.018 A 
ATOM     84  C   UNL A   1      29.991  26.092  23.926  1.00  0.00     0.126 A 
ATOM     85  C   UNL A   1      31.178  28.462  24.615  1.00  0.00     0.042 A 
ATOM     86  N   UNL A   1      29.882  27.129  23.062  1.00  0.00    -0.244 NA
ATOM     87  C   UNL A   1      30.468  28.287  23.436  1.00  0.00     0.129 A 
ATOM     88  Cl  UNL A   1      30.226  29.593  22.354  1.00  0.00    -0.062 Cl
ENDBRANCH  79  82
ENDBRANCH  73  78
ENDBRANCH  68  71
ENDBRANCH  66  67
ENDBRANCH  65  66
ENDBRANCH  64  65
ENDBRANCH   1  64
TORSDOF 15
ENDMDL
MODEL 2
REMARK VINA RESULT:     -11.5      4.304      9.231
REMARK SMILES O=C(NCCCCCCNC(=O)c1c(F)cccc1NC(=O)c1ccc(Cl)nc1)c1ccc(-c2c3nc(c(-c4c(F)cccc4F)c4ccc([nH]4)c(-c4c(F)cccc4F)c4nc(c(-c5c(F)cccc5F)c5ccc2[nH]5)C=C4)C=C3)cc1
REMARK SMILES IDX 6 1 5 2 4 3 3 4 1 5 2 6 30 8 31 9 83 10 32 11 82 12 33 13
REMARK SMILES IDX 34 14 35 15 76 16 36 17 81 18 75 19 77 20 37 21 80 22 74 23
REMARK SMILES IDX 73 24 38 26 64 27 47 28 63 29 48 30 51 31 62 32 78 33 49 34
REMARK SMILES IDX 50 35 61 37 79 38 52 39 39 40 40 41 45 42 41 43 42 44 44 45
REMARK SMILES IDX 46 46 43 47 65 48 66 49 71 50 67 51 68 52 70 53 72 54 69 55
REMARK SMILES IDX 53 56 54 57 59 58 55 59 56 60 58 61 60 62 57 63 7 64 8 65
REMARK SMILES IDX 9 66 10 67 11 68 12 70 13 71 14 72 19 73 15 74 16 75 18 76
REMARK SMILES IDX 17 77 20 78 21 79 22 81 23 82 24 83 29 84 25 85 28 86 26 87
REMARK SMILES IDX 27 88
REMARK H PARENT 3 7 77 25 51 36 10 69 20 80
REMARK Flexibility Score: inf
ROOT
ATOM      1  C   UNL A   1      31.438  30.457  26.333  1.00  0.00     0.002 C 
ENDROOT
BRANCH   1   2
ATOM      2  C   UNL A   1      31.372  31.974  26.507  1.00  0.00     0.021 C 
BRANCH   2   3
ATOM      3  C   UNL A   1      32.652  32.629  27.006  1.00  0.00     0.116 C 
BRANCH   3   4
ATOM      4  N   UNL A   1      32.426  33.928  27.616  1.00  0.00    -0.352 N 
ATOM      5  O   UNL A   1      32.707  35.584  29.124  1.00  0.00    -0.269 OA
ATOM      6  C   UNL A   1      33.113  34.534  28.643  1.00  0.00     0.251 C 
ATOM      7  H   UNL A   1      31.677  34.446  27.243  1.00  0.00     0.163 HD
BRANCH   6   8
ATOM      8  C   UNL A   1      34.337  33.897  29.185  1.00  0.00     0.039 A 
ATOM      9  C   UNL A   1      34.249  32.851  30.103  1.00  0.00     0.014 A 
ATOM     10  C   UNL A   1      35.590  34.351  28.757  1.00  0.00     0.014 A 
ATOM     11  C   UNL A   1      35.404  32.352  30.695  1.00  0.00     0.010 A 
ATOM     12  C   UNL A   1      36.754  33.788  29.290  1.00  0.00     0.010 A 
ATOM     13  C   UNL A   1      36.671  32.800  30.281  1.00  0.00    -0.014 A 
BRANCH  13  14
ATOM     14  C   UNL A   1      37.878  32.146  30.846  1.00  0.00     0.031 A 
ATOM     15  C   UNL A   1      38.375  32.465  32.229  1.00  0.00     0.074 A 
ATOM     16  C   UNL A   1      38.490  31.197  30.108  1.00  0.00     0.049 A 
ATOM     17  N   UNL A   1      39.367  31.920  32.887  1.00  0.00    -0.248 NA
ATOM     18  C   UNL A   1      37.677  33.527  32.969  1.00  0.00     0.031 C 
ATOM     19  C   UNL A   1      38.103  30.814  28.748  1.00  0.00     0.029 A 
ATOM     20  N   UNL A   1      39.533  30.359  30.404  1.00  0.00    -0.354 N 
ATOM     21  C   UNL A   1      39.421  32.576  34.110  1.00  0.00     0.074 A 
ATOM     22  C   UNL A   1      38.374  33.576  34.097  1.00  0.00     0.031 C 
ATOM     23  C   UNL A   1      38.846  29.769  28.357  1.00  0.00     0.029 A 
ATOM     24  C   UNL A   1      39.804  29.451  29.409  1.00  0.00     0.049 A 
ATOM     25  H   UNL A   1      40.040  30.403  31.247  1.00  0.00     0.167 HD
ATOM     26  C   UNL A   1      40.262  32.354  35.148  1.00  0.00     0.037 A 
ATOM     27  C   UNL A   1      40.722  28.469  29.346  1.00  0.00     0.037 A 
ATOM     28  C   UNL A   1      41.291  31.345  35.162  1.00  0.00     0.049 A 
ATOM     29  C   UNL A   1      41.649  28.262  30.505  1.00  0.00     0.074 A 
ATOM     30  C   UNL A   1      42.176  31.034  36.181  1.00  0.00     0.029 A 
ATOM     31  N   UNL A   1      41.572  30.484  34.113  1.00  0.00    -0.354 N 
ATOM     32  N   UNL A   1      41.674  28.882  31.660  1.00  0.00    -0.248 NA
ATOM     33  C   UNL A   1      42.682  27.230  30.350  1.00  0.00     0.031 C 
ATOM     34  C   UNL A   1      43.017  30.010  35.734  1.00  0.00     0.029 A 
ATOM     35  C   UNL A   1      42.629  29.656  34.453  1.00  0.00     0.049 A 
ATOM     36  H   UNL A   1      41.093  30.466  33.253  1.00  0.00     0.167 HD
ATOM     37  C   UNL A   1      42.725  28.318  32.367  1.00  0.00     0.074 A 
ATOM     38  C   UNL A   1      43.290  27.283  31.527  1.00  0.00     0.031 C 
ATOM     39  C   UNL A   1      43.186  28.637  33.600  1.00  0.00     0.037 A 
BRANCH  26  40
ATOM     40  C   UNL A   1      40.117  33.209  36.371  1.00  0.00     0.057 A 
ATOM     41  C   UNL A   1      39.139  32.920  37.333  1.00  0.00     0.134 A 
ATOM     42  C   UNL A   1      40.865  34.381  36.541  1.00  0.00     0.134 A 
ATOM     43  F   UNL A   1      38.383  31.817  37.225  1.00  0.00    -0.206 F 
ATOM     44  C   UNL A   1      38.898  33.777  38.409  1.00  0.00     0.040 A 
ATOM     45  C   UNL A   1      40.644  35.236  37.623  1.00  0.00     0.040 A 
ATOM     46  F   UNL A   1      41.821  34.710  35.659  1.00  0.00    -0.206 F 
ATOM     47  C   UNL A   1      39.650  34.940  38.554  1.00  0.00     0.006 A 
ENDBRANCH  26  40
BRANCH  27  48
ATOM     48  C   UNL A   1      40.802  27.612  28.137  1.00  0.00     0.057 A 
ATOM     49  C   UNL A   1      40.132  26.385  28.068  1.00  0.00     0.134 A 
ATOM     50  C   UNL A   1      41.569  27.993  27.032  1.00  0.00     0.134 A 
ATOM     51  F   UNL A   1      39.386  25.961  29.097  1.00  0.00    -0.206 F 
ATOM     52  C   UNL A   1      40.238  25.557  26.950  1.00  0.00     0.040 A 
ATOM     53  C   UNL A   1      41.663  27.188  25.896  1.00  0.00     0.040 A 
ATOM     54  F   UNL A   1      42.220  29.166  27.033  1.00  0.00    -0.206 F 
ATOM     55  C   UNL A   1      41.002  25.961  25.857  1.00  0.00     0.006 A 
ENDBRANCH  27  48
BRANCH  39  56
ATOM     56  C   UNL A   1      44.362  27.861  34.110  1.00  0.00     0.057 A 
ATOM     57  C   UNL A   1      44.183  26.649  34.788  1.00  0.00     0.134 A 
ATOM     58  C   UNL A   1      45.671  28.335  33.960  1.00  0.00     0.134 A 
ATOM     59  F   UNL A   1      42.953  26.145  34.971  1.00  0.00    -0.206 F 
ATOM     60  C   UNL A   1      45.267  25.938  35.304  1.00  0.00     0.040 A 
ATOM     61  C   UNL A   1      46.764  27.621  34.451  1.00  0.00     0.040 A 
ATOM     62  F   UNL A   1      45.907  29.484  33.308  1.00  0.00    -0.206 F 
ATOM     63  C   UNL A   1      46.562  26.421  35.131  1.00  0.00     0.006 A 
ENDBRANCH  39  56
ENDBRANCH  13  14
ENDBRANCH   6   8
ENDBRANCH   3   4
ENDBRANCH   2   3
ENDBRANCH   1   2
BRANCH   1  64
ATOM     64  C   UNL A   1      31.698  29.957  24.909  1.00  0.00     0.002 C 
BRANCH  64  65
ATOM     65  C   UNL A   1      30.464  29.510  24.120  1.00  0.00     0.021 C 
BRANCH  65  66
ATOM     66  C   UNL A   1      30.748  28.633  22.905  1.00  0.00     0.116 C 
BRANCH  66  67
ATOM     67  N   UNL A   1      30.052  27.358  22.958  1.00  0.00    -0.352 N 
ATOM     68  C   UNL A   1      30.412  26.216  23.636  1.00  0.00     0.256 C 
ATOM     69  H   UNL A   1      29.215  27.304  22.443  1.00  0.00     0.163 HD
ATOM     70  O   UNL A   1      29.784  25.172  23.490  1.00  0.00    -0.269 OA
BRANCH  68  71
ATOM     71  C   UNL A   1      31.634  26.224  24.457  1.00  0.00     0.099 A 
ATOM     72  C   UNL A   1      31.529  26.559  25.810  1.00  0.00     0.138 A 
ATOM     73  C   UNL A   1      32.890  25.971  23.876  1.00  0.00     0.057 A 
ATOM     74  F   UNL A   1      30.328  26.731  26.384  1.00  0.00    -0.206 F 
ATOM     75  C   UNL A   1      32.664  26.771  26.580  1.00  0.00     0.040 A 
ATOM     76  C   UNL A   1      34.020  26.296  24.635  1.00  0.00     0.027 A 
ATOM     77  C   UNL A   1      33.913  26.681  25.979  1.00  0.00     0.005 A 
BRANCH  73  78
ATOM     78  N   UNL A   1      32.956  25.431  22.565  1.00  0.00    -0.321 N 
ATOM     79  C   UNL A   1      33.216  24.168  22.082  1.00  0.00     0.257 C 
ATOM     80  H   UNL A   1      32.779  26.093  21.859  1.00  0.00     0.170 HD
ATOM     81  O   UNL A   1      33.385  23.978  20.879  1.00  0.00    -0.269 OA
BRANCH  79  82
ATOM     82  C   UNL A   1      33.263  23.001  22.969  1.00  0.00     0.058 A 
ATOM     83  C   UNL A   1      34.380  22.703  23.755  1.00  0.00     0.018 A 
ATOM     84  C   UNL A   1      32.174  22.143  23.000  1.00  0.00     0.126 A 
ATOM     85  C   UNL A   1      34.399  21.504  24.464  1.00  0.00     0.042 A 
ATOM     86  N   UNL A   1      32.171  20.971  23.678  1.00  0.00    -0.244 NA
ATOM     87  C   UNL A   1      33.287  20.679  24.381  1.00  0.00     0.129 A 
ATOM     88  Cl  UNL A   1      33.270  19.147  25.146  1.00  0.00    -0.062 Cl
ENDBRANCH  79  82
ENDBRANCH  73  78
ENDBRANCH  68  71
ENDBRANCH  66  67
ENDBRANCH  65  66
ENDBRANCH  64  65
ENDBRANCH   1  64
TORSDOF 15
ENDMDL
MODEL 3
REMARK VINA RESULT:     -11.4      0.902      1.706
REMARK SMILES O=C(NCCCCCCNC(=O)c1c(F)cccc1NC(=O)c1ccc(Cl)nc1)c1ccc(-c2c3nc(c(-c4c(F)cccc4F)c4ccc([nH]4)c(-c4c(F)cccc4F)c4nc(c(-c5c(F)cccc5F)c5ccc2[nH]5)C=C4)C=C3)cc1
REMARK SMILES IDX 6 1 5 2 4 3 3 4 1 5 2 6 30 8 31 9 83 10 32 11 82 12 33 13
REMARK SMILES IDX 34 14 35 15 76 16 36 17 81 18 75 19 77 20 37 21 80 22 74 23
REMARK SMILES IDX 73 24 38 26 64 27 47 28 63 29 48 30 51 31 62 32 78 33 49 34
REMARK SMILES IDX 50 35 61 37 79 38 52 39 39 40 40 41 45 42 41 43 42 44 44 45
REMARK SMILES IDX 46 46 43 47 65 48 66 49 71 50 67 51 68 52 70 53 72 54 69 55
REMARK SMILES IDX 53 56 54 57 59 58 55 59 56 60 58 61 60 62 57 63 7 64 8 65
REMARK SMILES IDX 9 66 10 67 11 68 12 70 13 71 14 72 19 73 15 74 16 75 18 76
REMARK SMILES IDX 17 77 20 78 21 79 22 81 23 82 24 83 29 84 25 85 28 86 26 87
REMARK SMILES IDX 27 88
REMARK H PARENT 3 7 77 25 51 36 10 69 20 80
REMARK Flexibility Score: inf
ROOT
ATOM      1  C   UNL A   1      36.298  20.171  25.015  1.00  0.00     0.002 C 
ENDROOT
BRANCH   1   2
ATOM      2  C   UNL A   1      37.764  19.908  24.671  1.00  0.00     0.021 C 
BRANCH   2   3
ATOM      3  C   UNL A   1      38.753  20.147  25.803  1.00  0.00     0.116 C 
BRANCH   3   4
ATOM      4  N   UNL A   1      39.885  19.238  25.771  1.00  0.00    -0.352 N 
ATOM      5  O   UNL A   1      42.057  18.633  25.865  1.00  0.00    -0.269 OA
ATOM      6  C   UNL A   1      41.205  19.488  26.069  1.00  0.00     0.251 C 
ATOM      7  H   UNL A   1      39.679  18.315  25.499  1.00  0.00     0.163 HD
BRANCH   6   8
ATOM      8  C   UNL A   1      41.598  20.808  26.614  1.00  0.00     0.039 A 
ATOM      9  C   UNL A   1      41.543  21.058  27.986  1.00  0.00     0.014 A 
ATOM     10  C   UNL A   1      42.037  21.806  25.738  1.00  0.00     0.014 A 
ATOM     11  C   UNL A   1      41.792  22.339  28.466  1.00  0.00     0.010 A 
ATOM     12  C   UNL A   1      42.372  23.071  26.232  1.00  0.00     0.010 A 
ATOM     13  C   UNL A   1      42.230  23.355  27.598  1.00  0.00    -0.014 A 
BRANCH  13  14
ATOM     14  C   UNL A   1      42.611  24.670  28.174  1.00  0.00     0.031 A 
ATOM     15  C   UNL A   1      44.046  25.037  28.424  1.00  0.00     0.074 A 
ATOM     16  C   UNL A   1      41.631  25.566  28.411  1.00  0.00     0.049 A 
ATOM     17  N   UNL A   1      44.538  26.173  28.849  1.00  0.00    -0.248 NA
ATOM     18  C   UNL A   1      45.061  24.004  28.168  1.00  0.00     0.031 C 
ATOM     19  C   UNL A   1      40.201  25.315  28.218  1.00  0.00     0.029 A 
ATOM     20  N   UNL A   1      41.685  26.872  28.824  1.00  0.00    -0.354 N 
ATOM     21  C   UNL A   1      45.913  25.992  28.922  1.00  0.00     0.074 A 
ATOM     22  C   UNL A   1      46.180  24.628  28.517  1.00  0.00     0.031 C 
ATOM     23  C   UNL A   1      39.521  26.449  28.439  1.00  0.00     0.029 A 
ATOM     24  C   UNL A   1      40.458  27.488  28.851  1.00  0.00     0.049 A 
ATOM     25  H   UNL A   1      42.522  27.325  29.077  1.00  0.00     0.167 HD
ATOM     26  C   UNL A   1      46.862  26.888  29.286  1.00  0.00     0.037 A 
ATOM     27  C   UNL A   1      40.118  28.749  29.173  1.00  0.00     0.037 A 
ATOM     28  C   UNL A   1      46.593  28.250  29.671  1.00  0.00     0.049 A 
ATOM     29  C   UNL A   1      41.191  29.710  29.588  1.00  0.00     0.074 A 
ATOM     30  C   UNL A   1      47.496  29.236  30.032  1.00  0.00     0.029 A 
ATOM     31  N   UNL A   1      45.331  28.819  29.742  1.00  0.00    -0.354 N 
ATOM     32  N   UNL A   1      42.488  29.525  29.636  1.00  0.00    -0.248 NA
ATOM     33  C   UNL A   1      40.755  31.049  30.005  1.00  0.00     0.031 C 
ATOM     34  C   UNL A   1      46.778  30.390  30.359  1.00  0.00     0.029 A 
ATOM     35  C   UNL A   1      45.431  30.136  30.161  1.00  0.00     0.049 A 
ATOM     36  H   UNL A   1      44.489  28.356  29.529  1.00  0.00     0.167 HD
ATOM     37  C   UNL A   1      43.022  30.721  30.090  1.00  0.00     0.074 A 
ATOM     38  C   UNL A   1      41.915  31.636  30.270  1.00  0.00     0.031 C 
ATOM     39  C   UNL A   1      44.316  31.030  30.345  1.00  0.00     0.037 A 
BRANCH  26  40
ATOM     40  C   UNL A   1      48.294  26.440  29.286  1.00  0.00     0.057 A 
ATOM     41  C   UNL A   1      48.869  25.888  30.439  1.00  0.00     0.134 A 
ATOM     42  C   UNL A   1      49.132  26.660  28.186  1.00  0.00     0.134 A 
ATOM     43  F   UNL A   1      48.122  25.660  31.530  1.00  0.00    -0.206 F 
ATOM     44  C   UNL A   1      50.231  25.589  30.503  1.00  0.00     0.040 A 
ATOM     45  C   UNL A   1      50.492  26.349  28.234  1.00  0.00     0.040 A 
ATOM     46  F   UNL A   1      48.641  27.179  27.051  1.00  0.00    -0.206 F 
ATOM     47  C   UNL A   1      51.047  25.823  29.398  1.00  0.00     0.006 A 
ENDBRANCH  26  40
BRANCH  27  48
ATOM     48  C   UNL A   1      38.695  29.168  29.114  1.00  0.00     0.057 A 
ATOM     49  C   UNL A   1      38.125  29.648  27.929  1.00  0.00     0.134 A 
ATOM     50  C   UNL A   1      37.880  29.116  30.249  1.00  0.00     0.134 A 
ATOM     51  F   UNL A   1      38.857  29.727  26.809  1.00  0.00    -0.206 F 
ATOM     52  C   UNL A   1      36.799  30.080  27.879  1.00  0.00     0.040 A 
ATOM     53  C   UNL A   1      36.545  29.520  30.207  1.00  0.00     0.040 A 
ATOM     54  F   UNL A   1      38.365  28.650  31.409  1.00  0.00    -0.206 F 
ATOM     55  C   UNL A   1      36.004  30.013  29.020  1.00  0.00     0.006 A 
ENDBRANCH  27  48
BRANCH  39  56
ATOM     56  C   UNL A   1      44.600  32.412  30.849  1.00  0.00     0.057 A 
ATOM     57  C   UNL A   1      44.868  33.460  29.961  1.00  0.00     0.134 A 
ATOM     58  C   UNL A   1      44.645  32.694  32.220  1.00  0.00     0.134 A 
ATOM     59  F   UNL A   1      44.848  33.252  28.635  1.00  0.00    -0.206 F 
ATOM     60  C   UNL A   1      45.175  34.741  30.419  1.00  0.00     0.040 A 
ATOM     61  C   UNL A   1      44.928  33.977  32.690  1.00  0.00     0.040 A 
ATOM     62  F   UNL A   1      44.385  31.733  33.121  1.00  0.00    -0.206 F 
ATOM     63  C   UNL A   1      45.201  35.003  31.788  1.00  0.00     0.006 A 
ENDBRANCH  39  56
ENDBRANCH  13  14
ENDBRANCH   6   8
ENDBRANCH   3   4
ENDBRANCH   2   3
ENDBRANCH   1   2
BRANCH   1  64
ATOM     64  C   UNL A   1      35.999  21.512  25.693  1.00  0.00     0.002 C 
BRANCH  64  65
ATOM     65  C   UNL A   1      34.597  21.663  26.288  1.00  0.00     0.021 C 
BRANCH  65  66
ATOM     66  C   UNL A   1      33.506  20.841  25.609  1.00  0.00     0.116 C 
BRANCH  66  67
ATOM     67  N   UNL A   1      32.167  21.286  25.959  1.00  0.00    -0.352 N 
ATOM     68  C   UNL A   1      31.471  22.366  25.466  1.00  0.00     0.256 C 
ATOM     69  H   UNL A   1      31.698  20.747  26.635  1.00  0.00     0.163 HD
ATOM     70  O   UNL A   1      30.389  22.690  25.946  1.00  0.00    -0.269 OA
BRANCH  68  71
ATOM     71  C   UNL A   1      32.089  23.206  24.428  1.00  0.00     0.099 A 
ATOM     72  C   UNL A   1      32.317  22.650  23.165  1.00  0.00     0.138 A 
ATOM     73  C   UNL A   1      32.509  24.517  24.720  1.00  0.00     0.057 A 
ATOM     74  F   UNL A   1      31.856  21.428  22.860  1.00  0.00    -0.206 F 
ATOM     75  C   UNL A   1      33.069  23.328  22.216  1.00  0.00     0.040 A 
ATOM     76  C   UNL A   1      33.356  25.136  23.794  1.00  0.00     0.027 A 
ATOM     77  C   UNL A   1      33.625  24.556  22.547  1.00  0.00     0.005 A 
BRANCH  73  78
ATOM     78  N   UNL A   1      32.084  25.131  25.927  1.00  0.00    -0.321 N 
ATOM     79  C   UNL A   1      31.489  26.341  26.206  1.00  0.00     0.257 C 
ATOM     80  H   UNL A   1      32.247  24.581  26.727  1.00  0.00     0.170 HD
ATOM     81  O   UNL A   1      31.367  26.729  27.365  1.00  0.00    -0.269 OA
BRANCH  79  82
ATOM     82  C   UNL A   1      30.947  27.193  25.142  1.00  0.00     0.058 A 
ATOM     83  C   UNL A   1      29.960  26.750  24.257  1.00  0.00     0.018 A 
ATOM     84  C   UNL A   1      31.461  28.472  24.985  1.00  0.00     0.126 A 
ATOM     85  C   UNL A   1      29.599  27.571  23.190  1.00  0.00     0.042 A 
ATOM     86  N   UNL A   1      31.129  29.286  23.955  1.00  0.00    -0.244 NA
ATOM     87  C   UNL A   1      30.217  28.808  23.081  1.00  0.00     0.129 A 
ATOM     88  Cl  UNL A   1      29.897  29.834  21.748  1.00  0.00    -0.062 Cl
ENDBRANCH  79  82
ENDBRANCH  73  78
ENDBRANCH  68  71
ENDBRANCH  66  67
ENDBRANCH  65  66
ENDBRANCH  64  65
ENDBRANCH   1  64
TORSDOF 15
ENDMDL
