MODEL 1
REMARK VINA RESULT:     -11.8      0.000      0.000
REMARK SMILES Cc1cc2c(c(C)c1Br)C=C(C(=O)NCCCCCCNC(=O)c1ccc(-c3c4nc(c(-c5c(F)cccc5F)c5ccc([nH]5)c(-c5c(F)cccc5F)c5nc(c(-c6c(F)cccc6F)c6ccc3[nH]6)C=C5)C=C4)cc1)[C@@H](C(F)(F)F)O2
REMARK SMILES IDX 18 1 17 2 16 3 15 4 14 5 12 6 13 7 11 9 1 10 2 11 3 12 8 13
REMARK SMILES IDX 4 14 6 15 9 16 5 17 83 18 7 19 10 20 78 21 79 22 80 23 81 24
REMARK SMILES IDX 82 25 19 26 20 27 21 28 22 29 23 31 24 32 25 33 77 34 26 35
REMARK SMILES IDX 76 36 27 37 28 38 29 39 70 40 30 41 75 42 69 43 71 44 31 45
REMARK SMILES IDX 74 46 68 47 67 48 32 50 58 51 41 52 57 53 42 54 45 55 56 56
REMARK SMILES IDX 72 57 43 58 44 59 55 61 73 62 46 63 33 64 34 65 39 66 35 67
REMARK SMILES IDX 36 68 38 69 40 70 37 71 59 72 60 73 65 74 61 75 62 76 64 77
REMARK SMILES IDX 66 78 63 79 47 80 48 81 53 82 49 83 50 84 52 85 54 86 51 87
REMARK H PARENT 14 8 21 30 71 49 45 60
REMARK Flexibility Score: inf
ROOT
ATOM      1  C   UNL A   1      36.925  20.214  24.620  1.00  0.00     0.002 C 
ENDROOT
BRANCH   1   2
ATOM      2  C   UNL A   1      37.283  21.705  24.688  1.00  0.00     0.002 C 
BRANCH   2   3
ATOM      3  C   UNL A   1      36.860  22.524  23.467  1.00  0.00     0.021 C 
BRANCH   3   4
ATOM      4  C   UNL A   1      35.501  23.194  23.630  1.00  0.00     0.116 C 
BRANCH   4   5
ATOM      5  N   UNL A   1      35.068  23.205  25.014  1.00  0.00    -0.352 N 
ATOM      6  C   UNL A   1      34.154  23.866  25.762  1.00  0.00     0.251 C 
ATOM      7  O   UNL A   1      34.101  23.528  26.949  1.00  0.00    -0.270 OA
ATOM      8  H   UNL A   1      35.575  22.557  25.554  1.00  0.00     0.163 HD
BRANCH   6   9
ATOM      9  C   UNL A   1      33.245  24.939  25.257  1.00  0.00     0.067 C 
ATOM     10  C   UNL A   1      30.017  30.385  23.768  1.00  0.00     0.046 C 
ATOM     11  C   UNL A   1      30.914  29.347  24.383  1.00  0.00    -0.033 A 
ATOM     12  C   UNL A   1      30.962  28.099  23.759  1.00  0.00     0.051 A 
ATOM     13  C   UNL A   1      31.654  29.539  25.570  1.00  0.00     0.024 A 
ATOM     14  C   UNL A   1      31.744  27.075  24.276  1.00  0.00     0.128 A 
ATOM     15  C   UNL A   1      32.476  28.506  26.097  1.00  0.00    -0.026 A 
ATOM     16  Br  UNL A   1      31.511  31.225  26.463  1.00  0.00    -0.050 Br
ATOM     17  C   UNL A   1      32.520  27.259  25.421  1.00  0.00     0.021 A 
ATOM     18  O   UNL A   1      31.714  25.921  23.553  1.00  0.00    -0.475 OA
ATOM     19  C   UNL A   1      33.308  28.687  27.346  1.00  0.00     0.046 C 
ATOM     20  C   UNL A   1      33.376  26.145  25.842  1.00  0.00     0.026 C 
ATOM     21  C   UNL A   1      32.216  24.725  24.191  1.00  0.00     0.314 C 
BRANCH  21  22
ATOM     22  C   UNL A   1      31.027  23.870  24.668  1.00  0.00     0.429 C 
ATOM     23  F   UNL A   1      30.193  23.603  23.631  1.00  0.00    -0.167 F 
ATOM     24  F   UNL A   1      31.411  22.669  25.162  1.00  0.00    -0.167 F 
ATOM     25  F   UNL A   1      30.299  24.478  25.629  1.00  0.00    -0.167 F 
ENDBRANCH  21  22
ENDBRANCH   6   9
ENDBRANCH   4   5
ENDBRANCH   3   4
ENDBRANCH   2   3
ENDBRANCH   1   2
BRANCH   1  26
ATOM     26  C   UNL A   1      38.058  19.256  24.998  1.00  0.00     0.021 C 
BRANCH  26  27
ATOM     27  C   UNL A   1      39.180  19.899  25.804  1.00  0.00     0.116 C 
BRANCH  27  28
ATOM     28  N   UNL A   1      40.340  19.028  25.894  1.00  0.00    -0.352 N 
ATOM     29  C   UNL A   1      41.654  19.357  26.093  1.00  0.00     0.251 C 
ATOM     30  H   UNL A   1      40.155  18.066  25.799  1.00  0.00     0.163 HD
ATOM     31  O   UNL A   1      42.538  18.523  25.908  1.00  0.00    -0.269 OA
BRANCH  29  32
ATOM     32  C   UNL A   1      42.007  20.722  26.525  1.00  0.00     0.039 A 
ATOM     33  C   UNL A   1      42.330  21.676  25.558  1.00  0.00     0.014 A 
ATOM     34  C   UNL A   1      42.033  21.053  27.883  1.00  0.00     0.014 A 
ATOM     35  C   UNL A   1      42.642  22.977  25.953  1.00  0.00     0.010 A 
ATOM     36  C   UNL A   1      42.270  22.367  28.270  1.00  0.00     0.010 A 
ATOM     37  C   UNL A   1      42.592  23.336  27.310  1.00  0.00    -0.014 A 
BRANCH  37  38
ATOM     38  C   UNL A   1      42.911  24.717  27.746  1.00  0.00     0.031 A 
ATOM     39  C   UNL A   1      44.346  25.141  27.890  1.00  0.00     0.074 A 
ATOM     40  C   UNL A   1      41.914  25.571  28.041  1.00  0.00     0.049 A 
ATOM     41  N   UNL A   1      44.831  26.284  28.302  1.00  0.00    -0.248 NA
ATOM     42  C   UNL A   1      45.372  24.143  27.544  1.00  0.00     0.031 C 
ATOM     43  C   UNL A   1      40.485  25.263  27.961  1.00  0.00     0.029 A 
ATOM     44  N   UNL A   1      41.950  26.875  28.467  1.00  0.00    -0.354 N 
ATOM     45  C   UNL A   1      46.211  26.142  28.265  1.00  0.00     0.074 A 
ATOM     46  C   UNL A   1      46.490  24.785  27.853  1.00  0.00     0.031 C 
ATOM     47  C   UNL A   1      39.781  26.357  28.297  1.00  0.00     0.029 A 
ATOM     48  C   UNL A   1      40.707  27.427  28.655  1.00  0.00     0.049 A 
ATOM     49  H   UNL A   1      42.788  27.367  28.625  1.00  0.00     0.167 HD
ATOM     50  C   UNL A   1      47.161  27.070  28.523  1.00  0.00     0.037 A 
ATOM     51  C   UNL A   1      40.354  28.659  29.071  1.00  0.00     0.037 A 
ATOM     52  C   UNL A   1      46.878  28.426  28.913  1.00  0.00     0.049 A 
ATOM     53  C   UNL A   1      41.432  29.659  29.391  1.00  0.00     0.074 A 
ATOM     54  C   UNL A   1      47.771  29.453  29.161  1.00  0.00     0.029 A 
ATOM     55  N   UNL A   1      45.607  28.942  29.110  1.00  0.00    -0.354 N 
ATOM     56  N   UNL A   1      42.733  29.526  29.307  1.00  0.00    -0.248 NA
ATOM     57  C   UNL A   1      40.992  30.980  29.863  1.00  0.00     0.031 C 
ATOM     58  C   UNL A   1      47.043  30.577  29.557  1.00  0.00     0.029 A 
ATOM     59  C   UNL A   1      45.692  30.268  29.502  1.00  0.00     0.049 A 
ATOM     60  H   UNL A   1      44.767  28.441  28.989  1.00  0.00     0.167 HD
ATOM     61  C   UNL A   1      43.267  30.750  29.692  1.00  0.00     0.074 A 
ATOM     62  C   UNL A   1      42.147  31.618  29.990  1.00  0.00     0.031 C 
ATOM     63  C   UNL A   1      44.568  31.120  29.791  1.00  0.00     0.037 A 
BRANCH  50  64
ATOM     64  C   UNL A   1      48.597  26.662  28.374  1.00  0.00     0.057 A 
ATOM     65  C   UNL A   1      49.330  26.144  29.450  1.00  0.00     0.134 A 
ATOM     66  C   UNL A   1      49.235  26.723  27.128  1.00  0.00     0.134 A 
ATOM     67  F   UNL A   1      48.783  26.073  30.673  1.00  0.00    -0.206 F 
ATOM     68  C   UNL A   1      50.648  25.712  29.296  1.00  0.00     0.040 A 
ATOM     69  C   UNL A   1      50.544  26.267  26.955  1.00  0.00     0.040 A 
ATOM     70  F   UNL A   1      48.591  27.204  26.055  1.00  0.00    -0.206 F 
ATOM     71  C   UNL A   1      51.254  25.762  28.043  1.00  0.00     0.006 A 
ENDBRANCH  50  64
BRANCH  51  72
ATOM     72  C   UNL A   1      38.918  29.022  29.180  1.00  0.00     0.057 A 
ATOM     73  C   UNL A   1      38.222  28.856  30.383  1.00  0.00     0.134 A 
ATOM     74  C   UNL A   1      38.208  29.548  28.094  1.00  0.00     0.134 A 
ATOM     75  F   UNL A   1      38.842  28.340  31.456  1.00  0.00    -0.206 F 
ATOM     76  C   UNL A   1      36.871  29.188  30.500  1.00  0.00     0.040 A 
ATOM     77  C   UNL A   1      36.865  29.909  28.203  1.00  0.00     0.040 A 
ATOM     78  F   UNL A   1      38.818  29.737  26.913  1.00  0.00    -0.206 F 
ATOM     79  C   UNL A   1      36.191  29.722  29.408  1.00  0.00     0.006 A 
ENDBRANCH  51  72
BRANCH  63  80
ATOM     80  C   UNL A   1      44.858  32.527  30.226  1.00  0.00     0.057 A 
ATOM     81  C   UNL A   1      44.909  33.585  29.310  1.00  0.00     0.134 A 
ATOM     82  C   UNL A   1      45.012  32.837  31.584  1.00  0.00     0.134 A 
ATOM     83  F   UNL A   1      44.777  33.353  27.995  1.00  0.00    -0.206 F 
ATOM     84  C   UNL A   1      45.118  34.900  29.727  1.00  0.00     0.040 A 
ATOM     85  C   UNL A   1      45.193  34.152  32.015  1.00  0.00     0.040 A 
ATOM     86  F   UNL A   1      44.961  31.873  32.514  1.00  0.00    -0.206 F 
ATOM     87  C   UNL A   1      45.250  35.187  31.085  1.00  0.00     0.006 A 
ENDBRANCH  63  80
ENDBRANCH  37  38
ENDBRANCH  29  32
ENDBRANCH  27  28
ENDBRANCH  26  27
ENDBRANCH   1  26
TORSDOF 14
ENDMDL
MODEL 2
REMARK VINA RESULT:     -11.8      5.202     10.903
REMARK SMILES Cc1cc2c(c(C)c1Br)C=C(C(=O)NCCCCCCNC(=O)c1ccc(-c3c4nc(c(-c5c(F)cccc5F)c5ccc([nH]5)c(-c5c(F)cccc5F)c5nc(c(-c6c(F)cccc6F)c6ccc3[nH]6)C=C5)C=C4)cc1)[C@@H](C(F)(F)F)O2
REMARK SMILES IDX 18 1 17 2 16 3 15 4 14 5 12 6 13 7 11 9 1 10 2 11 3 12 8 13
REMARK SMILES IDX 4 14 6 15 9 16 5 17 83 18 7 19 10 20 78 21 79 22 80 23 81 24
REMARK SMILES IDX 82 25 19 26 20 27 21 28 22 29 23 31 24 32 25 33 77 34 26 35
REMARK SMILES IDX 76 36 27 37 28 38 29 39 70 40 30 41 75 42 69 43 71 44 31 45
REMARK SMILES IDX 74 46 68 47 67 48 32 50 58 51 41 52 57 53 42 54 45 55 56 56
REMARK SMILES IDX 72 57 43 58 44 59 55 61 73 62 46 63 33 64 34 65 39 66 35 67
REMARK SMILES IDX 36 68 38 69 40 70 37 71 59 72 60 73 65 74 61 75 62 76 64 77
REMARK SMILES IDX 66 78 63 79 47 80 48 81 53 82 49 83 50 84 52 85 54 86 51 87
REMARK H PARENT 14 8 21 30 71 49 45 60
REMARK Flexibility Score: inf
ROOT
ATOM      1  C   UNL A   1      33.350  35.258  30.052  1.00  0.00     0.002 C 
ENDROOT
BRANCH   1   2
ATOM      2  C   UNL A   1      33.562  36.674  30.603  1.00  0.00     0.002 C 
BRANCH   2   3
ATOM      3  C   UNL A   1      33.144  36.866  32.062  1.00  0.00     0.021 C 
BRANCH   3   4
ATOM      4  C   UNL A   1      34.239  36.501  33.057  1.00  0.00     0.116 C 
BRANCH   4   5
ATOM      5  N   UNL A   1      34.188  35.098  33.422  1.00  0.00    -0.352 N 
ATOM      6  C   UNL A   1      35.074  34.119  33.723  1.00  0.00     0.251 C 
ATOM      7  O   UNL A   1      34.572  33.028  34.013  1.00  0.00    -0.270 OA
ATOM      8  H   UNL A   1      33.261  34.770  33.462  1.00  0.00     0.163 HD
BRANCH   6   9
ATOM      9  C   UNL A   1      36.559  34.274  33.721  1.00  0.00     0.067 C 
ATOM     10  C   UNL A   1      42.890  35.049  32.446  1.00  0.00     0.046 C 
ATOM     11  C   UNL A   1      41.407  34.811  32.365  1.00  0.00    -0.033 A 
ATOM     12  C   UNL A   1      40.673  34.970  33.543  1.00  0.00     0.051 A 
ATOM     13  C   UNL A   1      40.733  34.388  31.199  1.00  0.00     0.024 A 
ATOM     14  C   UNL A   1      39.304  34.745  33.562  1.00  0.00     0.128 A 
ATOM     15  C   UNL A   1      39.327  34.177  31.201  1.00  0.00    -0.026 A 
ATOM     16  Br  UNL A   1      41.763  34.091  29.615  1.00  0.00    -0.050 Br
ATOM     17  C   UNL A   1      38.611  34.372  32.410  1.00  0.00     0.021 A 
ATOM     18  O   UNL A   1      38.714  34.960  34.772  1.00  0.00    -0.475 OA
ATOM     19  C   UNL A   1      38.567  33.755  29.964  1.00  0.00     0.046 C 
ATOM     20  C   UNL A   1      37.153  34.239  32.513  1.00  0.00     0.026 C 
ATOM     21  C   UNL A   1      37.382  34.431  34.962  1.00  0.00     0.314 C 
BRANCH  21  22
ATOM     22  C   UNL A   1      37.466  33.138  35.794  1.00  0.00     0.429 C 
ATOM     23  F   UNL A   1      36.507  33.132  36.754  1.00  0.00    -0.167 F 
ATOM     24  F   UNL A   1      37.264  32.024  35.052  1.00  0.00    -0.167 F 
ATOM     25  F   UNL A   1      38.659  32.991  36.410  1.00  0.00    -0.167 F 
ENDBRANCH  21  22
ENDBRANCH   6   9
ENDBRANCH   4   5
ENDBRANCH   3   4
ENDBRANCH   2   3
ENDBRANCH   1   2
BRANCH   1  26
ATOM     26  C   UNL A   1      34.628  34.529  29.625  1.00  0.00     0.021 C 
BRANCH  26  27
ATOM     27  C   UNL A   1      34.655  33.049  29.987  1.00  0.00     0.116 C 
BRANCH  27  28
ATOM     28  N   UNL A   1      34.049  32.233  28.947  1.00  0.00    -0.352 N 
ATOM     29  C   UNL A   1      34.592  31.198  28.235  1.00  0.00     0.251 C 
ATOM     30  H   UNL A   1      33.117  32.457  28.724  1.00  0.00     0.163 HD
ATOM     31  O   UNL A   1      34.026  30.771  27.230  1.00  0.00    -0.269 OA
BRANCH  29  32
ATOM     32  C   UNL A   1      35.866  30.600  28.674  1.00  0.00     0.039 A 
ATOM     33  C   UNL A   1      37.044  30.950  28.011  1.00  0.00     0.014 A 
ATOM     34  C   UNL A   1      35.893  29.682  29.729  1.00  0.00     0.014 A 
ATOM     35  C   UNL A   1      38.258  30.409  28.433  1.00  0.00     0.010 A 
ATOM     36  C   UNL A   1      37.112  29.202  30.197  1.00  0.00     0.010 A 
ATOM     37  C   UNL A   1      38.302  29.549  29.543  1.00  0.00    -0.014 A 
BRANCH  37  38
ATOM     38  C   UNL A   1      39.585  28.973  30.011  1.00  0.00     0.031 A 
ATOM     39  C   UNL A   1      40.265  29.549  31.221  1.00  0.00     0.074 A 
ATOM     40  C   UNL A   1      40.150  27.958  29.329  1.00  0.00     0.049 A 
ATOM     41  N   UNL A   1      41.411  29.219  31.760  1.00  0.00    -0.248 NA
ATOM     42  C   UNL A   1      39.576  30.655  31.907  1.00  0.00     0.031 C 
ATOM     43  C   UNL A   1      39.594  27.335  28.127  1.00  0.00     0.029 A 
ATOM     44  N   UNL A   1      41.318  27.273  29.551  1.00  0.00    -0.354 N 
ATOM     45  C   UNL A   1      41.578  30.073  32.841  1.00  0.00     0.074 A 
ATOM     46  C   UNL A   1      40.452  30.978  32.848  1.00  0.00     0.031 C 
ATOM     47  C   UNL A   1      40.405  26.339  27.735  1.00  0.00     0.029 A 
ATOM     48  C   UNL A   1      41.555  26.280  28.631  1.00  0.00     0.049 A 
ATOM     49  H   UNL A   1      41.927  27.474  30.297  1.00  0.00     0.167 HD
ATOM     50  C   UNL A   1      42.568  30.081  33.763  1.00  0.00     0.037 A 
ATOM     51  C   UNL A   1      42.588  25.422  28.524  1.00  0.00     0.037 A 
ATOM     52  C   UNL A   1      43.677  29.164  33.763  1.00  0.00     0.049 A 
ATOM     53  C   UNL A   1      43.697  25.480  29.539  1.00  0.00     0.074 A 
ATOM     54  C   UNL A   1      44.711  29.067  34.676  1.00  0.00     0.029 A 
ATOM     55  N   UNL A   1      43.893  28.185  32.805  1.00  0.00    -0.354 N 
ATOM     56  N   UNL A   1      43.819  26.262  30.584  1.00  0.00    -0.248 NA
ATOM     57  C   UNL A   1      44.810  24.537  29.361  1.00  0.00     0.031 C 
ATOM     58  C   UNL A   1      45.581  28.063  34.243  1.00  0.00     0.029 A 
ATOM     59  C   UNL A   1      45.059  27.496  33.091  1.00  0.00     0.049 A 
ATOM     60  H   UNL A   1      43.303  28.006  32.037  1.00  0.00     0.167 HD
ATOM     61  C   UNL A   1      45.007  25.892  31.201  1.00  0.00     0.074 A 
ATOM     62  C   UNL A   1      45.558  24.800  30.423  1.00  0.00     0.031 C 
ATOM     63  C   UNL A   1      45.591  26.409  32.310  1.00  0.00     0.037 A 
BRANCH  50  64
ATOM     64  C   UNL A   1      42.492  31.099  34.863  1.00  0.00     0.057 A 
ATOM     65  C   UNL A   1      43.208  32.302  34.802  1.00  0.00     0.134 A 
ATOM     66  C   UNL A   1      41.643  30.908  35.961  1.00  0.00     0.134 A 
ATOM     67  F   UNL A   1      44.049  32.541  33.784  1.00  0.00    -0.206 F 
ATOM     68  C   UNL A   1      43.092  33.273  35.797  1.00  0.00     0.040 A 
ATOM     69  C   UNL A   1      41.498  31.883  36.949  1.00  0.00     0.040 A 
ATOM     70  F   UNL A   1      40.926  29.781  36.080  1.00  0.00    -0.206 F 
ATOM     71  C   UNL A   1      42.226  33.069  36.869  1.00  0.00     0.006 A 
ENDBRANCH  50  64
BRANCH  51  72
ATOM     72  C   UNL A   1      42.606  24.417  27.431  1.00  0.00     0.057 A 
ATOM     73  C   UNL A   1      43.151  24.723  26.179  1.00  0.00     0.134 A 
ATOM     74  C   UNL A   1      42.087  23.129  27.608  1.00  0.00     0.134 A 
ATOM     75  F   UNL A   1      43.648  25.946  25.940  1.00  0.00    -0.206 F 
ATOM     76  C   UNL A   1      43.170  23.791  25.140  1.00  0.00     0.040 A 
ATOM     77  C   UNL A   1      42.123  22.177  26.588  1.00  0.00     0.040 A 
ATOM     78  F   UNL A   1      41.554  22.768  28.786  1.00  0.00    -0.206 F 
ATOM     79  C   UNL A   1      42.661  22.511  25.346  1.00  0.00     0.006 A 
ENDBRANCH  51  72
BRANCH  63  80
ATOM     80  C   UNL A   1      46.885  25.798  32.763  1.00  0.00     0.057 A 
ATOM     81  C   UNL A   1      48.120  26.239  32.273  1.00  0.00     0.134 A 
ATOM     82  C   UNL A   1      46.897  24.808  33.755  1.00  0.00     0.134 A 
ATOM     83  F   UNL A   1      48.176  27.179  31.317  1.00  0.00    -0.206 F 
ATOM     84  C   UNL A   1      49.322  25.709  32.744  1.00  0.00     0.040 A 
ATOM     85  C   UNL A   1      48.094  24.291  34.254  1.00  0.00     0.040 A 
ATOM     86  F   UNL A   1      45.750  24.349  34.276  1.00  0.00    -0.206 F 
ATOM     87  C   UNL A   1      49.310  24.739  33.745  1.00  0.00     0.006 A 
ENDBRANCH  63  80
ENDBRANCH  37  38
ENDBRANCH  29  32
ENDBRANCH  27  28
ENDBRANCH  26  27
ENDBRANCH   1  26
TORSDOF 14
ENDMDL
MODEL 3
REMARK VINA RESULT:     -11.8      2.787      7.723
REMARK SMILES Cc1cc2c(c(C)c1Br)C=C(C(=O)NCCCCCCNC(=O)c1ccc(-c3c4nc(c(-c5c(F)cccc5F)c5ccc([nH]5)c(-c5c(F)cccc5F)c5nc(c(-c6c(F)cccc6F)c6ccc3[nH]6)C=C5)C=C4)cc1)[C@@H](C(F)(F)F)O2
REMARK SMILES IDX 18 1 17 2 16 3 15 4 14 5 12 6 13 7 11 9 1 10 2 11 3 12 8 13
REMARK SMILES IDX 4 14 6 15 9 16 5 17 83 18 7 19 10 20 78 21 79 22 80 23 81 24
REMARK SMILES IDX 82 25 19 26 20 27 21 28 22 29 23 31 24 32 25 33 77 34 26 35
REMARK SMILES IDX 76 36 27 37 28 38 29 39 70 40 30 41 75 42 69 43 71 44 31 45
REMARK SMILES IDX 74 46 68 47 67 48 32 50 58 51 41 52 57 53 42 54 45 55 56 56
REMARK SMILES IDX 72 57 43 58 44 59 55 61 73 62 46 63 33 64 34 65 39 66 35 67
REMARK SMILES IDX 36 68 38 69 40 70 37 71 59 72 60 73 65 74 61 75 62 76 64 77
REMARK SMILES IDX 66 78 63 79 47 80 48 81 53 82 49 83 50 84 52 85 54 86 51 87
REMARK H PARENT 14 8 21 30 71 49 45 60
REMARK Flexibility Score: inf
ROOT
ATOM      1  C   UNL A   1      33.548  28.891  24.855  1.00  0.00     0.002 C 
ENDROOT
BRANCH   1   2
ATOM      2  C   UNL A   1      33.533  28.379  23.408  1.00  0.00     0.002 C 
BRANCH   2   3
ATOM      3  C   UNL A   1      33.217  26.890  23.255  1.00  0.00     0.021 C 
BRANCH   3   4
ATOM      4  C   UNL A   1      31.725  26.582  23.294  1.00  0.00     0.116 C 
BRANCH   4   5
ATOM      5  N   UNL A   1      31.278  26.258  24.635  1.00  0.00    -0.352 N 
ATOM      6  C   UNL A   1      31.458  25.253  25.525  1.00  0.00     0.251 C 
ATOM      7  O   UNL A   1      30.885  25.402  26.609  1.00  0.00    -0.270 OA
ATOM      8  H   UNL A   1      30.685  26.956  24.995  1.00  0.00     0.163 HD
BRANCH   6   9
ATOM      9  C   UNL A   1      32.273  24.025  25.281  1.00  0.00     0.067 C 
ATOM     10  C   UNL A   1      36.712  19.286  24.906  1.00  0.00     0.046 C 
ATOM     11  C   UNL A   1      35.983  20.585  25.115  1.00  0.00    -0.033 A 
ATOM     12  C   UNL A   1      34.601  20.578  24.913  1.00  0.00     0.051 A 
ATOM     13  C   UNL A   1      36.613  21.806  25.443  1.00  0.00     0.024 A 
ATOM     14  C   UNL A   1      33.855  21.740  25.059  1.00  0.00     0.128 A 
ATOM     15  C   UNL A   1      35.857  22.997  25.618  1.00  0.00    -0.026 A 
ATOM     16  Br  UNL A   1      38.517  21.819  25.632  1.00  0.00    -0.050 Br
ATOM     17  C   UNL A   1      34.452  22.946  25.428  1.00  0.00     0.021 A 
ATOM     18  O   UNL A   1      32.518  21.581  24.854  1.00  0.00    -0.475 OA
ATOM     19  C   UNL A   1      36.494  24.314  26.000  1.00  0.00     0.046 C 
ATOM     20  C   UNL A   1      33.569  24.098  25.638  1.00  0.00     0.026 C 
ATOM     21  C   UNL A   1      31.732  22.778  24.654  1.00  0.00     0.314 C 
BRANCH  21  22
ATOM     22  C   UNL A   1      31.435  22.942  23.152  1.00  0.00     0.429 C 
ATOM     23  F   UNL A   1      32.434  23.632  22.546  1.00  0.00    -0.167 F 
ATOM     24  F   UNL A   1      31.347  21.758  22.502  1.00  0.00    -0.167 F 
ATOM     25  F   UNL A   1      30.282  23.607  22.919  1.00  0.00    -0.167 F 
ENDBRANCH  21  22
ENDBRANCH   6   9
ENDBRANCH   4   5
ENDBRANCH   3   4
ENDBRANCH   2   3
ENDBRANCH   1   2
BRANCH   1  26
ATOM     26  C   UNL A   1      34.057  27.887  25.894  1.00  0.00     0.021 C 
BRANCH  26  27
ATOM     27  C   UNL A   1      33.712  28.247  27.333  1.00  0.00     0.116 C 
BRANCH  27  28
ATOM     28  N   UNL A   1      33.606  29.685  27.514  1.00  0.00    -0.352 N 
ATOM     29  C   UNL A   1      34.507  30.555  28.068  1.00  0.00     0.251 C 
ATOM     30  H   UNL A   1      32.768  30.091  27.194  1.00  0.00     0.163 HD
ATOM     31  O   UNL A   1      34.166  31.700  28.360  1.00  0.00    -0.269 OA
BRANCH  29  32
ATOM     32  C   UNL A   1      35.890  30.110  28.319  1.00  0.00     0.039 A 
ATOM     33  C   UNL A   1      36.810  30.134  27.269  1.00  0.00     0.014 A 
ATOM     34  C   UNL A   1      36.271  29.656  29.586  1.00  0.00     0.014 A 
ATOM     35  C   UNL A   1      38.128  29.739  27.501  1.00  0.00     0.010 A 
ATOM     36  C   UNL A   1      37.601  29.335  29.833  1.00  0.00     0.010 A 
ATOM     37  C   UNL A   1      38.536  29.358  28.790  1.00  0.00    -0.014 A 
BRANCH  37  38
ATOM     38  C   UNL A   1      39.935  28.944  29.055  1.00  0.00     0.031 A 
ATOM     39  C   UNL A   1      40.870  29.885  29.763  1.00  0.00     0.074 A 
ATOM     40  C   UNL A   1      40.368  27.742  28.631  1.00  0.00     0.049 A 
ATOM     41  N   UNL A   1      42.138  29.730  30.046  1.00  0.00    -0.248 NA
ATOM     42  C   UNL A   1      40.312  31.178  30.193  1.00  0.00     0.031 C 
ATOM     43  C   UNL A   1      39.557  26.757  27.913  1.00  0.00     0.029 A 
ATOM     44  N   UNL A   1      41.598  27.144  28.744  1.00  0.00    -0.354 N 
ATOM     45  C   UNL A   1      42.526  30.900  30.683  1.00  0.00     0.074 A 
ATOM     46  C   UNL A   1      41.382  31.782  30.691  1.00  0.00     0.031 C 
ATOM     47  C   UNL A   1      40.303  25.665  27.676  1.00  0.00     0.029 A 
ATOM     48  C   UNL A   1      41.652  25.889  28.188  1.00  0.00     0.049 A 
ATOM     49  H   UNL A   1      42.367  27.574  29.180  1.00  0.00     0.167 HD
ATOM     50  C   UNL A   1      43.722  31.200  31.240  1.00  0.00     0.037 A 
ATOM     51  C   UNL A   1      42.676  25.019  28.100  1.00  0.00     0.037 A 
ATOM     52  C   UNL A   1      44.853  30.309  31.247  1.00  0.00     0.049 A 
ATOM     53  C   UNL A   1      44.008  25.394  28.691  1.00  0.00     0.074 A 
ATOM     54  C   UNL A   1      46.097  30.506  31.818  1.00  0.00     0.029 A 
ATOM     55  N   UNL A   1      44.875  29.055  30.658  1.00  0.00    -0.354 N 
ATOM     56  N   UNL A   1      44.348  26.486  29.332  1.00  0.00    -0.248 NA
ATOM     57  C   UNL A   1      45.097  24.418  28.546  1.00  0.00     0.031 C 
ATOM     58  C   UNL A   1      46.889  29.392  31.532  1.00  0.00     0.029 A 
ATOM     59  C   UNL A   1      46.120  28.475  30.831  1.00  0.00     0.049 A 
ATOM     60  H   UNL A   1      44.116  28.637  30.189  1.00  0.00     0.167 HD
ATOM     61  C   UNL A   1      45.681  26.319  29.688  1.00  0.00     0.074 A 
ATOM     62  C   UNL A   1      46.080  25.011  29.208  1.00  0.00     0.031 C 
ATOM     63  C   UNL A   1      46.500  27.172  30.350  1.00  0.00     0.037 A 
BRANCH  50  64
ATOM     64  C   UNL A   1      43.870  32.537  31.905  1.00  0.00     0.057 A 
ATOM     65  C   UNL A   1      43.590  32.716  33.266  1.00  0.00     0.134 A 
ATOM     66  C   UNL A   1      44.363  33.641  31.196  1.00  0.00     0.134 A 
ATOM     67  F   UNL A   1      43.103  31.703  33.998  1.00  0.00    -0.206 F 
ATOM     68  C   UNL A   1      43.784  33.946  33.896  1.00  0.00     0.040 A 
ATOM     69  C   UNL A   1      44.586  34.868  31.821  1.00  0.00     0.040 A 
ATOM     70  F   UNL A   1      44.654  33.538  29.891  1.00  0.00    -0.206 F 
ATOM     71  C   UNL A   1      44.294  35.024  33.175  1.00  0.00     0.006 A 
ENDBRANCH  50  64
BRANCH  51  72
ATOM     72  C   UNL A   1      42.473  23.698  27.452  1.00  0.00     0.057 A 
ATOM     73  C   UNL A   1      42.134  22.569  28.208  1.00  0.00     0.134 A 
ATOM     74  C   UNL A   1      42.606  23.529  26.069  1.00  0.00     0.134 A 
ATOM     75  F   UNL A   1      42.010  22.661  29.540  1.00  0.00    -0.206 F 
ATOM     76  C   UNL A   1      41.946  21.320  27.615  1.00  0.00     0.040 A 
ATOM     77  C   UNL A   1      42.394  22.292  25.458  1.00  0.00     0.040 A 
ATOM     78  F   UNL A   1      42.924  24.572  25.286  1.00  0.00    -0.206 F 
ATOM     79  C   UNL A   1      42.070  21.181  26.234  1.00  0.00     0.006 A 
ENDBRANCH  51  72
BRANCH  63  80
ATOM     80  C   UNL A   1      47.908  26.720  30.612  1.00  0.00     0.057 A 
ATOM     81  C   UNL A   1      48.248  25.997  31.762  1.00  0.00     0.134 A 
ATOM     82  C   UNL A   1      48.917  26.945  29.666  1.00  0.00     0.134 A 
ATOM     83  F   UNL A   1      47.329  25.756  32.710  1.00  0.00    -0.206 F 
ATOM     84  C   UNL A   1      49.545  25.527  31.970  1.00  0.00     0.040 A 
ATOM     85  C   UNL A   1      50.211  26.454  29.849  1.00  0.00     0.040 A 
ATOM     86  F   UNL A   1      48.656  27.619  28.536  1.00  0.00    -0.206 F 
ATOM     87  C   UNL A   1      50.528  25.746  31.006  1.00  0.00     0.006 A 
ENDBRANCH  63  80
ENDBRANCH  37  38
ENDBRANCH  29  32
ENDBRANCH  27  28
ENDBRANCH  26  27
ENDBRANCH   1  26
TORSDOF 14
ENDMDL
