MODEL 1
REMARK VINA RESULT:     -11.3      0.000      0.000
REMARK SMILES O=C(CCC(=O)Nc1ccc(Oc2ccccc2Cl)cc1)NCCCCCCNC(=O)c1ccc(-c2c3nc(c(-c4c(F)cccc4F)c4ccc([nH]4)c(-c4c(F)cccc4F)c4nc(c(-c5c(F)cccc5F)c5ccc2[nH]5)C=C4)C=C3)cc1
REMARK SMILES IDX 24 1 23 2 22 3 1 4 2 5 3 7 4 8 5 9 6 10 7 11 8 13 9 14 21 15
REMARK SMILES IDX 10 16 20 17 11 18 12 19 13 20 14 21 18 22 15 23 17 24 19 25
REMARK SMILES IDX 16 26 25 27 26 28 27 29 28 30 29 31 30 32 31 34 32 35 33 36
REMARK SMILES IDX 85 37 34 38 84 39 35 40 36 41 37 42 78 43 38 44 83 45 77 46
REMARK SMILES IDX 79 47 39 48 82 49 76 50 75 51 40 53 66 54 49 55 65 56 50 57
REMARK SMILES IDX 53 58 64 59 80 60 51 61 52 62 63 64 81 65 54 66 41 67 42 68
REMARK SMILES IDX 47 69 43 70 44 71 46 72 48 73 45 74 67 75 68 76 73 77 69 78
REMARK SMILES IDX 70 79 72 80 74 81 71 82 55 83 56 84 61 85 57 86 58 87 60 88
REMARK SMILES IDX 62 89 59 90
REMARK H PARENT 22 6 7 12 29 33 79 52 53 63
REMARK Flexibility Score: inf
ROOT
ATOM      1  C   UNL A   1      32.315  28.011  26.686  1.00  0.00     0.021 C 
ENDROOT
BRANCH   1   2
ATOM      2  C   UNL A   1      31.314  27.207  25.869  1.00  0.00     0.116 C 
BRANCH   2   3
ATOM      3  N   UNL A   1      30.815  26.028  26.546  1.00  0.00    -0.356 N 
ATOM      4  O   UNL A   1      30.658  24.707  24.664  1.00  0.00    -0.275 OA
ATOM      5  C   UNL A   1      30.630  24.834  25.885  1.00  0.00     0.220 C 
ATOM      6  H   UNL A   1      30.604  26.080  27.505  1.00  0.00     0.163 HD
BRANCH   5   7
ATOM      7  C   UNL A   1      30.411  23.649  26.799  1.00  0.00     0.110 C 
BRANCH   7   8
ATOM      8  C   UNL A   1      31.309  22.441  26.536  1.00  0.00     0.110 C 
BRANCH   8   9
ATOM      9  C   UNL A   1      32.660  22.474  27.212  1.00  0.00     0.224 C 
ATOM     10  O   UNL A   1      32.719  22.246  28.428  1.00  0.00    -0.275 OA
ATOM     11  N   UNL A   1      33.834  22.789  26.594  1.00  0.00    -0.326 N 
ATOM     12  H   UNL A   1      34.628  22.497  27.098  1.00  0.00     0.169 HD
BRANCH  11  13
ATOM     13  C   UNL A   1      34.155  23.445  25.390  1.00  0.00     0.041 A 
ATOM     14  C   UNL A   1      34.273  24.844  25.456  1.00  0.00     0.030 A 
ATOM     15  C   UNL A   1      34.185  22.849  24.137  1.00  0.00     0.030 A 
ATOM     16  C   UNL A   1      34.202  25.624  24.291  1.00  0.00     0.049 A 
ATOM     17  C   UNL A   1      34.098  23.624  22.976  1.00  0.00     0.049 A 
ATOM     18  C   UNL A   1      34.037  25.014  23.049  1.00  0.00     0.127 A 
BRANCH  18  19
ATOM     19  O   UNL A   1      33.796  25.850  21.975  1.00  0.00    -0.456 OA
BRANCH  19  20
ATOM     20  C   UNL A   1      32.850  26.835  22.160  1.00  0.00     0.146 A 
ATOM     21  C   UNL A   1      31.505  26.490  21.991  1.00  0.00     0.049 A 
ATOM     22  C   UNL A   1      33.200  28.148  22.499  1.00  0.00     0.083 A 
ATOM     23  C   UNL A   1      30.508  27.430  22.247  1.00  0.00     0.004 A 
ATOM     24  C   UNL A   1      32.196  29.084  22.763  1.00  0.00     0.024 A 
ATOM     25  Cl  UNL A   1      34.845  28.660  22.571  1.00  0.00    -0.080 Cl
ATOM     26  C   UNL A   1      30.851  28.721  22.648  1.00  0.00     0.002 A 
ENDBRANCH  19  20
ENDBRANCH  18  19
ENDBRANCH  11  13
ENDBRANCH   8   9
ENDBRANCH   7   8
ENDBRANCH   5   7
ENDBRANCH   2   3
ENDBRANCH   1   2
BRANCH   1  27
ATOM     27  C   UNL A   1      31.807  29.373  27.174  1.00  0.00     0.002 C 
BRANCH  27  28
ATOM     28  C   UNL A   1      31.592  30.438  26.094  1.00  0.00     0.002 C 
BRANCH  28  29
ATOM     29  C   UNL A   1      31.439  31.875  26.594  1.00  0.00     0.021 C 
BRANCH  29  30
ATOM     30  C   UNL A   1      32.725  32.545  27.069  1.00  0.00     0.116 C 
BRANCH  30  31
ATOM     31  N   UNL A   1      32.520  33.899  27.560  1.00  0.00    -0.352 N 
ATOM     32  C   UNL A   1      33.182  34.573  28.556  1.00  0.00     0.251 C 
ATOM     33  H   UNL A   1      31.802  34.405  27.115  1.00  0.00     0.163 HD
ATOM     34  O   UNL A   1      32.797  35.685  28.912  1.00  0.00    -0.269 OA
BRANCH  32  35
ATOM     35  C   UNL A   1      34.340  33.947  29.229  1.00  0.00     0.039 A 
ATOM     36  C   UNL A   1      34.106  33.016  30.244  1.00  0.00     0.014 A 
ATOM     37  C   UNL A   1      35.649  34.267  28.857  1.00  0.00     0.014 A 
ATOM     38  C   UNL A   1      35.183  32.357  30.840  1.00  0.00     0.010 A 
ATOM     39  C   UNL A   1      36.715  33.553  29.396  1.00  0.00     0.010 A 
ATOM     40  C   UNL A   1      36.494  32.592  30.394  1.00  0.00    -0.014 A 
BRANCH  40  41
ATOM     41  C   UNL A   1      37.647  31.845  30.961  1.00  0.00     0.031 A 
ATOM     42  C   UNL A   1      38.165  32.180  32.331  1.00  0.00     0.074 A 
ATOM     43  C   UNL A   1      38.269  30.911  30.214  1.00  0.00     0.049 A 
ATOM     44  N   UNL A   1      39.203  31.698  32.965  1.00  0.00    -0.248 NA
ATOM     45  C   UNL A   1      37.434  33.215  33.082  1.00  0.00     0.031 C 
ATOM     46  C   UNL A   1      37.891  30.523  28.854  1.00  0.00     0.029 A 
ATOM     47  N   UNL A   1      39.360  30.125  30.491  1.00  0.00    -0.354 N 
ATOM     48  C   UNL A   1      39.256  32.376  34.176  1.00  0.00     0.074 A 
ATOM     49  C   UNL A   1      38.181  33.343  34.167  1.00  0.00     0.031 C 
ATOM     50  C   UNL A   1      38.721  29.559  28.424  1.00  0.00     0.029 A 
ATOM     51  C   UNL A   1      39.717  29.292  29.458  1.00  0.00     0.049 A 
ATOM     52  H   UNL A   1      39.841  30.155  31.349  1.00  0.00     0.167 HD
ATOM     53  C   UNL A   1      40.110  32.194  35.212  1.00  0.00     0.037 A 
ATOM     54  C   UNL A   1      40.738  28.420  29.350  1.00  0.00     0.037 A 
ATOM     55  C   UNL A   1      41.168  31.218  35.226  1.00  0.00     0.049 A 
ATOM     56  C   UNL A   1      41.685  28.254  30.507  1.00  0.00     0.074 A 
ATOM     57  C   UNL A   1      42.052  30.921  36.248  1.00  0.00     0.029 A 
ATOM     58  N   UNL A   1      41.489  30.384  34.165  1.00  0.00    -0.354 N 
ATOM     59  N   UNL A   1      41.683  28.854  31.672  1.00  0.00    -0.248 NA
ATOM     60  C   UNL A   1      42.775  27.282  30.336  1.00  0.00     0.031 C 
ATOM     61  C   UNL A   1      42.941  29.944  35.787  1.00  0.00     0.029 A 
ATOM     62  C   UNL A   1      42.573  29.590  34.499  1.00  0.00     0.049 A 
ATOM     63  H   UNL A   1      41.016  30.362  33.302  1.00  0.00     0.167 HD
ATOM     64  C   UNL A   1      42.744  28.310  32.384  1.00  0.00     0.074 A 
ATOM     65  C   UNL A   1      43.361  27.322  31.524  1.00  0.00     0.031 C 
ATOM     66  C   UNL A   1      43.168  28.600  33.638  1.00  0.00     0.037 A 
BRANCH  53  67
ATOM     67  C   UNL A   1      39.934  33.070  36.420  1.00  0.00     0.057 A 
ATOM     68  C   UNL A   1      39.047  32.738  37.453  1.00  0.00     0.134 A 
ATOM     69  C   UNL A   1      40.692  34.239  36.572  1.00  0.00     0.134 A 
ATOM     70  F   UNL A   1      38.283  31.639  37.365  1.00  0.00    -0.206 F 
ATOM     71  C   UNL A   1      38.900  33.550  38.579  1.00  0.00     0.040 A 
ATOM     72  C   UNL A   1      40.576  35.042  37.708  1.00  0.00     0.040 A 
ATOM     73  F   UNL A   1      41.566  34.612  35.626  1.00  0.00    -0.206 F 
ATOM     74  C   UNL A   1      39.672  34.702  38.712  1.00  0.00     0.006 A 
ENDBRANCH  53  67
BRANCH  54  75
ATOM     75  C   UNL A   1      40.915  27.626  28.107  1.00  0.00     0.057 A 
ATOM     76  C   UNL A   1      41.631  28.136  27.017  1.00  0.00     0.134 A 
ATOM     77  C   UNL A   1      40.354  26.351  27.966  1.00  0.00     0.134 A 
ATOM     78  F   UNL A   1      42.177  29.360  27.084  1.00  0.00    -0.206 F 
ATOM     79  C   UNL A   1      41.762  27.421  25.826  1.00  0.00     0.040 A 
ATOM     80  C   UNL A   1      40.501  25.612  26.791  1.00  0.00     0.040 A 
ATOM     81  F   UNL A   1      39.662  25.799  28.974  1.00  0.00    -0.206 F 
ATOM     82  C   UNL A   1      41.198  26.152  25.712  1.00  0.00     0.006 A 
ENDBRANCH  54  75
BRANCH  66  83
ATOM     83  C   UNL A   1      44.323  27.807  34.178  1.00  0.00     0.057 A 
ATOM     84  C   UNL A   1      45.644  28.265  34.094  1.00  0.00     0.134 A 
ATOM     85  C   UNL A   1      44.103  26.587  34.830  1.00  0.00     0.134 A 
ATOM     86  F   UNL A   1      45.926  29.419  33.472  1.00  0.00    -0.206 F 
ATOM     87  C   UNL A   1      46.706  27.525  34.619  1.00  0.00     0.040 A 
ATOM     88  C   UNL A   1      45.152  25.854  35.386  1.00  0.00     0.040 A 
ATOM     89  F   UNL A   1      42.860  26.095  34.955  1.00  0.00    -0.206 F 
ATOM     90  C   UNL A   1      46.460  26.321  35.275  1.00  0.00     0.006 A 
ENDBRANCH  66  83
ENDBRANCH  40  41
ENDBRANCH  32  35
ENDBRANCH  30  31
ENDBRANCH  29  30
ENDBRANCH  28  29
ENDBRANCH  27  28
ENDBRANCH   1  27
TORSDOF 18
ENDMDL
MODEL 2
REMARK VINA RESULT:     -11.2      0.832      6.027
REMARK SMILES O=C(CCC(=O)Nc1ccc(Oc2ccccc2Cl)cc1)NCCCCCCNC(=O)c1ccc(-c2c3nc(c(-c4c(F)cccc4F)c4ccc([nH]4)c(-c4c(F)cccc4F)c4nc(c(-c5c(F)cccc5F)c5ccc2[nH]5)C=C4)C=C3)cc1
REMARK SMILES IDX 24 1 23 2 22 3 1 4 2 5 3 7 4 8 5 9 6 10 7 11 8 13 9 14 21 15
REMARK SMILES IDX 10 16 20 17 11 18 12 19 13 20 14 21 18 22 15 23 17 24 19 25
REMARK SMILES IDX 16 26 25 27 26 28 27 29 28 30 29 31 30 32 31 34 32 35 33 36
REMARK SMILES IDX 85 37 34 38 84 39 35 40 36 41 37 42 78 43 38 44 83 45 77 46
REMARK SMILES IDX 79 47 39 48 82 49 76 50 75 51 40 53 66 54 49 55 65 56 50 57
REMARK SMILES IDX 53 58 64 59 80 60 51 61 52 62 63 64 81 65 54 66 41 67 42 68
REMARK SMILES IDX 47 69 43 70 44 71 46 72 48 73 45 74 67 75 68 76 73 77 69 78
REMARK SMILES IDX 70 79 72 80 74 81 71 82 55 83 56 84 61 85 57 86 58 87 60 88
REMARK SMILES IDX 62 89 59 90
REMARK H PARENT 22 6 7 12 29 33 79 52 53 63
REMARK Flexibility Score: inf
ROOT
ATOM      1  C   UNL A   1      32.403  28.009  26.804  1.00  0.00     0.021 C 
ENDROOT
BRANCH   1   2
ATOM      2  C   UNL A   1      31.507  27.157  25.915  1.00  0.00     0.116 C 
BRANCH   2   3
ATOM      3  N   UNL A   1      30.956  25.994  26.579  1.00  0.00    -0.356 N 
ATOM      4  O   UNL A   1      30.663  24.733  24.672  1.00  0.00    -0.275 OA
ATOM      5  C   UNL A   1      30.679  24.831  25.895  1.00  0.00     0.220 C 
ATOM      6  H   UNL A   1      30.777  26.034  27.545  1.00  0.00     0.163 HD
BRANCH   5   7
ATOM      7  C   UNL A   1      30.413  23.639  26.788  1.00  0.00     0.110 C 
BRANCH   7   8
ATOM      8  C   UNL A   1      31.295  22.418  26.532  1.00  0.00     0.110 C 
BRANCH   8   9
ATOM      9  C   UNL A   1      32.658  22.450  27.184  1.00  0.00     0.224 C 
ATOM     10  O   UNL A   1      32.738  22.233  28.401  1.00  0.00    -0.275 OA
ATOM     11  N   UNL A   1      33.823  22.755  26.543  1.00  0.00    -0.326 N 
ATOM     12  H   UNL A   1      34.624  22.463  27.036  1.00  0.00     0.169 HD
BRANCH  11  13
ATOM     13  C   UNL A   1      34.126  23.399  25.328  1.00  0.00     0.041 A 
ATOM     14  C   UNL A   1      34.357  24.783  25.398  1.00  0.00     0.030 A 
ATOM     15  C   UNL A   1      34.037  22.819  24.071  1.00  0.00     0.030 A 
ATOM     16  C   UNL A   1      34.281  25.581  24.247  1.00  0.00     0.049 A 
ATOM     17  C   UNL A   1      33.947  23.612  22.923  1.00  0.00     0.049 A 
ATOM     18  C   UNL A   1      33.998  25.002  23.010  1.00  0.00     0.127 A 
BRANCH  18  19
ATOM     19  O   UNL A   1      33.763  25.868  21.959  1.00  0.00    -0.456 OA
BRANCH  19  20
ATOM     20  C   UNL A   1      32.819  26.850  22.167  1.00  0.00     0.146 A 
ATOM     21  C   UNL A   1      31.472  26.503  22.021  1.00  0.00     0.049 A 
ATOM     22  C   UNL A   1      33.173  28.161  22.509  1.00  0.00     0.083 A 
ATOM     23  C   UNL A   1      30.478  27.439  22.301  1.00  0.00     0.004 A 
ATOM     24  C   UNL A   1      32.173  29.094  22.798  1.00  0.00     0.024 A 
ATOM     25  Cl  UNL A   1      34.818  28.675  22.555  1.00  0.00    -0.080 Cl
ATOM     26  C   UNL A   1      30.827  28.729  22.705  1.00  0.00     0.002 A 
ENDBRANCH  19  20
ENDBRANCH  18  19
ENDBRANCH  11  13
ENDBRANCH   8   9
ENDBRANCH   7   8
ENDBRANCH   5   7
ENDBRANCH   2   3
ENDBRANCH   1   2
BRANCH   1  27
ATOM     27  C   UNL A   1      31.800  29.351  27.234  1.00  0.00     0.002 C 
BRANCH  27  28
ATOM     28  C   UNL A   1      31.775  30.450  26.168  1.00  0.00     0.002 C 
BRANCH  28  29
ATOM     29  C   UNL A   1      31.508  31.869  26.676  1.00  0.00     0.021 C 
BRANCH  29  30
ATOM     30  C   UNL A   1      32.713  32.588  27.274  1.00  0.00     0.116 C 
BRANCH  30  31
ATOM     31  N   UNL A   1      32.429  33.965  27.652  1.00  0.00    -0.352 N 
ATOM     32  C   UNL A   1      33.090  34.777  28.539  1.00  0.00     0.251 C 
ATOM     33  H   UNL A   1      31.652  34.372  27.207  1.00  0.00     0.163 HD
ATOM     34  O   UNL A   1      32.640  35.886  28.816  1.00  0.00    -0.269 OA
BRANCH  32  35
ATOM     35  C   UNL A   1      34.329  34.304  29.194  1.00  0.00     0.039 A 
ATOM     36  C   UNL A   1      34.230  33.623  30.410  1.00  0.00     0.014 A 
ATOM     37  C   UNL A   1      35.580  34.520  28.610  1.00  0.00     0.014 A 
ATOM     38  C   UNL A   1      35.379  33.101  31.007  1.00  0.00     0.010 A 
ATOM     39  C   UNL A   1      36.713  33.932  29.165  1.00  0.00     0.010 A 
ATOM     40  C   UNL A   1      36.626  33.218  30.370  1.00  0.00    -0.014 A 
BRANCH  40  41
ATOM     41  C   UNL A   1      37.849  32.603  30.948  1.00  0.00     0.031 A 
ATOM     42  C   UNL A   1      38.443  31.373  30.323  1.00  0.00     0.074 A 
ATOM     43  C   UNL A   1      38.385  33.115  32.074  1.00  0.00     0.049 A 
ATOM     44  N   UNL A   1      39.458  30.648  30.723  1.00  0.00    -0.248 NA
ATOM     45  C   UNL A   1      37.798  30.873  29.098  1.00  0.00     0.031 C 
ATOM     46  C   UNL A   1      37.877  34.281  32.801  1.00  0.00     0.029 A 
ATOM     47  N   UNL A   1      39.471  32.712  32.811  1.00  0.00    -0.354 N 
ATOM     48  C   UNL A   1      39.561  29.606  29.811  1.00  0.00     0.074 A 
ATOM     49  C   UNL A   1      38.475  29.758  28.869  1.00  0.00     0.031 C 
ATOM     50  C   UNL A   1      38.662  34.512  33.866  1.00  0.00     0.029 A 
ATOM     51  C   UNL A   1      39.700  33.486  33.923  1.00  0.00     0.049 A 
ATOM     52  H   UNL A   1      40.032  31.942  32.566  1.00  0.00     0.167 HD
ATOM     53  C   UNL A   1      40.492  28.623  29.750  1.00  0.00     0.037 A 
ATOM     54  C   UNL A   1      40.633  33.376  34.888  1.00  0.00     0.037 A 
ATOM     55  C   UNL A   1      41.583  28.485  30.679  1.00  0.00     0.049 A 
ATOM     56  C   UNL A   1      41.641  32.262  34.808  1.00  0.00     0.074 A 
ATOM     57  C   UNL A   1      42.608  27.555  30.671  1.00  0.00     0.029 A 
ATOM     58  N   UNL A   1      41.789  29.297  31.784  1.00  0.00    -0.354 N 
ATOM     59  N   UNL A   1      41.768  31.322  33.903  1.00  0.00    -0.248 NA
ATOM     60  C   UNL A   1      42.641  32.196  35.884  1.00  0.00     0.031 C 
ATOM     61  C   UNL A   1      43.403  27.771  31.801  1.00  0.00     0.029 A 
ATOM     62  C   UNL A   1      42.909  28.873  32.480  1.00  0.00     0.049 A 
ATOM     63  H   UNL A   1      41.221  30.060  32.038  1.00  0.00     0.167 HD
ATOM     64  C   UNL A   1      42.879  30.578  34.278  1.00  0.00     0.074 A 
ATOM     65  C   UNL A   1      43.397  31.182  35.487  1.00  0.00     0.031 C 
ATOM     66  C   UNL A   1      43.422  29.493  33.675  1.00  0.00     0.037 A 
BRANCH  53  67
ATOM     67  C   UNL A   1      40.371  27.618  28.640  1.00  0.00     0.057 A 
ATOM     68  C   UNL A   1      41.047  27.774  27.423  1.00  0.00     0.134 A 
ATOM     69  C   UNL A   1      39.599  26.460  28.805  1.00  0.00     0.134 A 
ATOM     70  F   UNL A   1      41.794  28.866  27.195  1.00  0.00    -0.206 F 
ATOM     71  C   UNL A   1      40.941  26.829  26.402  1.00  0.00     0.040 A 
ATOM     72  C   UNL A   1      39.511  25.493  27.803  1.00  0.00     0.040 A 
ATOM     73  F   UNL A   1      38.931  26.243  29.947  1.00  0.00    -0.206 F 
ATOM     74  C   UNL A   1      40.177  25.680  26.593  1.00  0.00     0.006 A 
ENDBRANCH  53  67
BRANCH  54  75
ATOM     75  C   UNL A   1      40.671  34.352  36.007  1.00  0.00     0.057 A 
ATOM     76  C   UNL A   1      41.474  35.497  35.943  1.00  0.00     0.134 A 
ATOM     77  C   UNL A   1      39.929  34.153  37.178  1.00  0.00     0.134 A 
ATOM     78  F   UNL A   1      42.224  35.733  34.856  1.00  0.00    -0.206 F 
ATOM     79  C   UNL A   1      41.558  36.395  37.008  1.00  0.00     0.040 A 
ATOM     80  C   UNL A   1      39.980  35.058  38.239  1.00  0.00     0.040 A 
ATOM     81  F   UNL A   1      39.133  33.081  37.303  1.00  0.00    -0.206 F 
ATOM     82  C   UNL A   1      40.805  36.178  38.160  1.00  0.00     0.006 A 
ENDBRANCH  54  75
BRANCH  66  83
ATOM     83  C   UNL A   1      44.670  28.917  34.281  1.00  0.00     0.057 A 
ATOM     84  C   UNL A   1      45.947  29.361  33.918  1.00  0.00     0.134 A 
ATOM     85  C   UNL A   1      44.587  27.933  35.276  1.00  0.00     0.134 A 
ATOM     86  F   UNL A   1      46.098  30.292  32.964  1.00  0.00    -0.206 F 
ATOM     87  C   UNL A   1      47.098  28.830  34.505  1.00  0.00     0.040 A 
ATOM     88  C   UNL A   1      45.727  27.417  35.892  1.00  0.00     0.040 A 
ATOM     89  F   UNL A   1      43.393  27.470  35.678  1.00  0.00    -0.206 F 
ATOM     90  C   UNL A   1      46.988  27.862  35.501  1.00  0.00     0.006 A 
ENDBRANCH  66  83
ENDBRANCH  40  41
ENDBRANCH  32  35
ENDBRANCH  30  31
ENDBRANCH  29  30
ENDBRANCH  28  29
ENDBRANCH  27  28
ENDBRANCH   1  27
TORSDOF 18
ENDMDL
MODEL 3
REMARK VINA RESULT:     -11.2      1.731      6.872
REMARK SMILES O=C(CCC(=O)Nc1ccc(Oc2ccccc2Cl)cc1)NCCCCCCNC(=O)c1ccc(-c2c3nc(c(-c4c(F)cccc4F)c4ccc([nH]4)c(-c4c(F)cccc4F)c4nc(c(-c5c(F)cccc5F)c5ccc2[nH]5)C=C4)C=C3)cc1
REMARK SMILES IDX 24 1 23 2 22 3 1 4 2 5 3 7 4 8 5 9 6 10 7 11 8 13 9 14 21 15
REMARK SMILES IDX 10 16 20 17 11 18 12 19 13 20 14 21 18 22 15 23 17 24 19 25
REMARK SMILES IDX 16 26 25 27 26 28 27 29 28 30 29 31 30 32 31 34 32 35 33 36
REMARK SMILES IDX 85 37 34 38 84 39 35 40 36 41 37 42 78 43 38 44 83 45 77 46
REMARK SMILES IDX 79 47 39 48 82 49 76 50 75 51 40 53 66 54 49 55 65 56 50 57
REMARK SMILES IDX 53 58 64 59 80 60 51 61 52 62 63 64 81 65 54 66 41 67 42 68
REMARK SMILES IDX 47 69 43 70 44 71 46 72 48 73 45 74 67 75 68 76 73 77 69 78
REMARK SMILES IDX 70 79 72 80 74 81 71 82 55 83 56 84 61 85 57 86 58 87 60 88
REMARK SMILES IDX 62 89 59 90
REMARK H PARENT 22 6 7 12 29 33 79 52 53 63
REMARK Flexibility Score: inf
ROOT
ATOM      1  C   UNL A   1      32.437  28.189  27.041  1.00  0.00     0.021 C 
ENDROOT
BRANCH   1   2
ATOM      2  C   UNL A   1      33.560  27.527  26.252  1.00  0.00     0.116 C 
BRANCH   2   3
ATOM      3  N   UNL A   1      33.489  27.757  24.824  1.00  0.00    -0.356 N 
ATOM      4  O   UNL A   1      34.151  25.642  24.196  1.00  0.00    -0.275 OA
ATOM      5  C   UNL A   1      33.693  26.745  23.914  1.00  0.00     0.220 C 
ATOM      6  H   UNL A   1      33.288  28.663  24.495  1.00  0.00     0.163 HD
BRANCH   5   7
ATOM      7  C   UNL A   1      33.275  27.090  22.502  1.00  0.00     0.110 C 
BRANCH   7   8
ATOM      8  C   UNL A   1      32.023  26.376  21.995  1.00  0.00     0.110 C 
BRANCH   8   9
ATOM      9  C   UNL A   1      30.770  26.597  22.810  1.00  0.00     0.224 C 
ATOM     10  O   UNL A   1      30.172  27.676  22.697  1.00  0.00    -0.275 OA
ATOM     11  N   UNL A   1      30.262  25.713  23.716  1.00  0.00    -0.326 N 
ATOM     12  H   UNL A   1      29.320  25.889  23.942  1.00  0.00     0.169 HD
BRANCH  11  13
ATOM     13  C   UNL A   1      30.796  24.603  24.398  1.00  0.00     0.041 A 
ATOM     14  C   UNL A   1      31.055  24.780  25.767  1.00  0.00     0.030 A 
ATOM     15  C   UNL A   1      31.245  23.435  23.798  1.00  0.00     0.030 A 
ATOM     16  C   UNL A   1      31.923  23.915  26.450  1.00  0.00     0.049 A 
ATOM     17  C   UNL A   1      32.122  22.579  24.471  1.00  0.00     0.049 A 
ATOM     18  C   UNL A   1      32.522  22.850  25.779  1.00  0.00     0.127 A 
BRANCH  18  19
ATOM     19  O   UNL A   1      33.497  22.153  26.466  1.00  0.00    -0.456 OA
BRANCH  19  20
ATOM     20  C   UNL A   1      34.774  22.208  25.951  1.00  0.00     0.146 A 
ATOM     21  C   UNL A   1      35.519  23.372  26.173  1.00  0.00     0.049 A 
ATOM     22  C   UNL A   1      35.328  21.149  25.222  1.00  0.00     0.083 A 
ATOM     23  C   UNL A   1      36.843  23.443  25.743  1.00  0.00     0.004 A 
ATOM     24  C   UNL A   1      36.659  21.221  24.801  1.00  0.00     0.024 A 
ATOM     25  Cl  UNL A   1      34.403  19.759  24.795  1.00  0.00    -0.080 Cl
ATOM     26  C   UNL A   1      37.419  22.363  25.072  1.00  0.00     0.002 A 
ENDBRANCH  19  20
ENDBRANCH  18  19
ENDBRANCH  11  13
ENDBRANCH   8   9
ENDBRANCH   7   8
ENDBRANCH   5   7
ENDBRANCH   2   3
ENDBRANCH   1   2
BRANCH   1  27
ATOM     27  C   UNL A   1      32.548  29.712  27.170  1.00  0.00     0.002 C 
BRANCH  27  28
ATOM     28  C   UNL A   1      31.700  30.534  26.195  1.00  0.00     0.002 C 
BRANCH  28  29
ATOM     29  C   UNL A   1      31.461  31.994  26.585  1.00  0.00     0.021 C 
BRANCH  29  30
ATOM     30  C   UNL A   1      32.613  32.674  27.318  1.00  0.00     0.116 C 
BRANCH  30  31
ATOM     31  N   UNL A   1      32.340  34.063  27.654  1.00  0.00    -0.352 N 
ATOM     32  C   UNL A   1      32.992  34.890  28.534  1.00  0.00     0.251 C 
ATOM     33  H   UNL A   1      31.578  34.469  27.181  1.00  0.00     0.163 HD
ATOM     34  O   UNL A   1      32.550  36.012  28.772  1.00  0.00    -0.269 OA
BRANCH  32  35
ATOM     35  C   UNL A   1      34.209  34.419  29.228  1.00  0.00     0.039 A 
ATOM     36  C   UNL A   1      34.082  33.850  30.498  1.00  0.00     0.014 A 
ATOM     37  C   UNL A   1      35.468  34.527  28.630  1.00  0.00     0.014 A 
ATOM     38  C   UNL A   1      35.208  33.328  31.139  1.00  0.00     0.010 A 
ATOM     39  C   UNL A   1      36.574  33.938  29.235  1.00  0.00     0.010 A 
ATOM     40  C   UNL A   1      36.457  33.334  30.496  1.00  0.00    -0.014 A 
BRANCH  40  41
ATOM     41  C   UNL A   1      37.652  32.716  31.126  1.00  0.00     0.031 A 
ATOM     42  C   UNL A   1      38.285  31.498  30.513  1.00  0.00     0.074 A 
ATOM     43  C   UNL A   1      38.127  33.212  32.286  1.00  0.00     0.049 A 
ATOM     44  N   UNL A   1      39.282  30.773  30.953  1.00  0.00    -0.248 NA
ATOM     45  C   UNL A   1      37.706  31.016  29.248  1.00  0.00     0.031 C 
ATOM     46  C   UNL A   1      37.576  34.363  33.005  1.00  0.00     0.029 A 
ATOM     47  N   UNL A   1      39.176  32.802  33.072  1.00  0.00    -0.354 N 
ATOM     48  C   UNL A   1      39.438  29.746  30.031  1.00  0.00     0.074 A 
ATOM     49  C   UNL A   1      38.400  29.908  29.037  1.00  0.00     0.031 C 
ATOM     50  C   UNL A   1      38.304  34.580  34.112  1.00  0.00     0.029 A 
ATOM     51  C   UNL A   1      39.343  33.559  34.207  1.00  0.00     0.049 A 
ATOM     52  H   UNL A   1      39.754  32.039  32.843  1.00  0.00     0.167 HD
ATOM     53  C   UNL A   1      40.376  28.769  30.002  1.00  0.00     0.037 A 
ATOM     54  C   UNL A   1      40.227  33.437  35.217  1.00  0.00     0.037 A 
ATOM     55  C   UNL A   1      41.419  28.621  30.983  1.00  0.00     0.049 A 
ATOM     56  C   UNL A   1      41.244  32.329  35.171  1.00  0.00     0.074 A 
ATOM     57  C   UNL A   1      42.448  27.696  31.013  1.00  0.00     0.029 A 
ATOM     58  N   UNL A   1      41.563  29.415  32.111  1.00  0.00    -0.354 N 
ATOM     59  N   UNL A   1      41.422  31.406  34.258  1.00  0.00    -0.248 NA
ATOM     60  C   UNL A   1      42.188  32.250  36.295  1.00  0.00     0.031 C 
ATOM     61  C   UNL A   1      43.183  27.897  32.186  1.00  0.00     0.029 A 
ATOM     62  C   UNL A   1      42.649  28.986  32.856  1.00  0.00     0.049 A 
ATOM     63  H   UNL A   1      40.979  30.171  32.347  1.00  0.00     0.167 HD
ATOM     64  C   UNL A   1      42.517  30.661  34.678  1.00  0.00     0.074 A 
ATOM     65  C   UNL A   1      42.969  31.247  35.922  1.00  0.00     0.031 C 
ATOM     66  C   UNL A   1      43.096  29.588  34.086  1.00  0.00     0.037 A 
BRANCH  53  67
ATOM     67  C   UNL A   1      40.318  27.782  28.871  1.00  0.00     0.057 A 
ATOM     68  C   UNL A   1      39.549  26.613  28.947  1.00  0.00     0.134 A 
ATOM     69  C   UNL A   1      41.008  28.023  27.676  1.00  0.00     0.134 A 
ATOM     70  F   UNL A   1      38.874  26.316  30.068  1.00  0.00    -0.206 F 
ATOM     71  C   UNL A   1      39.489  25.707  27.887  1.00  0.00     0.040 A 
ATOM     72  C   UNL A   1      40.929  27.140  26.596  1.00  0.00     0.040 A 
ATOM     73  F   UNL A   1      41.756  29.126  27.530  1.00  0.00    -0.206 F 
ATOM     74  C   UNL A   1      40.174  25.974  26.704  1.00  0.00     0.006 A 
ENDBRANCH  53  67
BRANCH  54  75
ATOM     75  C   UNL A   1      40.201  34.394  36.352  1.00  0.00     0.057 A 
ATOM     76  C   UNL A   1      39.475  34.117  37.517  1.00  0.00     0.134 A 
ATOM     77  C   UNL A   1      40.879  35.618  36.293  1.00  0.00     0.134 A 
ATOM     78  F   UNL A   1      38.789  32.970  37.626  1.00  0.00    -0.206 F 
ATOM     79  C   UNL A   1      39.402  35.031  38.570  1.00  0.00     0.040 A 
ATOM     80  C   UNL A   1      40.839  36.529  37.351  1.00  0.00     0.040 A 
ATOM     81  F   UNL A   1      41.600  35.943  35.210  1.00  0.00    -0.206 F 
ATOM     82  C   UNL A   1      40.089  36.240  38.489  1.00  0.00     0.006 A 
ENDBRANCH  54  75
BRANCH  66  83
ATOM     83  C   UNL A   1      44.314  29.009  34.746  1.00  0.00     0.057 A 
ATOM     84  C   UNL A   1      44.230  27.977  35.689  1.00  0.00     0.134 A 
ATOM     85  C   UNL A   1      45.594  29.462  34.398  1.00  0.00     0.134 A 
ATOM     86  F   UNL A   1      43.035  27.505  36.075  1.00  0.00    -0.206 F 
ATOM     87  C   UNL A   1      45.373  27.434  36.279  1.00  0.00     0.040 A 
ATOM     88  C   UNL A   1      46.744  28.907  34.958  1.00  0.00     0.040 A 
ATOM     89  F   UNL A   1      45.747  30.441  33.493  1.00  0.00    -0.206 F 
ATOM     90  C   UNL A   1      46.635  27.893  35.907  1.00  0.00     0.006 A 
ENDBRANCH  66  83
ENDBRANCH  40  41
ENDBRANCH  32  35
ENDBRANCH  30  31
ENDBRANCH  29  30
ENDBRANCH  28  29
ENDBRANCH  27  28
ENDBRANCH   1  27
TORSDOF 18
ENDMDL
