MODEL 1
REMARK VINA RESULT:     -11.0      0.000      0.000
REMARK SMILES CC(C)C[C@H](NC(=O)[C@H](Cc1ccccc1)NC(=O)CNC(=O)CNC(=O)OCc1ccccc1)C(=O)NCCCCCCNC(=O)c1ccc(-c2c3nc(c(-c4c(F)cccc4F)c4ccc([nH]4)c(-c4c(F)cccc4F)c4nc(c(-c5c(F)cccc5F)c5ccc2[nH]5)C=C4)C=C3)cc1
REMARK SMILES IDX 36 1 37 2 38 3 5 5 4 6 2 7 1 8 3 9 6 10 7 11 8 13 9 14 17 15
REMARK SMILES IDX 18 16 19 18 20 19 21 20 22 21 23 23 24 24 25 25 26 26 27 28
REMARK SMILES IDX 28 29 29 30 30 31 31 32 35 33 32 34 34 35 33 36 10 37 11 38
REMARK SMILES IDX 12 39 16 40 13 41 15 42 14 43 39 44 40 45 41 46 42 47 43 48
REMARK SMILES IDX 44 49 45 50 46 51 47 53 48 54 49 55 101 56 50 57 100 58
REMARK SMILES IDX 51 59 52 60 53 61 94 62 54 63 99 64 93 65 95 66 55 67 98 68
REMARK SMILES IDX 92 69 91 70 56 72 82 73 65 74 81 75 66 76 69 77 80 78 96 79
REMARK SMILES IDX 67 80 68 81 79 83 97 84 70 85 57 86 58 87 63 88 59 89 60 90
REMARK SMILES IDX 62 91 64 92 61 93 83 94 84 95 89 96 85 97 86 98 88 99 90 100
REMARK SMILES IDX 87 101 71 102 72 103 77 104 73 105 74 106 76 107 78 108
REMARK SMILES IDX 75 109
REMARK H PARENT 38 4 6 12 17 17 21 22 25 27 45 52 95 71 69 82
REMARK Flexibility Score: inf
ROOT
ATOM      1  C   UNL A   1      32.032  28.195  27.525  1.00  0.00     0.242 C 
ATOM      2  O   UNL A   1      31.034  28.209  28.251  1.00  0.00    -0.273 OA
ATOM      3  N   UNL A   1      33.084  28.994  27.882  1.00  0.00    -0.354 N 
ATOM      4  H   UNL A   1      32.965  29.535  28.696  1.00  0.00     0.163 HD
ENDROOT
BRANCH   1   5
ATOM      5  C   UNL A   1      32.108  27.246  26.285  1.00  0.00     0.171 C 
BRANCH   5   6
ATOM      6  C   UNL A   1      32.019  27.936  24.929  1.00  0.00     0.038 C 
BRANCH   6   7
ATOM      7  C   UNL A   1      33.067  27.704  23.827  1.00  0.00    -0.015 C 
ATOM      8  C   UNL A   1      33.892  28.941  23.483  1.00  0.00     0.007 C 
ATOM      9  C   UNL A   1      34.025  26.599  24.307  1.00  0.00     0.007 C 
ENDBRANCH   6   7
ENDBRANCH   5   6
BRANCH   5  10
ATOM     10  N   UNL A   1      31.150  26.130  26.499  1.00  0.00    -0.343 N 
ATOM     11  C   UNL A   1      31.069  24.781  26.465  1.00  0.00     0.243 C 
ATOM     12  H   UNL A   1      30.274  26.501  26.752  1.00  0.00     0.164 HD
ATOM     13  O   UNL A   1      29.970  24.359  26.866  1.00  0.00    -0.273 OA
BRANCH  11  14
ATOM     14  C   UNL A   1      32.053  23.781  25.779  1.00  0.00     0.175 C 
BRANCH  14  15
ATOM     15  N   UNL A   1      32.696  22.755  26.603  1.00  0.00    -0.342 N 
ATOM     16  C   UNL A   1      33.815  22.004  26.354  1.00  0.00     0.240 C 
ATOM     17  H   UNL A   1      32.257  22.577  27.467  1.00  0.00     0.164 HD
ATOM     18  O   UNL A   1      34.018  20.996  27.033  1.00  0.00    -0.273 OA
BRANCH  16  19
ATOM     19  C   UNL A   1      34.788  22.397  25.237  1.00  0.00     0.216 C 
BRANCH  19  20
ATOM     20  N   UNL A   1      35.638  21.296  24.829  1.00  0.00    -0.346 N 
ATOM     21  C   UNL A   1      36.947  21.030  25.097  1.00  0.00     0.239 C 
ATOM     22  H   UNL A   1      35.192  20.626  24.262  1.00  0.00     0.164 HD
ATOM     23  O   UNL A   1      37.430  20.000  24.623  1.00  0.00    -0.273 OA
BRANCH  21  24
ATOM     24  C   UNL A   1      37.785  21.944  25.998  1.00  0.00     0.219 C 
BRANCH  24  25
ATOM     25  N   UNL A   1      39.151  21.482  26.085  1.00  0.00    -0.312 N 
ATOM     26  C   UNL A   1      40.255  22.261  26.195  1.00  0.00     0.407 C 
ATOM     27  H   UNL A   1      39.293  20.508  26.064  1.00  0.00     0.167 HD
ATOM     28  O   UNL A   1      41.345  21.797  25.902  1.00  0.00    -0.225 OA
BRANCH  26  29
ATOM     29  O   UNL A   1      39.991  23.541  26.555  1.00  0.00    -0.445 OA
BRANCH  29  30
ATOM     30  C   UNL A   1      41.097  24.375  26.952  1.00  0.00     0.270 C 
BRANCH  30  31
ATOM     31  C   UNL A   1      40.748  25.807  27.296  1.00  0.00    -0.011 A 
ATOM     32  C   UNL A   1      39.780  26.158  28.802  1.00  0.00     0.007 A 
ATOM     33  C   UNL A   1      41.187  27.151  26.186  1.00  0.00     0.007 A 
ATOM     34  C   UNL A   1      39.202  27.833  29.131  1.00  0.00     0.000 A 
ATOM     35  C   UNL A   1      40.595  28.827  26.516  1.00  0.00     0.000 A 
ATOM     36  C   UNL A   1      39.648  29.174  27.996  1.00  0.00     0.000 A 
ENDBRANCH  30  31
ENDBRANCH  29  30
ENDBRANCH  26  29
ENDBRANCH  24  25
ENDBRANCH  21  24
ENDBRANCH  19  20
ENDBRANCH  16  19
ENDBRANCH  14  15
BRANCH  14  37
ATOM     37  C   UNL A   1      31.362  23.156  24.507  1.00  0.00     0.070 C 
BRANCH  37  38
ATOM     38  C   UNL A   1      31.680  23.862  23.206  1.00  0.00    -0.045 A 
ATOM     39  C   UNL A   1      30.918  24.971  22.815  1.00  0.00     0.004 A 
ATOM     40  C   UNL A   1      32.810  23.516  22.459  1.00  0.00     0.004 A 
ATOM     41  C   UNL A   1      31.356  25.806  21.789  1.00  0.00     0.000 A 
ATOM     42  C   UNL A   1      33.220  24.324  21.396  1.00  0.00     0.000 A 
ATOM     43  C   UNL A   1      32.516  25.488  21.088  1.00  0.00     0.000 A 
ENDBRANCH  37  38
ENDBRANCH  14  37
ENDBRANCH  11  14
ENDBRANCH   5  10
ENDBRANCH   1   5
BRANCH   3  44
ATOM     44  C   UNL A   1      34.353  29.136  27.195  1.00  0.00     0.116 C 
BRANCH  44  45
ATOM     45  C   UNL A   1      35.766  29.554  28.091  1.00  0.00     0.021 C 
BRANCH  45  46
ATOM     46  C   UNL A   1      37.044  31.313  28.301  1.00  0.00     0.002 C 
BRANCH  46  47
ATOM     47  C   UNL A   1      36.834  32.965  28.781  1.00  0.00     0.002 C 
BRANCH  47  48
ATOM     48  C   UNL A   1      35.553  33.716  28.383  1.00  0.00     0.021 C 
BRANCH  48  49
ATOM     49  C   UNL A   1      34.233  33.131  28.842  1.00  0.00     0.116 C 
BRANCH  49  50
ATOM     50  N   UNL A   1      33.330  34.097  29.434  1.00  0.00    -0.352 N 
ATOM     51  C   UNL A   1      33.395  34.592  30.716  1.00  0.00     0.251 C 
ATOM     52  H   UNL A   1      32.600  34.433  28.863  1.00  0.00     0.163 HD
ATOM     53  O   UNL A   1      32.533  35.337  31.165  1.00  0.00    -0.269 OA
BRANCH  51  54
ATOM     54  C   UNL A   1      34.530  34.162  31.559  1.00  0.00     0.039 A 
ATOM     55  C   UNL A   1      34.584  32.839  31.999  1.00  0.00     0.014 A 
ATOM     56  C   UNL A   1      35.577  35.050  31.825  1.00  0.00     0.014 A 
ATOM     57  C   UNL A   1      35.711  32.397  32.693  1.00  0.00     0.010 A 
ATOM     58  C   UNL A   1      36.732  34.585  32.445  1.00  0.00     0.010 A 
ATOM     59  C   UNL A   1      36.796  33.263  32.910  1.00  0.00    -0.014 A 
BRANCH  59  60
ATOM     60  C   UNL A   1      37.970  32.814  33.695  1.00  0.00     0.031 A 
ATOM     61  C   UNL A   1      39.099  32.110  32.996  1.00  0.00     0.074 A 
ATOM     62  C   UNL A   1      38.019  33.030  35.023  1.00  0.00     0.049 A 
ATOM     63  N   UNL A   1      40.236  31.680  33.481  1.00  0.00    -0.248 NA
ATOM     64  C   UNL A   1      38.916  31.825  31.563  1.00  0.00     0.031 C 
ATOM     65  C   UNL A   1      36.965  33.660  35.819  1.00  0.00     0.029 A 
ATOM     66  N   UNL A   1      39.007  32.755  35.936  1.00  0.00    -0.354 N 
ATOM     67  C   UNL A   1      40.892  31.071  32.419  1.00  0.00     0.074 A 
ATOM     68  C   UNL A   1      40.002  31.122  31.283  1.00  0.00     0.031 C 
ATOM     69  C   UNL A   1      37.381  33.766  37.092  1.00  0.00     0.029 A 
ATOM     70  C   UNL A   1      38.719  33.193  37.206  1.00  0.00     0.049 A 
ATOM     71  H   UNL A   1      39.841  32.288  35.703  1.00  0.00     0.167 HD
ATOM     72  C   UNL A   1      42.140  30.548  32.383  1.00  0.00     0.037 A 
ATOM     73  C   UNL A   1      39.464  33.152  38.326  1.00  0.00     0.037 A 
ATOM     74  C   UNL A   1      43.033  30.529  33.508  1.00  0.00     0.049 A 
ATOM     75  C   UNL A   1      40.847  32.563  38.263  1.00  0.00     0.074 A 
ATOM     76  C   UNL A   1      44.343  30.087  33.565  1.00  0.00     0.029 A 
ATOM     77  N   UNL A   1      42.702  30.972  34.781  1.00  0.00    -0.354 N 
ATOM     78  N   UNL A   1      41.491  32.072  37.231  1.00  0.00    -0.248 NA
ATOM     79  C   UNL A   1      41.610  32.532  39.519  1.00  0.00     0.031 C 
ATOM     80  C   UNL A   1      44.788  30.219  34.885  1.00  0.00     0.029 A 
ATOM     81  C   UNL A   1      43.773  30.788  35.637  1.00  0.00     0.049 A 
ATOM     82  H   UNL A   1      41.834  31.359  35.036  1.00  0.00     0.167 HD
ATOM     83  C   UNL A   1      42.744  31.701  37.705  1.00  0.00     0.074 A 
ATOM     84  C   UNL A   1      42.772  32.037  39.114  1.00  0.00     0.031 C 
ATOM     85  C   UNL A   1      43.780  31.136  37.036  1.00  0.00     0.037 A 
BRANCH  72  86
ATOM     86  C   UNL A   1      42.597  29.957  31.081  1.00  0.00     0.057 A 
ATOM     87  C   UNL A   1      43.158  30.744  30.065  1.00  0.00     0.134 A 
ATOM     88  C   UNL A   1      42.470  28.584  30.836  1.00  0.00     0.134 A 
ATOM     89  F   UNL A   1      43.293  32.069  30.228  1.00  0.00    -0.206 F 
ATOM     90  C   UNL A   1      43.538  30.195  28.839  1.00  0.00     0.040 A 
ATOM     91  C   UNL A   1      42.874  28.019  29.625  1.00  0.00     0.040 A 
ATOM     92  F   UNL A   1      41.945  27.771  31.764  1.00  0.00    -0.206 F 
ATOM     93  C   UNL A   1      43.400  28.826  28.618  1.00  0.00     0.006 A 
ENDBRANCH  72  86
BRANCH  73  94
ATOM     94  C   UNL A   1      38.945  33.736  39.590  1.00  0.00     0.057 A 
ATOM     95  C   UNL A   1      38.186  32.966  40.479  1.00  0.00     0.134 A 
ATOM     96  C   UNL A   1      39.185  35.069  39.937  1.00  0.00     0.134 A 
ATOM     97  F   UNL A   1      37.907  31.685  40.194  1.00  0.00    -0.206 F 
ATOM     98  C   UNL A   1      37.671  33.504  41.660  1.00  0.00     0.040 A 
ATOM     99  C   UNL A   1      38.696  35.616  41.125  1.00  0.00     0.040 A 
ATOM    100  F   UNL A   1      39.913  35.858  39.132  1.00  0.00    -0.206 F 
ATOM    101  C   UNL A   1      37.930  34.833  41.987  1.00  0.00     0.006 A 
ENDBRANCH  73  94
BRANCH  85 102
ATOM    102  C   UNL A   1      45.035  30.875  37.813  1.00  0.00     0.057 A 
ATOM    103  C   UNL A   1      45.935  31.900  38.129  1.00  0.00     0.134 A 
ATOM    104  C   UNL A   1      45.325  29.589  38.286  1.00  0.00     0.134 A 
ATOM    105  F   UNL A   1      45.721  33.151  37.697  1.00  0.00    -0.206 F 
ATOM    106  C   UNL A   1      47.092  31.650  38.868  1.00  0.00     0.040 A 
ATOM    107  C   UNL A   1      46.465  29.332  39.049  1.00  0.00     0.040 A 
ATOM    108  F   UNL A   1      44.498  28.564  38.026  1.00  0.00    -0.206 F 
ATOM    109  C   UNL A   1      47.356  30.363  39.336  1.00  0.00     0.006 A 
ENDBRANCH  85 102
ENDBRANCH  59  60
ENDBRANCH  51  54
ENDBRANCH  49  50
ENDBRANCH  48  49
ENDBRANCH  47  48
ENDBRANCH  46  47
ENDBRANCH  45  46
ENDBRANCH  44  45
ENDBRANCH   3  44
TORSDOF 27
ENDMDL
MODEL 2
REMARK VINA RESULT:     -10.5      2.347      6.765
REMARK SMILES CC(C)C[C@H](NC(=O)[C@H](Cc1ccccc1)NC(=O)CNC(=O)CNC(=O)OCc1ccccc1)C(=O)NCCCCCCNC(=O)c1ccc(-c2c3nc(c(-c4c(F)cccc4F)c4ccc([nH]4)c(-c4c(F)cccc4F)c4nc(c(-c5c(F)cccc5F)c5ccc2[nH]5)C=C4)C=C3)cc1
REMARK SMILES IDX 36 1 37 2 38 3 5 5 4 6 2 7 1 8 3 9 6 10 7 11 8 13 9 14 17 15
REMARK SMILES IDX 18 16 19 18 20 19 21 20 22 21 23 23 24 24 25 25 26 26 27 28
REMARK SMILES IDX 28 29 29 30 30 31 31 32 35 33 32 34 34 35 33 36 10 37 11 38
REMARK SMILES IDX 12 39 16 40 13 41 15 42 14 43 39 44 40 45 41 46 42 47 43 48
REMARK SMILES IDX 44 49 45 50 46 51 47 53 48 54 49 55 101 56 50 57 100 58
REMARK SMILES IDX 51 59 52 60 53 61 94 62 54 63 99 64 93 65 95 66 55 67 98 68
REMARK SMILES IDX 92 69 91 70 56 72 82 73 65 74 81 75 66 76 69 77 80 78 96 79
REMARK SMILES IDX 67 80 68 81 79 83 97 84 70 85 57 86 58 87 63 88 59 89 60 90
REMARK SMILES IDX 62 91 64 92 61 93 83 94 84 95 89 96 85 97 86 98 88 99 90 100
REMARK SMILES IDX 87 101 71 102 72 103 77 104 73 105 74 106 76 107 78 108
REMARK SMILES IDX 75 109
REMARK H PARENT 38 4 6 12 17 17 21 22 25 27 45 52 95 71 69 82
REMARK Flexibility Score: inf
ROOT
ATOM      1  C   UNL A   1      33.452  28.906  25.478  1.00  0.00     0.242 C 
ATOM      2  O   UNL A   1      33.300  28.893  24.254  1.00  0.00    -0.273 OA
ATOM      3  N   UNL A   1      33.686  30.116  26.073  1.00  0.00    -0.354 N 
ATOM      4  H   UNL A   1      33.726  30.897  25.474  1.00  0.00     0.163 HD
ENDROOT
BRANCH   1   5
ATOM      5  C   UNL A   1      33.310  27.594  26.317  1.00  0.00     0.171 C 
BRANCH   5   6
ATOM      6  C   UNL A   1      34.379  26.538  26.058  1.00  0.00     0.038 C 
BRANCH   6   7
ATOM      7  C   UNL A   1      34.039  25.170  25.442  1.00  0.00    -0.015 C 
ATOM      8  C   UNL A   1      34.946  24.768  24.282  1.00  0.00     0.007 C 
ATOM      9  C   UNL A   1      34.165  24.107  26.549  1.00  0.00     0.007 C 
ENDBRANCH   6   7
ENDBRANCH   5   6
BRANCH   5  10
ATOM     10  N   UNL A   1      31.906  27.124  26.206  1.00  0.00    -0.343 N 
ATOM     11  C   UNL A   1      30.975  26.768  25.291  1.00  0.00     0.243 C 
ATOM     12  H   UNL A   1      31.520  27.045  27.108  1.00  0.00     0.164 HD
ATOM     13  O   UNL A   1      29.936  26.331  25.813  1.00  0.00    -0.273 OA
BRANCH  11  14
ATOM     14  C   UNL A   1      30.976  27.072  23.758  1.00  0.00     0.175 C 
BRANCH  14  15
ATOM     15  N   UNL A   1      31.732  26.185  22.871  1.00  0.00    -0.342 N 
ATOM     16  C   UNL A   1      31.646  24.826  22.709  1.00  0.00     0.240 C 
ATOM     17  H   UNL A   1      32.403  26.632  22.305  1.00  0.00     0.164 HD
ATOM     18  O   UNL A   1      32.565  24.237  22.138  1.00  0.00    -0.273 OA
BRANCH  16  19
ATOM     19  C   UNL A   1      30.441  24.048  23.248  1.00  0.00     0.216 C 
BRANCH  19  20
ATOM     20  N   UNL A   1      30.581  23.712  24.650  1.00  0.00    -0.346 N 
ATOM     21  C   UNL A   1      31.154  22.636  25.260  1.00  0.00     0.239 C 
ATOM     22  H   UNL A   1      30.196  24.374  25.269  1.00  0.00     0.164 HD
ATOM     23  O   UNL A   1      31.143  22.602  26.492  1.00  0.00    -0.273 OA
BRANCH  21  24
ATOM     24  C   UNL A   1      31.839  21.527  24.453  1.00  0.00     0.219 C 
BRANCH  24  25
ATOM     25  N   UNL A   1      32.192  20.409  25.298  1.00  0.00    -0.312 N 
ATOM     26  C   UNL A   1      33.271  19.603  25.152  1.00  0.00     0.407 C 
ATOM     27  H   UNL A   1      31.590  20.215  26.053  1.00  0.00     0.167 HD
ATOM     28  O   UNL A   1      33.274  18.504  25.684  1.00  0.00    -0.225 OA
BRANCH  26  29
ATOM     29  O   UNL A   1      34.225  20.104  24.328  1.00  0.00    -0.445 OA
BRANCH  29  30
ATOM     30  C   UNL A   1      34.943  21.277  24.757  1.00  0.00     0.270 C 
BRANCH  30  31
ATOM     31  C   UNL A   1      36.368  21.045  25.208  1.00  0.00    -0.011 A 
ATOM     32  C   UNL A   1      37.344  22.444  25.857  1.00  0.00     0.007 A 
ATOM     33  C   UNL A   1      37.142  19.434  25.015  1.00  0.00     0.007 A 
ATOM     34  C   UNL A   1      39.094  22.226  26.227  1.00  0.00     0.000 A 
ATOM     35  C   UNL A   1      38.900  19.225  25.378  1.00  0.00     0.000 A 
ATOM     36  C   UNL A   1      39.858  20.596  26.019  1.00  0.00     0.000 A 
ENDBRANCH  30  31
ENDBRANCH  29  30
ENDBRANCH  26  29
ENDBRANCH  24  25
ENDBRANCH  21  24
ENDBRANCH  19  20
ENDBRANCH  16  19
ENDBRANCH  14  15
BRANCH  14  37
ATOM     37  C   UNL A   1      29.493  27.266  23.262  1.00  0.00     0.070 C 
BRANCH  37  38
ATOM     38  C   UNL A   1      29.030  28.707  23.207  1.00  0.00    -0.045 A 
ATOM     39  C   UNL A   1      27.692  28.995  22.909  1.00  0.00     0.004 A 
ATOM     40  C   UNL A   1      29.882  29.749  23.588  1.00  0.00     0.004 A 
ATOM     41  C   UNL A   1      27.176  30.270  23.130  1.00  0.00     0.000 A 
ATOM     42  C   UNL A   1      29.376  31.039  23.758  1.00  0.00     0.000 A 
ATOM     43  C   UNL A   1      28.017  31.289  23.567  1.00  0.00     0.000 A 
ENDBRANCH  37  38
ENDBRANCH  14  37
ENDBRANCH  11  14
ENDBRANCH   5  10
ENDBRANCH   1   5
BRANCH   3  44
ATOM     44  C   UNL A   1      33.885  30.378  27.485  1.00  0.00     0.116 C 
BRANCH  44  45
ATOM     45  C   UNL A   1      35.175  31.406  27.988  1.00  0.00     0.021 C 
BRANCH  45  46
ATOM     46  C   UNL A   1      35.444  33.542  28.356  1.00  0.00     0.002 C 
BRANCH  46  47
ATOM     47  C   UNL A   1      34.615  35.002  27.926  1.00  0.00     0.002 C 
BRANCH  47  48
ATOM     48  C   UNL A   1      33.816  35.767  28.995  1.00  0.00     0.021 C 
BRANCH  48  49
ATOM     49  C   UNL A   1      32.968  34.948  29.947  1.00  0.00     0.116 C 
BRANCH  49  50
ATOM     50  N   UNL A   1      32.368  35.718  31.017  1.00  0.00    -0.352 N 
ATOM     51  C   UNL A   1      32.817  35.793  32.315  1.00  0.00     0.251 C 
ATOM     52  H   UNL A   1      31.562  36.239  30.794  1.00  0.00     0.163 HD
ATOM     53  O   UNL A   1      32.192  36.395  33.180  1.00  0.00    -0.269 OA
BRANCH  51  54
ATOM     54  C   UNL A   1      34.070  35.085  32.649  1.00  0.00     0.039 A 
ATOM     55  C   UNL A   1      34.000  33.786  33.154  1.00  0.00     0.014 A 
ATOM     56  C   UNL A   1      35.304  35.679  32.367  1.00  0.00     0.014 A 
ATOM     57  C   UNL A   1      35.180  33.070  33.357  1.00  0.00     0.010 A 
ATOM     58  C   UNL A   1      36.471  34.934  32.493  1.00  0.00     0.010 A 
ATOM     59  C   UNL A   1      36.421  33.634  33.017  1.00  0.00    -0.014 A 
BRANCH  59  60
ATOM     60  C   UNL A   1      37.680  32.898  33.284  1.00  0.00     0.031 A 
ATOM     61  C   UNL A   1      38.439  33.171  34.553  1.00  0.00     0.074 A 
ATOM     62  C   UNL A   1      38.141  32.000  32.394  1.00  0.00     0.049 A 
ATOM     63  N   UNL A   1      39.529  32.606  35.005  1.00  0.00    -0.248 NA
ATOM     64  C   UNL A   1      37.916  34.241  35.420  1.00  0.00     0.031 C 
ATOM     65  C   UNL A   1      37.518  31.685  31.107  1.00  0.00     0.029 A 
ATOM     66  N   UNL A   1      39.236  31.175  32.445  1.00  0.00    -0.354 N 
ATOM     67  C   UNL A   1      39.823  33.257  36.196  1.00  0.00     0.074 A 
ATOM     68  C   UNL A   1      38.842  34.304  36.363  1.00  0.00     0.031 C 
ATOM     69  C   UNL A   1      38.214  30.702  30.512  1.00  0.00     0.029 A 
ATOM     70  C   UNL A   1      39.342  30.334  31.363  1.00  0.00     0.049 A 
ATOM     71  H   UNL A   1      39.884  31.184  33.185  1.00  0.00     0.167 HD
ATOM     72  C   UNL A   1      40.803  32.985  37.090  1.00  0.00     0.037 A 
ATOM     73  C   UNL A   1      40.238  29.363  31.104  1.00  0.00     0.037 A 
ATOM     74  C   UNL A   1      41.757  31.922  36.934  1.00  0.00     0.049 A 
ATOM     75  C   UNL A   1      41.320  29.080  32.111  1.00  0.00     0.074 A 
ATOM     76  C   UNL A   1      42.746  31.513  37.809  1.00  0.00     0.029 A 
ATOM     77  N   UNL A   1      41.838  31.099  35.820  1.00  0.00    -0.354 N 
ATOM     78  N   UNL A   1      41.534  29.643  33.276  1.00  0.00    -0.248 NA
ATOM     79  C   UNL A   1      42.279  28.020  31.770  1.00  0.00     0.031 C 
ATOM     80  C   UNL A   1      43.459  30.472  37.203  1.00  0.00     0.029 A 
ATOM     81  C   UNL A   1      42.881  30.201  35.972  1.00  0.00     0.049 A 
ATOM     82  H   UNL A   1      41.244  31.146  35.038  1.00  0.00     0.167 HD
ATOM     83  C   UNL A   1      42.631  28.987  33.820  1.00  0.00     0.074 A 
ATOM     84  C   UNL A   1      43.029  27.975  32.862  1.00  0.00     0.031 C 
ATOM     85  C   UNL A   1      43.254  29.198  35.006  1.00  0.00     0.037 A 
BRANCH  72  86
ATOM     86  C   UNL A   1      40.880  33.858  38.309  1.00  0.00     0.057 A 
ATOM     87  C   UNL A   1      40.105  33.607  39.451  1.00  0.00     0.134 A 
ATOM     88  C   UNL A   1      41.733  34.967  38.341  1.00  0.00     0.134 A 
ATOM     89  F   UNL A   1      39.254  32.571  39.481  1.00  0.00    -0.206 F 
ATOM     90  C   UNL A   1      40.148  34.450  40.564  1.00  0.00     0.040 A 
ATOM     91  C   UNL A   1      41.806  35.800  39.459  1.00  0.00     0.040 A 
ATOM     92  F   UNL A   1      42.505  35.265  37.284  1.00  0.00    -0.206 F 
ATOM     93  C   UNL A   1      41.004  35.549  40.570  1.00  0.00     0.006 A 
ENDBRANCH  72  86
BRANCH  73  94
ATOM     94  C   UNL A   1      40.120  28.548  29.867  1.00  0.00     0.057 A 
ATOM     95  C   UNL A   1      40.744  28.948  28.680  1.00  0.00     0.134 A 
ATOM     96  C   UNL A   1      39.380  27.361  29.838  1.00  0.00     0.134 A 
ATOM     97  F   UNL A   1      41.453  30.086  28.641  1.00  0.00    -0.206 F 
ATOM     98  C   UNL A   1      40.624  28.206  27.504  1.00  0.00     0.040 A 
ATOM     99  C   UNL A   1      39.270  26.597  28.675  1.00  0.00     0.040 A 
ATOM    100  F   UNL A   1      38.765  26.918  30.945  1.00  0.00    -0.206 F 
ATOM    101  C   UNL A   1      39.888  27.024  27.501  1.00  0.00     0.006 A 
ENDBRANCH  73  94
BRANCH  85 102
ATOM    102  C   UNL A   1      44.408  28.301  35.344  1.00  0.00     0.057 A 
ATOM    103  C   UNL A   1      45.726  28.639  35.014  1.00  0.00     0.134 A 
ATOM    104  C   UNL A   1      44.199  27.107  36.045  1.00  0.00     0.134 A 
ATOM    105  F   UNL A   1      45.991  29.763  34.333  1.00  0.00    -0.206 F 
ATOM    106  C   UNL A   1      46.795  27.805  35.348  1.00  0.00     0.040 A 
ATOM    107  C   UNL A   1      45.262  26.279  36.408  1.00  0.00     0.040 A 
ATOM    108  F   UNL A   1      42.960  26.732  36.399  1.00  0.00    -0.206 F 
ATOM    109  C   UNL A   1      46.564  26.625  36.053  1.00  0.00     0.006 A 
ENDBRANCH  85 102
ENDBRANCH  59  60
ENDBRANCH  51  54
ENDBRANCH  49  50
ENDBRANCH  48  49
ENDBRANCH  47  48
ENDBRANCH  46  47
ENDBRANCH  45  46
ENDBRANCH  44  45
ENDBRANCH   3  44
TORSDOF 27
ENDMDL
MODEL 3
REMARK VINA RESULT:     -10.5      2.280      4.116
REMARK SMILES CC(C)C[C@H](NC(=O)[C@H](Cc1ccccc1)NC(=O)CNC(=O)CNC(=O)OCc1ccccc1)C(=O)NCCCCCCNC(=O)c1ccc(-c2c3nc(c(-c4c(F)cccc4F)c4ccc([nH]4)c(-c4c(F)cccc4F)c4nc(c(-c5c(F)cccc5F)c5ccc2[nH]5)C=C4)C=C3)cc1
REMARK SMILES IDX 36 1 37 2 38 3 5 5 4 6 2 7 1 8 3 9 6 10 7 11 8 13 9 14 17 15
REMARK SMILES IDX 18 16 19 18 20 19 21 20 22 21 23 23 24 24 25 25 26 26 27 28
REMARK SMILES IDX 28 29 29 30 30 31 31 32 35 33 32 34 34 35 33 36 10 37 11 38
REMARK SMILES IDX 12 39 16 40 13 41 15 42 14 43 39 44 40 45 41 46 42 47 43 48
REMARK SMILES IDX 44 49 45 50 46 51 47 53 48 54 49 55 101 56 50 57 100 58
REMARK SMILES IDX 51 59 52 60 53 61 94 62 54 63 99 64 93 65 95 66 55 67 98 68
REMARK SMILES IDX 92 69 91 70 56 72 82 73 65 74 81 75 66 76 69 77 80 78 96 79
REMARK SMILES IDX 67 80 68 81 79 83 97 84 70 85 57 86 58 87 63 88 59 89 60 90
REMARK SMILES IDX 62 91 64 92 61 93 83 94 84 95 89 96 85 97 86 98 88 99 90 100
REMARK SMILES IDX 87 101 71 102 72 103 77 104 73 105 74 106 76 107 78 108
REMARK SMILES IDX 75 109
REMARK H PARENT 38 4 6 12 17 17 21 22 25 27 45 52 95 71 69 82
REMARK Flexibility Score: inf
ROOT
ATOM      1  C   UNL A   1      33.506  29.037  25.624  1.00  0.00     0.242 C 
ATOM      2  O   UNL A   1      32.855  29.394  24.639  1.00  0.00    -0.273 OA
ATOM      3  N   UNL A   1      34.168  30.005  26.330  1.00  0.00    -0.354 N 
ATOM      4  H   UNL A   1      34.083  30.926  25.993  1.00  0.00     0.163 HD
ENDROOT
BRANCH   1   5
ATOM      5  C   UNL A   1      33.512  27.541  26.080  1.00  0.00     0.171 C 
BRANCH   5   6
ATOM      6  C   UNL A   1      34.469  26.632  25.317  1.00  0.00     0.038 C 
BRANCH   6   7
ATOM      7  C   UNL A   1      34.158  25.145  25.072  1.00  0.00    -0.015 C 
ATOM      8  C   UNL A   1      35.019  24.500  23.990  1.00  0.00     0.007 C 
ATOM      9  C   UNL A   1      34.390  24.388  26.393  1.00  0.00     0.007 C 
ENDBRANCH   6   7
ENDBRANCH   5   6
BRANCH   5  10
ATOM     10  N   UNL A   1      32.104  27.074  26.150  1.00  0.00    -0.343 N 
ATOM     11  C   UNL A   1      31.069  26.702  25.362  1.00  0.00     0.243 C 
ATOM     12  H   UNL A   1      31.830  27.016  27.093  1.00  0.00     0.164 HD
ATOM     13  O   UNL A   1      30.101  26.280  26.016  1.00  0.00    -0.273 OA
BRANCH  11  14
ATOM     14  C   UNL A   1      30.886  26.972  23.834  1.00  0.00     0.175 C 
BRANCH  14  15
ATOM     15  N   UNL A   1      31.590  26.110  22.882  1.00  0.00    -0.342 N 
ATOM     16  C   UNL A   1      31.524  24.751  22.715  1.00  0.00     0.240 C 
ATOM     17  H   UNL A   1      32.204  26.578  22.271  1.00  0.00     0.164 HD
ATOM     18  O   UNL A   1      32.410  24.189  22.069  1.00  0.00    -0.273 OA
BRANCH  16  19
ATOM     19  C   UNL A   1      30.384  23.941  23.339  1.00  0.00     0.216 C 
BRANCH  19  20
ATOM     20  N   UNL A   1      30.600  23.672  24.747  1.00  0.00    -0.346 N 
ATOM     21  C   UNL A   1      31.274  22.666  25.372  1.00  0.00     0.239 C 
ATOM     22  H   UNL A   1      30.191  24.329  25.355  1.00  0.00     0.164 HD
ATOM     23  O   UNL A   1      31.311  22.681  26.604  1.00  0.00    -0.273 OA
BRANCH  21  24
ATOM     24  C   UNL A   1      32.009  21.578  24.581  1.00  0.00     0.219 C 
BRANCH  24  25
ATOM     25  N   UNL A   1      32.257  20.414  25.400  1.00  0.00    -0.312 N 
ATOM     26  C   UNL A   1      33.257  19.515  25.233  1.00  0.00     0.407 C 
ATOM     27  H   UNL A   1      31.641  20.260  26.153  1.00  0.00     0.167 HD
ATOM     28  O   UNL A   1      33.159  18.409  25.741  1.00  0.00    -0.225 OA
BRANCH  26  29
ATOM     29  O   UNL A   1      34.252  19.943  24.418  1.00  0.00    -0.445 OA
BRANCH  29  30
ATOM     30  C   UNL A   1      34.954  21.148  24.780  1.00  0.00     0.270 C 
BRANCH  30  31
ATOM     31  C   UNL A   1      36.387  20.963  25.229  1.00  0.00    -0.011 A 
ATOM     32  C   UNL A   1      37.311  22.389  25.893  1.00  0.00     0.007 A 
ATOM     33  C   UNL A   1      37.218  19.383  25.020  1.00  0.00     0.007 A 
ATOM     34  C   UNL A   1      39.068  22.231  26.264  1.00  0.00     0.000 A 
ATOM     35  C   UNL A   1      38.982  19.234  25.383  1.00  0.00     0.000 A 
ATOM     36  C   UNL A   1      39.889  20.631  26.038  1.00  0.00     0.000 A 
ENDBRANCH  30  31
ENDBRANCH  29  30
ENDBRANCH  26  29
ENDBRANCH  24  25
ENDBRANCH  21  24
ENDBRANCH  19  20
ENDBRANCH  16  19
ENDBRANCH  14  15
BRANCH  14  37
ATOM     37  C   UNL A   1      29.348  27.072  23.501  1.00  0.00     0.070 C 
BRANCH  37  38
ATOM     38  C   UNL A   1      28.910  28.410  22.944  1.00  0.00    -0.045 A 
ATOM     39  C   UNL A   1      27.619  28.885  23.213  1.00  0.00     0.004 A 
ATOM     40  C   UNL A   1      29.819  29.246  22.286  1.00  0.00     0.004 A 
ATOM     41  C   UNL A   1      27.287  30.214  22.964  1.00  0.00     0.000 A 
ATOM     42  C   UNL A   1      29.467  30.565  21.989  1.00  0.00     0.000 A 
ATOM     43  C   UNL A   1      28.217  31.058  22.363  1.00  0.00     0.000 A 
ENDBRANCH  37  38
ENDBRANCH  14  37
ENDBRANCH  11  14
ENDBRANCH   5  10
ENDBRANCH   1   5
BRANCH   3  44
ATOM     44  C   UNL A   1      34.981  29.826  27.516  1.00  0.00     0.116 C 
BRANCH  44  45
ATOM     45  C   UNL A   1      35.978  31.120  28.069  1.00  0.00     0.021 C 
BRANCH  45  46
ATOM     46  C   UNL A   1      35.695  33.219  28.603  1.00  0.00     0.002 C 
BRANCH  46  47
ATOM     47  C   UNL A   1      34.810  34.566  27.967  1.00  0.00     0.002 C 
BRANCH  47  48
ATOM     48  C   UNL A   1      34.016  35.475  28.920  1.00  0.00     0.021 C 
BRANCH  48  49
ATOM     49  C   UNL A   1      33.069  34.802  29.893  1.00  0.00     0.116 C 
BRANCH  49  50
ATOM     50  N   UNL A   1      32.435  35.711  30.826  1.00  0.00    -0.352 N 
ATOM     51  C   UNL A   1      32.792  35.907  32.140  1.00  0.00     0.251 C 
ATOM     52  H   UNL A   1      31.676  36.240  30.488  1.00  0.00     0.163 HD
ATOM     53  O   UNL A   1      32.140  36.628  32.886  1.00  0.00    -0.269 OA
BRANCH  51  54
ATOM     54  C   UNL A   1      33.979  35.184  32.643  1.00  0.00     0.039 A 
ATOM     55  C   UNL A   1      33.809  33.932  33.234  1.00  0.00     0.014 A 
ATOM     56  C   UNL A   1      35.257  35.712  32.436  1.00  0.00     0.014 A 
ATOM     57  C   UNL A   1      34.934  33.193  33.600  1.00  0.00     0.010 A 
ATOM     58  C   UNL A   1      36.375  34.939  32.727  1.00  0.00     0.010 A 
ATOM     59  C   UNL A   1      36.223  33.686  33.339  1.00  0.00    -0.014 A 
BRANCH  59  60
ATOM     60  C   UNL A   1      37.420  32.929  33.777  1.00  0.00     0.031 A 
ATOM     61  C   UNL A   1      37.998  31.874  32.875  1.00  0.00     0.074 A 
ATOM     62  C   UNL A   1      37.979  33.181  34.976  1.00  0.00     0.049 A 
ATOM     63  N   UNL A   1      39.064  31.134  33.040  1.00  0.00    -0.248 NA
ATOM     64  C   UNL A   1      37.264  31.594  31.629  1.00  0.00     0.031 C 
ATOM     65  C   UNL A   1      37.481  34.147  35.957  1.00  0.00     0.029 A 
ATOM     66  N   UNL A   1      39.101  32.654  35.566  1.00  0.00    -0.354 N 
ATOM     67  C   UNL A   1      39.119  30.301  31.930  1.00  0.00     0.074 A 
ATOM     68  C   UNL A   1      37.945  30.574  31.134  1.00  0.00     0.031 C 
ATOM     69  C   UNL A   1      38.320  34.177  37.006  1.00  0.00     0.029 A 
ATOM     70  C   UNL A   1      39.399  33.220  36.782  1.00  0.00     0.049 A 
ATOM     71  H   UNL A   1      39.639  31.939  35.157  1.00  0.00     0.167 HD
ATOM     72  C   UNL A   1      40.080  29.412  31.586  1.00  0.00     0.037 A 
ATOM     73  C   UNL A   1      40.439  33.001  37.608  1.00  0.00     0.037 A 
ATOM     74  C   UNL A   1      41.261  29.167  32.367  1.00  0.00     0.049 A 
ATOM     75  C   UNL A   1      41.494  32.006  37.205  1.00  0.00     0.074 A 
ATOM     76  C   UNL A   1      42.332  28.341  32.078  1.00  0.00     0.029 A 
ATOM     77  N   UNL A   1      41.523  29.752  33.598  1.00  0.00    -0.354 N 
ATOM     78  N   UNL A   1      41.583  31.290  36.110  1.00  0.00    -0.248 NA
ATOM     79  C   UNL A   1      42.600  31.797  38.151  1.00  0.00     0.031 C 
ATOM     80  C   UNL A   1      43.221  28.389  33.158  1.00  0.00     0.029 A 
ATOM     81  C   UNL A   1      42.726  29.282  34.096  1.00  0.00     0.049 A 
ATOM     82  H   UNL A   1      40.940  30.403  34.049  1.00  0.00     0.167 HD
ATOM     83  C   UNL A   1      42.765  30.568  36.220  1.00  0.00     0.074 A 
ATOM     84  C   UNL A   1      43.366  30.944  37.484  1.00  0.00     0.031 C 
ATOM     85  C   UNL A   1      43.308  29.677  35.355  1.00  0.00     0.037 A 
BRANCH  72  86
ATOM     86  C   UNL A   1      39.880  28.647  30.310  1.00  0.00     0.057 A 
ATOM     87  C   UNL A   1      39.199  27.421  30.279  1.00  0.00     0.134 A 
ATOM     88  C   UNL A   1      40.380  29.136  29.098  1.00  0.00     0.134 A 
ATOM     89  F   UNL A   1      38.708  26.887  31.408  1.00  0.00    -0.206 F 
ATOM     90  C   UNL A   1      39.057  26.692  29.096  1.00  0.00     0.040 A 
ATOM     91  C   UNL A   1      40.219  28.430  27.904  1.00  0.00     0.040 A 
ATOM     92  F   UNL A   1      41.040  30.303  29.053  1.00  0.00    -0.206 F 
ATOM     93  C   UNL A   1      39.565  27.200  27.903  1.00  0.00     0.006 A 
ENDBRANCH  72  86
BRANCH  73  94
ATOM     94  C   UNL A   1      40.569  33.776  38.868  1.00  0.00     0.057 A 
ATOM     95  C   UNL A   1      39.917  33.365  40.036  1.00  0.00     0.134 A 
ATOM     96  C   UNL A   1      41.336  34.944  38.937  1.00  0.00     0.134 A 
ATOM     97  F   UNL A   1      39.153  32.262  40.029  1.00  0.00    -0.206 F 
ATOM     98  C   UNL A   1      40.009  34.094  41.223  1.00  0.00     0.040 A 
ATOM     99  C   UNL A   1      41.456  35.672  40.122  1.00  0.00     0.040 A 
ATOM    100  F   UNL A   1      41.993  35.388  37.854  1.00  0.00    -0.206 F 
ATOM    101  C   UNL A   1      40.785  35.250  41.269  1.00  0.00     0.006 A 
ENDBRANCH  73  94
BRANCH  85 102
ATOM    102  C   UNL A   1      44.627  29.072  35.732  1.00  0.00     0.057 A 
ATOM    103  C   UNL A   1      45.842  29.668  35.372  1.00  0.00     0.134 A 
ATOM    104  C   UNL A   1      44.681  27.902  36.500  1.00  0.00     0.134 A 
ATOM    105  F   UNL A   1      45.859  30.783  34.627  1.00  0.00    -0.206 F 
ATOM    106  C   UNL A   1      47.065  29.107  35.743  1.00  0.00     0.040 A 
ATOM    107  C   UNL A   1      45.896  27.347  36.900  1.00  0.00     0.040 A 
ATOM    108  F   UNL A   1      43.552  27.288  36.886  1.00  0.00    -0.206 F 
ATOM    109  C   UNL A   1      47.094  27.947  36.516  1.00  0.00     0.006 A 
ENDBRANCH  85 102
ENDBRANCH  59  60
ENDBRANCH  51  54
ENDBRANCH  49  50
ENDBRANCH  48  49
ENDBRANCH  47  48
ENDBRANCH  46  47
ENDBRANCH  45  46
ENDBRANCH  44  45
ENDBRANCH   3  44
TORSDOF 27
ENDMDL
