MODEL 1
REMARK VINA RESULT:     -10.8      0.000      0.000
REMARK SMILES C[N@H+]1CC[C@@H](Cc2nccnc2C(=O)NCCCCCCNC(=O)c2ccc(-c3c4nc(c(-c5c(F)cccc5F)c5ccc([nH]5)c(-c5c(F)cccc5F)c5nc(c(-c6c(F)cccc6F)c6ccc3[nH]6)C=C5)C=C4)cc2)C1
REMARK SMILES IDX 18 1 17 2 16 3 15 4 13 5 14 6 12 8 7 9 8 10 9 11 11 12 10 13
REMARK SMILES IDX 6 14 5 15 1 16 2 17 3 18 79 19 4 21 19 22 20 23 21 24 22 25
REMARK SMILES IDX 23 26 24 28 25 29 26 30 78 31 27 32 77 33 28 34 29 35 30 36
REMARK SMILES IDX 71 37 31 38 76 39 70 40 72 41 32 42 75 43 69 44 68 45 33 47
REMARK SMILES IDX 59 48 42 49 58 50 43 51 46 52 57 53 73 54 44 55 45 56 56 58
REMARK SMILES IDX 74 59 47 60 34 61 35 62 40 63 36 64 37 65 39 66 41 67 38 68
REMARK SMILES IDX 60 69 61 70 66 71 62 72 63 73 65 74 67 75 64 76 48 77 49 78
REMARK SMILES IDX 54 79 50 80 51 81 53 82 55 83 52 84
REMARK H PARENT 15 7 2 20 22 27 72 46 46 57
REMARK Flexibility Score: inf
ROOT
ATOM      1  C   UNL A   1      37.108  22.044  24.283  1.00  0.00     0.002 C 
ENDROOT
BRANCH   1   2
ATOM      2  C   UNL A   1      37.394  23.026  25.416  1.00  0.00     0.021 C 
BRANCH   2   3
ATOM      3  C   UNL A   1      36.215  23.922  25.841  1.00  0.00     0.116 C 
BRANCH   3   4
ATOM      4  N   UNL A   1      35.327  23.169  26.712  1.00  0.00    -0.351 N 
ATOM      5  C   UNL A   1      34.128  22.507  26.600  1.00  0.00     0.271 C 
ATOM      6  O   UNL A   1      33.689  22.095  27.682  1.00  0.00    -0.267 OA
ATOM      7  H   UNL A   1      35.680  23.121  27.630  1.00  0.00     0.163 HD
BRANCH   5   8
ATOM      8  C   UNL A   1      33.331  22.186  25.356  1.00  0.00     0.149 A 
ATOM      9  C   UNL A   1      33.054  20.940  24.777  1.00  0.00     0.072 A 
ATOM     10  N   UNL A   1      32.441  20.840  23.555  1.00  0.00    -0.257 NA
ATOM     11  C   UNL A   1      32.171  21.987  22.903  1.00  0.00     0.131 A 
ATOM     12  N   UNL A   1      33.013  23.335  24.675  1.00  0.00    -0.248 NA
ATOM     13  C   UNL A   1      32.454  23.213  23.455  1.00  0.00     0.132 A 
BRANCH   9  14
ATOM     14  C   UNL A   1      33.337  19.615  25.407  1.00  0.00     0.068 C 
BRANCH  14  15
ATOM     15  C   UNL A   1      33.345  18.388  24.486  1.00  0.00     0.056 C 
ATOM     16  C   UNL A   1      35.654  15.636  25.261  1.00  0.00     0.332 C 
ATOM     17  N   UNL A   1      34.485  16.309  24.709  1.00  0.00    -0.337 N 
ATOM     18  C   UNL A   1      33.339  16.242  25.609  1.00  0.00     0.262 C 
ATOM     19  C   UNL A   1      34.734  17.732  24.460  1.00  0.00     0.266 C 
ATOM     20  H   UNL A   1      34.288  15.818  23.837  1.00  0.00     0.347 HD
ATOM     21  C   UNL A   1      32.411  17.294  25.031  1.00  0.00     0.071 C 
ENDBRANCH  14  15
ENDBRANCH   9  14
ENDBRANCH   5   8
ENDBRANCH   3   4
ENDBRANCH   2   3
ENDBRANCH   1   2
BRANCH   1  22
ATOM     22  C   UNL A   1      36.992  20.583  24.723  1.00  0.00     0.002 C 
BRANCH  22  23
ATOM     23  C   UNL A   1      38.295  19.773  24.704  1.00  0.00     0.021 C 
BRANCH  23  24
ATOM     24  C   UNL A   1      39.080  19.760  26.016  1.00  0.00     0.116 C 
BRANCH  24  25
ATOM     25  N   UNL A   1      40.308  18.992  25.910  1.00  0.00    -0.352 N 
ATOM     26  C   UNL A   1      41.612  19.409  25.997  1.00  0.00     0.251 C 
ATOM     27  H   UNL A   1      40.187  18.028  25.750  1.00  0.00     0.163 HD
ATOM     28  O   UNL A   1      42.523  18.659  25.646  1.00  0.00    -0.269 OA
BRANCH  26  29
ATOM     29  C   UNL A   1      41.934  20.760  26.501  1.00  0.00     0.039 A 
ATOM     30  C   UNL A   1      41.961  20.981  27.881  1.00  0.00     0.014 A 
ATOM     31  C   UNL A   1      42.169  21.818  25.618  1.00  0.00     0.014 A 
ATOM     32  C   UNL A   1      42.282  22.247  28.378  1.00  0.00     0.010 A 
ATOM     33  C   UNL A   1      42.544  23.065  26.114  1.00  0.00     0.010 A 
ATOM     34  C   UNL A   1      42.605  23.292  27.498  1.00  0.00    -0.014 A 
BRANCH  34  35
ATOM     35  C   UNL A   1      43.013  24.629  27.999  1.00  0.00     0.031 A 
ATOM     36  C   UNL A   1      41.975  25.676  28.293  1.00  0.00     0.074 A 
ATOM     37  C   UNL A   1      44.321  24.929  28.113  1.00  0.00     0.049 A 
ATOM     38  N   UNL A   1      42.135  26.932  28.622  1.00  0.00    -0.248 NA
ATOM     39  C   UNL A   1      40.569  25.258  28.181  1.00  0.00     0.031 C 
ATOM     40  C   UNL A   1      45.428  24.013  27.830  1.00  0.00     0.029 A 
ATOM     41  N   UNL A   1      44.943  26.097  28.478  1.00  0.00    -0.354 N 
ATOM     42  C   UNL A   1      40.855  27.460  28.736  1.00  0.00     0.074 A 
ATOM     43  C   UNL A   1      39.930  26.397  28.405  1.00  0.00     0.031 C 
ATOM     44  C   UNL A   1      46.590  24.651  28.040  1.00  0.00     0.029 A 
ATOM     45  C   UNL A   1      46.314  26.030  28.432  1.00  0.00     0.049 A 
ATOM     46  H   UNL A   1      44.452  26.907  28.748  1.00  0.00     0.167 HD
ATOM     47  C   UNL A   1      40.485  28.711  29.100  1.00  0.00     0.037 A 
ATOM     48  C   UNL A   1      47.243  26.975  28.663  1.00  0.00     0.037 A 
ATOM     49  C   UNL A   1      41.406  29.759  29.454  1.00  0.00     0.049 A 
ATOM     50  C   UNL A   1      46.808  28.361  29.050  1.00  0.00     0.074 A 
ATOM     51  C   UNL A   1      41.125  31.043  29.890  1.00  0.00     0.029 A 
ATOM     52  N   UNL A   1      42.787  29.644  29.412  1.00  0.00    -0.354 N 
ATOM     53  N   UNL A   1      45.594  28.831  29.204  1.00  0.00    -0.248 NA
ATOM     54  C   UNL A   1      47.870  29.347  29.295  1.00  0.00     0.031 C 
ATOM     55  C   UNL A   1      42.336  31.717  30.076  1.00  0.00     0.029 A 
ATOM     56  C   UNL A   1      43.372  30.840  29.797  1.00  0.00     0.049 A 
ATOM     57  H   UNL A   1      43.280  28.834  29.149  1.00  0.00     0.167 HD
ATOM     58  C   UNL A   1      45.746  30.157  29.591  1.00  0.00     0.074 A 
ATOM     59  C   UNL A   1      47.170  30.413  29.657  1.00  0.00     0.031 C 
ATOM     60  C   UNL A   1      44.791  31.077  29.868  1.00  0.00     0.037 A 
BRANCH  47  61
ATOM     61  C   UNL A   1      39.017  29.015  29.134  1.00  0.00     0.057 A 
ATOM     62  C   UNL A   1      38.262  28.878  30.305  1.00  0.00     0.134 A 
ATOM     63  C   UNL A   1      38.357  29.487  27.992  1.00  0.00     0.134 A 
ATOM     64  F   UNL A   1      38.831  28.421  31.431  1.00  0.00    -0.206 F 
ATOM     65  C   UNL A   1      36.897  29.174  30.335  1.00  0.00     0.040 A 
ATOM     66  C   UNL A   1      36.999  29.812  28.015  1.00  0.00     0.040 A 
ATOM     67  F   UNL A   1      39.023  29.650  26.838  1.00  0.00    -0.206 F 
ATOM     68  C   UNL A   1      36.265  29.649  29.187  1.00  0.00     0.006 A 
ENDBRANCH  47  61
BRANCH  48  69
ATOM     69  C   UNL A   1      48.685  26.642  28.548  1.00  0.00     0.057 A 
ATOM     70  C   UNL A   1      49.400  26.152  29.646  1.00  0.00     0.134 A 
ATOM     71  C   UNL A   1      49.383  26.810  27.346  1.00  0.00     0.134 A 
ATOM     72  F   UNL A   1      48.791  25.988  30.829  1.00  0.00    -0.206 F 
ATOM     73  C   UNL A   1      50.762  25.856  29.558  1.00  0.00     0.040 A 
ATOM     74  C   UNL A   1      50.738  26.498  27.238  1.00  0.00     0.040 A 
ATOM     75  F   UNL A   1      48.751  27.272  26.255  1.00  0.00    -0.206 F 
ATOM     76  C   UNL A   1      51.433  26.024  28.349  1.00  0.00     0.006 A 
ENDBRANCH  48  69
BRANCH  60  77
ATOM     77  C   UNL A   1      45.251  32.435  30.306  1.00  0.00     0.057 A 
ATOM     78  C   UNL A   1      45.518  32.728  31.649  1.00  0.00     0.134 A 
ATOM     79  C   UNL A   1      45.475  33.449  29.364  1.00  0.00     0.134 A 
ATOM     80  F   UNL A   1      45.310  31.805  32.600  1.00  0.00    -0.206 F 
ATOM     81  C   UNL A   1      45.978  33.986  32.042  1.00  0.00     0.040 A 
ATOM     82  C   UNL A   1      45.957  34.702  29.742  1.00  0.00     0.040 A 
ATOM     83  F   UNL A   1      45.245  33.230  28.061  1.00  0.00    -0.206 F 
ATOM     84  C   UNL A   1      46.206  34.974  31.086  1.00  0.00     0.006 A 
ENDBRANCH  60  77
ENDBRANCH  34  35
ENDBRANCH  26  29
ENDBRANCH  24  25
ENDBRANCH  23  24
ENDBRANCH  22  23
ENDBRANCH   1  22
TORSDOF 15
ENDMDL
MODEL 2
REMARK VINA RESULT:     -10.7      5.637     10.497
REMARK SMILES C[N@H+]1CC[C@@H](Cc2nccnc2C(=O)NCCCCCCNC(=O)c2ccc(-c3c4nc(c(-c5c(F)cccc5F)c5ccc([nH]5)c(-c5c(F)cccc5F)c5nc(c(-c6c(F)cccc6F)c6ccc3[nH]6)C=C5)C=C4)cc2)C1
REMARK SMILES IDX 18 1 17 2 16 3 15 4 13 5 14 6 12 8 7 9 8 10 9 11 11 12 10 13
REMARK SMILES IDX 6 14 5 15 1 16 2 17 3 18 79 19 4 21 19 22 20 23 21 24 22 25
REMARK SMILES IDX 23 26 24 28 25 29 26 30 78 31 27 32 77 33 28 34 29 35 30 36
REMARK SMILES IDX 71 37 31 38 76 39 70 40 72 41 32 42 75 43 69 44 68 45 33 47
REMARK SMILES IDX 59 48 42 49 58 50 43 51 46 52 57 53 73 54 44 55 45 56 56 58
REMARK SMILES IDX 74 59 47 60 34 61 35 62 40 63 36 64 37 65 39 66 41 67 38 68
REMARK SMILES IDX 60 69 61 70 66 71 62 72 63 73 65 74 67 75 64 76 48 77 49 78
REMARK SMILES IDX 54 79 50 80 51 81 53 82 55 83 52 84
REMARK H PARENT 15 7 2 20 22 27 72 46 46 57
REMARK Flexibility Score: inf
ROOT
ATOM      1  C   UNL A   1      32.438  29.351  26.287  1.00  0.00     0.002 C 
ENDROOT
BRANCH   1   2
ATOM      2  C   UNL A   1      33.227  28.530  25.270  1.00  0.00     0.021 C 
BRANCH   2   3
ATOM      3  C   UNL A   1      33.618  29.263  23.973  1.00  0.00     0.116 C 
BRANCH   3   4
ATOM      4  N   UNL A   1      33.618  28.321  22.867  1.00  0.00    -0.351 N 
ATOM      5  C   UNL A   1      32.803  27.320  22.396  1.00  0.00     0.271 C 
ATOM      6  O   UNL A   1      33.291  26.691  21.447  1.00  0.00    -0.267 OA
ATOM      7  H   UNL A   1      34.419  28.427  22.304  1.00  0.00     0.163 HD
BRANCH   5   8
ATOM      8  C   UNL A   1      31.410  26.937  22.843  1.00  0.00     0.149 A 
ATOM      9  C   UNL A   1      30.255  27.726  22.924  1.00  0.00     0.072 A 
ATOM     10  N   UNL A   1      29.105  27.255  23.501  1.00  0.00    -0.257 NA
ATOM     11  C   UNL A   1      29.146  26.023  24.044  1.00  0.00     0.131 A 
ATOM     12  N   UNL A   1      31.405  25.674  23.381  1.00  0.00    -0.248 NA
ATOM     13  C   UNL A   1      30.279  25.247  23.985  1.00  0.00     0.132 A 
BRANCH   9  14
ATOM     14  C   UNL A   1      30.117  29.109  22.376  1.00  0.00     0.068 C 
BRANCH  14  15
ATOM     15  C   UNL A   1      28.773  29.818  22.589  1.00  0.00     0.056 C 
ATOM     16  C   UNL A   1      28.778  33.454  23.126  1.00  0.00     0.332 C 
ATOM     17  N   UNL A   1      28.270  32.140  22.750  1.00  0.00    -0.337 N 
ATOM     18  C   UNL A   1      28.462  31.864  21.331  1.00  0.00     0.262 C 
ATOM     19  C   UNL A   1      28.943  31.060  23.478  1.00  0.00     0.266 C 
ATOM     20  H   UNL A   1      27.277  32.168  22.982  1.00  0.00     0.347 HD
ATOM     21  C   UNL A   1      28.231  30.366  21.258  1.00  0.00     0.071 C 
ENDBRANCH  14  15
ENDBRANCH   9  14
ENDBRANCH   5   8
ENDBRANCH   3   4
ENDBRANCH   2   3
ENDBRANCH   1   2
BRANCH   1  22
ATOM     22  C   UNL A   1      31.504  30.396  25.672  1.00  0.00     0.002 C 
BRANCH  22  23
ATOM     23  C   UNL A   1      31.287  31.669  26.501  1.00  0.00     0.021 C 
BRANCH  23  24
ATOM     24  C   UNL A   1      32.554  32.300  27.080  1.00  0.00     0.116 C 
BRANCH  24  25
ATOM     25  N   UNL A   1      32.359  33.697  27.424  1.00  0.00    -0.352 N 
ATOM     26  C   UNL A   1      32.988  34.461  28.375  1.00  0.00     0.251 C 
ATOM     27  H   UNL A   1      31.672  34.166  26.898  1.00  0.00     0.163 HD
ATOM     28  O   UNL A   1      32.528  35.559  28.685  1.00  0.00    -0.269 OA
BRANCH  26  29
ATOM     29  C   UNL A   1      34.213  33.970  29.039  1.00  0.00     0.039 A 
ATOM     30  C   UNL A   1      34.093  33.137  30.155  1.00  0.00     0.014 A 
ATOM     31  C   UNL A   1      35.477  34.363  28.592  1.00  0.00     0.014 A 
ATOM     32  C   UNL A   1      35.240  32.647  30.786  1.00  0.00     0.010 A 
ATOM     33  C   UNL A   1      36.620  33.830  29.185  1.00  0.00     0.010 A 
ATOM     34  C   UNL A   1      36.513  32.966  30.287  1.00  0.00    -0.014 A 
BRANCH  34  35
ATOM     35  C   UNL A   1      37.747  32.408  30.897  1.00  0.00     0.031 A 
ATOM     36  C   UNL A   1      38.409  31.201  30.294  1.00  0.00     0.074 A 
ATOM     37  C   UNL A   1      38.225  32.938  32.040  1.00  0.00     0.049 A 
ATOM     38  N   UNL A   1      39.417  30.498  30.744  1.00  0.00    -0.248 NA
ATOM     39  C   UNL A   1      37.848  30.707  29.027  1.00  0.00     0.031 C 
ATOM     40  C   UNL A   1      37.657  34.089  32.742  1.00  0.00     0.029 A 
ATOM     41  N   UNL A   1      39.288  32.562  32.823  1.00  0.00    -0.354 N 
ATOM     42  C   UNL A   1      39.599  29.469  29.829  1.00  0.00     0.074 A 
ATOM     43  C   UNL A   1      38.573  29.617  28.818  1.00  0.00     0.031 C 
ATOM     44  C   UNL A   1      38.382  34.332  33.846  1.00  0.00     0.029 A 
ATOM     45  C   UNL A   1      39.439  33.330  33.952  1.00  0.00     0.049 A 
ATOM     46  H   UNL A   1      39.886  31.813  32.597  1.00  0.00     0.167 HD
ATOM     47  C   UNL A   1      40.545  28.499  29.823  1.00  0.00     0.037 A 
ATOM     48  C   UNL A   1      40.317  33.229  34.966  1.00  0.00     0.037 A 
ATOM     49  C   UNL A   1      41.580  28.369  30.815  1.00  0.00     0.049 A 
ATOM     50  C   UNL A   1      41.348  32.134  34.945  1.00  0.00     0.074 A 
ATOM     51  C   UNL A   1      42.617  27.453  30.863  1.00  0.00     0.029 A 
ATOM     52  N   UNL A   1      41.709  29.178  31.932  1.00  0.00    -0.354 N 
ATOM     53  N   UNL A   1      41.540  31.200  34.047  1.00  0.00    -0.248 NA
ATOM     54  C   UNL A   1      42.284  32.081  36.078  1.00  0.00     0.031 C 
ATOM     55  C   UNL A   1      43.351  27.685  32.031  1.00  0.00     0.029 A 
ATOM     56  C   UNL A   1      42.797  28.772  32.687  1.00  0.00     0.049 A 
ATOM     57  H   UNL A   1      41.115  29.931  32.157  1.00  0.00     0.167 HD
ATOM     58  C   UNL A   1      42.633  30.465  34.489  1.00  0.00     0.074 A 
ATOM     59  C   UNL A   1      43.068  31.069  35.732  1.00  0.00     0.031 C 
ATOM     60  C   UNL A   1      43.224  29.389  33.917  1.00  0.00     0.037 A 
BRANCH  47  61
ATOM     61  C   UNL A   1      40.504  27.500  28.704  1.00  0.00     0.057 A 
ATOM     62  C   UNL A   1      39.667  26.378  28.747  1.00  0.00     0.134 A 
ATOM     63  C   UNL A   1      41.282  27.682  27.554  1.00  0.00     0.134 A 
ATOM     64  F   UNL A   1      38.904  26.141  29.825  1.00  0.00    -0.206 F 
ATOM     65  C   UNL A   1      39.624  25.458  27.698  1.00  0.00     0.040 A 
ATOM     66  C   UNL A   1      41.229  26.783  26.487  1.00  0.00     0.040 A 
ATOM     67  F   UNL A   1      42.100  28.740  27.445  1.00  0.00    -0.206 F 
ATOM     68  C   UNL A   1      40.403  25.664  26.561  1.00  0.00     0.006 A 
ENDBRANCH  47  61
BRANCH  48  69
ATOM     69  C   UNL A   1      40.272  34.201  36.087  1.00  0.00     0.057 A 
ATOM     70  C   UNL A   1      39.487  33.958  37.219  1.00  0.00     0.134 A 
ATOM     71  C   UNL A   1      41.003  35.394  36.052  1.00  0.00     0.134 A 
ATOM     72  F   UNL A   1      38.750  32.841  37.301  1.00  0.00    -0.206 F 
ATOM     73  C   UNL A   1      39.418  34.873  38.270  1.00  0.00     0.040 A 
ATOM     74  C   UNL A   1      40.961  36.308  37.105  1.00  0.00     0.040 A 
ATOM     75  F   UNL A   1      41.779  35.683  34.996  1.00  0.00    -0.206 F 
ATOM     76  C   UNL A   1      40.160  36.051  38.217  1.00  0.00     0.006 A 
ENDBRANCH  48  69
BRANCH  60  77
ATOM     77  C   UNL A   1      44.427  28.817  34.604  1.00  0.00     0.057 A 
ATOM     78  C   UNL A   1      45.719  29.293  34.351  1.00  0.00     0.134 A 
ATOM     79  C   UNL A   1      44.284  27.810  35.569  1.00  0.00     0.134 A 
ATOM     80  F   UNL A   1      45.923  30.246  33.429  1.00  0.00    -0.206 F 
ATOM     81  C   UNL A   1      46.829  28.777  35.021  1.00  0.00     0.040 A 
ATOM     82  C   UNL A   1      45.384  27.303  36.262  1.00  0.00     0.040 A 
ATOM     83  F   UNL A   1      43.072  27.316  35.862  1.00  0.00    -0.206 F 
ATOM     84  C   UNL A   1      46.661  27.784  35.985  1.00  0.00     0.006 A 
ENDBRANCH  60  77
ENDBRANCH  34  35
ENDBRANCH  26  29
ENDBRANCH  24  25
ENDBRANCH  23  24
ENDBRANCH  22  23
ENDBRANCH   1  22
TORSDOF 15
ENDMDL
MODEL 3
REMARK VINA RESULT:     -10.7      5.530     10.453
REMARK SMILES C[N@H+]1CC[C@@H](Cc2nccnc2C(=O)NCCCCCCNC(=O)c2ccc(-c3c4nc(c(-c5c(F)cccc5F)c5ccc([nH]5)c(-c5c(F)cccc5F)c5nc(c(-c6c(F)cccc6F)c6ccc3[nH]6)C=C5)C=C4)cc2)C1
REMARK SMILES IDX 18 1 17 2 16 3 15 4 13 5 14 6 12 8 7 9 8 10 9 11 11 12 10 13
REMARK SMILES IDX 6 14 5 15 1 16 2 17 3 18 79 19 4 21 19 22 20 23 21 24 22 25
REMARK SMILES IDX 23 26 24 28 25 29 26 30 78 31 27 32 77 33 28 34 29 35 30 36
REMARK SMILES IDX 71 37 31 38 76 39 70 40 72 41 32 42 75 43 69 44 68 45 33 47
REMARK SMILES IDX 59 48 42 49 58 50 43 51 46 52 57 53 73 54 44 55 45 56 56 58
REMARK SMILES IDX 74 59 47 60 34 61 35 62 40 63 36 64 37 65 39 66 41 67 38 68
REMARK SMILES IDX 60 69 61 70 66 71 62 72 63 73 65 74 67 75 64 76 48 77 49 78
REMARK SMILES IDX 54 79 50 80 51 81 53 82 55 83 52 84
REMARK H PARENT 15 7 2 20 22 27 72 46 46 57
REMARK Flexibility Score: inf
ROOT
ATOM      1  C   UNL A   1      32.233  29.909  27.060  1.00  0.00     0.002 C 
ENDROOT
BRANCH   1   2
ATOM      2  C   UNL A   1      32.596  28.546  26.477  1.00  0.00     0.021 C 
BRANCH   2   3
ATOM      3  C   UNL A   1      34.041  28.399  25.960  1.00  0.00     0.116 C 
BRANCH   3   4
ATOM      4  N   UNL A   1      34.077  28.696  24.539  1.00  0.00    -0.351 N 
ATOM      5  C   UNL A   1      33.760  28.053  23.366  1.00  0.00     0.271 C 
ATOM      6  O   UNL A   1      34.078  28.690  22.352  1.00  0.00    -0.267 OA
ATOM      7  H   UNL A   1      34.423  29.603  24.369  1.00  0.00     0.163 HD
BRANCH   5   8
ATOM      8  C   UNL A   1      33.049  26.734  23.166  1.00  0.00     0.149 A 
ATOM      9  C   UNL A   1      31.718  26.489  22.802  1.00  0.00     0.072 A 
ATOM     10  N   UNL A   1      31.193  25.223  22.816  1.00  0.00    -0.257 NA
ATOM     11  C   UNL A   1      31.990  24.229  23.253  1.00  0.00     0.131 A 
ATOM     12  N   UNL A   1      33.840  25.691  23.578  1.00  0.00    -0.248 NA
ATOM     13  C   UNL A   1      33.291  24.461  23.629  1.00  0.00     0.132 A 
BRANCH   9  14
ATOM     14  C   UNL A   1      30.750  27.524  22.328  1.00  0.00     0.068 C 
BRANCH  14  15
ATOM     15  C   UNL A   1      29.960  28.289  23.399  1.00  0.00     0.056 C 
ATOM     16  C   UNL A   1      28.035  31.246  22.373  1.00  0.00     0.332 C 
ATOM     17  N   UNL A   1      28.422  30.093  23.176  1.00  0.00    -0.337 N 
ATOM     18  C   UNL A   1      27.694  28.889  22.792  1.00  0.00     0.262 C 
ATOM     19  C   UNL A   1      29.847  29.778  23.037  1.00  0.00     0.266 C 
ATOM     20  H   UNL A   1      28.202  30.357  24.136  1.00  0.00     0.347 HD
ATOM     21  C   UNL A   1      28.506  27.793  23.457  1.00  0.00     0.071 C 
ENDBRANCH  14  15
ENDBRANCH   9  14
ENDBRANCH   5   8
ENDBRANCH   3   4
ENDBRANCH   2   3
ENDBRANCH   1   2
BRANCH   1  22
ATOM     22  C   UNL A   1      31.397  30.794  26.131  1.00  0.00     0.002 C 
BRANCH  22  23
ATOM     23  C   UNL A   1      31.313  32.277  26.519  1.00  0.00     0.021 C 
BRANCH  23  24
ATOM     24  C   UNL A   1      32.528  32.830  27.265  1.00  0.00     0.116 C 
BRANCH  24  25
ATOM     25  N   UNL A   1      32.356  34.226  27.627  1.00  0.00    -0.352 N 
ATOM     26  C   UNL A   1      32.994  34.966  28.590  1.00  0.00     0.251 C 
ATOM     27  H   UNL A   1      31.679  34.714  27.104  1.00  0.00     0.163 HD
ATOM     28  O   UNL A   1      32.552  36.069  28.911  1.00  0.00    -0.269 OA
BRANCH  26  29
ATOM     29  C   UNL A   1      34.208  34.446  29.252  1.00  0.00     0.039 A 
ATOM     30  C   UNL A   1      34.089  33.841  30.507  1.00  0.00     0.014 A 
ATOM     31  C   UNL A   1      35.465  34.591  28.661  1.00  0.00     0.014 A 
ATOM     32  C   UNL A   1      35.223  33.326  31.142  1.00  0.00     0.010 A 
ATOM     33  C   UNL A   1      36.586  34.027  29.267  1.00  0.00     0.010 A 
ATOM     34  C   UNL A   1      36.476  33.388  30.513  1.00  0.00    -0.014 A 
BRANCH  34  35
ATOM     35  C   UNL A   1      37.686  32.791  31.134  1.00  0.00     0.031 A 
ATOM     36  C   UNL A   1      38.344  31.593  30.509  1.00  0.00     0.074 A 
ATOM     37  C   UNL A   1      38.145  33.277  32.304  1.00  0.00     0.049 A 
ATOM     38  N   UNL A   1      39.330  30.860  30.961  1.00  0.00    -0.248 NA
ATOM     39  C   UNL A   1      37.807  31.147  29.214  1.00  0.00     0.031 C 
ATOM     40  C   UNL A   1      37.578  34.415  33.029  1.00  0.00     0.029 A 
ATOM     41  N   UNL A   1      39.182  32.860  33.100  1.00  0.00    -0.354 N 
ATOM     42  C   UNL A   1      39.518  29.856  30.018  1.00  0.00     0.074 A 
ATOM     43  C   UNL A   1      38.520  30.053  28.989  1.00  0.00     0.031 C 
ATOM     44  C   UNL A   1      38.279  34.611  34.156  1.00  0.00     0.029 A 
ATOM     45  C   UNL A   1      39.317  33.590  34.256  1.00  0.00     0.049 A 
ATOM     46  H   UNL A   1      39.774  32.109  32.865  1.00  0.00     0.167 HD
ATOM     47  C   UNL A   1      40.448  28.872  30.004  1.00  0.00     0.037 A 
ATOM     48  C   UNL A   1      40.169  33.443  35.287  1.00  0.00     0.037 A 
ATOM     49  C   UNL A   1      41.457  28.694  31.016  1.00  0.00     0.049 A 
ATOM     50  C   UNL A   1      41.183  32.332  35.256  1.00  0.00     0.074 A 
ATOM     51  C   UNL A   1      42.478  27.760  31.060  1.00  0.00     0.029 A 
ATOM     52  N   UNL A   1      41.571  29.466  32.161  1.00  0.00    -0.354 N 
ATOM     53  N   UNL A   1      41.382  31.423  34.334  1.00  0.00    -0.248 NA
ATOM     54  C   UNL A   1      42.090  32.228  36.409  1.00  0.00     0.031 C 
ATOM     55  C   UNL A   1      43.186  27.943  32.252  1.00  0.00     0.029 A 
ATOM     56  C   UNL A   1      42.634  29.019  32.929  1.00  0.00     0.049 A 
ATOM     57  H   UNL A   1      40.984  30.221  32.395  1.00  0.00     0.167 HD
ATOM     58  C   UNL A   1      42.453  30.657  34.779  1.00  0.00     0.074 A 
ATOM     59  C   UNL A   1      42.866  31.215  36.050  1.00  0.00     0.031 C 
ATOM     60  C   UNL A   1      43.040  29.590  34.187  1.00  0.00     0.037 A 
BRANCH  47  61
ATOM     61  C   UNL A   1      40.419  27.909  28.854  1.00  0.00     0.057 A 
ATOM     62  C   UNL A   1      41.157  28.133  27.686  1.00  0.00     0.134 A 
ATOM     63  C   UNL A   1      39.673  26.726  28.931  1.00  0.00     0.134 A 
ATOM     64  F   UNL A   1      41.884  29.251  27.545  1.00  0.00    -0.206 F 
ATOM     65  C   UNL A   1      41.136  27.227  26.623  1.00  0.00     0.040 A 
ATOM     66  C   UNL A   1      39.664  25.800  27.886  1.00  0.00     0.040 A 
ATOM     67  F   UNL A   1      38.949  26.446  30.025  1.00  0.00    -0.206 F 
ATOM     68  C   UNL A   1      40.392  26.053  26.726  1.00  0.00     0.006 A 
ENDBRANCH  47  61
BRANCH  48  69
ATOM     69  C   UNL A   1      40.112  34.380  36.436  1.00  0.00     0.057 A 
ATOM     70  C   UNL A   1      40.801  35.598  36.405  1.00  0.00     0.134 A 
ATOM     71  C   UNL A   1      39.378  34.082  37.590  1.00  0.00     0.134 A 
ATOM     72  F   UNL A   1      41.537  35.930  35.335  1.00  0.00    -0.206 F 
ATOM     73  C   UNL A   1      40.775  36.480  37.488  1.00  0.00     0.040 A 
ATOM     74  C   UNL A   1      39.325  34.963  38.670  1.00  0.00     0.040 A 
ATOM     75  F   UNL A   1      38.692  32.932  37.678  1.00  0.00    -0.206 F 
ATOM     76  C   UNL A   1      40.030  36.164  38.623  1.00  0.00     0.006 A 
ENDBRANCH  48  69
BRANCH  60  77
ATOM     77  C   UNL A   1      44.217  28.978  34.885  1.00  0.00     0.057 A 
ATOM     78  C   UNL A   1      44.066  27.951  35.825  1.00  0.00     0.134 A 
ATOM     79  C   UNL A   1      45.521  29.387  34.575  1.00  0.00     0.134 A 
ATOM     80  F   UNL A   1      42.843  27.524  36.174  1.00  0.00    -0.206 F 
ATOM     81  C   UNL A   1      45.171  27.363  36.444  1.00  0.00     0.040 A 
ATOM     82  C   UNL A   1      46.634  28.791  35.170  1.00  0.00     0.040 A 
ATOM     83  F   UNL A   1      45.734  30.362  33.678  1.00  0.00    -0.206 F 
ATOM     84  C   UNL A   1      46.459  27.779  36.111  1.00  0.00     0.006 A 
ENDBRANCH  60  77
ENDBRANCH  34  35
ENDBRANCH  26  29
ENDBRANCH  24  25
ENDBRANCH  23  24
ENDBRANCH  22  23
ENDBRANCH   1  22
TORSDOF 15
ENDMDL
