MODEL 1
REMARK VINA RESULT:     -12.6      0.000      0.000
REMARK SMILES O=C(NCCCCCCNC(=O)c1ccc(-c2c3nc(c(-c4c(F)cccc4F)c4ccc([nH]4)c(-c4c(F)cccc4F)c4nc(c(-c5c(F)cccc5F)c5ccc2[nH]5)C=C4)C=C3)cc1)C1=Cc2cc(Cl)cc(-c3ccc(O)cc3)c2O[C@@H]1C(F)(F)F
REMARK SMILES IDX 6 1 5 2 4 3 3 4 1 5 2 6 67 8 68 9 84 10 69 11 83 12 70 13
REMARK SMILES IDX 82 14 71 15 74 16 72 17 73 18 85 19 86 20 87 21 88 22 75 23
REMARK SMILES IDX 76 24 81 25 77 26 80 27 78 28 79 29 7 31 8 32 9 33 10 34
REMARK SMILES IDX 11 35 12 37 13 38 14 39 66 40 15 41 65 42 16 43 17 44 18 45
REMARK SMILES IDX 59 46 19 47 64 48 58 49 60 50 20 51 63 52 57 53 56 54 21 56
REMARK SMILES IDX 47 57 30 58 46 59 31 60 34 61 45 62 61 63 32 64 33 65 44 67
REMARK SMILES IDX 62 68 35 69 22 70 23 71 28 72 24 73 25 74 27 75 29 76 26 77
REMARK SMILES IDX 48 78 49 79 54 80 50 81 51 82 53 83 55 84 52 85 36 86 37 87
REMARK SMILES IDX 42 88 38 89 39 90 41 91 43 92 40 93
REMARK H PARENT 3 7 79 30 10 36 60 55 34 66
REMARK Flexibility Score: inf
ROOT
ATOM      1  C   UNL A   1      31.510  27.102  24.851  1.00  0.00     0.002 C 
ENDROOT
BRANCH   1   2
ATOM      2  C   UNL A   1      30.811  26.612  26.120  1.00  0.00     0.021 C 
BRANCH   2   3
ATOM      3  C   UNL A   1      30.248  25.192  26.123  1.00  0.00     0.116 C 
BRANCH   3   4
ATOM      4  N   UNL A   1      30.938  24.231  26.962  1.00  0.00    -0.352 N 
ATOM      5  O   UNL A   1      32.596  22.879  27.638  1.00  0.00    -0.270 OA
ATOM      6  C   UNL A   1      32.104  23.549  26.731  1.00  0.00     0.251 C 
ATOM      7  H   UNL A   1      30.505  24.039  27.825  1.00  0.00     0.163 HD
BRANCH   6   8
ATOM      8  C   UNL A   1      32.858  23.645  25.441  1.00  0.00     0.067 C 
ATOM      9  C   UNL A   1      34.183  23.870  25.397  1.00  0.00     0.025 C 
ATOM     10  C   UNL A   1      32.253  22.783  24.355  1.00  0.00     0.314 C 
ATOM     11  C   UNL A   1      34.940  22.646  25.025  1.00  0.00     0.019 A 
ATOM     12  O   UNL A   1      32.909  21.488  24.324  1.00  0.00    -0.475 OA
ATOM     13  C   UNL A   1      36.300  22.596  25.341  1.00  0.00     0.032 A 
ATOM     14  C   UNL A   1      34.250  21.476  24.643  1.00  0.00     0.135 A 
ATOM     15  C   UNL A   1      36.953  21.369  25.349  1.00  0.00     0.042 A 
ATOM     16  C   UNL A   1      34.894  20.227  24.709  1.00  0.00     0.026 A 
ATOM     17  Cl  UNL A   1      38.584  21.278  25.889  1.00  0.00    -0.084 Cl
ATOM     18  C   UNL A   1      36.260  20.198  25.049  1.00  0.00     0.033 A 
BRANCH  10  19
ATOM     19  C   UNL A   1      32.255  23.472  22.977  1.00  0.00     0.429 C 
ATOM     20  F   UNL A   1      32.559  22.603  21.985  1.00  0.00    -0.167 F 
ATOM     21  F   UNL A   1      31.039  23.996  22.683  1.00  0.00    -0.167 F 
ATOM     22  F   UNL A   1      33.147  24.491  22.903  1.00  0.00    -0.167 F 
ENDBRANCH  10  19
BRANCH  16  23
ATOM     23  C   UNL A   1      34.157  18.953  24.682  1.00  0.00    -0.014 A 
ATOM     24  C   UNL A   1      33.086  18.763  25.574  1.00  0.00     0.012 A 
ATOM     25  C   UNL A   1      34.561  17.870  23.893  1.00  0.00     0.012 A 
ATOM     26  C   UNL A   1      32.483  17.518  25.731  1.00  0.00     0.047 A 
ATOM     27  C   UNL A   1      33.942  16.621  24.030  1.00  0.00     0.047 A 
ATOM     28  C   UNL A   1      32.925  16.451  24.966  1.00  0.00     0.115 A 
BRANCH  28  29
ATOM     29  O   UNL A   1      32.336  15.241  25.174  1.00  0.00    -0.508 OA
ATOM     30  H   UNL A   1      32.744  14.460  24.857  1.00  0.00     0.293 HD
ENDBRANCH  28  29
ENDBRANCH  16  23
ENDBRANCH   6   8
ENDBRANCH   3   4
ENDBRANCH   2   3
ENDBRANCH   1   2
BRANCH   1  31
ATOM     31  C   UNL A   1      33.031  27.288  24.895  1.00  0.00     0.002 C 
BRANCH  31  32
ATOM     32  C   UNL A   1      33.576  28.585  25.507  1.00  0.00     0.021 C 
BRANCH  32  33
ATOM     33  C   UNL A   1      33.887  28.558  27.000  1.00  0.00     0.116 C 
BRANCH  33  34
ATOM     34  N   UNL A   1      33.807  29.869  27.618  1.00  0.00    -0.352 N 
ATOM     35  C   UNL A   1      34.737  30.576  28.341  1.00  0.00     0.251 C 
ATOM     36  H   UNL A   1      32.943  30.328  27.500  1.00  0.00     0.163 HD
ATOM     37  O   UNL A   1      34.399  31.622  28.886  1.00  0.00    -0.269 OA
BRANCH  35  38
ATOM     38  C   UNL A   1      36.138  30.102  28.490  1.00  0.00     0.039 A 
ATOM     39  C   UNL A   1      36.540  29.603  29.736  1.00  0.00     0.014 A 
ATOM     40  C   UNL A   1      37.077  30.215  27.462  1.00  0.00     0.014 A 
ATOM     41  C   UNL A   1      37.860  29.189  29.939  1.00  0.00     0.010 A 
ATOM     42  C   UNL A   1      38.379  29.745  27.646  1.00  0.00     0.010 A 
ATOM     43  C   UNL A   1      38.789  29.243  28.890  1.00  0.00    -0.014 A 
BRANCH  43  44
ATOM     44  C   UNL A   1      40.199  28.813  29.085  1.00  0.00     0.031 A 
ATOM     45  C   UNL A   1      41.197  29.754  29.705  1.00  0.00     0.074 A 
ATOM     46  C   UNL A   1      40.597  27.599  28.659  1.00  0.00     0.049 A 
ATOM     47  N   UNL A   1      42.484  29.595  29.888  1.00  0.00    -0.248 NA
ATOM     48  C   UNL A   1      40.684  31.056  30.156  1.00  0.00     0.031 C 
ATOM     49  C   UNL A   1      39.738  26.605  28.014  1.00  0.00     0.029 A 
ATOM     50  N   UNL A   1      41.831  26.999  28.694  1.00  0.00    -0.354 N 
ATOM     51  C   UNL A   1      42.937  30.783  30.449  1.00  0.00     0.074 A 
ATOM     52  C   UNL A   1      41.795  31.667  30.541  1.00  0.00     0.031 C 
ATOM     53  C   UNL A   1      40.467  25.513  27.731  1.00  0.00     0.029 A 
ATOM     54  C   UNL A   1      41.848  25.741  28.143  1.00  0.00     0.049 A 
ATOM     55  H   UNL A   1      42.629  27.430  29.079  1.00  0.00     0.167 HD
ATOM     56  C   UNL A   1      44.186  31.102  30.866  1.00  0.00     0.037 A 
ATOM     57  C   UNL A   1      42.865  24.872  27.983  1.00  0.00     0.037 A 
ATOM     58  C   UNL A   1      45.313  30.208  30.811  1.00  0.00     0.049 A 
ATOM     59  C   UNL A   1      44.240  25.246  28.461  1.00  0.00     0.074 A 
ATOM     60  C   UNL A   1      46.601  30.415  31.273  1.00  0.00     0.029 A 
ATOM     61  N   UNL A   1      45.284  28.936  30.262  1.00  0.00    -0.354 N 
ATOM     62  N   UNL A   1      44.640  26.351  29.041  1.00  0.00    -0.248 NA
ATOM     63  C   UNL A   1      45.304  24.251  28.265  1.00  0.00     0.031 C 
ATOM     64  C   UNL A   1      47.361  29.279  30.973  1.00  0.00     0.029 A 
ATOM     65  C   UNL A   1      46.536  28.352  30.357  1.00  0.00     0.049 A 
ATOM     66  H   UNL A   1      44.491  28.510  29.864  1.00  0.00     0.167 HD
ATOM     67  C   UNL A   1      45.992  26.175  29.304  1.00  0.00     0.074 A 
ATOM     68  C   UNL A   1      46.342  24.852  28.829  1.00  0.00     0.031 C 
ATOM     69  C   UNL A   1      46.866  27.030  29.888  1.00  0.00     0.037 A 
BRANCH  56  70
ATOM     70  C   UNL A   1      44.399  32.482  31.418  1.00  0.00     0.057 A 
ATOM     71  C   UNL A   1      44.238  32.766  32.780  1.00  0.00     0.134 A 
ATOM     72  C   UNL A   1      44.797  33.533  30.582  1.00  0.00     0.134 A 
ATOM     73  F   UNL A   1      43.847  31.808  33.633  1.00  0.00    -0.206 F 
ATOM     74  C   UNL A   1      44.438  34.052  33.287  1.00  0.00     0.040 A 
ATOM     75  C   UNL A   1      45.026  34.817  31.080  1.00  0.00     0.040 A 
ATOM     76  F   UNL A   1      44.977  33.328  29.269  1.00  0.00    -0.206 F 
ATOM     77  C   UNL A   1      44.838  35.080  32.436  1.00  0.00     0.006 A 
ENDBRANCH  56  70
BRANCH  57  78
ATOM     78  C   UNL A   1      42.616  23.546  27.366  1.00  0.00     0.057 A 
ATOM     79  C   UNL A   1      42.245  22.447  28.151  1.00  0.00     0.134 A 
ATOM     80  C   UNL A   1      42.742  23.341  25.987  1.00  0.00     0.134 A 
ATOM     81  F   UNL A   1      42.128  22.578  29.480  1.00  0.00    -0.206 F 
ATOM     82  C   UNL A   1      42.023  21.189  27.590  1.00  0.00     0.040 A 
ATOM     83  C   UNL A   1      42.502  22.093  25.409  1.00  0.00     0.040 A 
ATOM     84  F   UNL A   1      43.089  24.355  25.181  1.00  0.00    -0.206 F 
ATOM     85  C   UNL A   1      42.147  21.010  26.213  1.00  0.00     0.006 A 
ENDBRANCH  57  78
BRANCH  69  86
ATOM     86  C   UNL A   1      48.273  26.551  30.075  1.00  0.00     0.057 A 
ATOM     87  C   UNL A   1      48.662  25.832  31.213  1.00  0.00     0.134 A 
ATOM     88  C   UNL A   1      49.242  26.780  29.090  1.00  0.00     0.134 A 
ATOM     89  F   UNL A   1      47.784  25.593  32.199  1.00  0.00    -0.206 F 
ATOM     90  C   UNL A   1      49.971  25.374  31.371  1.00  0.00     0.040 A 
ATOM     91  C   UNL A   1      50.547  26.307  29.228  1.00  0.00     0.040 A 
ATOM     92  F   UNL A   1      48.931  27.457  27.974  1.00  0.00    -0.206 F 
ATOM     93  C   UNL A   1      50.916  25.605  30.373  1.00  0.00     0.006 A 
ENDBRANCH  69  86
ENDBRANCH  43  44
ENDBRANCH  35  38
ENDBRANCH  33  34
ENDBRANCH  32  33
ENDBRANCH  31  32
ENDBRANCH   1  31
TORSDOF 16
ENDMDL
MODEL 2
REMARK VINA RESULT:     -12.3      3.346      7.283
REMARK SMILES O=C(NCCCCCCNC(=O)c1ccc(-c2c3nc(c(-c4c(F)cccc4F)c4ccc([nH]4)c(-c4c(F)cccc4F)c4nc(c(-c5c(F)cccc5F)c5ccc2[nH]5)C=C4)C=C3)cc1)C1=Cc2cc(Cl)cc(-c3ccc(O)cc3)c2O[C@@H]1C(F)(F)F
REMARK SMILES IDX 6 1 5 2 4 3 3 4 1 5 2 6 67 8 68 9 84 10 69 11 83 12 70 13
REMARK SMILES IDX 82 14 71 15 74 16 72 17 73 18 85 19 86 20 87 21 88 22 75 23
REMARK SMILES IDX 76 24 81 25 77 26 80 27 78 28 79 29 7 31 8 32 9 33 10 34
REMARK SMILES IDX 11 35 12 37 13 38 14 39 66 40 15 41 65 42 16 43 17 44 18 45
REMARK SMILES IDX 59 46 19 47 64 48 58 49 60 50 20 51 63 52 57 53 56 54 21 56
REMARK SMILES IDX 47 57 30 58 46 59 31 60 34 61 45 62 61 63 32 64 33 65 44 67
REMARK SMILES IDX 62 68 35 69 22 70 23 71 28 72 24 73 25 74 27 75 29 76 26 77
REMARK SMILES IDX 48 78 49 79 54 80 50 81 51 82 53 83 55 84 52 85 36 86 37 87
REMARK SMILES IDX 42 88 38 89 39 90 41 91 43 92 40 93
REMARK H PARENT 3 7 79 30 10 36 60 55 34 66
REMARK Flexibility Score: inf
ROOT
ATOM      1  C   UNL A   1      32.228  29.373  26.652  1.00  0.00     0.002 C 
ENDROOT
BRANCH   1   2
ATOM      2  C   UNL A   1      31.532  28.114  27.172  1.00  0.00     0.021 C 
BRANCH   2   3
ATOM      3  C   UNL A   1      31.396  26.928  26.219  1.00  0.00     0.116 C 
BRANCH   3   4
ATOM      4  N   UNL A   1      31.570  25.612  26.805  1.00  0.00    -0.352 N 
ATOM      5  O   UNL A   1      32.494  23.595  27.139  1.00  0.00    -0.270 OA
ATOM      6  C   UNL A   1      32.393  24.587  26.418  1.00  0.00     0.251 C 
ATOM      7  H   UNL A   1      31.015  25.428  27.597  1.00  0.00     0.163 HD
BRANCH   6   8
ATOM      8  C   UNL A   1      33.245  24.651  25.189  1.00  0.00     0.067 C 
ATOM      9  C   UNL A   1      34.572  24.865  25.242  1.00  0.00     0.025 C 
ATOM     10  C   UNL A   1      32.718  23.771  24.076  1.00  0.00     0.314 C 
ATOM     11  C   UNL A   1      35.344  23.627  24.955  1.00  0.00     0.019 A 
ATOM     12  O   UNL A   1      33.363  22.470  24.122  1.00  0.00    -0.475 OA
ATOM     13  C   UNL A   1      36.675  23.573  25.377  1.00  0.00     0.032 A 
ATOM     14  C   UNL A   1      34.675  22.454  24.544  1.00  0.00     0.135 A 
ATOM     15  C   UNL A   1      37.314  22.342  25.460  1.00  0.00     0.042 A 
ATOM     16  C   UNL A   1      35.300  21.202  24.686  1.00  0.00     0.026 A 
ATOM     17  Cl  UNL A   1      38.898  22.250  26.126  1.00  0.00    -0.084 Cl
ATOM     18  C   UNL A   1      36.636  21.170  25.130  1.00  0.00     0.033 A 
BRANCH  10  19
ATOM     19  C   UNL A   1      32.833  24.431  22.689  1.00  0.00     0.429 C 
ATOM     20  F   UNL A   1      33.327  23.572  21.767  1.00  0.00    -0.167 F 
ATOM     21  F   UNL A   1      31.624  24.844  22.235  1.00  0.00    -0.167 F 
ATOM     22  F   UNL A   1      33.641  25.520  22.693  1.00  0.00    -0.167 F 
ENDBRANCH  10  19
BRANCH  16  23
ATOM     23  C   UNL A   1      34.556  19.934  24.627  1.00  0.00    -0.014 A 
ATOM     24  C   UNL A   1      35.271  18.722  24.626  1.00  0.00     0.012 A 
ATOM     25  C   UNL A   1      33.171  19.884  24.441  1.00  0.00     0.012 A 
ATOM     26  C   UNL A   1      34.640  17.506  24.374  1.00  0.00     0.047 A 
ATOM     27  C   UNL A   1      32.527  18.662  24.211  1.00  0.00     0.047 A 
ATOM     28  C   UNL A   1      33.272  17.487  24.155  1.00  0.00     0.115 A 
BRANCH  28  29
ATOM     29  O   UNL A   1      32.697  16.285  23.876  1.00  0.00    -0.508 OA
ATOM     30  H   UNL A   1      32.577  16.018  22.986  1.00  0.00     0.293 HD
ENDBRANCH  28  29
ENDBRANCH  16  23
ENDBRANCH   6   8
ENDBRANCH   3   4
ENDBRANCH   2   3
ENDBRANCH   1   2
BRANCH   1  31
ATOM     31  C   UNL A   1      31.382  30.399  25.890  1.00  0.00     0.002 C 
BRANCH  31  32
ATOM     32  C   UNL A   1      31.251  31.805  26.488  1.00  0.00     0.021 C 
BRANCH  32  33
ATOM     33  C   UNL A   1      32.549  32.505  26.878  1.00  0.00     0.116 C 
BRANCH  33  34
ATOM     34  N   UNL A   1      32.337  33.847  27.388  1.00  0.00    -0.352 N 
ATOM     35  C   UNL A   1      32.969  34.531  28.398  1.00  0.00     0.251 C 
ATOM     36  H   UNL A   1      31.622  34.351  26.935  1.00  0.00     0.163 HD
ATOM     37  O   UNL A   1      32.528  35.622  28.747  1.00  0.00    -0.269 OA
BRANCH  35  38
ATOM     38  C   UNL A   1      34.165  33.981  29.087  1.00  0.00     0.039 A 
ATOM     39  C   UNL A   1      35.431  34.351  28.616  1.00  0.00     0.014 A 
ATOM     40  C   UNL A   1      34.066  33.052  30.125  1.00  0.00     0.014 A 
ATOM     41  C   UNL A   1      36.586  33.822  29.201  1.00  0.00     0.010 A 
ATOM     42  C   UNL A   1      35.219  32.571  30.751  1.00  0.00     0.010 A 
ATOM     43  C   UNL A   1      36.491  32.938  30.285  1.00  0.00    -0.014 A 
BRANCH  43  44
ATOM     44  C   UNL A   1      37.705  32.360  30.919  1.00  0.00     0.031 A 
ATOM     45  C   UNL A   1      38.383  31.165  30.304  1.00  0.00     0.074 A 
ATOM     46  C   UNL A   1      38.168  32.874  32.075  1.00  0.00     0.049 A 
ATOM     47  N   UNL A   1      39.402  30.472  30.746  1.00  0.00    -0.248 NA
ATOM     48  C   UNL A   1      37.825  30.670  29.037  1.00  0.00     0.031 C 
ATOM     49  C   UNL A   1      37.586  34.009  32.791  1.00  0.00     0.029 A 
ATOM     50  N   UNL A   1      39.233  32.497  32.857  1.00  0.00    -0.354 N 
ATOM     51  C   UNL A   1      39.589  29.446  29.827  1.00  0.00     0.074 A 
ATOM     52  C   UNL A   1      38.555  29.585  28.824  1.00  0.00     0.031 C 
ATOM     53  C   UNL A   1      38.310  34.249  33.897  1.00  0.00     0.029 A 
ATOM     54  C   UNL A   1      39.386  33.266  33.985  1.00  0.00     0.049 A 
ATOM     55  H   UNL A   1      39.830  31.748  32.630  1.00  0.00     0.167 HD
ATOM     56  C   UNL A   1      40.545  28.486  29.810  1.00  0.00     0.037 A 
ATOM     57  C   UNL A   1      40.288  33.183  34.982  1.00  0.00     0.037 A 
ATOM     58  C   UNL A   1      41.597  28.372  30.786  1.00  0.00     0.049 A 
ATOM     59  C   UNL A   1      41.344  32.115  34.936  1.00  0.00     0.074 A 
ATOM     60  C   UNL A   1      42.653  27.477  30.815  1.00  0.00     0.029 A 
ATOM     61  N   UNL A   1      41.728  29.181  31.903  1.00  0.00    -0.354 N 
ATOM     62  N   UNL A   1      41.542  31.187  34.031  1.00  0.00    -0.248 NA
ATOM     63  C   UNL A   1      42.304  32.083  36.048  1.00  0.00     0.031 C 
ATOM     64  C   UNL A   1      43.403  27.724  31.970  1.00  0.00     0.029 A 
ATOM     65  C   UNL A   1      42.836  28.796  32.639  1.00  0.00     0.049 A 
ATOM     66  H   UNL A   1      41.122  29.921  32.139  1.00  0.00     0.167 HD
ATOM     67  C   UNL A   1      42.662  30.481  34.449  1.00  0.00     0.074 A 
ATOM     68  C   UNL A   1      43.107  31.093  35.684  1.00  0.00     0.031 C 
ATOM     69  C   UNL A   1      43.270  29.421  33.862  1.00  0.00     0.037 A 
BRANCH  56  70
ATOM     70  C   UNL A   1      40.495  27.479  28.698  1.00  0.00     0.057 A 
ATOM     71  C   UNL A   1      41.278  27.611  27.544  1.00  0.00     0.134 A 
ATOM     72  C   UNL A   1      39.673  26.349  28.794  1.00  0.00     0.134 A 
ATOM     73  F   UNL A   1      42.078  28.676  27.385  1.00  0.00    -0.206 F 
ATOM     74  C   UNL A   1      41.226  26.671  26.514  1.00  0.00     0.040 A 
ATOM     75  C   UNL A   1      39.631  25.387  27.782  1.00  0.00     0.040 A 
ATOM     76  F   UNL A   1      38.902  26.156  29.874  1.00  0.00    -0.206 F 
ATOM     77  C   UNL A   1      40.404  25.552  26.634  1.00  0.00     0.006 A 
ENDBRANCH  56  70
BRANCH  57  78
ATOM     78  C   UNL A   1      40.252  34.161  36.097  1.00  0.00     0.057 A 
ATOM     79  C   UNL A   1      39.559  33.876  37.280  1.00  0.00     0.134 A 
ATOM     80  C   UNL A   1      40.900  35.398  36.011  1.00  0.00     0.134 A 
ATOM     81  F   UNL A   1      38.903  32.714  37.412  1.00  0.00    -0.206 F 
ATOM     82  C   UNL A   1      39.501  34.790  38.331  1.00  0.00     0.040 A 
ATOM     83  C   UNL A   1      40.868  36.315  37.063  1.00  0.00     0.040 A 
ATOM     84  F   UNL A   1      41.584  35.729  34.905  1.00  0.00    -0.206 F 
ATOM     85  C   UNL A   1      40.161  36.013  38.227  1.00  0.00     0.006 A 
ENDBRANCH  57  78
BRANCH  69  86
ATOM     86  C   UNL A   1      44.497  28.879  34.529  1.00  0.00     0.057 A 
ATOM     87  C   UNL A   1      44.426  27.869  35.497  1.00  0.00     0.134 A 
ATOM     88  C   UNL A   1      45.768  29.348  34.173  1.00  0.00     0.134 A 
ATOM     89  F   UNL A   1      43.238  27.388  35.892  1.00  0.00    -0.206 F 
ATOM     90  C   UNL A   1      45.576  27.357  36.100  1.00  0.00     0.040 A 
ATOM     91  C   UNL A   1      46.926  28.828  34.753  1.00  0.00     0.040 A 
ATOM     92  F   UNL A   1      45.904  30.310  33.248  1.00  0.00    -0.206 F 
ATOM     93  C   UNL A   1      46.831  27.833  35.724  1.00  0.00     0.006 A 
ENDBRANCH  69  86
ENDBRANCH  43  44
ENDBRANCH  35  38
ENDBRANCH  33  34
ENDBRANCH  32  33
ENDBRANCH  31  32
ENDBRANCH   1  31
TORSDOF 16
ENDMDL
MODEL 3
REMARK VINA RESULT:     -12.2      2.937      7.943
REMARK SMILES O=C(NCCCCCCNC(=O)c1ccc(-c2c3nc(c(-c4c(F)cccc4F)c4ccc([nH]4)c(-c4c(F)cccc4F)c4nc(c(-c5c(F)cccc5F)c5ccc2[nH]5)C=C4)C=C3)cc1)C1=Cc2cc(Cl)cc(-c3ccc(O)cc3)c2O[C@@H]1C(F)(F)F
REMARK SMILES IDX 6 1 5 2 4 3 3 4 1 5 2 6 67 8 68 9 84 10 69 11 83 12 70 13
REMARK SMILES IDX 82 14 71 15 74 16 72 17 73 18 85 19 86 20 87 21 88 22 75 23
REMARK SMILES IDX 76 24 81 25 77 26 80 27 78 28 79 29 7 31 8 32 9 33 10 34
REMARK SMILES IDX 11 35 12 37 13 38 14 39 66 40 15 41 65 42 16 43 17 44 18 45
REMARK SMILES IDX 59 46 19 47 64 48 58 49 60 50 20 51 63 52 57 53 56 54 21 56
REMARK SMILES IDX 47 57 30 58 46 59 31 60 34 61 45 62 61 63 32 64 33 65 44 67
REMARK SMILES IDX 62 68 35 69 22 70 23 71 28 72 24 73 25 74 27 75 29 76 26 77
REMARK SMILES IDX 48 78 49 79 54 80 50 81 51 82 53 83 55 84 52 85 36 86 37 87
REMARK SMILES IDX 42 88 38 89 39 90 41 91 43 92 40 93
REMARK H PARENT 3 7 79 30 10 36 60 55 34 66
REMARK Flexibility Score: inf
ROOT
ATOM      1  C   UNL A   1      35.684  20.646  25.006  1.00  0.00     0.002 C 
ENDROOT
BRANCH   1   2
ATOM      2  C   UNL A   1      34.999  21.309  26.203  1.00  0.00     0.021 C 
BRANCH   2   3
ATOM      3  C   UNL A   1      33.553  20.923  26.502  1.00  0.00     0.116 C 
BRANCH   3   4
ATOM      4  N   UNL A   1      32.753  21.919  27.190  1.00  0.00    -0.352 N 
ATOM      5  O   UNL A   1      31.416  23.706  27.427  1.00  0.00    -0.270 OA
ATOM      6  C   UNL A   1      32.180  23.065  26.705  1.00  0.00     0.251 C 
ATOM      7  H   UNL A   1      32.598  21.746  28.147  1.00  0.00     0.163 HD
BRANCH   6   8
ATOM      8  C   UNL A   1      32.377  23.538  25.298  1.00  0.00     0.067 C 
ATOM      9  C   UNL A   1      31.346  23.778  24.469  1.00  0.00     0.025 C 
ATOM     10  C   UNL A   1      33.618  24.390  25.145  1.00  0.00     0.314 C 
ATOM     11  C   UNL A   1      31.128  25.234  24.264  1.00  0.00     0.019 A 
ATOM     12  O   UNL A   1      33.276  25.795  25.278  1.00  0.00    -0.475 OA
ATOM     13  C   UNL A   1      29.879  25.650  23.794  1.00  0.00     0.032 A 
ATOM     14  C   UNL A   1      32.037  26.169  24.805  1.00  0.00     0.135 A 
ATOM     15  C   UNL A   1      29.509  26.982  23.931  1.00  0.00     0.042 A 
ATOM     16  C   UNL A   1      31.640  27.504  24.999  1.00  0.00     0.026 A 
ATOM     17  Cl  UNL A   1      27.916  27.470  23.499  1.00  0.00    -0.084 Cl
ATOM     18  C   UNL A   1      30.370  27.897  24.534  1.00  0.00     0.033 A 
BRANCH  10  19
ATOM     19  C   UNL A   1      34.385  24.096  23.842  1.00  0.00     0.429 C 
ATOM     20  F   UNL A   1      35.720  24.036  24.053  1.00  0.00    -0.167 F 
ATOM     21  F   UNL A   1      34.017  22.904  23.308  1.00  0.00    -0.167 F 
ATOM     22  F   UNL A   1      34.173  25.034  22.887  1.00  0.00    -0.167 F 
ENDBRANCH  10  19
BRANCH  16  23
ATOM     23  C   UNL A   1      32.378  28.432  25.871  1.00  0.00    -0.014 A 
ATOM     24  C   UNL A   1      31.777  29.652  26.236  1.00  0.00     0.012 A 
ATOM     25  C   UNL A   1      33.707  28.211  26.248  1.00  0.00     0.012 A 
ATOM     26  C   UNL A   1      32.497  30.649  26.890  1.00  0.00     0.047 A 
ATOM     27  C   UNL A   1      34.428  29.201  26.926  1.00  0.00     0.047 A 
ATOM     28  C   UNL A   1      33.823  30.421  27.218  1.00  0.00     0.115 A 
BRANCH  28  29
ATOM     29  O   UNL A   1      34.504  31.433  27.823  1.00  0.00    -0.508 OA
ATOM     30  H   UNL A   1      35.079  31.977  27.322  1.00  0.00     0.293 HD
ENDBRANCH  28  29
ENDBRANCH  16  23
ENDBRANCH   6   8
ENDBRANCH   3   4
ENDBRANCH   2   3
ENDBRANCH   1   2
BRANCH   1  31
ATOM     31  C   UNL A   1      37.161  20.969  24.754  1.00  0.00     0.002 C 
BRANCH  31  32
ATOM     32  C   UNL A   1      38.170  19.818  24.841  1.00  0.00     0.021 C 
BRANCH  32  33
ATOM     33  C   UNL A   1      38.984  19.717  26.127  1.00  0.00     0.116 C 
BRANCH  33  34
ATOM     34  N   UNL A   1      40.167  18.887  25.985  1.00  0.00    -0.352 N 
ATOM     35  C   UNL A   1      41.500  19.213  26.031  1.00  0.00     0.251 C 
ATOM     36  H   UNL A   1      39.982  17.931  25.831  1.00  0.00     0.163 HD
ATOM     37  O   UNL A   1      42.333  18.357  25.749  1.00  0.00    -0.269 OA
BRANCH  35  38
ATOM     38  C   UNL A   1      41.960  20.577  26.401  1.00  0.00     0.039 A 
ATOM     39  C   UNL A   1      42.161  21.510  25.375  1.00  0.00     0.014 A 
ATOM     40  C   UNL A   1      42.274  20.926  27.716  1.00  0.00     0.014 A 
ATOM     41  C   UNL A   1      42.639  22.791  25.669  1.00  0.00     0.010 A 
ATOM     42  C   UNL A   1      42.693  22.225  28.017  1.00  0.00     0.010 A 
ATOM     43  C   UNL A   1      42.895  23.165  26.995  1.00  0.00    -0.014 A 
BRANCH  43  44
ATOM     44  C   UNL A   1      43.409  24.520  27.330  1.00  0.00     0.031 A 
ATOM     45  C   UNL A   1      42.466  25.585  27.822  1.00  0.00     0.074 A 
ATOM     46  C   UNL A   1      44.710  24.811  27.143  1.00  0.00     0.049 A 
ATOM     47  N   UNL A   1      42.705  26.844  28.092  1.00  0.00    -0.248 NA
ATOM     48  C   UNL A   1      41.062  25.188  28.012  1.00  0.00     0.031 C 
ATOM     49  C   UNL A   1      45.722  23.880  26.642  1.00  0.00     0.029 A 
ATOM     50  N   UNL A   1      45.403  25.979  27.342  1.00  0.00    -0.354 N 
ATOM     51  C   UNL A   1      41.481  27.393  28.456  1.00  0.00     0.074 A 
ATOM     52  C   UNL A   1      40.495  26.341  28.337  1.00  0.00     0.031 C 
ATOM     53  C   UNL A   1      46.909  24.507  26.591  1.00  0.00     0.029 A 
ATOM     54  C   UNL A   1      46.736  25.891  27.023  1.00  0.00     0.049 A 
ATOM     55  H   UNL A   1      44.984  26.803  27.683  1.00  0.00     0.167 HD
ATOM     56  C   UNL A   1      41.206  28.654  28.870  1.00  0.00     0.037 A 
ATOM     57  C   UNL A   1      47.708  26.823  27.067  1.00  0.00     0.037 A 
ATOM     58  C   UNL A   1      42.193  29.689  29.027  1.00  0.00     0.049 A 
ATOM     59  C   UNL A   1      47.379  28.212  27.537  1.00  0.00     0.074 A 
ATOM     60  C   UNL A   1      42.024  30.976  29.507  1.00  0.00     0.029 A 
ATOM     61  N   UNL A   1      43.536  29.554  28.710  1.00  0.00    -0.354 N 
ATOM     62  N   UNL A   1      46.229  28.699  27.932  1.00  0.00    -0.248 NA
ATOM     63  C   UNL A   1      48.485  29.179  27.570  1.00  0.00     0.031 C 
ATOM     64  C   UNL A   1      43.260  31.631  29.447  1.00  0.00     0.029 A 
ATOM     65  C   UNL A   1      44.204  30.740  28.966  1.00  0.00     0.049 A 
ATOM     66  H   UNL A   1      43.953  28.735  28.354  1.00  0.00     0.167 HD
ATOM     67  C   UNL A   1      46.477  30.019  28.286  1.00  0.00     0.074 A 
ATOM     68  C   UNL A   1      47.889  30.253  28.069  1.00  0.00     0.031 C 
ATOM     69  C   UNL A   1      45.612  30.954  28.752  1.00  0.00     0.037 A 
BRANCH  56  70
ATOM     70  C   UNL A   1      39.775  28.983  29.181  1.00  0.00     0.057 A 
ATOM     71  C   UNL A   1      38.884  29.419  28.191  1.00  0.00     0.134 A 
ATOM     72  C   UNL A   1      39.274  28.835  30.480  1.00  0.00     0.134 A 
ATOM     73  F   UNL A   1      39.304  29.593  26.929  1.00  0.00    -0.206 F 
ATOM     74  C   UNL A   1      37.554  29.724  28.488  1.00  0.00     0.040 A 
ATOM     75  C   UNL A   1      37.939  29.110  30.784  1.00  0.00     0.040 A 
ATOM     76  F   UNL A   1      40.070  28.414  31.474  1.00  0.00    -0.206 F 
ATOM     77  C   UNL A   1      37.078  29.564  29.787  1.00  0.00     0.006 A 
ENDBRANCH  56  70
BRANCH  57  78
ATOM     78  C   UNL A   1      49.095  26.464  26.681  1.00  0.00     0.057 A 
ATOM     79  C   UNL A   1      49.977  25.904  27.613  1.00  0.00     0.134 A 
ATOM     80  C   UNL A   1      49.574  26.673  25.383  1.00  0.00     0.134 A 
ATOM     81  F   UNL A   1      49.580  25.700  28.877  1.00  0.00    -0.206 F 
ATOM     82  C   UNL A   1      51.290  25.577  27.272  1.00  0.00     0.040 A 
ATOM     83  C   UNL A   1      50.879  26.331  25.022  1.00  0.00     0.040 A 
ATOM     84  F   UNL A   1      48.776  27.202  24.443  1.00  0.00    -0.206 F 
ATOM     85  C   UNL A   1      51.743  25.786  25.971  1.00  0.00     0.006 A 
ENDBRANCH  57  78
BRANCH  69  86
ATOM     86  C   UNL A   1      46.176  32.301  29.088  1.00  0.00     0.057 A 
ATOM     87  C   UNL A   1      46.256  33.325  28.136  1.00  0.00     0.134 A 
ATOM     88  C   UNL A   1      46.609  32.588  30.389  1.00  0.00     0.134 A 
ATOM     89  F   UNL A   1      45.871  33.109  26.870  1.00  0.00    -0.206 F 
ATOM     90  C   UNL A   1      46.766  34.583  28.463  1.00  0.00     0.040 A 
ATOM     91  C   UNL A   1      47.099  33.848  30.732  1.00  0.00     0.040 A 
ATOM     92  F   UNL A   1      46.551  31.651  31.348  1.00  0.00    -0.206 F 
ATOM     93  C   UNL A   1      47.183  34.849  29.766  1.00  0.00     0.006 A 
ENDBRANCH  69  86
ENDBRANCH  43  44
ENDBRANCH  35  38
ENDBRANCH  33  34
ENDBRANCH  32  33
ENDBRANCH  31  32
ENDBRANCH   1  31
TORSDOF 16
ENDMDL
