MODEL 1
REMARK VINA RESULT:     -12.6      0.000      0.000
REMARK SMILES CC1(C)[C@@]2(C(=O)NCCCCCCNC(=O)c3ccc(-c4c5nc(c(-c6c(F)cccc6F)c6ccc([nH]6)c(-c6c(F)cccc6F)c6nc(c(-c7c(F)cccc7F)c7ccc4[nH]7)C=C6)C=C5)cc3)CC[C@]1(C)/C(=N/NC(=O)c1ccc(Cl)cc1)C2
REMARK SMILES IDX 10 1 9 2 8 3 7 4 5 5 6 6 4 8 1 9 2 10 3 11 73 12 71 13 87 14
REMARK SMILES IDX 72 15 74 16 75 17 76 18 77 19 78 20 79 22 80 23 81 24 86 25
REMARK SMILES IDX 82 26 85 27 83 28 84 29 11 30 12 31 13 32 14 33 15 34 16 36
REMARK SMILES IDX 17 37 18 38 70 39 19 40 69 41 20 42 21 43 22 44 63 45 23 46
REMARK SMILES IDX 68 47 62 48 64 49 24 50 67 51 61 52 60 53 25 55 51 56 34 57
REMARK SMILES IDX 50 58 35 59 38 60 49 61 65 62 36 63 37 64 48 66 66 67 39 68
REMARK SMILES IDX 26 69 27 70 32 71 28 72 29 73 31 74 33 75 30 76 52 77 53 78
REMARK SMILES IDX 58 79 54 80 55 81 57 82 59 83 56 84 40 85 41 86 46 87 42 88
REMARK SMILES IDX 43 89 45 90 47 91 44 92
REMARK H PARENT 7 7 77 21 14 35 64 54 38 65
REMARK Flexibility Score: inf
ROOT
ATOM      1  C   UNL A   1      36.996  22.457  24.382  1.00  0.00     0.002 C 
ENDROOT
BRANCH   1   2
ATOM      2  C   UNL A   1      36.269  22.923  23.115  1.00  0.00     0.021 C 
BRANCH   2   3
ATOM      3  C   UNL A   1      34.735  23.193  23.160  1.00  0.00     0.116 C 
BRANCH   3   4
ATOM      4  N   UNL A   1      34.139  24.242  22.316  1.00  0.00    -0.356 N 
ATOM      5  C   UNL A   1      33.804  25.568  22.511  1.00  0.00     0.227 C 
ATOM      6  O   UNL A   1      33.907  26.291  21.514  1.00  0.00    -0.274 OA
ATOM      7  H   UNL A   1      33.933  23.928  21.406  1.00  0.00     0.163 HD
BRANCH   5   8
ATOM      8  C   UNL A   1      33.181  26.155  23.802  1.00  0.00     0.060 C 
ATOM      9  C   UNL A   1      33.564  28.700  23.401  1.00  0.00     0.013 C 
ATOM     10  C   UNL A   1      32.557  27.605  23.803  1.00  0.00    -0.010 C 
ATOM     11  C   UNL A   1      31.286  27.853  22.953  1.00  0.00     0.013 C 
ATOM     12  C   UNL A   1      32.207  27.525  25.338  1.00  0.00     0.014 C 
ATOM     13  C   UNL A   1      34.178  26.222  25.002  1.00  0.00     0.019 C 
ATOM     14  C   UNL A   1      31.917  25.363  24.224  1.00  0.00     0.071 C 
ATOM     15  C   UNL A   1      33.574  27.248  25.978  1.00  0.00     0.014 C 
ATOM     16  C   UNL A   1      31.435  28.669  25.958  1.00  0.00     0.018 C 
ATOM     17  C   UNL A   1      31.505  26.134  25.432  1.00  0.00     0.046 C 
ATOM     18  N   UNL A   1      30.849  25.819  26.501  1.00  0.00    -0.181 NA
BRANCH  18  19
ATOM     19  N   UNL A   1      30.227  24.700  26.972  1.00  0.00    -0.243 N 
ATOM     20  C   UNL A   1      30.294  23.321  26.956  1.00  0.00     0.271 C 
ATOM     21  H   UNL A   1      29.455  24.974  27.518  1.00  0.00     0.194 HD
ATOM     22  O   UNL A   1      29.411  22.668  27.520  1.00  0.00    -0.267 OA
BRANCH  20  23
ATOM     23  C   UNL A   1      31.342  22.546  26.310  1.00  0.00     0.041 A 
ATOM     24  C   UNL A   1      32.544  22.318  26.997  1.00  0.00     0.015 A 
ATOM     25  C   UNL A   1      31.131  22.001  25.058  1.00  0.00     0.015 A 
ATOM     26  C   UNL A   1      33.415  21.319  26.565  1.00  0.00     0.021 A 
ATOM     27  C   UNL A   1      31.967  20.945  24.695  1.00  0.00     0.021 A 
ATOM     28  C   UNL A   1      33.062  20.561  25.465  1.00  0.00     0.041 A 
ATOM     29  Cl  UNL A   1      33.839  19.053  25.195  1.00  0.00    -0.084 Cl
ENDBRANCH  20  23
ENDBRANCH  18  19
ENDBRANCH   5   8
ENDBRANCH   3   4
ENDBRANCH   2   3
ENDBRANCH   1   2
BRANCH   1  30
ATOM     30  C   UNL A   1      36.671  21.007  24.776  1.00  0.00     0.002 C 
BRANCH  30  31
ATOM     31  C   UNL A   1      37.862  20.038  24.845  1.00  0.00     0.021 C 
BRANCH  31  32
ATOM     32  C   UNL A   1      38.980  20.453  25.798  1.00  0.00     0.116 C 
BRANCH  32  33
ATOM     33  N   UNL A   1      40.002  19.422  25.889  1.00  0.00    -0.352 N 
ATOM     34  C   UNL A   1      41.362  19.582  26.056  1.00  0.00     0.251 C 
ATOM     35  H   UNL A   1      39.685  18.493  25.824  1.00  0.00     0.163 HD
ATOM     36  O   UNL A   1      42.143  18.684  25.796  1.00  0.00    -0.269 OA
BRANCH  34  37
ATOM     37  C   UNL A   1      41.861  20.881  26.557  1.00  0.00     0.039 A 
ATOM     38  C   UNL A   1      42.352  21.830  25.658  1.00  0.00     0.014 A 
ATOM     39  C   UNL A   1      41.809  21.159  27.926  1.00  0.00     0.014 A 
ATOM     40  C   UNL A   1      42.718  23.094  26.127  1.00  0.00     0.010 A 
ATOM     41  C   UNL A   1      42.117  22.437  28.382  1.00  0.00     0.010 A 
ATOM     42  C   UNL A   1      42.563  23.421  27.486  1.00  0.00    -0.014 A 
BRANCH  42  43
ATOM     43  C   UNL A   1      42.828  24.792  27.990  1.00  0.00     0.031 A 
ATOM     44  C   UNL A   1      44.211  25.178  28.438  1.00  0.00     0.074 A 
ATOM     45  C   UNL A   1      41.806  25.662  28.120  1.00  0.00     0.049 A 
ATOM     46  N   UNL A   1      44.617  26.286  29.005  1.00  0.00    -0.248 NA
ATOM     47  C   UNL A   1      45.274  24.178  28.242  1.00  0.00     0.031 C 
ATOM     48  C   UNL A   1      40.414  25.394  27.753  1.00  0.00     0.029 A 
ATOM     49  N   UNL A   1      41.777  26.945  28.611  1.00  0.00    -0.354 N 
ATOM     50  C   UNL A   1      45.976  26.116  29.233  1.00  0.00     0.074 A 
ATOM     51  C   UNL A   1      46.317  24.779  28.797  1.00  0.00     0.031 C 
ATOM     52  C   UNL A   1      39.671  26.482  28.017  1.00  0.00     0.029 A 
ATOM     53  C   UNL A   1      40.521  27.506  28.614  1.00  0.00     0.049 A 
ATOM     54  H   UNL A   1      42.579  27.417  28.931  1.00  0.00     0.167 HD
ATOM     55  C   UNL A   1      46.866  27.004  29.737  1.00  0.00     0.037 A 
ATOM     56  C   UNL A   1      40.100  28.703  29.068  1.00  0.00     0.037 A 
ATOM     57  C   UNL A   1      46.526  28.337  30.161  1.00  0.00     0.049 A 
ATOM     58  C   UNL A   1      41.102  29.645  29.680  1.00  0.00     0.074 A 
ATOM     59  C   UNL A   1      47.363  29.326  30.645  1.00  0.00     0.029 A 
ATOM     60  N   UNL A   1      45.244  28.864  30.155  1.00  0.00    -0.354 N 
ATOM     61  N   UNL A   1      42.397  29.497  29.826  1.00  0.00    -0.248 NA
ATOM     62  C   UNL A   1      40.584  30.920  30.199  1.00  0.00     0.031 C 
ATOM     63  C   UNL A   1      46.581  30.435  30.980  1.00  0.00     0.029 A 
ATOM     64  C   UNL A   1      45.263  30.154  30.657  1.00  0.00     0.049 A 
ATOM     65  H   UNL A   1      44.439  28.391  29.841  1.00  0.00     0.167 HD
ATOM     66  C   UNL A   1      42.849  30.665  30.426  1.00  0.00     0.074 A 
ATOM     67  C   UNL A   1      41.695  31.522  30.597  1.00  0.00     0.031 C 
ATOM     68  C   UNL A   1      44.105  30.997  30.809  1.00  0.00     0.037 A 
BRANCH  55  69
ATOM     69  C   UNL A   1      48.299  26.573  29.844  1.00  0.00     0.057 A 
ATOM     70  C   UNL A   1      48.775  25.877  30.964  1.00  0.00     0.134 A 
ATOM     71  C   UNL A   1      49.198  26.793  28.792  1.00  0.00     0.134 A 
ATOM     72  F   UNL A   1      47.968  25.641  32.010  1.00  0.00    -0.206 F 
ATOM     73  C   UNL A   1      50.094  25.430  31.041  1.00  0.00     0.040 A 
ATOM     74  C   UNL A   1      50.513  26.328  28.847  1.00  0.00     0.040 A 
ATOM     75  F   UNL A   1      48.807  27.446  27.687  1.00  0.00    -0.206 F 
ATOM     76  C   UNL A   1      50.965  25.646  29.974  1.00  0.00     0.006 A 
ENDBRANCH  55  69
BRANCH  56  77
ATOM     77  C   UNL A   1      38.667  29.086  28.978  1.00  0.00     0.057 A 
ATOM     78  C   UNL A   1      38.127  29.586  27.787  1.00  0.00     0.134 A 
ATOM     79  C   UNL A   1      37.814  29.009  30.087  1.00  0.00     0.134 A 
ATOM     80  F   UNL A   1      38.895  29.704  26.694  1.00  0.00    -0.206 F 
ATOM     81  C   UNL A   1      36.804  30.027  27.710  1.00  0.00     0.040 A 
ATOM     82  C   UNL A   1      36.481  29.417  30.016  1.00  0.00     0.040 A 
ATOM     83  F   UNL A   1      38.265  28.532  31.257  1.00  0.00    -0.206 F 
ATOM     84  C   UNL A   1      35.976  29.940  28.827  1.00  0.00     0.006 A 
ENDBRANCH  56  77
BRANCH  68  85
ATOM     85  C   UNL A   1      44.304  32.349  31.429  1.00  0.00     0.057 A 
ATOM     86  C   UNL A   1      44.548  33.487  30.648  1.00  0.00     0.134 A 
ATOM     87  C   UNL A   1      44.196  32.524  32.814  1.00  0.00     0.134 A 
ATOM     88  F   UNL A   1      44.678  33.383  29.318  1.00  0.00    -0.206 F 
ATOM     89  C   UNL A   1      44.691  34.748  31.227  1.00  0.00     0.040 A 
ATOM     90  C   UNL A   1      44.308  33.785  33.401  1.00  0.00     0.040 A 
ATOM     91  F   UNL A   1      43.955  31.477  33.616  1.00  0.00    -0.206 F 
ATOM     92  C   UNL A   1      44.561  34.901  32.607  1.00  0.00     0.006 A 
ENDBRANCH  68  85
ENDBRANCH  42  43
ENDBRANCH  34  37
ENDBRANCH  32  33
ENDBRANCH  31  32
ENDBRANCH  30  31
ENDBRANCH   1  30
TORSDOF 15
ENDMDL
MODEL 2
REMARK VINA RESULT:     -12.6      0.880      6.001
REMARK SMILES CC1(C)[C@@]2(C(=O)NCCCCCCNC(=O)c3ccc(-c4c5nc(c(-c6c(F)cccc6F)c6ccc([nH]6)c(-c6c(F)cccc6F)c6nc(c(-c7c(F)cccc7F)c7ccc4[nH]7)C=C6)C=C5)cc3)CC[C@]1(C)/C(=N/NC(=O)c1ccc(Cl)cc1)C2
REMARK SMILES IDX 10 1 9 2 8 3 7 4 5 5 6 6 4 8 1 9 2 10 3 11 73 12 71 13 87 14
REMARK SMILES IDX 72 15 74 16 75 17 76 18 77 19 78 20 79 22 80 23 81 24 86 25
REMARK SMILES IDX 82 26 85 27 83 28 84 29 11 30 12 31 13 32 14 33 15 34 16 36
REMARK SMILES IDX 17 37 18 38 70 39 19 40 69 41 20 42 21 43 22 44 63 45 23 46
REMARK SMILES IDX 68 47 62 48 64 49 24 50 67 51 61 52 60 53 25 55 51 56 34 57
REMARK SMILES IDX 50 58 35 59 38 60 49 61 65 62 36 63 37 64 48 66 66 67 39 68
REMARK SMILES IDX 26 69 27 70 32 71 28 72 29 73 31 74 33 75 30 76 52 77 53 78
REMARK SMILES IDX 58 79 54 80 55 81 57 82 59 83 56 84 40 85 41 86 46 87 42 88
REMARK SMILES IDX 43 89 45 90 47 91 44 92
REMARK H PARENT 7 7 77 21 14 35 64 54 38 65
REMARK Flexibility Score: inf
ROOT
ATOM      1  C   UNL A   1      37.039  22.592  24.296  1.00  0.00     0.002 C 
ENDROOT
BRANCH   1   2
ATOM      2  C   UNL A   1      36.238  22.925  23.032  1.00  0.00     0.021 C 
BRANCH   2   3
ATOM      3  C   UNL A   1      34.719  23.252  23.145  1.00  0.00     0.116 C 
BRANCH   3   4
ATOM      4  N   UNL A   1      34.120  24.305  22.308  1.00  0.00    -0.356 N 
ATOM      5  C   UNL A   1      33.781  25.629  22.511  1.00  0.00     0.227 C 
ATOM      6  O   UNL A   1      33.883  26.359  21.518  1.00  0.00    -0.274 OA
ATOM      7  H   UNL A   1      33.916  23.996  21.395  1.00  0.00     0.163 HD
BRANCH   5   8
ATOM      8  C   UNL A   1      33.154  26.205  23.804  1.00  0.00     0.060 C 
ATOM      9  C   UNL A   1      33.519  28.755  23.416  1.00  0.00     0.013 C 
ATOM     10  C   UNL A   1      32.520  27.651  23.813  1.00  0.00    -0.010 C 
ATOM     11  C   UNL A   1      31.247  27.893  22.965  1.00  0.00     0.013 C 
ATOM     12  C   UNL A   1      32.172  27.561  25.348  1.00  0.00     0.014 C 
ATOM     13  C   UNL A   1      34.152  26.274  25.005  1.00  0.00     0.019 C 
ATOM     14  C   UNL A   1      31.897  25.402  24.224  1.00  0.00     0.071 C 
ATOM     15  C   UNL A   1      33.541  27.291  25.986  1.00  0.00     0.014 C 
ATOM     16  C   UNL A   1      31.392  28.696  25.973  1.00  0.00     0.018 C 
ATOM     17  C   UNL A   1      31.480  26.165  25.435  1.00  0.00     0.046 C 
ATOM     18  N   UNL A   1      30.827  25.840  26.504  1.00  0.00    -0.181 NA
BRANCH  18  19
ATOM     19  N   UNL A   1      30.214  24.715  26.970  1.00  0.00    -0.243 N 
ATOM     20  C   UNL A   1      30.291  23.336  26.949  1.00  0.00     0.271 C 
ATOM     21  H   UNL A   1      29.438  24.980  27.516  1.00  0.00     0.194 HD
ATOM     22  O   UNL A   1      29.413  22.674  27.510  1.00  0.00    -0.267 OA
BRANCH  20  23
ATOM     23  C   UNL A   1      31.347  22.572  26.302  1.00  0.00     0.041 A 
ATOM     24  C   UNL A   1      32.535  22.320  27.004  1.00  0.00     0.015 A 
ATOM     25  C   UNL A   1      31.154  22.061  25.033  1.00  0.00     0.015 A 
ATOM     26  C   UNL A   1      33.408  21.326  26.562  1.00  0.00     0.021 A 
ATOM     27  C   UNL A   1      31.991  21.009  24.657  1.00  0.00     0.021 A 
ATOM     28  C   UNL A   1      33.071  20.600  25.436  1.00  0.00     0.041 A 
ATOM     29  Cl  UNL A   1      33.844  19.094  25.142  1.00  0.00    -0.084 Cl
ENDBRANCH  20  23
ENDBRANCH  18  19
ENDBRANCH   5   8
ENDBRANCH   3   4
ENDBRANCH   2   3
ENDBRANCH   1   2
BRANCH   1  30
ATOM     30  C   UNL A   1      36.736  21.195  24.863  1.00  0.00     0.002 C 
BRANCH  30  31
ATOM     31  C   UNL A   1      37.901  20.192  24.857  1.00  0.00     0.021 C 
BRANCH  31  32
ATOM     32  C   UNL A   1      39.059  20.538  25.790  1.00  0.00     0.116 C 
BRANCH  32  33
ATOM     33  N   UNL A   1      39.985  19.423  25.913  1.00  0.00    -0.352 N 
ATOM     34  C   UNL A   1      41.354  19.467  26.082  1.00  0.00     0.251 C 
ATOM     35  H   UNL A   1      39.587  18.525  25.871  1.00  0.00     0.163 HD
ATOM     36  O   UNL A   1      42.052  18.497  25.850  1.00  0.00    -0.269 OA
BRANCH  34  37
ATOM     37  C   UNL A   1      41.965  20.730  26.551  1.00  0.00     0.039 A 
ATOM     38  C   UNL A   1      42.481  21.637  25.624  1.00  0.00     0.014 A 
ATOM     39  C   UNL A   1      41.993  21.017  27.919  1.00  0.00     0.014 A 
ATOM     40  C   UNL A   1      42.956  22.875  26.066  1.00  0.00     0.010 A 
ATOM     41  C   UNL A   1      42.411  22.273  28.350  1.00  0.00     0.010 A 
ATOM     42  C   UNL A   1      42.884  23.218  27.428  1.00  0.00    -0.014 A 
BRANCH  42  43
ATOM     43  C   UNL A   1      43.268  24.570  27.910  1.00  0.00     0.031 A 
ATOM     44  C   UNL A   1      42.210  25.605  28.176  1.00  0.00     0.074 A 
ATOM     45  C   UNL A   1      44.573  24.887  28.031  1.00  0.00     0.049 A 
ATOM     46  N   UNL A   1      42.351  26.867  28.496  1.00  0.00    -0.248 NA
ATOM     47  C   UNL A   1      40.810  25.171  28.042  1.00  0.00     0.031 C 
ATOM     48  C   UNL A   1      45.693  23.980  27.768  1.00  0.00     0.029 A 
ATOM     49  N   UNL A   1      45.180  26.066  28.389  1.00  0.00    -0.354 N 
ATOM     50  C   UNL A   1      41.063  27.375  28.601  1.00  0.00     0.074 A 
ATOM     51  C   UNL A   1      40.154  26.303  28.255  1.00  0.00     0.031 C 
ATOM     52  C   UNL A   1      46.847  24.630  27.990  1.00  0.00     0.029 A 
ATOM     53  C   UNL A   1      46.554  26.010  28.362  1.00  0.00     0.049 A 
ATOM     54  H   UNL A   1      44.679  26.875  28.640  1.00  0.00     0.167 HD
ATOM     55  C   UNL A   1      40.672  28.615  28.977  1.00  0.00     0.037 A 
ATOM     56  C   UNL A   1      47.472  26.969  28.591  1.00  0.00     0.037 A 
ATOM     57  C   UNL A   1      41.578  29.676  29.330  1.00  0.00     0.049 A 
ATOM     58  C   UNL A   1      47.006  28.356  28.946  1.00  0.00     0.074 A 
ATOM     59  C   UNL A   1      41.279  30.955  29.765  1.00  0.00     0.029 A 
ATOM     60  N   UNL A   1      42.960  29.581  29.283  1.00  0.00    -0.354 N 
ATOM     61  N   UNL A   1      45.785  28.803  29.109  1.00  0.00    -0.248 NA
ATOM     62  C   UNL A   1      48.047  29.376  29.143  1.00  0.00     0.031 C 
ATOM     63  C   UNL A   1      42.480  31.651  29.933  1.00  0.00     0.029 A 
ATOM     64  C   UNL A   1      43.528  30.790  29.651  1.00  0.00     0.049 A 
ATOM     65  H   UNL A   1      43.464  28.775  29.026  1.00  0.00     0.167 HD
ATOM     66  C   UNL A   1      45.911  30.142  29.452  1.00  0.00     0.074 A 
ATOM     67  C   UNL A   1      47.330  30.431  29.496  1.00  0.00     0.031 C 
ATOM     68  C   UNL A   1      44.942  31.055  29.700  1.00  0.00     0.037 A 
BRANCH  55  69
ATOM     69  C   UNL A   1      39.198  28.894  29.044  1.00  0.00     0.057 A 
ATOM     70  C   UNL A   1      38.474  28.733  30.233  1.00  0.00     0.134 A 
ATOM     71  C   UNL A   1      38.509  29.393  27.931  1.00  0.00     0.134 A 
ATOM     72  F   UNL A   1      39.073  28.251  31.333  1.00  0.00    -0.206 F 
ATOM     73  C   UNL A   1      37.115  29.042  30.309  1.00  0.00     0.040 A 
ATOM     74  C   UNL A   1      37.156  29.729  28.002  1.00  0.00     0.040 A 
ATOM     75  F   UNL A   1      39.143  29.578  26.763  1.00  0.00    -0.206 F 
ATOM     76  C   UNL A   1      36.456  29.552  29.193  1.00  0.00     0.006 A 
ENDBRANCH  55  69
BRANCH  56  77
ATOM     77  C   UNL A   1      48.924  26.669  28.483  1.00  0.00     0.057 A 
ATOM     78  C   UNL A   1      49.676  26.326  29.613  1.00  0.00     0.134 A 
ATOM     79  C   UNL A   1      49.605  26.763  27.262  1.00  0.00     0.134 A 
ATOM     80  F   UNL A   1      49.088  26.239  30.815  1.00  0.00    -0.206 F 
ATOM     81  C   UNL A   1      51.056  26.122  29.541  1.00  0.00     0.040 A 
ATOM     82  C   UNL A   1      50.979  26.532  27.171  1.00  0.00     0.040 A 
ATOM     83  F   UNL A   1      48.944  27.080  26.139  1.00  0.00    -0.206 F 
ATOM     84  C   UNL A   1      51.711  26.222  28.315  1.00  0.00     0.006 A 
ENDBRANCH  56  77
BRANCH  68  85
ATOM     85  C   UNL A   1      45.378  32.444  30.064  1.00  0.00     0.057 A 
ATOM     86  C   UNL A   1      45.551  33.439  29.093  1.00  0.00     0.134 A 
ATOM     87  C   UNL A   1      45.572  32.806  31.403  1.00  0.00     0.134 A 
ATOM     88  F   UNL A   1      45.396  33.153  27.792  1.00  0.00    -0.206 F 
ATOM     89  C   UNL A   1      45.917  34.740  29.441  1.00  0.00     0.040 A 
ATOM     90  C   UNL A   1      45.908  34.110  31.765  1.00  0.00     0.040 A 
ATOM     91  F   UNL A   1      45.414  31.903  32.382  1.00  0.00    -0.206 F 
ATOM     92  C   UNL A   1      46.086  35.081  30.782  1.00  0.00     0.006 A 
ENDBRANCH  68  85
ENDBRANCH  42  43
ENDBRANCH  34  37
ENDBRANCH  32  33
ENDBRANCH  31  32
ENDBRANCH  30  31
ENDBRANCH   1  30
TORSDOF 15
ENDMDL
MODEL 3
REMARK VINA RESULT:     -12.5      4.166      8.725
REMARK SMILES CC1(C)[C@@]2(C(=O)NCCCCCCNC(=O)c3ccc(-c4c5nc(c(-c6c(F)cccc6F)c6ccc([nH]6)c(-c6c(F)cccc6F)c6nc(c(-c7c(F)cccc7F)c7ccc4[nH]7)C=C6)C=C5)cc3)CC[C@]1(C)/C(=N/NC(=O)c1ccc(Cl)cc1)C2
REMARK SMILES IDX 10 1 9 2 8 3 7 4 5 5 6 6 4 8 1 9 2 10 3 11 73 12 71 13 87 14
REMARK SMILES IDX 72 15 74 16 75 17 76 18 77 19 78 20 79 22 80 23 81 24 86 25
REMARK SMILES IDX 82 26 85 27 83 28 84 29 11 30 12 31 13 32 14 33 15 34 16 36
REMARK SMILES IDX 17 37 18 38 70 39 19 40 69 41 20 42 21 43 22 44 63 45 23 46
REMARK SMILES IDX 68 47 62 48 64 49 24 50 67 51 61 52 60 53 25 55 51 56 34 57
REMARK SMILES IDX 50 58 35 59 38 60 49 61 65 62 36 63 37 64 48 66 66 67 39 68
REMARK SMILES IDX 26 69 27 70 32 71 28 72 29 73 31 74 33 75 30 76 52 77 53 78
REMARK SMILES IDX 58 79 54 80 55 81 57 82 59 83 56 84 40 85 41 86 46 87 42 88
REMARK SMILES IDX 43 89 45 90 47 91 44 92
REMARK H PARENT 7 7 77 21 14 35 64 54 38 65
REMARK Flexibility Score: inf
ROOT
ATOM      1  C   UNL A   1      31.331  29.711  25.142  1.00  0.00     0.002 C 
ENDROOT
BRANCH   1   2
ATOM      2  C   UNL A   1      32.433  29.164  24.227  1.00  0.00     0.021 C 
BRANCH   2   3
ATOM      3  C   UNL A   1      32.054  28.547  22.848  1.00  0.00     0.116 C 
BRANCH   3   4
ATOM      4  N   UNL A   1      32.947  27.573  22.198  1.00  0.00    -0.356 N 
ATOM      5  C   UNL A   1      33.091  26.200  22.258  1.00  0.00     0.227 C 
ATOM      6  O   UNL A   1      33.464  25.661  21.209  1.00  0.00    -0.274 OA
ATOM      7  H   UNL A   1      33.586  27.996  21.578  1.00  0.00     0.163 HD
BRANCH   5   8
ATOM      8  C   UNL A   1      32.977  25.342  23.542  1.00  0.00     0.060 C 
ATOM      9  C   UNL A   1      30.597  26.019  24.356  1.00  0.00     0.013 C 
ATOM     10  C   UNL A   1      31.566  24.859  24.059  1.00  0.00    -0.010 C 
ATOM     11  C   UNL A   1      30.778  23.848  23.189  1.00  0.00     0.013 C 
ATOM     12  C   UNL A   1      32.197  24.153  25.320  1.00  0.00     0.014 C 
ATOM     13  C   UNL A   1      33.575  26.032  24.809  1.00  0.00     0.019 C 
ATOM     14  C   UNL A   1      33.637  23.954  23.349  1.00  0.00     0.071 C 
ATOM     15  C   UNL A   1      32.943  25.303  26.008  1.00  0.00     0.014 C 
ATOM     16  C   UNL A   1      31.285  23.355  26.225  1.00  0.00     0.018 C 
ATOM     17  C   UNL A   1      33.361  23.336  24.677  1.00  0.00     0.046 C 
ATOM     18  N   UNL A   1      33.961  22.423  25.370  1.00  0.00    -0.181 NA
BRANCH  18  19
ATOM     19  N   UNL A   1      35.046  21.617  25.194  1.00  0.00    -0.243 N 
ATOM     20  C   UNL A   1      35.412  20.301  24.990  1.00  0.00     0.271 C 
ATOM     21  H   UNL A   1      35.860  22.171  25.222  1.00  0.00     0.194 HD
ATOM     22  O   UNL A   1      36.610  20.008  24.945  1.00  0.00    -0.267 OA
BRANCH  20  23
ATOM     23  C   UNL A   1      34.482  19.196  24.821  1.00  0.00     0.041 A 
ATOM     24  C   UNL A   1      34.935  18.006  24.233  1.00  0.00     0.015 A 
ATOM     25  C   UNL A   1      33.185  19.304  25.285  1.00  0.00     0.015 A 
ATOM     26  C   UNL A   1      34.189  16.835  24.364  1.00  0.00     0.021 A 
ATOM     27  C   UNL A   1      32.498  18.107  25.486  1.00  0.00     0.021 A 
ATOM     28  C   UNL A   1      33.014  16.875  25.089  1.00  0.00     0.041 A 
ATOM     29  Cl  UNL A   1      32.332  15.409  25.671  1.00  0.00    -0.084 Cl
ENDBRANCH  20  23
ENDBRANCH  18  19
ENDBRANCH   5   8
ENDBRANCH   3   4
ENDBRANCH   2   3
ENDBRANCH   1   2
BRANCH   1  30
ATOM     30  C   UNL A   1      31.868  30.332  26.443  1.00  0.00     0.002 C 
BRANCH  30  31
ATOM     31  C   UNL A   1      31.726  31.856  26.578  1.00  0.00     0.021 C 
BRANCH  31  32
ATOM     32  C   UNL A   1      32.754  32.525  27.487  1.00  0.00     0.116 C 
BRANCH  32  33
ATOM     33  N   UNL A   1      32.506  33.954  27.599  1.00  0.00    -0.352 N 
ATOM     34  C   UNL A   1      33.009  34.836  28.533  1.00  0.00     0.251 C 
ATOM     35  H   UNL A   1      31.903  34.341  26.925  1.00  0.00     0.163 HD
ATOM     36  O   UNL A   1      32.490  35.921  28.725  1.00  0.00    -0.269 OA
BRANCH  34  37
ATOM     37  C   UNL A   1      34.204  34.434  29.308  1.00  0.00     0.039 A 
ATOM     38  C   UNL A   1      34.053  33.918  30.596  1.00  0.00     0.014 A 
ATOM     39  C   UNL A   1      35.472  34.548  28.730  1.00  0.00     0.014 A 
ATOM     40  C   UNL A   1      35.175  33.439  31.277  1.00  0.00     0.010 A 
ATOM     41  C   UNL A   1      36.577  34.015  29.386  1.00  0.00     0.010 A 
ATOM     42  C   UNL A   1      36.438  33.445  30.660  1.00  0.00    -0.014 A 
BRANCH  42  43
ATOM     43  C   UNL A   1      37.624  32.832  31.312  1.00  0.00     0.031 A 
ATOM     44  C   UNL A   1      38.274  31.618  30.709  1.00  0.00     0.074 A 
ATOM     45  C   UNL A   1      38.064  33.323  32.488  1.00  0.00     0.049 A 
ATOM     46  N   UNL A   1      39.246  30.879  31.183  1.00  0.00    -0.248 NA
ATOM     47  C   UNL A   1      37.748  31.159  29.412  1.00  0.00     0.031 C 
ATOM     48  C   UNL A   1      37.495  34.475  33.192  1.00  0.00     0.029 A 
ATOM     49  N   UNL A   1      39.082  32.905  33.310  1.00  0.00    -0.354 N 
ATOM     50  C   UNL A   1      39.445  29.873  30.246  1.00  0.00     0.074 A 
ATOM     51  C   UNL A   1      38.458  30.060  29.205  1.00  0.00     0.031 C 
ATOM     52  C   UNL A   1      38.181  34.680  34.328  1.00  0.00     0.029 A 
ATOM     53  C   UNL A   1      39.205  33.649  34.460  1.00  0.00     0.049 A 
ATOM     54  H   UNL A   1      39.668  32.143  33.097  1.00  0.00     0.167 HD
ATOM     55  C   UNL A   1      40.385  28.898  30.241  1.00  0.00     0.037 A 
ATOM     56  C   UNL A   1      40.035  33.504  35.511  1.00  0.00     0.037 A 
ATOM     57  C   UNL A   1      41.371  28.721  31.274  1.00  0.00     0.049 A 
ATOM     58  C   UNL A   1      41.027  32.371  35.506  1.00  0.00     0.074 A 
ATOM     59  C   UNL A   1      42.391  27.788  31.339  1.00  0.00     0.029 A 
ATOM     60  N   UNL A   1      41.457  29.490  32.423  1.00  0.00    -0.354 N 
ATOM     61  N   UNL A   1      41.250  31.469  34.581  1.00  0.00    -0.248 NA
ATOM     62  C   UNL A   1      41.880  32.230  36.696  1.00  0.00     0.031 C 
ATOM     63  C   UNL A   1      43.065  27.961  32.552  1.00  0.00     0.029 A 
ATOM     64  C   UNL A   1      42.495  29.033  33.219  1.00  0.00     0.049 A 
ATOM     65  H   UNL A   1      40.869  30.249  32.642  1.00  0.00     0.167 HD
ATOM     66  C   UNL A   1      42.281  30.675  35.064  1.00  0.00     0.074 A 
ATOM     67  C   UNL A   1      42.657  31.213  36.354  1.00  0.00     0.031 C 
ATOM     68  C   UNL A   1      42.861  29.590  34.496  1.00  0.00     0.037 A 
BRANCH  55  69
ATOM     69  C   UNL A   1      40.403  27.951  29.076  1.00  0.00     0.057 A 
ATOM     70  C   UNL A   1      39.604  26.800  29.053  1.00  0.00     0.134 A 
ATOM     71  C   UNL A   1      41.173  28.226  27.938  1.00  0.00     0.134 A 
ATOM     72  F   UNL A   1      38.850  26.475  30.114  1.00  0.00    -0.206 F 
ATOM     73  C   UNL A   1      39.582  25.948  27.948  1.00  0.00     0.040 A 
ATOM     74  C   UNL A   1      41.139  27.395  26.817  1.00  0.00     0.040 A 
ATOM     75  F   UNL A   1      41.955  29.316  27.891  1.00  0.00    -0.206 F 
ATOM     76  C   UNL A   1      40.344  26.252  26.821  1.00  0.00     0.006 A 
ENDBRANCH  55  69
BRANCH  56  77
ATOM     77  C   UNL A   1      39.968  34.438  36.665  1.00  0.00     0.057 A 
ATOM     78  C   UNL A   1      39.174  34.149  37.782  1.00  0.00     0.134 A 
ATOM     79  C   UNL A   1      40.655  35.659  36.664  1.00  0.00     0.134 A 
ATOM     80  F   UNL A   1      38.476  33.005  37.836  1.00  0.00    -0.206 F 
ATOM     81  C   UNL A   1      39.037  35.053  38.837  1.00  0.00     0.040 A 
ATOM     82  C   UNL A   1      40.551  36.559  37.726  1.00  0.00     0.040 A 
ATOM     83  F   UNL A   1      41.439  35.995  35.629  1.00  0.00    -0.206 F 
ATOM     84  C   UNL A   1      39.730  36.262  38.812  1.00  0.00     0.006 A 
ENDBRANCH  56  77
BRANCH  68  85
ATOM     85  C   UNL A   1      43.977  28.928  35.250  1.00  0.00     0.057 A 
ATOM     86  C   UNL A   1      45.314  29.301  35.063  1.00  0.00     0.134 A 
ATOM     87  C   UNL A   1      43.706  27.947  36.212  1.00  0.00     0.134 A 
ATOM     88  F   UNL A   1      45.641  30.224  34.145  1.00  0.00    -0.206 F 
ATOM     89  C   UNL A   1      46.343  28.711  35.797  1.00  0.00     0.040 A 
ATOM     90  C   UNL A   1      44.724  27.371  36.972  1.00  0.00     0.040 A 
ATOM     91  F   UNL A   1      42.446  27.550  36.445  1.00  0.00    -0.206 F 
ATOM     92  C   UNL A   1      46.048  27.750  36.762  1.00  0.00     0.006 A 
ENDBRANCH  68  85
ENDBRANCH  42  43
ENDBRANCH  34  37
ENDBRANCH  32  33
ENDBRANCH  31  32
ENDBRANCH  30  31
ENDBRANCH   1  30
TORSDOF 15
ENDMDL
