MODEL 1
REMARK VINA RESULT:     -11.6      0.000      0.000
REMARK SMILES Cc1ccc(OCC(=O)NC(=S)Nc2ccc(C(=O)NCCCCCCNC(=O)c3ccc(-c4c5nc(c(-c6c(F)cccc6F)c6ccc([nH]6)c(-c6c(F)cccc6F)c6nc(c(-c7c(F)cccc7F)c7ccc4[nH]7)C=C6)C=C5)cc3)cc2)cc1
REMARK SMILES IDX 21 1 20 2 18 3 19 4 17 6 14 7 15 8 85 9 16 10 84 11 13 12
REMARK SMILES IDX 11 14 12 15 10 16 8 17 9 18 7 20 6 21 5 22 1 23 2 24 3 25
REMARK SMILES IDX 87 26 4 27 86 28 22 29 23 30 24 31 25 32 26 33 27 34 28 35
REMARK SMILES IDX 29 37 30 38 31 39 83 40 32 41 82 42 33 43 34 44 35 45 76 46
REMARK SMILES IDX 36 47 81 48 75 49 77 50 37 51 80 52 74 53 73 54 38 56 64 57
REMARK SMILES IDX 47 58 63 59 48 60 51 61 62 62 78 63 49 64 50 65 61 67 79 68
REMARK SMILES IDX 52 69 39 70 40 71 45 72 41 73 42 74 44 75 46 76 43 77 65 78
REMARK SMILES IDX 66 79 71 80 67 81 68 82 70 83 72 84 69 85 53 86 54 87 59 88
REMARK SMILES IDX 55 89 56 90 58 91 60 92 57 93
REMARK H PARENT 20 5 13 13 10 19 27 36 77 55 51 66
REMARK Flexibility Score: inf
ROOT
ATOM      1  C   UNL A   1      33.875  21.476  25.104  1.00  0.00     0.116 C 
ENDROOT
BRANCH   1   2
ATOM      2  N   UNL A   1      33.436  21.608  26.485  1.00  0.00    -0.352 N 
ATOM      3  C   UNL A   1      32.994  22.713  27.172  1.00  0.00     0.251 C 
ATOM      4  O   UNL A   1      32.498  22.594  28.288  1.00  0.00    -0.269 OA
ATOM      5  H   UNL A   1      33.460  20.775  27.010  1.00  0.00     0.163 HD
BRANCH   3   6
ATOM      6  C   UNL A   1      33.054  24.047  26.546  1.00  0.00     0.039 A 
ATOM      7  C   UNL A   1      33.367  26.638  25.597  1.00  0.00     0.040 A 
ATOM      8  C   UNL A   1      32.179  26.272  26.233  1.00  0.00     0.027 A 
ATOM      9  C   UNL A   1      34.337  25.677  25.301  1.00  0.00     0.027 A 
ATOM     10  C   UNL A   1      32.036  24.984  26.747  1.00  0.00     0.016 A 
ATOM     11  C   UNL A   1      34.163  24.366  25.753  1.00  0.00     0.016 A 
BRANCH   7  12
ATOM     12  N   UNL A   1      33.540  27.992  25.294  1.00  0.00    -0.332 N 
ATOM     13  H   UNL A   1      34.031  28.514  25.969  1.00  0.00     0.169 HD
BRANCH  12  14
ATOM     14  C   UNL A   1      33.133  28.687  24.214  1.00  0.00     0.177 C 
ATOM     15  S   UNL A   1      34.054  28.616  22.818  1.00  0.00    -0.040 S 
BRANCH  14  16
ATOM     16  N   UNL A   1      31.962  29.402  24.171  1.00  0.00    -0.300 N 
ATOM     17  C   UNL A   1      30.687  29.346  23.625  1.00  0.00     0.264 C 
ATOM     18  O   UNL A   1      29.885  30.222  23.973  1.00  0.00    -0.271 OA
ATOM     19  H   UNL A   1      32.058  30.227  24.702  1.00  0.00     0.172 HD
BRANCH  17  20
ATOM     20  C   UNL A   1      30.259  28.293  22.608  1.00  0.00     0.329 C 
BRANCH  20  21
ATOM     21  O   UNL A   1      29.802  27.104  23.225  1.00  0.00    -0.484 OA
BRANCH  21  22
ATOM     22  C   UNL A   1      30.557  25.969  23.116  1.00  0.00     0.120 A 
ATOM     23  C   UNL A   1      33.053  22.571  22.170  1.00  0.00     0.044 C 
ATOM     24  C   UNL A   1      32.200  23.750  22.535  1.00  0.00    -0.051 A 
ATOM     25  C   UNL A   1      32.506  25.013  22.022  1.00  0.00     0.007 A 
ATOM     26  C   UNL A   1      31.080  23.613  23.361  1.00  0.00     0.007 A 
ATOM     27  C   UNL A   1      31.685  26.108  22.304  1.00  0.00     0.047 A 
ATOM     28  C   UNL A   1      30.266  24.717  23.656  1.00  0.00     0.047 A 
ENDBRANCH  21  22
ENDBRANCH  20  21
ENDBRANCH  17  20
ENDBRANCH  14  16
ENDBRANCH  12  14
ENDBRANCH   7  12
ENDBRANCH   3   6
ENDBRANCH   1   2
BRANCH   1  29
ATOM     29  C   UNL A   1      35.269  20.855  25.000  1.00  0.00     0.021 C 
BRANCH  29  30
ATOM     30  C   UNL A   1      36.359  21.778  24.433  1.00  0.00     0.002 C 
BRANCH  30  31
ATOM     31  C   UNL A   1      37.783  21.585  24.982  1.00  0.00     0.002 C 
BRANCH  31  32
ATOM     32  C   UNL A   1      38.424  22.811  25.637  1.00  0.00     0.021 C 
BRANCH  32  33
ATOM     33  C   UNL A   1      39.254  22.509  26.876  1.00  0.00     0.116 C 
BRANCH  33  34
ATOM     34  N   UNL A   1      40.674  22.859  26.761  1.00  0.00    -0.352 N 
ATOM     35  C   UNL A   1      41.296  24.090  26.738  1.00  0.00     0.251 C 
ATOM     36  H   UNL A   1      41.283  22.088  26.689  1.00  0.00     0.163 HD
ATOM     37  O   UNL A   1      42.497  24.162  26.584  1.00  0.00    -0.269 OA
BRANCH  35  38
ATOM     38  C   UNL A   1      40.518  25.328  27.051  1.00  0.00     0.039 A 
ATOM     39  C   UNL A   1      40.716  26.447  26.230  1.00  0.00     0.014 A 
ATOM     40  C   UNL A   1      39.799  25.455  28.232  1.00  0.00     0.014 A 
ATOM     41  C   UNL A   1      40.445  27.718  26.730  1.00  0.00     0.010 A 
ATOM     42  C   UNL A   1      39.640  26.711  28.776  1.00  0.00     0.010 A 
ATOM     43  C   UNL A   1      40.033  27.841  28.054  1.00  0.00    -0.014 A 
BRANCH  43  44
ATOM     44  C   UNL A   1      40.152  29.071  28.826  1.00  0.00     0.031 A 
ATOM     45  C   UNL A   1      39.058  30.060  28.864  1.00  0.00     0.074 A 
ATOM     46  C   UNL A   1      41.215  29.206  29.653  1.00  0.00     0.049 A 
ATOM     47  N   UNL A   1      39.210  31.289  29.225  1.00  0.00    -0.248 NA
ATOM     48  C   UNL A   1      37.688  29.741  28.477  1.00  0.00     0.031 C 
ATOM     49  C   UNL A   1      41.362  30.140  30.766  1.00  0.00     0.029 A 
ATOM     50  N   UNL A   1      42.481  28.618  29.525  1.00  0.00    -0.354 N 
ATOM     51  C   UNL A   1      37.958  31.836  29.387  1.00  0.00     0.074 A 
ATOM     52  C   UNL A   1      37.044  30.850  28.859  1.00  0.00     0.031 C 
ATOM     53  C   UNL A   1      42.666  30.274  31.053  1.00  0.00     0.029 A 
ATOM     54  C   UNL A   1      43.407  29.554  30.032  1.00  0.00     0.049 A 
ATOM     55  H   UNL A   1      42.684  27.727  29.156  1.00  0.00     0.167 HD
ATOM     56  C   UNL A   1      37.821  33.006  30.075  1.00  0.00     0.037 A 
ATOM     57  C   UNL A   1      44.361  30.111  29.232  1.00  0.00     0.037 A 
ATOM     58  C   UNL A   1      39.116  33.530  30.497  1.00  0.00     0.049 A 
ATOM     59  C   UNL A   1      44.261  31.614  29.117  1.00  0.00     0.074 A 
ATOM     60  C   UNL A   1      39.815  33.438  31.691  1.00  0.00     0.029 A 
ATOM     61  N   UNL A   1      40.023  33.980  29.545  1.00  0.00    -0.354 N 
ATOM     62  N   UNL A   1      43.182  32.292  29.394  1.00  0.00    -0.248 NA
ATOM     63  C   UNL A   1      45.355  32.468  28.664  1.00  0.00     0.031 C 
ATOM     64  C   UNL A   1      41.162  33.787  31.441  1.00  0.00     0.029 A 
ATOM     65  C   UNL A   1      41.282  34.109  30.100  1.00  0.00     0.049 A 
ATOM     66  H   UNL A   1      39.799  34.180  28.607  1.00  0.00     0.167 HD
ATOM     67  C   UNL A   1      43.400  33.623  29.142  1.00  0.00     0.074 A 
ATOM     68  C   UNL A   1      44.781  33.684  28.705  1.00  0.00     0.031 C 
ATOM     69  C   UNL A   1      42.415  34.554  29.305  1.00  0.00     0.037 A 
BRANCH  56  70
ATOM     70  C   UNL A   1      36.498  33.492  30.616  1.00  0.00     0.057 A 
ATOM     71  C   UNL A   1      35.500  33.999  29.759  1.00  0.00     0.134 A 
ATOM     72  C   UNL A   1      36.165  33.529  31.980  1.00  0.00     0.134 A 
ATOM     73  F   UNL A   1      35.617  33.943  28.427  1.00  0.00    -0.206 F 
ATOM     74  C   UNL A   1      34.326  34.603  30.228  1.00  0.00     0.040 A 
ATOM     75  C   UNL A   1      35.019  34.177  32.468  1.00  0.00     0.040 A 
ATOM     76  F   UNL A   1      36.917  32.905  32.897  1.00  0.00    -0.206 F 
ATOM     77  C   UNL A   1      34.100  34.731  31.589  1.00  0.00     0.006 A 
ENDBRANCH  56  70
BRANCH  57  78
ATOM     78  C   UNL A   1      44.829  29.202  28.155  1.00  0.00     0.057 A 
ATOM     79  C   UNL A   1      45.803  28.239  28.469  1.00  0.00     0.134 A 
ATOM     80  C   UNL A   1      44.085  29.002  26.988  1.00  0.00     0.134 A 
ATOM     81  F   UNL A   1      46.551  28.374  29.576  1.00  0.00    -0.206 F 
ATOM     82  C   UNL A   1      45.952  27.069  27.720  1.00  0.00     0.040 A 
ATOM     83  C   UNL A   1      44.232  27.837  26.225  1.00  0.00     0.040 A 
ATOM     84  F   UNL A   1      43.122  29.865  26.636  1.00  0.00    -0.206 F 
ATOM     85  C   UNL A   1      45.139  26.849  26.612  1.00  0.00     0.006 A 
ENDBRANCH  57  78
BRANCH  69  86
ATOM     86  C   UNL A   1      42.453  35.987  28.827  1.00  0.00     0.057 A 
ATOM     87  C   UNL A   1      43.043  37.040  29.540  1.00  0.00     0.134 A 
ATOM     88  C   UNL A   1      42.014  36.320  27.525  1.00  0.00     0.134 A 
ATOM     89  F   UNL A   1      43.605  36.849  30.741  1.00  0.00    -0.206 F 
ATOM     90  C   UNL A   1      43.137  38.340  29.023  1.00  0.00     0.040 A 
ATOM     91  C   UNL A   1      42.152  37.599  26.978  1.00  0.00     0.040 A 
ATOM     92  F   UNL A   1      41.454  35.411  26.713  1.00  0.00    -0.206 F 
ATOM     93  C   UNL A   1      42.704  38.621  27.733  1.00  0.00     0.006 A 
ENDBRANCH  69  86
ENDBRANCH  43  44
ENDBRANCH  35  38
ENDBRANCH  33  34
ENDBRANCH  32  33
ENDBRANCH  31  32
ENDBRANCH  30  31
ENDBRANCH  29  30
ENDBRANCH   1  29
TORSDOF 19
ENDMDL
MODEL 2
REMARK VINA RESULT:     -11.6      1.514      2.661
REMARK SMILES Cc1ccc(OCC(=O)NC(=S)Nc2ccc(C(=O)NCCCCCCNC(=O)c3ccc(-c4c5nc(c(-c6c(F)cccc6F)c6ccc([nH]6)c(-c6c(F)cccc6F)c6nc(c(-c7c(F)cccc7F)c7ccc4[nH]7)C=C6)C=C5)cc3)cc2)cc1
REMARK SMILES IDX 21 1 20 2 18 3 19 4 17 6 14 7 15 8 85 9 16 10 84 11 13 12
REMARK SMILES IDX 11 14 12 15 10 16 8 17 9 18 7 20 6 21 5 22 1 23 2 24 3 25
REMARK SMILES IDX 87 26 4 27 86 28 22 29 23 30 24 31 25 32 26 33 27 34 28 35
REMARK SMILES IDX 29 37 30 38 31 39 83 40 32 41 82 42 33 43 34 44 35 45 76 46
REMARK SMILES IDX 36 47 81 48 75 49 77 50 37 51 80 52 74 53 73 54 38 56 64 57
REMARK SMILES IDX 47 58 63 59 48 60 51 61 62 62 78 63 49 64 50 65 61 67 79 68
REMARK SMILES IDX 52 69 39 70 40 71 45 72 41 73 42 74 44 75 46 76 43 77 65 78
REMARK SMILES IDX 66 79 71 80 67 81 68 82 70 83 72 84 69 85 53 86 54 87 59 88
REMARK SMILES IDX 55 89 56 90 58 91 60 92 57 93
REMARK H PARENT 20 5 13 13 10 19 27 36 77 55 51 66
REMARK Flexibility Score: inf
ROOT
ATOM      1  C   UNL A   1      35.137  21.728  26.576  1.00  0.00     0.116 C 
ENDROOT
BRANCH   1   2
ATOM      2  N   UNL A   1      34.274  20.572  26.387  1.00  0.00    -0.352 N 
ATOM      3  C   UNL A   1      33.106  20.446  25.675  1.00  0.00     0.251 C 
ATOM      4  O   UNL A   1      32.610  19.339  25.487  1.00  0.00    -0.269 OA
ATOM      5  H   UNL A   1      34.574  19.752  26.843  1.00  0.00     0.163 HD
BRANCH   3   6
ATOM      6  C   UNL A   1      32.473  21.635  25.074  1.00  0.00     0.039 A 
ATOM      7  C   UNL A   1      31.005  23.725  23.984  1.00  0.00     0.040 A 
ATOM      8  C   UNL A   1      31.762  22.899  23.148  1.00  0.00     0.027 A 
ATOM      9  C   UNL A   1      31.098  23.601  25.373  1.00  0.00     0.027 A 
ATOM     10  C   UNL A   1      32.466  21.825  23.690  1.00  0.00     0.016 A 
ATOM     11  C   UNL A   1      31.861  22.567  25.920  1.00  0.00     0.016 A 
BRANCH   7  12
ATOM     12  N   UNL A   1      30.154  24.649  23.370  1.00  0.00    -0.332 N 
ATOM     13  H   UNL A   1      29.195  24.430  23.416  1.00  0.00     0.169 HD
BRANCH  12  14
ATOM     14  C   UNL A   1      30.454  25.793  22.726  1.00  0.00     0.177 C 
ATOM     15  S   UNL A   1      29.814  27.230  23.298  1.00  0.00    -0.040 S 
BRANCH  14  16
ATOM     16  N   UNL A   1      31.315  25.857  21.658  1.00  0.00    -0.300 N 
ATOM     17  C   UNL A   1      32.672  25.838  21.369  1.00  0.00     0.264 C 
ATOM     18  O   UNL A   1      32.993  25.811  20.173  1.00  0.00    -0.271 OA
ATOM     19  H   UNL A   1      30.800  25.946  20.822  1.00  0.00     0.172 HD
BRANCH  17  20
ATOM     20  C   UNL A   1      33.756  25.886  22.440  1.00  0.00     0.329 C 
BRANCH  20  21
ATOM     21  O   UNL A   1      34.018  27.205  22.881  1.00  0.00    -0.484 OA
BRANCH  21  22
ATOM     22  C   UNL A   1      33.477  27.627  24.064  1.00  0.00     0.120 A 
ATOM     23  C   UNL A   1      31.481  28.393  27.819  1.00  0.00     0.044 C 
ATOM     24  C   UNL A   1      32.205  28.148  26.528  1.00  0.00    -0.051 A 
ATOM     25  C   UNL A   1      32.694  26.872  26.237  1.00  0.00     0.007 A 
ATOM     26  C   UNL A   1      32.381  29.166  25.585  1.00  0.00     0.007 A 
ATOM     27  C   UNL A   1      33.315  26.616  25.013  1.00  0.00     0.047 A 
ATOM     28  C   UNL A   1      33.018  28.910  24.362  1.00  0.00     0.047 A 
ENDBRANCH  21  22
ENDBRANCH  20  21
ENDBRANCH  17  20
ENDBRANCH  14  16
ENDBRANCH  12  14
ENDBRANCH   7  12
ENDBRANCH   3   6
ENDBRANCH   1   2
BRANCH   1  29
ATOM     29  C   UNL A   1      35.385  22.481  25.268  1.00  0.00     0.021 C 
BRANCH  29  30
ATOM     30  C   UNL A   1      36.779  22.288  24.650  1.00  0.00     0.002 C 
BRANCH  30  31
ATOM     31  C   UNL A   1      37.523  20.992  25.013  1.00  0.00     0.002 C 
BRANCH  31  32
ATOM     32  C   UNL A   1      38.830  21.161  25.791  1.00  0.00     0.021 C 
BRANCH  32  33
ATOM     33  C   UNL A   1      39.091  22.573  26.297  1.00  0.00     0.116 C 
BRANCH  33  34
ATOM     34  N   UNL A   1      40.464  22.815  26.752  1.00  0.00    -0.352 N 
ATOM     35  C   UNL A   1      41.092  23.984  27.129  1.00  0.00     0.251 C 
ATOM     36  H   UNL A   1      41.031  22.010  26.796  1.00  0.00     0.163 HD
ATOM     37  O   UNL A   1      42.266  23.973  27.431  1.00  0.00    -0.269 OA
BRANCH  35  38
ATOM     38  C   UNL A   1      40.295  25.236  27.312  1.00  0.00     0.039 A 
ATOM     39  C   UNL A   1      40.581  26.319  26.468  1.00  0.00     0.014 A 
ATOM     40  C   UNL A   1      39.465  25.416  28.410  1.00  0.00     0.014 A 
ATOM     41  C   UNL A   1      40.271  27.610  26.885  1.00  0.00     0.010 A 
ATOM     42  C   UNL A   1      39.262  26.694  28.883  1.00  0.00     0.010 A 
ATOM     43  C   UNL A   1      39.732  27.791  28.156  1.00  0.00    -0.014 A 
BRANCH  43  44
ATOM     44  C   UNL A   1      39.784  29.052  28.883  1.00  0.00     0.031 A 
ATOM     45  C   UNL A   1      38.733  30.076  28.717  1.00  0.00     0.074 A 
ATOM     46  C   UNL A   1      40.719  29.195  29.851  1.00  0.00     0.049 A 
ATOM     47  N   UNL A   1      38.877  31.315  29.042  1.00  0.00    -0.248 NA
ATOM     48  C   UNL A   1      37.424  29.781  28.145  1.00  0.00     0.031 C 
ATOM     49  C   UNL A   1      40.736  30.176  30.932  1.00  0.00     0.029 A 
ATOM     50  N   UNL A   1      41.967  28.562  29.937  1.00  0.00    -0.354 N 
ATOM     51  C   UNL A   1      37.636  31.908  28.995  1.00  0.00     0.074 A 
ATOM     52  C   UNL A   1      36.773  30.926  28.380  1.00  0.00     0.031 C 
ATOM     53  C   UNL A   1      41.989  30.283  31.403  1.00  0.00     0.029 A 
ATOM     54  C   UNL A   1      42.843  29.493  30.534  1.00  0.00     0.049 A 
ATOM     55  H   UNL A   1      42.188  27.648  29.640  1.00  0.00     0.167 HD
ATOM     56  C   UNL A   1      37.445  33.114  29.604  1.00  0.00     0.037 A 
ATOM     57  C   UNL A   1      43.924  29.981  29.861  1.00  0.00     0.037 A 
ATOM     58  C   UNL A   1      38.683  33.617  30.189  1.00  0.00     0.049 A 
ATOM     59  C   UNL A   1      43.898  31.478  29.668  1.00  0.00     0.074 A 
ATOM     60  C   UNL A   1      39.196  33.560  31.476  1.00  0.00     0.029 A 
ATOM     61  N   UNL A   1      39.736  33.992  29.363  1.00  0.00    -0.354 N 
ATOM     62  N   UNL A   1      42.817  32.202  29.753  1.00  0.00    -0.248 NA
ATOM     63  C   UNL A   1      45.078  32.275  29.344  1.00  0.00     0.031 C 
ATOM     64  C   UNL A   1      40.578  33.856  31.413  1.00  0.00     0.029 A 
ATOM     65  C   UNL A   1      40.904  34.109  30.092  1.00  0.00     0.049 A 
ATOM     66  H   UNL A   1      39.659  34.153  28.394  1.00  0.00     0.167 HD
ATOM     67  C   UNL A   1      43.119  33.511  29.478  1.00  0.00     0.074 A 
ATOM     68  C   UNL A   1      44.551  33.508  29.248  1.00  0.00     0.031 C 
ATOM     69  C   UNL A   1      42.157  34.480  29.453  1.00  0.00     0.037 A 
BRANCH  56  70
ATOM     70  C   UNL A   1      36.076  33.665  29.922  1.00  0.00     0.057 A 
ATOM     71  C   UNL A   1      35.232  34.157  28.905  1.00  0.00     0.134 A 
ATOM     72  C   UNL A   1      35.551  33.783  31.220  1.00  0.00     0.134 A 
ATOM     73  F   UNL A   1      35.539  34.029  27.608  1.00  0.00    -0.206 F 
ATOM     74  C   UNL A   1      34.026  34.818  29.169  1.00  0.00     0.040 A 
ATOM     75  C   UNL A   1      34.372  34.489  31.503  1.00  0.00     0.040 A 
ATOM     76  F   UNL A   1      36.139  33.185  32.264  1.00  0.00    -0.206 F 
ATOM     77  C   UNL A   1      33.610  35.024  30.475  1.00  0.00     0.006 A 
ENDBRANCH  56  70
BRANCH  57  78
ATOM     78  C   UNL A   1      44.510  29.007  28.905  1.00  0.00     0.057 A 
ATOM     79  C   UNL A   1      44.149  29.100  27.549  1.00  0.00     0.134 A 
ATOM     80  C   UNL A   1      45.667  28.282  29.209  1.00  0.00     0.134 A 
ATOM     81  F   UNL A   1      43.049  29.782  27.191  1.00  0.00    -0.206 F 
ATOM     82  C   UNL A   1      44.964  28.597  26.532  1.00  0.00     0.040 A 
ATOM     83  C   UNL A   1      46.486  27.766  28.197  1.00  0.00     0.040 A 
ATOM     84  F   UNL A   1      46.087  28.170  30.476  1.00  0.00    -0.206 F 
ATOM     85  C   UNL A   1      46.156  27.957  26.856  1.00  0.00     0.006 A 
ENDBRANCH  57  78
BRANCH  69  86
ATOM     86  C   UNL A   1      42.319  35.886  28.926  1.00  0.00     0.057 A 
ATOM     87  C   UNL A   1      43.052  36.891  29.572  1.00  0.00     0.134 A 
ATOM     88  C   UNL A   1      41.848  36.226  27.636  1.00  0.00     0.134 A 
ATOM     89  F   UNL A   1      43.654  36.677  30.749  1.00  0.00    -0.206 F 
ATOM     90  C   UNL A   1      43.253  38.158  29.006  1.00  0.00     0.040 A 
ATOM     91  C   UNL A   1      42.089  37.467  27.039  1.00  0.00     0.040 A 
ATOM     92  F   UNL A   1      41.154  35.357  26.885  1.00  0.00    -0.206 F 
ATOM     93  C   UNL A   1      42.783  38.446  27.730  1.00  0.00     0.006 A 
ENDBRANCH  69  86
ENDBRANCH  43  44
ENDBRANCH  35  38
ENDBRANCH  33  34
ENDBRANCH  32  33
ENDBRANCH  31  32
ENDBRANCH  30  31
ENDBRANCH  29  30
ENDBRANCH   1  29
TORSDOF 19
ENDMDL
MODEL 3
REMARK VINA RESULT:     -11.4      3.374      8.703
REMARK SMILES Cc1ccc(OCC(=O)NC(=S)Nc2ccc(C(=O)NCCCCCCNC(=O)c3ccc(-c4c5nc(c(-c6c(F)cccc6F)c6ccc([nH]6)c(-c6c(F)cccc6F)c6nc(c(-c7c(F)cccc7F)c7ccc4[nH]7)C=C6)C=C5)cc3)cc2)cc1
REMARK SMILES IDX 21 1 20 2 18 3 19 4 17 6 14 7 15 8 85 9 16 10 84 11 13 12
REMARK SMILES IDX 11 14 12 15 10 16 8 17 9 18 7 20 6 21 5 22 1 23 2 24 3 25
REMARK SMILES IDX 87 26 4 27 86 28 22 29 23 30 24 31 25 32 26 33 27 34 28 35
REMARK SMILES IDX 29 37 30 38 31 39 83 40 32 41 82 42 33 43 34 44 35 45 76 46
REMARK SMILES IDX 36 47 81 48 75 49 77 50 37 51 80 52 74 53 73 54 38 56 64 57
REMARK SMILES IDX 47 58 63 59 48 60 51 61 62 62 78 63 49 64 50 65 61 67 79 68
REMARK SMILES IDX 52 69 39 70 40 71 45 72 41 73 42 74 44 75 46 76 43 77 65 78
REMARK SMILES IDX 66 79 71 80 67 81 68 82 70 83 72 84 69 85 53 86 54 87 59 88
REMARK SMILES IDX 55 89 56 90 58 91 60 92 57 93
REMARK H PARENT 20 5 13 13 10 19 27 36 77 55 51 66
REMARK Flexibility Score: inf
ROOT
ATOM      1  C   UNL A   1      30.308  30.674  24.757  1.00  0.00     0.116 C 
ENDROOT
BRANCH   1   2
ATOM      2  N   UNL A   1      30.198  30.588  23.308  1.00  0.00    -0.352 N 
ATOM      3  C   UNL A   1      30.054  29.491  22.494  1.00  0.00     0.251 C 
ATOM      4  O   UNL A   1      29.800  29.631  21.302  1.00  0.00    -0.269 OA
ATOM      5  H   UNL A   1      30.233  31.453  22.838  1.00  0.00     0.163 HD
BRANCH   3   6
ATOM      6  C   UNL A   1      30.139  28.132  23.061  1.00  0.00     0.039 A 
ATOM      7  C   UNL A   1      30.301  25.469  23.831  1.00  0.00     0.040 A 
ATOM      8  C   UNL A   1      29.099  26.163  23.985  1.00  0.00     0.027 A 
ATOM      9  C   UNL A   1      31.460  26.141  23.433  1.00  0.00     0.027 A 
ATOM     10  C   UNL A   1      29.004  27.488  23.561  1.00  0.00     0.016 A 
ATOM     11  C   UNL A   1      31.382  27.489  23.075  1.00  0.00     0.016 A 
BRANCH   7  12
ATOM     12  N   UNL A   1      30.281  24.092  24.072  1.00  0.00    -0.332 N 
ATOM     13  H   UNL A   1      29.569  23.595  23.605  1.00  0.00     0.169 HD
BRANCH  12  14
ATOM     14  C   UNL A   1      31.090  23.345  24.848  1.00  0.00     0.177 C 
ATOM     15  S   UNL A   1      31.308  23.793  26.446  1.00  0.00    -0.040 S 
BRANCH  14  16
ATOM     16  N   UNL A   1      31.699  22.192  24.418  1.00  0.00    -0.300 N 
ATOM     17  C   UNL A   1      32.559  21.735  23.429  1.00  0.00     0.264 C 
ATOM     18  O   UNL A   1      32.938  20.559  23.512  1.00  0.00    -0.271 OA
ATOM     19  H   UNL A   1      31.442  21.443  25.005  1.00  0.00     0.172 HD
BRANCH  17  20
ATOM     20  C   UNL A   1      33.011  22.593  22.252  1.00  0.00     0.329 C 
BRANCH  20  21
ATOM     21  O   UNL A   1      33.704  23.754  22.669  1.00  0.00    -0.484 OA
BRANCH  21  22
ATOM     22  C   UNL A   1      34.787  23.619  23.492  1.00  0.00     0.120 A 
ATOM     23  C   UNL A   1      38.116  23.804  26.241  1.00  0.00     0.044 C 
ATOM     24  C   UNL A   1      36.954  23.703  25.298  1.00  0.00    -0.051 A 
ATOM     25  C   UNL A   1      35.773  24.396  25.573  1.00  0.00     0.007 A 
ATOM     26  C   UNL A   1      37.031  22.947  24.123  1.00  0.00     0.007 A 
ATOM     27  C   UNL A   1      34.706  24.360  24.673  1.00  0.00     0.047 A 
ATOM     28  C   UNL A   1      35.953  22.900  23.227  1.00  0.00     0.047 A 
ENDBRANCH  21  22
ENDBRANCH  20  21
ENDBRANCH  17  20
ENDBRANCH  14  16
ENDBRANCH  12  14
ENDBRANCH   7  12
ENDBRANCH   3   6
ENDBRANCH   1   2
BRANCH   1  29
ATOM     29  C   UNL A   1      31.665  30.178  25.261  1.00  0.00     0.021 C 
BRANCH  29  30
ATOM     30  C   UNL A   1      31.607  29.114  26.369  1.00  0.00     0.002 C 
BRANCH  30  31
ATOM     31  C   UNL A   1      32.928  28.413  26.726  1.00  0.00     0.002 C 
BRANCH  31  32
ATOM     32  C   UNL A   1      34.206  29.215  26.467  1.00  0.00     0.021 C 
BRANCH  32  33
ATOM     33  C   UNL A   1      34.651  30.095  27.626  1.00  0.00     0.116 C 
BRANCH  33  34
ATOM     34  N   UNL A   1      33.982  31.398  27.696  1.00  0.00    -0.352 N 
ATOM     35  C   UNL A   1      34.256  32.509  28.468  1.00  0.00     0.251 C 
ATOM     36  H   UNL A   1      33.210  31.498  27.092  1.00  0.00     0.163 HD
ATOM     37  O   UNL A   1      33.539  33.484  28.407  1.00  0.00    -0.269 OA
BRANCH  35  38
ATOM     38  C   UNL A   1      35.519  32.571  29.267  1.00  0.00     0.039 A 
ATOM     39  C   UNL A   1      36.608  33.258  28.711  1.00  0.00     0.014 A 
ATOM     40  C   UNL A   1      35.698  31.798  30.406  1.00  0.00     0.014 A 
ATOM     41  C   UNL A   1      37.899  32.940  29.124  1.00  0.00     0.010 A 
ATOM     42  C   UNL A   1      36.973  31.393  30.736  1.00  0.00     0.010 A 
ATOM     43  C   UNL A   1      38.071  31.910  30.043  1.00  0.00    -0.014 A 
BRANCH  43  44
ATOM     44  C   UNL A   1      39.323  31.182  30.216  1.00  0.00     0.031 A 
ATOM     45  C   UNL A   1      39.560  29.895  29.535  1.00  0.00     0.074 A 
ATOM     46  C   UNL A   1      40.334  31.798  30.870  1.00  0.00     0.049 A 
ATOM     47  N   UNL A   1      40.463  29.046  29.893  1.00  0.00    -0.248 NA
ATOM     48  C   UNL A   1      38.775  29.447  28.389  1.00  0.00     0.031 C 
ATOM     49  C   UNL A   1      41.751  31.445  30.849  1.00  0.00     0.029 A 
ATOM     50  N   UNL A   1      40.240  32.792  31.854  1.00  0.00    -0.354 N 
ATOM     51  C   UNL A   1      40.572  28.104  28.896  1.00  0.00     0.074 A 
ATOM     52  C   UNL A   1      39.464  28.366  28.007  1.00  0.00     0.031 C 
ATOM     53  C   UNL A   1      42.351  31.986  31.921  1.00  0.00     0.029 A 
ATOM     54  C   UNL A   1      41.309  32.570  32.747  1.00  0.00     0.049 A 
ATOM     55  H   UNL A   1      39.562  33.505  31.909  1.00  0.00     0.167 HD
ATOM     56  C   UNL A   1      41.666  27.290  28.859  1.00  0.00     0.037 A 
ATOM     57  C   UNL A   1      41.086  32.245  34.053  1.00  0.00     0.037 A 
ATOM     58  C   UNL A   1      42.557  27.544  29.987  1.00  0.00     0.049 A 
ATOM     59  C   UNL A   1      41.646  30.901  34.452  1.00  0.00     0.074 A 
ATOM     60  C   UNL A   1      43.701  28.317  30.114  1.00  0.00     0.029 A 
ATOM     61  N   UNL A   1      42.143  27.239  31.278  1.00  0.00    -0.354 N 
ATOM     62  N   UNL A   1      41.952  29.960  33.603  1.00  0.00    -0.248 NA
ATOM     63  C   UNL A   1      41.887  30.501  35.836  1.00  0.00     0.031 C 
ATOM     64  C   UNL A   1      43.945  28.517  31.493  1.00  0.00     0.029 A 
ATOM     65  C   UNL A   1      42.962  27.853  32.206  1.00  0.00     0.049 A 
ATOM     66  H   UNL A   1      41.374  26.664  31.500  1.00  0.00     0.167 HD
ATOM     67  C   UNL A   1      42.387  28.852  34.283  1.00  0.00     0.074 A 
ATOM     68  C   UNL A   1      42.347  29.248  35.677  1.00  0.00     0.031 C 
ATOM     69  C   UNL A   1      42.730  27.701  33.633  1.00  0.00     0.037 A 
BRANCH  56  70
ATOM     70  C   UNL A   1      42.057  26.494  27.637  1.00  0.00     0.057 A 
ATOM     71  C   UNL A   1      41.695  25.139  27.501  1.00  0.00     0.134 A 
ATOM     72  C   UNL A   1      42.834  26.997  26.580  1.00  0.00     0.134 A 
ATOM     73  F   UNL A   1      40.873  24.536  28.369  1.00  0.00    -0.206 F 
ATOM     74  C   UNL A   1      42.167  24.323  26.465  1.00  0.00     0.040 A 
ATOM     75  C   UNL A   1      43.358  26.180  25.565  1.00  0.00     0.040 A 
ATOM     76  F   UNL A   1      43.087  28.307  26.464  1.00  0.00    -0.206 F 
ATOM     77  C   UNL A   1      43.036  24.832  25.513  1.00  0.00     0.006 A 
ENDBRANCH  56  70
BRANCH  57  78
ATOM     78  C   UNL A   1      39.848  32.852  34.606  1.00  0.00     0.057 A 
ATOM     79  C   UNL A   1      38.676  32.077  34.632  1.00  0.00     0.134 A 
ATOM     80  C   UNL A   1      39.889  33.976  35.437  1.00  0.00     0.134 A 
ATOM     81  F   UNL A   1      38.575  30.984  33.857  1.00  0.00    -0.206 F 
ATOM     82  C   UNL A   1      37.638  32.338  35.529  1.00  0.00     0.040 A 
ATOM     83  C   UNL A   1      38.850  34.253  36.334  1.00  0.00     0.040 A 
ATOM     84  F   UNL A   1      40.982  34.751  35.484  1.00  0.00    -0.206 F 
ATOM     85  C   UNL A   1      37.740  33.411  36.410  1.00  0.00     0.006 A 
ENDBRANCH  57  78
BRANCH  69  86
ATOM     86  C   UNL A   1      42.978  26.355  34.273  1.00  0.00     0.057 A 
ATOM     87  C   UNL A   1      42.014  25.635  34.993  1.00  0.00     0.134 A 
ATOM     88  C   UNL A   1      44.190  25.664  34.041  1.00  0.00     0.134 A 
ATOM     89  F   UNL A   1      40.781  26.116  35.192  1.00  0.00    -0.206 F 
ATOM     90  C   UNL A   1      42.256  24.348  35.495  1.00  0.00     0.040 A 
ATOM     91  C   UNL A   1      44.422  24.360  34.491  1.00  0.00     0.040 A 
ATOM     92  F   UNL A   1      45.195  26.214  33.344  1.00  0.00    -0.206 F 
ATOM     93  C   UNL A   1      43.457  23.701  35.234  1.00  0.00     0.006 A 
ENDBRANCH  69  86
ENDBRANCH  43  44
ENDBRANCH  35  38
ENDBRANCH  33  34
ENDBRANCH  32  33
ENDBRANCH  31  32
ENDBRANCH  30  31
ENDBRANCH  29  30
ENDBRANCH   1  29
TORSDOF 19
ENDMDL
