MODEL 1
REMARK VINA RESULT:     -12.5      0.000      0.000
REMARK SMILES O=C(NCCCCCCNC(=O)[C@@H](Cc1ccc(F)cc1)NC(=O)c1ccn(C2CCCC2)n1)c1ccc(-c2c3nc(c(-c4c(F)cccc4F)c4ccc([nH]4)c(-c4c(F)cccc4F)c4nc(c(-c5c(F)cccc5F)c5ccc2[nH]5)C=C4)C=C3)cc1
REMARK SMILES IDX 7 1 6 2 5 3 4 4 3 5 1 6 2 7 35 9 36 10 88 11 37 12 87 13
REMARK SMILES IDX 38 14 39 15 40 16 81 17 41 18 86 19 80 20 82 21 42 22 85 23
REMARK SMILES IDX 79 24 78 25 43 27 69 28 52 29 68 30 53 31 56 32 67 33 83 34
REMARK SMILES IDX 54 35 55 36 66 38 84 39 57 40 44 41 45 42 50 43 46 44 47 45
REMARK SMILES IDX 49 46 51 47 48 48 70 49 71 50 76 51 72 52 73 53 75 54 77 55
REMARK SMILES IDX 74 56 58 57 59 58 64 59 60 60 61 61 63 62 65 63 62 64 8 65
REMARK SMILES IDX 9 66 10 67 11 68 12 70 13 71 14 72 15 73 16 74 21 75 17 76
REMARK SMILES IDX 20 77 18 78 19 79 22 80 23 81 24 83 25 84 26 85 34 86 27 87
REMARK SMILES IDX 28 88 29 89 30 90 33 91 31 92 32 93
REMARK H PARENT 3 8 82 26 56 37 10 69 22 82
REMARK Flexibility Score: inf
ROOT
ATOM      1  C   UNL A   1      32.436  28.557  27.151  1.00  0.00     0.002 C 
ENDROOT
BRANCH   1   2
ATOM      2  C   UNL A   1      33.913  28.547  26.745  1.00  0.00     0.002 C 
BRANCH   2   3
ATOM      3  C   UNL A   1      34.841  29.456  27.563  1.00  0.00     0.021 C 
BRANCH   3   4
ATOM      4  C   UNL A   1      34.433  30.929  27.610  1.00  0.00     0.116 C 
BRANCH   4   5
ATOM      5  N   UNL A   1      34.429  31.503  28.938  1.00  0.00    -0.352 N 
ATOM      6  O   UNL A   1      35.009  32.286  30.919  1.00  0.00    -0.269 OA
ATOM      7  C   UNL A   1      35.351  31.621  29.939  1.00  0.00     0.251 C 
ATOM      8  H   UNL A   1      33.561  31.901  29.176  1.00  0.00     0.163 HD
BRANCH   7   9
ATOM      9  C   UNL A   1      36.678  30.947  29.961  1.00  0.00     0.039 A 
ATOM     10  C   UNL A   1      37.871  31.461  29.453  1.00  0.00     0.014 A 
ATOM     11  C   UNL A   1      36.688  29.657  30.525  1.00  0.00     0.014 A 
ATOM     12  C   UNL A   1      39.014  30.667  29.399  1.00  0.00     0.010 A 
ATOM     13  C   UNL A   1      37.828  28.868  30.497  1.00  0.00     0.010 A 
ATOM     14  C   UNL A   1      38.980  29.358  29.889  1.00  0.00    -0.014 A 
BRANCH  14  15
ATOM     15  C   UNL A   1      40.221  28.587  29.919  1.00  0.00     0.031 A 
ATOM     16  C   UNL A   1      40.836  28.481  31.279  1.00  0.00     0.074 A 
ATOM     17  C   UNL A   1      40.671  27.880  28.860  1.00  0.00     0.049 A 
ATOM     18  N   UNL A   1      42.033  28.803  31.651  1.00  0.00    -0.248 NA
ATOM     19  C   UNL A   1      39.962  28.066  32.392  1.00  0.00     0.031 C 
ATOM     20  C   UNL A   1      40.008  27.670  27.570  1.00  0.00     0.029 A 
ATOM     21  N   UNL A   1      41.789  27.106  28.747  1.00  0.00    -0.354 N 
ATOM     22  C   UNL A   1      42.122  28.456  33.001  1.00  0.00     0.074 A 
ATOM     23  C   UNL A   1      40.787  28.149  33.435  1.00  0.00     0.031 C 
ATOM     24  C   UNL A   1      40.613  26.656  26.910  1.00  0.00     0.029 A 
ATOM     25  C   UNL A   1      41.780  26.233  27.663  1.00  0.00     0.049 A 
ATOM     26  H   UNL A   1      42.540  27.161  29.381  1.00  0.00     0.167 HD
ATOM     27  C   UNL A   1      43.323  28.231  33.603  1.00  0.00     0.037 A 
ATOM     28  C   UNL A   1      42.638  25.203  27.440  1.00  0.00     0.037 A 
ATOM     29  C   UNL A   1      44.391  28.876  32.887  1.00  0.00     0.049 A 
ATOM     30  C   UNL A   1      43.837  25.434  28.280  1.00  0.00     0.074 A 
ATOM     31  C   UNL A   1      44.696  30.185  32.568  1.00  0.00     0.029 A 
ATOM     32  N   UNL A   1      45.180  28.105  32.072  1.00  0.00    -0.354 N 
ATOM     33  N   UNL A   1      44.684  26.405  28.093  1.00  0.00    -0.248 NA
ATOM     34  C   UNL A   1      43.839  24.844  29.610  1.00  0.00     0.031 C 
ATOM     35  C   UNL A   1      45.250  30.121  31.255  1.00  0.00     0.029 A 
ATOM     36  C   UNL A   1      45.313  28.777  30.887  1.00  0.00     0.049 A 
ATOM     37  H   UNL A   1      45.575  27.232  32.297  1.00  0.00     0.167 HD
ATOM     38  C   UNL A   1      45.008  26.837  29.369  1.00  0.00     0.074 A 
ATOM     39  C   UNL A   1      44.510  25.794  30.264  1.00  0.00     0.031 C 
ATOM     40  C   UNL A   1      45.389  28.126  29.602  1.00  0.00     0.037 A 
BRANCH  27  41
ATOM     41  C   UNL A   1      43.570  27.121  34.602  1.00  0.00     0.057 A 
ATOM     42  C   UNL A   1      43.529  27.288  36.002  1.00  0.00     0.134 A 
ATOM     43  C   UNL A   1      43.542  25.783  34.165  1.00  0.00     0.134 A 
ATOM     44  F   UNL A   1      43.483  28.491  36.584  1.00  0.00    -0.206 F 
ATOM     45  C   UNL A   1      43.430  26.216  36.893  1.00  0.00     0.040 A 
ATOM     46  C   UNL A   1      43.392  24.705  35.047  1.00  0.00     0.040 A 
ATOM     47  F   UNL A   1      43.567  25.483  32.857  1.00  0.00    -0.206 F 
ATOM     48  C   UNL A   1      43.324  24.920  36.417  1.00  0.00     0.006 A 
ENDBRANCH  27  41
BRANCH  28  49
ATOM     49  C   UNL A   1      42.355  23.863  26.863  1.00  0.00     0.057 A 
ATOM     50  C   UNL A   1      41.343  23.038  27.385  1.00  0.00     0.134 A 
ATOM     51  C   UNL A   1      43.270  23.238  26.000  1.00  0.00     0.134 A 
ATOM     52  F   UNL A   1      40.456  23.509  28.272  1.00  0.00    -0.206 F 
ATOM     53  C   UNL A   1      41.263  21.672  27.092  1.00  0.00     0.040 A 
ATOM     54  C   UNL A   1      43.204  21.868  25.704  1.00  0.00     0.040 A 
ATOM     55  F   UNL A   1      44.297  23.927  25.482  1.00  0.00    -0.206 F 
ATOM     56  C   UNL A   1      42.206  21.077  26.263  1.00  0.00     0.006 A 
ENDBRANCH  28  49
BRANCH  40  57
ATOM     57  C   UNL A   1      45.675  29.009  28.418  1.00  0.00     0.057 A 
ATOM     58  C   UNL A   1      47.004  29.182  28.021  1.00  0.00     0.134 A 
ATOM     59  C   UNL A   1      44.715  29.817  27.789  1.00  0.00     0.134 A 
ATOM     60  F   UNL A   1      47.983  28.480  28.613  1.00  0.00    -0.206 F 
ATOM     61  C   UNL A   1      47.369  30.122  27.055  1.00  0.00     0.040 A 
ATOM     62  C   UNL A   1      45.063  30.738  26.795  1.00  0.00     0.040 A 
ATOM     63  F   UNL A   1      43.429  29.789  28.162  1.00  0.00    -0.206 F 
ATOM     64  C   UNL A   1      46.397  30.901  26.433  1.00  0.00     0.006 A 
ENDBRANCH  40  57
ENDBRANCH  14  15
ENDBRANCH   7   9
ENDBRANCH   4   5
ENDBRANCH   3   4
ENDBRANCH   2   3
ENDBRANCH   1   2
BRANCH   1  65
ATOM     65  C   UNL A   1      31.501  29.175  26.114  1.00  0.00     0.021 C 
BRANCH  65  66
ATOM     66  C   UNL A   1      32.095  29.339  24.716  1.00  0.00     0.116 C 
BRANCH  66  67
ATOM     67  N   UNL A   1      31.039  29.397  23.732  1.00  0.00    -0.354 N 
ATOM     68  C   UNL A   1      30.664  28.511  22.773  1.00  0.00     0.242 C 
ATOM     69  H   UNL A   1      30.500  30.220  23.760  1.00  0.00     0.163 HD
ATOM     70  O   UNL A   1      29.986  28.964  21.843  1.00  0.00    -0.273 OA
BRANCH  68  71
ATOM     71  C   UNL A   1      31.083  27.021  22.760  1.00  0.00     0.176 C 
BRANCH  71  72
ATOM     72  C   UNL A   1      30.131  26.023  23.461  1.00  0.00     0.070 C 
BRANCH  72  73
ATOM     73  C   UNL A   1      30.662  25.056  24.498  1.00  0.00    -0.045 A 
ATOM     74  C   UNL A   1      30.806  23.683  24.237  1.00  0.00     0.007 A 
ATOM     75  C   UNL A   1      31.076  25.544  25.751  1.00  0.00     0.007 A 
ATOM     76  C   UNL A   1      31.214  22.805  25.245  1.00  0.00     0.039 A 
ATOM     77  C   UNL A   1      31.512  24.670  26.750  1.00  0.00     0.039 A 
ATOM     78  C   UNL A   1      31.547  23.304  26.497  1.00  0.00     0.123 A 
ATOM     79  F   UNL A   1      31.868  22.458  27.483  1.00  0.00    -0.207 F 
ENDBRANCH  72  73
ENDBRANCH  71  72
BRANCH  71  80
ATOM     80  N   UNL A   1      31.594  26.560  21.469  1.00  0.00    -0.339 N 
ATOM     81  C   UNL A   1      32.715  25.809  21.201  1.00  0.00     0.272 C 
ATOM     82  H   UNL A   1      31.062  26.822  20.684  1.00  0.00     0.164 HD
ATOM     83  O   UNL A   1      33.023  25.653  20.015  1.00  0.00    -0.267 OA
BRANCH  81  84
ATOM     84  C   UNL A   1      33.493  25.245  22.311  1.00  0.00     0.150 A 
ATOM     85  C   UNL A   1      33.889  25.868  23.527  1.00  0.00     0.056 A 
ATOM     86  N   UNL A   1      33.949  23.981  22.264  1.00  0.00    -0.167 NA
ATOM     87  C   UNL A   1      34.673  24.945  24.177  1.00  0.00     0.110 A 
ATOM     88  N   UNL A   1      34.662  23.829  23.393  1.00  0.00    -0.269 N 
BRANCH  88  89
ATOM     89  C   UNL A   1      35.300  22.566  23.690  1.00  0.00     0.107 C 
ATOM     90  C   UNL A   1      36.784  22.695  24.028  1.00  0.00     0.027 C 
ATOM     91  C   UNL A   1      34.731  21.833  24.906  1.00  0.00     0.027 C 
ATOM     92  C   UNL A   1      37.121  21.348  24.652  1.00  0.00     0.002 C 
ATOM     93  C   UNL A   1      35.838  20.870  25.334  1.00  0.00     0.002 C 
ENDBRANCH  88  89
ENDBRANCH  81  84
ENDBRANCH  71  80
ENDBRANCH  68  71
ENDBRANCH  66  67
ENDBRANCH  65  66
ENDBRANCH   1  65
TORSDOF 18
ENDMDL
MODEL 2
REMARK VINA RESULT:     -12.4      1.706      2.870
REMARK SMILES O=C(NCCCCCCNC(=O)[C@@H](Cc1ccc(F)cc1)NC(=O)c1ccn(C2CCCC2)n1)c1ccc(-c2c3nc(c(-c4c(F)cccc4F)c4ccc([nH]4)c(-c4c(F)cccc4F)c4nc(c(-c5c(F)cccc5F)c5ccc2[nH]5)C=C4)C=C3)cc1
REMARK SMILES IDX 7 1 6 2 5 3 4 4 3 5 1 6 2 7 35 9 36 10 88 11 37 12 87 13
REMARK SMILES IDX 38 14 39 15 40 16 81 17 41 18 86 19 80 20 82 21 42 22 85 23
REMARK SMILES IDX 79 24 78 25 43 27 69 28 52 29 68 30 53 31 56 32 67 33 83 34
REMARK SMILES IDX 54 35 55 36 66 38 84 39 57 40 44 41 45 42 50 43 46 44 47 45
REMARK SMILES IDX 49 46 51 47 48 48 70 49 71 50 76 51 72 52 73 53 75 54 77 55
REMARK SMILES IDX 74 56 58 57 59 58 64 59 60 60 61 61 63 62 65 63 62 64 8 65
REMARK SMILES IDX 9 66 10 67 11 68 12 70 13 71 14 72 15 73 16 74 21 75 17 76
REMARK SMILES IDX 20 77 18 78 19 79 22 80 23 81 24 83 25 84 26 85 34 86 27 87
REMARK SMILES IDX 28 88 29 89 30 90 33 91 31 92 32 93
REMARK H PARENT 3 8 82 26 56 37 10 69 22 82
REMARK Flexibility Score: inf
ROOT
ATOM      1  C   UNL A   1      32.602  29.304  26.425  1.00  0.00     0.002 C 
ENDROOT
BRANCH   1   2
ATOM      2  C   UNL A   1      33.858  28.635  26.991  1.00  0.00     0.002 C 
BRANCH   2   3
ATOM      3  C   UNL A   1      34.928  29.581  27.555  1.00  0.00     0.021 C 
BRANCH   3   4
ATOM      4  C   UNL A   1      34.526  31.054  27.618  1.00  0.00     0.116 C 
BRANCH   4   5
ATOM      5  N   UNL A   1      34.552  31.621  28.949  1.00  0.00    -0.352 N 
ATOM      6  O   UNL A   1      35.171  32.355  30.937  1.00  0.00    -0.269 OA
ATOM      7  C   UNL A   1      35.474  31.673  29.955  1.00  0.00     0.251 C 
ATOM      8  H   UNL A   1      33.711  32.075  29.184  1.00  0.00     0.163 HD
BRANCH   7   9
ATOM      9  C   UNL A   1      36.753  30.913  29.982  1.00  0.00     0.039 A 
ATOM     10  C   UNL A   1      38.004  31.392  29.593  1.00  0.00     0.014 A 
ATOM     11  C   UNL A   1      36.649  29.577  30.415  1.00  0.00     0.014 A 
ATOM     12  C   UNL A   1      39.097  30.532  29.522  1.00  0.00     0.010 A 
ATOM     13  C   UNL A   1      37.739  28.720  30.369  1.00  0.00     0.010 A 
ATOM     14  C   UNL A   1      38.953  29.187  29.876  1.00  0.00    -0.014 A 
BRANCH  14  15
ATOM     15  C   UNL A   1      40.140  28.335  29.896  1.00  0.00     0.031 A 
ATOM     16  C   UNL A   1      40.757  28.187  31.251  1.00  0.00     0.074 A 
ATOM     17  C   UNL A   1      40.535  27.601  28.833  1.00  0.00     0.049 A 
ATOM     18  N   UNL A   1      41.975  28.428  31.615  1.00  0.00    -0.248 NA
ATOM     19  C   UNL A   1      39.866  27.829  32.371  1.00  0.00     0.031 C 
ATOM     20  C   UNL A   1      39.849  27.439  27.548  1.00  0.00     0.029 A 
ATOM     21  N   UNL A   1      41.597  26.756  28.711  1.00  0.00    -0.354 N 
ATOM     22  C   UNL A   1      42.051  28.073  32.964  1.00  0.00     0.074 A 
ATOM     23  C   UNL A   1      40.702  27.856  33.407  1.00  0.00     0.031 C 
ATOM     24  C   UNL A   1      40.380  26.387  26.883  1.00  0.00     0.029 A 
ATOM     25  C   UNL A   1      41.523  25.887  27.626  1.00  0.00     0.049 A 
ATOM     26  H   UNL A   1      42.355  26.759  29.339  1.00  0.00     0.167 HD
ATOM     27  C   UNL A   1      43.239  27.768  33.556  1.00  0.00     0.037 A 
ATOM     28  C   UNL A   1      42.308  24.802  27.396  1.00  0.00     0.037 A 
ATOM     29  C   UNL A   1      44.342  28.342  32.834  1.00  0.00     0.049 A 
ATOM     30  C   UNL A   1      43.526  24.951  28.227  1.00  0.00     0.074 A 
ATOM     31  C   UNL A   1      44.731  29.628  32.513  1.00  0.00     0.029 A 
ATOM     32  N   UNL A   1      45.072  27.521  32.012  1.00  0.00    -0.354 N 
ATOM     33  N   UNL A   1      44.435  25.864  28.034  1.00  0.00    -0.248 NA
ATOM     34  C   UNL A   1      43.499  24.361  29.556  1.00  0.00     0.031 C 
ATOM     35  C   UNL A   1      45.270  29.530  31.196  1.00  0.00     0.029 A 
ATOM     36  C   UNL A   1      45.240  28.185  30.826  1.00  0.00     0.049 A 
ATOM     37  H   UNL A   1      45.410  26.624  32.233  1.00  0.00     0.167 HD
ATOM     38  C   UNL A   1      44.796  26.272  29.308  1.00  0.00     0.074 A 
ATOM     39  C   UNL A   1      44.236  25.263  30.206  1.00  0.00     0.031 C 
ATOM     40  C   UNL A   1      45.264  27.533  29.540  1.00  0.00     0.037 A 
BRANCH  27  41
ATOM     41  C   UNL A   1      43.419  26.643  34.552  1.00  0.00     0.057 A 
ATOM     42  C   UNL A   1      43.729  25.313  34.202  1.00  0.00     0.134 A 
ATOM     43  C   UNL A   1      43.596  26.952  35.915  1.00  0.00     0.134 A 
ATOM     44  F   UNL A   1      43.679  24.868  32.941  1.00  0.00    -0.206 F 
ATOM     45  C   UNL A   1      44.212  24.376  35.121  1.00  0.00     0.040 A 
ATOM     46  C   UNL A   1      44.127  26.036  36.833  1.00  0.00     0.040 A 
ATOM     47  F   UNL A   1      43.345  28.185  36.381  1.00  0.00    -0.206 F 
ATOM     48  C   UNL A   1      44.447  24.745  36.434  1.00  0.00     0.006 A 
ENDBRANCH  27  41
BRANCH  28  49
ATOM     49  C   UNL A   1      41.932  23.485  26.820  1.00  0.00     0.057 A 
ATOM     50  C   UNL A   1      40.810  22.776  27.281  1.00  0.00     0.134 A 
ATOM     51  C   UNL A   1      42.837  22.754  26.032  1.00  0.00     0.134 A 
ATOM     52  F   UNL A   1      39.916  23.350  28.097  1.00  0.00    -0.206 F 
ATOM     53  C   UNL A   1      40.614  21.418  27.003  1.00  0.00     0.040 A 
ATOM     54  C   UNL A   1      42.655  21.391  25.751  1.00  0.00     0.040 A 
ATOM     55  F   UNL A   1      43.961  23.327  25.577  1.00  0.00    -0.206 F 
ATOM     56  C   UNL A   1      41.546  20.715  26.250  1.00  0.00     0.006 A 
ENDBRANCH  28  49
BRANCH  40  57
ATOM     57  C   UNL A   1      45.599  28.396  28.355  1.00  0.00     0.057 A 
ATOM     58  C   UNL A   1      46.909  28.380  27.867  1.00  0.00     0.134 A 
ATOM     59  C   UNL A   1      44.732  29.357  27.811  1.00  0.00     0.134 A 
ATOM     60  F   UNL A   1      47.808  27.522  28.375  1.00  0.00    -0.206 F 
ATOM     61  C   UNL A   1      47.346  29.281  26.894  1.00  0.00     0.040 A 
ATOM     62  C   UNL A   1      45.147  30.243  26.811  1.00  0.00     0.040 A 
ATOM     63  F   UNL A   1      43.485  29.511  28.274  1.00  0.00    -0.206 F 
ATOM     64  C   UNL A   1      46.463  30.215  26.358  1.00  0.00     0.006 A 
ENDBRANCH  40  57
ENDBRANCH  14  15
ENDBRANCH   7   9
ENDBRANCH   4   5
ENDBRANCH   3   4
ENDBRANCH   2   3
ENDBRANCH   1   2
BRANCH   1  65
ATOM     65  C   UNL A   1      31.985  28.582  25.230  1.00  0.00     0.021 C 
BRANCH  65  66
ATOM     66  C   UNL A   1      32.967  28.195  24.124  1.00  0.00     0.116 C 
BRANCH  66  67
ATOM     67  N   UNL A   1      32.388  27.176  23.280  1.00  0.00    -0.354 N 
ATOM     68  C   UNL A   1      32.477  25.822  23.328  1.00  0.00     0.242 C 
ATOM     69  H   UNL A   1      31.834  27.523  22.543  1.00  0.00     0.163 HD
ATOM     70  O   UNL A   1      32.199  25.217  22.285  1.00  0.00    -0.273 OA
BRANCH  68  71
ATOM     71  C   UNL A   1      32.953  25.029  24.568  1.00  0.00     0.176 C 
BRANCH  71  72
ATOM     72  C   UNL A   1      34.408  25.271  25.036  1.00  0.00     0.070 C 
BRANCH  72  73
ATOM     73  C   UNL A   1      35.439  24.168  24.937  1.00  0.00    -0.045 A 
ATOM     74  C   UNL A   1      35.460  23.256  23.868  1.00  0.00     0.007 A 
ATOM     75  C   UNL A   1      36.446  24.071  25.915  1.00  0.00     0.007 A 
ATOM     76  C   UNL A   1      36.370  22.195  23.854  1.00  0.00     0.039 A 
ATOM     77  C   UNL A   1      37.374  23.028  25.885  1.00  0.00     0.039 A 
ATOM     78  C   UNL A   1      37.307  22.080  24.872  1.00  0.00     0.123 A 
ATOM     79  F   UNL A   1      38.131  21.026  24.897  1.00  0.00    -0.207 F 
ENDBRANCH  72  73
ENDBRANCH  71  72
BRANCH  71  80
ATOM     80  N   UNL A   1      31.972  24.979  25.653  1.00  0.00    -0.339 N 
ATOM     81  C   UNL A   1      31.661  23.933  26.490  1.00  0.00     0.272 C 
ATOM     82  H   UNL A   1      31.467  25.809  25.805  1.00  0.00     0.164 HD
ATOM     83  O   UNL A   1      30.698  24.082  27.250  1.00  0.00    -0.267 OA
BRANCH  81  84
ATOM     84  C   UNL A   1      32.460  22.703  26.443  1.00  0.00     0.150 A 
ATOM     85  C   UNL A   1      33.449  22.248  27.360  1.00  0.00     0.056 A 
ATOM     86  N   UNL A   1      32.324  21.827  25.432  1.00  0.00    -0.167 NA
ATOM     87  C   UNL A   1      33.958  21.095  26.813  1.00  0.00     0.110 A 
ATOM     88  N   UNL A   1      33.240  20.875  25.674  1.00  0.00    -0.269 N 
BRANCH  88  89
ATOM     89  C   UNL A   1      33.372  19.743  24.783  1.00  0.00     0.107 C 
ATOM     90  C   UNL A   1      32.927  18.421  25.403  1.00  0.00     0.027 C 
ATOM     91  C   UNL A   1      32.528  19.831  23.511  1.00  0.00     0.027 C 
ATOM     92  C   UNL A   1      32.800  17.494  24.202  1.00  0.00     0.002 C 
ATOM     93  C   UNL A   1      32.405  18.387  23.025  1.00  0.00     0.002 C 
ENDBRANCH  88  89
ENDBRANCH  81  84
ENDBRANCH  71  80
ENDBRANCH  68  71
ENDBRANCH  66  67
ENDBRANCH  65  66
ENDBRANCH   1  65
TORSDOF 18
ENDMDL
MODEL 3
REMARK VINA RESULT:     -12.4      3.208      8.052
REMARK SMILES O=C(NCCCCCCNC(=O)[C@@H](Cc1ccc(F)cc1)NC(=O)c1ccn(C2CCCC2)n1)c1ccc(-c2c3nc(c(-c4c(F)cccc4F)c4ccc([nH]4)c(-c4c(F)cccc4F)c4nc(c(-c5c(F)cccc5F)c5ccc2[nH]5)C=C4)C=C3)cc1
REMARK SMILES IDX 7 1 6 2 5 3 4 4 3 5 1 6 2 7 35 9 36 10 88 11 37 12 87 13
REMARK SMILES IDX 38 14 39 15 40 16 81 17 41 18 86 19 80 20 82 21 42 22 85 23
REMARK SMILES IDX 79 24 78 25 43 27 69 28 52 29 68 30 53 31 56 32 67 33 83 34
REMARK SMILES IDX 54 35 55 36 66 38 84 39 57 40 44 41 45 42 50 43 46 44 47 45
REMARK SMILES IDX 49 46 51 47 48 48 70 49 71 50 76 51 72 52 73 53 75 54 77 55
REMARK SMILES IDX 74 56 58 57 59 58 64 59 60 60 61 61 63 62 65 63 62 64 8 65
REMARK SMILES IDX 9 66 10 67 11 68 12 70 13 71 14 72 15 73 16 74 21 75 17 76
REMARK SMILES IDX 20 77 18 78 19 79 22 80 23 81 24 83 25 84 26 85 34 86 27 87
REMARK SMILES IDX 28 88 29 89 30 90 33 91 31 92 32 93
REMARK H PARENT 3 8 82 26 56 37 10 69 22 82
REMARK Flexibility Score: inf
ROOT
ATOM      1  C   UNL A   1      38.509  24.239  26.725  1.00  0.00     0.002 C 
ENDROOT
BRANCH   1   2
ATOM      2  C   UNL A   1      39.532  23.218  27.230  1.00  0.00     0.002 C 
BRANCH   2   3
ATOM      3  C   UNL A   1      39.925  22.112  26.239  1.00  0.00     0.021 C 
BRANCH   3   4
ATOM      4  C   UNL A   1      41.367  21.619  26.353  1.00  0.00     0.116 C 
BRANCH   4   5
ATOM      5  N   UNL A   1      42.277  22.214  25.398  1.00  0.00    -0.352 N 
ATOM      6  O   UNL A   1      43.680  23.557  24.347  1.00  0.00    -0.269 OA
ATOM      7  C   UNL A   1      42.848  23.446  25.251  1.00  0.00     0.251 C 
ATOM      8  H   UNL A   1      42.548  21.585  24.690  1.00  0.00     0.163 HD
BRANCH   7   9
ATOM      9  C   UNL A   1      42.480  24.657  26.034  1.00  0.00     0.039 A 
ATOM     10  C   UNL A   1      41.693  25.719  25.587  1.00  0.00     0.014 A 
ATOM     11  C   UNL A   1      43.020  24.720  27.332  1.00  0.00     0.014 A 
ATOM     12  C   UNL A   1      41.549  26.864  26.366  1.00  0.00     0.010 A 
ATOM     13  C   UNL A   1      42.861  25.847  28.124  1.00  0.00     0.010 A 
ATOM     14  C   UNL A   1      42.164  26.941  27.619  1.00  0.00    -0.014 A 
BRANCH  14  15
ATOM     15  C   UNL A   1      41.906  28.109  28.459  1.00  0.00     0.031 A 
ATOM     16  C   UNL A   1      42.949  29.176  28.352  1.00  0.00     0.074 A 
ATOM     17  C   UNL A   1      40.744  28.291  29.124  1.00  0.00     0.049 A 
ATOM     18  N   UNL A   1      43.646  29.721  29.296  1.00  0.00    -0.248 NA
ATOM     19  C   UNL A   1      43.344  29.610  26.999  1.00  0.00     0.031 C 
ATOM     20  C   UNL A   1      39.538  27.459  29.074  1.00  0.00     0.029 A 
ATOM     21  N   UNL A   1      40.356  29.327  29.921  1.00  0.00    -0.354 N 
ATOM     22  C   UNL A   1      44.432  30.698  28.679  1.00  0.00     0.074 A 
ATOM     23  C   UNL A   1      44.313  30.485  27.262  1.00  0.00     0.031 C 
ATOM     24  C   UNL A   1      38.499  28.138  29.611  1.00  0.00     0.029 A 
ATOM     25  C   UNL A   1      38.986  29.390  30.161  1.00  0.00     0.049 A 
ATOM     26  H   UNL A   1      40.993  29.977  30.296  1.00  0.00     0.167 HD
ATOM     27  C   UNL A   1      44.942  31.749  29.377  1.00  0.00     0.037 A 
ATOM     28  C   UNL A   1      38.303  30.426  30.716  1.00  0.00     0.037 A 
ATOM     29  C   UNL A   1      45.026  31.449  30.781  1.00  0.00     0.049 A 
ATOM     30  C   UNL A   1      39.287  31.275  31.429  1.00  0.00     0.074 A 
ATOM     31  C   UNL A   1      45.697  30.507  31.536  1.00  0.00     0.029 A 
ATOM     32  N   UNL A   1      44.063  31.965  31.610  1.00  0.00    -0.354 N 
ATOM     33  N   UNL A   1      39.933  30.904  32.497  1.00  0.00    -0.248 NA
ATOM     34  C   UNL A   1      39.883  32.371  30.681  1.00  0.00     0.031 C 
ATOM     35  C   UNL A   1      44.787  30.154  32.575  1.00  0.00     0.029 A 
ATOM     36  C   UNL A   1      43.651  30.950  32.431  1.00  0.00     0.049 A 
ATOM     37  H   UNL A   1      43.730  32.892  31.614  1.00  0.00     0.167 HD
ATOM     38  C   UNL A   1      41.213  31.405  32.324  1.00  0.00     0.074 A 
ATOM     39  C   UNL A   1      41.104  32.357  31.220  1.00  0.00     0.031 C 
ATOM     40  C   UNL A   1      42.293  30.795  32.893  1.00  0.00     0.037 A 
BRANCH  27  41
ATOM     41  C   UNL A   1      45.000  33.165  28.846  1.00  0.00     0.057 A 
ATOM     42  C   UNL A   1      46.166  33.780  28.345  1.00  0.00     0.134 A 
ATOM     43  C   UNL A   1      43.800  33.833  28.535  1.00  0.00     0.134 A 
ATOM     44  F   UNL A   1      47.384  33.245  28.492  1.00  0.00    -0.206 F 
ATOM     45  C   UNL A   1      46.141  34.941  27.567  1.00  0.00     0.040 A 
ATOM     46  C   UNL A   1      43.759  34.968  27.715  1.00  0.00     0.040 A 
ATOM     47  F   UNL A   1      42.616  33.351  28.944  1.00  0.00    -0.206 F 
ATOM     48  C   UNL A   1      44.932  35.520  27.218  1.00  0.00     0.006 A 
ENDBRANCH  27  41
BRANCH  28  49
ATOM     49  C   UNL A   1      36.955  30.944  30.370  1.00  0.00     0.057 A 
ATOM     50  C   UNL A   1      36.619  31.293  29.050  1.00  0.00     0.134 A 
ATOM     51  C   UNL A   1      36.077  31.403  31.366  1.00  0.00     0.134 A 
ATOM     52  F   UNL A   1      37.418  30.970  28.024  1.00  0.00    -0.206 F 
ATOM     53  C   UNL A   1      35.499  32.075  28.742  1.00  0.00     0.040 A 
ATOM     54  C   UNL A   1      34.955  32.192  31.071  1.00  0.00     0.040 A 
ATOM     55  F   UNL A   1      36.330  31.160  32.660  1.00  0.00    -0.206 F 
ATOM     56  C   UNL A   1      34.671  32.542  29.755  1.00  0.00     0.006 A 
ENDBRANCH  28  49
BRANCH  40  57
ATOM     57  C   UNL A   1      42.046  29.706  33.900  1.00  0.00     0.057 A 
ATOM     58  C   UNL A   1      42.167  30.014  35.258  1.00  0.00     0.134 A 
ATOM     59  C   UNL A   1      41.877  28.352  33.570  1.00  0.00     0.134 A 
ATOM     60  F   UNL A   1      42.380  31.281  35.647  1.00  0.00    -0.206 F 
ATOM     61  C   UNL A   1      42.135  29.026  36.245  1.00  0.00     0.040 A 
ATOM     62  C   UNL A   1      41.809  27.356  34.551  1.00  0.00     0.040 A 
ATOM     63  F   UNL A   1      41.841  27.946  32.295  1.00  0.00    -0.206 F 
ATOM     64  C   UNL A   1      41.950  27.692  35.894  1.00  0.00     0.006 A 
ENDBRANCH  40  57
ENDBRANCH  14  15
ENDBRANCH   7   9
ENDBRANCH   4   5
ENDBRANCH   3   4
ENDBRANCH   2   3
ENDBRANCH   1   2
BRANCH   1  65
ATOM     65  C   UNL A   1      37.492  23.677  25.735  1.00  0.00     0.021 C 
BRANCH  65  66
ATOM     66  C   UNL A   1      36.028  23.853  26.134  1.00  0.00     0.116 C 
BRANCH  66  67
ATOM     67  N   UNL A   1      35.476  22.590  26.565  1.00  0.00    -0.354 N 
ATOM     68  C   UNL A   1      34.188  22.173  26.680  1.00  0.00     0.242 C 
ATOM     69  H   UNL A   1      36.147  21.916  26.818  1.00  0.00     0.163 HD
ATOM     70  O   UNL A   1      33.992  21.197  27.414  1.00  0.00    -0.273 OA
BRANCH  68  71
ATOM     71  C   UNL A   1      32.986  22.876  26.005  1.00  0.00     0.176 C 
BRANCH  71  72
ATOM     72  C   UNL A   1      32.967  22.896  24.459  1.00  0.00     0.070 C 
BRANCH  72  73
ATOM     73  C   UNL A   1      33.088  24.204  23.706  1.00  0.00    -0.045 A 
ATOM     74  C   UNL A   1      32.555  24.378  22.418  1.00  0.00     0.007 A 
ATOM     75  C   UNL A   1      33.707  25.304  24.327  1.00  0.00     0.007 A 
ATOM     76  C   UNL A   1      32.762  25.569  21.717  1.00  0.00     0.039 A 
ATOM     77  C   UNL A   1      33.888  26.505  23.636  1.00  0.00     0.039 A 
ATOM     78  C   UNL A   1      33.442  26.615  22.325  1.00  0.00     0.123 A 
ATOM     79  F   UNL A   1      33.703  27.729  21.630  1.00  0.00    -0.207 F 
ENDBRANCH  72  73
ENDBRANCH  71  72
BRANCH  71  80
ATOM     80  N   UNL A   1      31.695  22.564  26.619  1.00  0.00    -0.339 N 
ATOM     81  C   UNL A   1      30.619  23.392  26.836  1.00  0.00     0.272 C 
ATOM     82  H   UNL A   1      31.582  21.633  26.917  1.00  0.00     0.164 HD
ATOM     83  O   UNL A   1      29.678  22.938  27.497  1.00  0.00    -0.267 OA
BRANCH  81  84
ATOM     84  C   UNL A   1      30.632  24.757  26.297  1.00  0.00     0.150 A 
ATOM     85  C   UNL A   1      30.043  25.245  25.097  1.00  0.00     0.056 A 
ATOM     86  N   UNL A   1      31.269  25.750  26.941  1.00  0.00    -0.167 NA
ATOM     87  C   UNL A   1      30.421  26.563  25.008  1.00  0.00     0.110 A 
ATOM     88  N   UNL A   1      31.134  26.822  26.142  1.00  0.00    -0.269 N 
BRANCH  88  89
ATOM     89  C   UNL A   1      31.695  28.098  26.529  1.00  0.00     0.107 C 
ATOM     90  C   UNL A   1      33.138  28.009  27.020  1.00  0.00     0.027 C 
ATOM     91  C   UNL A   1      31.775  29.129  25.402  1.00  0.00     0.027 C 
ATOM     92  C   UNL A   1      33.606  29.457  26.999  1.00  0.00     0.002 C 
ATOM     93  C   UNL A   1      32.832  30.131  25.866  1.00  0.00     0.002 C 
ENDBRANCH  88  89
ENDBRANCH  81  84
ENDBRANCH  71  80
ENDBRANCH  68  71
ENDBRANCH  66  67
ENDBRANCH  65  66
ENDBRANCH   1  65
TORSDOF 18
ENDMDL
