MODEL 1
REMARK VINA RESULT:     -11.6      0.000      0.000
REMARK SMILES CCc1ccc(NC(=O)c2c(C(=O)NCCCCCCNC(=O)c3ccc(-c4c5nc(c(-c6c(F)cccc6F)c6ccc([nH]6)c(-c6c(F)cccc6F)c6nc(c(-c7c(F)cccc7F)c7ccc4[nH]7)C=C6)C=C5)cc3)cnn2C)cc1
REMARK SMILES IDX 17 1 16 2 15 3 14 4 12 5 13 6 11 8 10 9 80 10 78 11 79 12
REMARK SMILES IDX 81 13 8 14 7 15 9 17 6 18 3 19 4 20 83 21 5 22 82 23 2 24
REMARK SMILES IDX 1 25 18 26 19 27 20 28 21 29 22 30 23 32 24 33 25 34 77 35
REMARK SMILES IDX 26 36 76 37 27 38 28 39 29 40 70 41 30 42 75 43 69 44 71 45
REMARK SMILES IDX 31 46 74 47 68 48 67 49 32 51 58 52 41 53 57 54 42 55 45 56
REMARK SMILES IDX 56 57 72 58 43 59 44 60 55 62 73 63 46 64 33 65 34 66 39 67
REMARK SMILES IDX 35 68 36 69 38 70 40 71 37 72 59 73 60 74 65 75 61 76 62 77
REMARK SMILES IDX 64 78 66 79 63 80 47 81 48 82 53 83 49 84 50 85 52 86 54 87
REMARK SMILES IDX 51 88
REMARK H PARENT 14 7 7 16 21 31 71 50 45 61
REMARK Flexibility Score: inf
ROOT
ATOM      1  C   UNL A   1      32.284  29.481  26.937  1.00  0.00     0.002 C 
ENDROOT
BRANCH   1   2
ATOM      2  C   UNL A   1      31.678  28.165  27.419  1.00  0.00     0.021 C 
BRANCH   2   3
ATOM      3  C   UNL A   1      31.440  27.094  26.366  1.00  0.00     0.116 C 
BRANCH   3   4
ATOM      4  N   UNL A   1      31.011  25.815  26.859  1.00  0.00    -0.352 N 
ATOM      5  C   UNL A   1      31.501  24.556  26.614  1.00  0.00     0.255 C 
ATOM      6  O   UNL A   1      30.891  23.634  27.161  1.00  0.00    -0.269 OA
ATOM      7  H   UNL A   1      30.241  25.846  27.471  1.00  0.00     0.163 HD
BRANCH   5   8
ATOM      8  C   UNL A   1      32.624  24.254  25.726  1.00  0.00     0.090 A 
ATOM      9  C   UNL A   1      32.767  23.716  24.443  1.00  0.00     0.138 A 
ATOM     10  N   UNL A   1      34.117  23.765  24.162  1.00  0.00    -0.262 N 
ATOM     11  C   UNL A   1      33.969  24.528  26.109  1.00  0.00     0.149 A 
ATOM     12  N   UNL A   1      34.868  24.200  25.185  1.00  0.00    -0.180 NA
ATOM     13  C   UNL A   1      34.801  23.357  22.952  1.00  0.00     0.174 C 
BRANCH   9  14
ATOM     14  C   UNL A   1      31.798  23.260  23.489  1.00  0.00     0.274 C 
ATOM     15  N   UNL A   1      30.879  24.137  22.940  1.00  0.00    -0.321 N 
ATOM     16  H   UNL A   1      30.299  23.729  22.258  1.00  0.00     0.170 HD
ATOM     17  O   UNL A   1      31.734  22.082  23.135  1.00  0.00    -0.267 OA
BRANCH  15  18
ATOM     18  C   UNL A   1      30.611  25.503  23.169  1.00  0.00     0.041 A 
ATOM     19  C   UNL A   1      29.976  28.227  22.880  1.00  0.00    -0.048 A 
ATOM     20  C   UNL A   1      29.094  27.356  23.521  1.00  0.00     0.006 A 
ATOM     21  C   UNL A   1      31.265  27.762  22.590  1.00  0.00     0.006 A 
ATOM     22  C   UNL A   1      29.422  26.008  23.686  1.00  0.00     0.026 A 
ATOM     23  C   UNL A   1      31.582  26.409  22.738  1.00  0.00     0.026 A 
BRANCH  19  24
ATOM     24  C   UNL A   1      29.593  29.630  22.474  1.00  0.00     0.032 C 
ATOM     25  C   UNL A   1      28.195  30.071  22.902  1.00  0.00     0.009 C 
ENDBRANCH  19  24
ENDBRANCH  15  18
ENDBRANCH   9  14
ENDBRANCH   5   8
ENDBRANCH   3   4
ENDBRANCH   2   3
ENDBRANCH   1   2
BRANCH   1  26
ATOM     26  C   UNL A   1      31.405  30.361  26.045  1.00  0.00     0.002 C 
BRANCH  26  27
ATOM     27  C   UNL A   1      31.344  31.851  26.390  1.00  0.00     0.021 C 
BRANCH  27  28
ATOM     28  C   UNL A   1      32.612  32.453  26.985  1.00  0.00     0.116 C 
BRANCH  28  29
ATOM     29  N   UNL A   1      32.432  33.820  27.441  1.00  0.00    -0.352 N 
ATOM     30  C   UNL A   1      33.086  34.511  28.431  1.00  0.00     0.251 C 
ATOM     31  H   UNL A   1      31.735  34.328  26.968  1.00  0.00     0.163 HD
ATOM     32  O   UNL A   1      32.693  35.621  28.765  1.00  0.00    -0.269 OA
BRANCH  30  33
ATOM     33  C   UNL A   1      34.253  33.909  29.114  1.00  0.00     0.039 A 
ATOM     34  C   UNL A   1      34.025  32.947  30.101  1.00  0.00     0.014 A 
ATOM     35  C   UNL A   1      35.558  34.298  28.804  1.00  0.00     0.014 A 
ATOM     36  C   UNL A   1      35.107  32.332  30.734  1.00  0.00     0.010 A 
ATOM     37  C   UNL A   1      36.637  33.629  29.379  1.00  0.00     0.010 A 
ATOM     38  C   UNL A   1      36.423  32.641  30.352  1.00  0.00    -0.014 A 
BRANCH  38  39
ATOM     39  C   UNL A   1      37.581  31.934  30.956  1.00  0.00     0.031 A 
ATOM     40  C   UNL A   1      38.081  32.312  32.321  1.00  0.00     0.074 A 
ATOM     41  C   UNL A   1      38.225  30.990  30.244  1.00  0.00     0.049 A 
ATOM     42  N   UNL A   1      39.101  31.838  32.990  1.00  0.00    -0.248 NA
ATOM     43  C   UNL A   1      37.354  33.386  33.016  1.00  0.00     0.031 C 
ATOM     44  C   UNL A   1      37.874  30.570  28.885  1.00  0.00     0.029 A 
ATOM     45  N   UNL A   1      39.317  30.219  30.557  1.00  0.00    -0.354 N 
ATOM     46  C   UNL A   1      39.148  32.563  34.174  1.00  0.00     0.074 A 
ATOM     47  C   UNL A   1      38.090  33.549  34.105  1.00  0.00     0.031 C 
ATOM     48  C   UNL A   1      38.718  29.604  28.492  1.00  0.00     0.029 A 
ATOM     49  C   UNL A   1      39.694  29.364  29.551  1.00  0.00     0.049 A 
ATOM     50  H   UNL A   1      39.785  30.274  31.421  1.00  0.00     0.167 HD
ATOM     51  C   UNL A   1      39.982  32.409  35.231  1.00  0.00     0.037 A 
ATOM     52  C   UNL A   1      40.715  28.489  29.483  1.00  0.00     0.037 A 
ATOM     53  C   UNL A   1      41.027  31.419  35.298  1.00  0.00     0.049 A 
ATOM     54  C   UNL A   1      41.632  28.337  30.662  1.00  0.00     0.074 A 
ATOM     55  C   UNL A   1      41.878  31.134  36.350  1.00  0.00     0.029 A 
ATOM     56  N   UNL A   1      41.370  30.561  34.263  1.00  0.00    -0.354 N 
ATOM     57  N   UNL A   1      41.615  28.972  31.810  1.00  0.00    -0.248 NA
ATOM     58  C   UNL A   1      42.705  27.342  30.543  1.00  0.00     0.031 C 
ATOM     59  C   UNL A   1      42.778  30.148  35.930  1.00  0.00     0.029 A 
ATOM     60  C   UNL A   1      42.446  29.772  34.639  1.00  0.00     0.049 A 
ATOM     61  H   UNL A   1      40.917  30.519  33.390  1.00  0.00     0.167 HD
ATOM     62  C   UNL A   1      42.658  28.439  32.557  1.00  0.00     0.074 A 
ATOM     63  C   UNL A   1      43.277  27.418  31.736  1.00  0.00     0.031 C 
ATOM     64  C   UNL A   1      43.062  28.765  33.809  1.00  0.00     0.037 A 
BRANCH  51  65
ATOM     65  C   UNL A   1      39.804  33.350  36.391  1.00  0.00     0.057 A 
ATOM     66  C   UNL A   1      38.923  33.075  37.447  1.00  0.00     0.134 A 
ATOM     67  C   UNL A   1      40.526  34.548  36.455  1.00  0.00     0.134 A 
ATOM     68  F   UNL A   1      38.192  31.950  37.446  1.00  0.00    -0.206 F 
ATOM     69  C   UNL A   1      38.733  33.975  38.496  1.00  0.00     0.040 A 
ATOM     70  C   UNL A   1      40.372  35.442  37.517  1.00  0.00     0.040 A 
ATOM     71  F   UNL A   1      41.396  34.875  35.485  1.00  0.00    -0.206 F 
ATOM     72  C   UNL A   1      39.464  35.161  38.536  1.00  0.00     0.006 A 
ENDBRANCH  51  65
BRANCH  52  73
ATOM     73  C   UNL A   1      40.901  27.679  28.253  1.00  0.00     0.057 A 
ATOM     74  C   UNL A   1      40.220  26.471  28.071  1.00  0.00     0.134 A 
ATOM     75  C   UNL A   1      41.739  28.110  27.217  1.00  0.00     0.134 A 
ATOM     76  F   UNL A   1      39.418  25.997  29.035  1.00  0.00    -0.206 F 
ATOM     77  C   UNL A   1      40.369  25.716  26.906  1.00  0.00     0.040 A 
ATOM     78  C   UNL A   1      41.878  27.379  26.036  1.00  0.00     0.040 A 
ATOM     79  F   UNL A   1      42.412  29.265  27.326  1.00  0.00    -0.206 F 
ATOM     80  C   UNL A   1      41.194  26.175  25.881  1.00  0.00     0.006 A 
ENDBRANCH  52  73
BRANCH  64  81
ATOM     81  C   UNL A   1      44.219  27.994  34.381  1.00  0.00     0.057 A 
ATOM     82  C   UNL A   1      44.041  26.782  35.060  1.00  0.00     0.134 A 
ATOM     83  C   UNL A   1      45.532  28.452  34.214  1.00  0.00     0.134 A 
ATOM     84  F   UNL A   1      42.808  26.292  35.267  1.00  0.00    -0.206 F 
ATOM     85  C   UNL A   1      45.124  26.068  35.578  1.00  0.00     0.040 A 
ATOM     86  C   UNL A   1      46.625  27.732  34.698  1.00  0.00     0.040 A 
ATOM     87  F   UNL A   1      45.777  29.600  33.564  1.00  0.00    -0.206 F 
ATOM     88  C   UNL A   1      46.422  26.540  35.389  1.00  0.00     0.006 A 
ENDBRANCH  64  81
ENDBRANCH  38  39
ENDBRANCH  30  33
ENDBRANCH  28  29
ENDBRANCH  27  28
ENDBRANCH  26  27
ENDBRANCH   1  26
TORSDOF 16
ENDMDL
MODEL 2
REMARK VINA RESULT:     -11.6      3.672      5.576
REMARK SMILES CCc1ccc(NC(=O)c2c(C(=O)NCCCCCCNC(=O)c3ccc(-c4c5nc(c(-c6c(F)cccc6F)c6ccc([nH]6)c(-c6c(F)cccc6F)c6nc(c(-c7c(F)cccc7F)c7ccc4[nH]7)C=C6)C=C5)cc3)cnn2C)cc1
REMARK SMILES IDX 17 1 16 2 15 3 14 4 12 5 13 6 11 8 10 9 80 10 78 11 79 12
REMARK SMILES IDX 81 13 8 14 7 15 9 17 6 18 3 19 4 20 83 21 5 22 82 23 2 24
REMARK SMILES IDX 1 25 18 26 19 27 20 28 21 29 22 30 23 32 24 33 25 34 77 35
REMARK SMILES IDX 26 36 76 37 27 38 28 39 29 40 70 41 30 42 75 43 69 44 71 45
REMARK SMILES IDX 31 46 74 47 68 48 67 49 32 51 58 52 41 53 57 54 42 55 45 56
REMARK SMILES IDX 56 57 72 58 43 59 44 60 55 62 73 63 46 64 33 65 34 66 39 67
REMARK SMILES IDX 35 68 36 69 38 70 40 71 37 72 59 73 60 74 65 75 61 76 62 77
REMARK SMILES IDX 64 78 66 79 63 80 47 81 48 82 53 83 49 84 50 85 52 86 54 87
REMARK SMILES IDX 51 88
REMARK H PARENT 14 7 7 16 21 31 71 50 45 61
REMARK Flexibility Score: inf
ROOT
ATOM      1  C   UNL A   1      31.802  26.499  26.395  1.00  0.00     0.002 C 
ENDROOT
BRANCH   1   2
ATOM      2  C   UNL A   1      30.585  25.694  25.948  1.00  0.00     0.021 C 
BRANCH   2   3
ATOM      3  C   UNL A   1      30.486  24.263  26.452  1.00  0.00     0.116 C 
BRANCH   3   4
ATOM      4  N   UNL A   1      31.636  23.763  27.151  1.00  0.00    -0.352 N 
ATOM      5  C   UNL A   1      32.487  22.730  26.844  1.00  0.00     0.255 C 
ATOM      6  O   UNL A   1      33.378  22.512  27.670  1.00  0.00    -0.269 OA
ATOM      7  H   UNL A   1      31.850  24.238  27.987  1.00  0.00     0.163 HD
BRANCH   5   8
ATOM      8  C   UNL A   1      32.363  21.867  25.668  1.00  0.00     0.090 A 
ATOM      9  C   UNL A   1      32.184  22.068  24.296  1.00  0.00     0.138 A 
ATOM     10  N   UNL A   1      32.218  20.813  23.723  1.00  0.00    -0.262 N 
ATOM     11  C   UNL A   1      32.435  20.448  25.777  1.00  0.00     0.149 A 
ATOM     12  N   UNL A   1      32.311  19.814  24.615  1.00  0.00    -0.180 NA
ATOM     13  C   UNL A   1      32.110  20.458  22.324  1.00  0.00     0.174 C 
BRANCH   9  14
ATOM     14  C   UNL A   1      32.067  23.266  23.517  1.00  0.00     0.274 C 
ATOM     15  N   UNL A   1      33.174  24.056  23.262  1.00  0.00    -0.321 N 
ATOM     16  H   UNL A   1      32.989  24.822  22.673  1.00  0.00     0.170 HD
ATOM     17  O   UNL A   1      30.988  23.646  23.060  1.00  0.00    -0.267 OA
BRANCH  15  18
ATOM     18  C   UNL A   1      34.518  23.976  23.685  1.00  0.00     0.041 A 
ATOM     19  C   UNL A   1      36.902  23.353  25.041  1.00  0.00    -0.048 A 
ATOM     20  C   UNL A   1      36.683  22.895  23.741  1.00  0.00     0.006 A 
ATOM     21  C   UNL A   1      36.016  24.305  25.560  1.00  0.00     0.006 A 
ATOM     22  C   UNL A   1      35.510  23.226  23.059  1.00  0.00     0.026 A 
ATOM     23  C   UNL A   1      34.833  24.618  24.884  1.00  0.00     0.026 A 
BRANCH  19  24
ATOM     24  C   UNL A   1      38.034  22.853  25.906  1.00  0.00     0.032 C 
ATOM     25  C   UNL A   1      38.468  21.414  25.641  1.00  0.00     0.009 C 
ENDBRANCH  19  24
ENDBRANCH  15  18
ENDBRANCH   9  14
ENDBRANCH   5   8
ENDBRANCH   3   4
ENDBRANCH   2   3
ENDBRANCH   1   2
BRANCH   1  26
ATOM     26  C   UNL A   1      32.542  27.291  25.315  1.00  0.00     0.002 C 
BRANCH  26  27
ATOM     27  C   UNL A   1      33.594  28.295  25.794  1.00  0.00     0.021 C 
BRANCH  27  28
ATOM     28  C   UNL A   1      33.699  28.487  27.303  1.00  0.00     0.116 C 
BRANCH  28  29
ATOM     29  N   UNL A   1      33.656  29.882  27.703  1.00  0.00    -0.352 N 
ATOM     30  C   UNL A   1      34.616  30.655  28.309  1.00  0.00     0.251 C 
ATOM     31  H   UNL A   1      32.808  30.344  27.511  1.00  0.00     0.163 HD
ATOM     32  O   UNL A   1      34.339  31.782  28.698  1.00  0.00    -0.269 OA
BRANCH  30  33
ATOM     33  C   UNL A   1      35.981  30.122  28.515  1.00  0.00     0.039 A 
ATOM     34  C   UNL A   1      36.881  30.158  27.447  1.00  0.00     0.014 A 
ATOM     35  C   UNL A   1      36.371  29.575  29.740  1.00  0.00     0.014 A 
ATOM     36  C   UNL A   1      38.188  29.701  27.624  1.00  0.00     0.010 A 
ATOM     37  C   UNL A   1      37.696  29.191  29.939  1.00  0.00     0.010 A 
ATOM     38  C   UNL A   1      38.617  29.247  28.883  1.00  0.00    -0.014 A 
BRANCH  38  39
ATOM     39  C   UNL A   1      40.027  28.838  29.107  1.00  0.00     0.031 A 
ATOM     40  C   UNL A   1      41.010  29.790  29.728  1.00  0.00     0.074 A 
ATOM     41  C   UNL A   1      40.439  27.626  28.690  1.00  0.00     0.049 A 
ATOM     42  N   UNL A   1      42.288  29.625  29.961  1.00  0.00    -0.248 NA
ATOM     43  C   UNL A   1      40.495  31.112  30.113  1.00  0.00     0.031 C 
ATOM     44  C   UNL A   1      39.597  26.631  28.021  1.00  0.00     0.029 A 
ATOM     45  N   UNL A   1      41.672  27.027  28.754  1.00  0.00    -0.354 N 
ATOM     46  C   UNL A   1      42.731  30.824  30.504  1.00  0.00     0.074 A 
ATOM     47  C   UNL A   1      41.599  31.726  30.510  1.00  0.00     0.031 C 
ATOM     48  C   UNL A   1      40.331  25.539  27.759  1.00  0.00     0.029 A 
ATOM     49  C   UNL A   1      41.703  25.770  28.202  1.00  0.00     0.049 A 
ATOM     50  H   UNL A   1      42.460  27.457  29.158  1.00  0.00     0.167 HD
ATOM     51  C   UNL A   1      43.963  31.139  30.974  1.00  0.00     0.037 A 
ATOM     52  C   UNL A   1      42.722  24.901  28.060  1.00  0.00     0.037 A 
ATOM     53  C   UNL A   1      45.083  30.233  30.975  1.00  0.00     0.049 A 
ATOM     54  C   UNL A   1      44.081  25.271  28.581  1.00  0.00     0.074 A 
ATOM     55  C   UNL A   1      46.350  30.429  31.491  1.00  0.00     0.029 A 
ATOM     56  N   UNL A   1      45.072  28.961  30.418  1.00  0.00    -0.354 N 
ATOM     57  N   UNL A   1      44.468  26.377  29.169  1.00  0.00    -0.248 NA
ATOM     58  C   UNL A   1      45.143  24.268  28.430  1.00  0.00     0.031 C 
ATOM     59  C   UNL A   1      47.125  29.303  31.192  1.00  0.00     0.029 A 
ATOM     60  C   UNL A   1      46.322  28.377  30.546  1.00  0.00     0.049 A 
ATOM     61  H   UNL A   1      44.291  28.537  29.994  1.00  0.00     0.167 HD
ATOM     62  C   UNL A   1      45.810  26.198  29.476  1.00  0.00     0.074 A 
ATOM     63  C   UNL A   1      46.165  24.868  29.024  1.00  0.00     0.031 C 
ATOM     64  C   UNL A   1      46.668  27.056  30.081  1.00  0.00     0.037 A 
BRANCH  51  65
ATOM     65  C   UNL A   1      44.160  32.531  31.508  1.00  0.00     0.057 A 
ATOM     66  C   UNL A   1      44.588  33.589  30.694  1.00  0.00     0.134 A 
ATOM     67  C   UNL A   1      43.915  32.818  32.857  1.00  0.00     0.134 A 
ATOM     68  F   UNL A   1      44.850  33.384  29.394  1.00  0.00    -0.206 F 
ATOM     69  C   UNL A   1      44.809  34.867  31.210  1.00  0.00     0.040 A 
ATOM     70  C   UNL A   1      44.099  34.100  33.378  1.00  0.00     0.040 A 
ATOM     71  F   UNL A   1      43.493  31.858  33.695  1.00  0.00    -0.206 F 
ATOM     72  C   UNL A   1      44.559  35.127  32.556  1.00  0.00     0.006 A 
ENDBRANCH  51  65
BRANCH  52  73
ATOM     73  C   UNL A   1      42.477  23.589  27.408  1.00  0.00     0.057 A 
ATOM     74  C   UNL A   1      42.618  23.430  26.025  1.00  0.00     0.134 A 
ATOM     75  C   UNL A   1      42.129  22.458  28.156  1.00  0.00     0.134 A 
ATOM     76  F   UNL A   1      42.933  24.481  25.254  1.00  0.00    -0.206 F 
ATOM     77  C   UNL A   1      42.416  22.195  25.408  1.00  0.00     0.040 A 
ATOM     78  C   UNL A   1      41.949  21.211  27.555  1.00  0.00     0.040 A 
ATOM     79  F   UNL A   1      41.988  22.543  29.487  1.00  0.00    -0.206 F 
ATOM     80  C   UNL A   1      42.089  21.079  26.175  1.00  0.00     0.006 A 
ENDBRANCH  52  73
BRANCH  64  81
ATOM     81  C   UNL A   1      48.074  26.575  30.310  1.00  0.00     0.057 A 
ATOM     82  C   UNL A   1      48.441  25.875  31.466  1.00  0.00     0.134 A 
ATOM     83  C   UNL A   1      49.064  26.784  29.341  1.00  0.00     0.134 A 
ATOM     84  F   UNL A   1      47.545  25.652  32.441  1.00  0.00    -0.206 F 
ATOM     85  C   UNL A   1      49.748  25.423  31.663  1.00  0.00     0.040 A 
ATOM     86  C   UNL A   1      50.366  26.310  29.512  1.00  0.00     0.040 A 
ATOM     87  F   UNL A   1      48.780  27.438  28.205  1.00  0.00    -0.206 F 
ATOM     88  C   UNL A   1      50.712  25.634  30.680  1.00  0.00     0.006 A 
ENDBRANCH  64  81
ENDBRANCH  38  39
ENDBRANCH  30  33
ENDBRANCH  28  29
ENDBRANCH  27  28
ENDBRANCH  26  27
ENDBRANCH   1  26
TORSDOF 16
ENDMDL
MODEL 3
REMARK VINA RESULT:     -11.5      4.793      8.866
REMARK SMILES CCc1ccc(NC(=O)c2c(C(=O)NCCCCCCNC(=O)c3ccc(-c4c5nc(c(-c6c(F)cccc6F)c6ccc([nH]6)c(-c6c(F)cccc6F)c6nc(c(-c7c(F)cccc7F)c7ccc4[nH]7)C=C6)C=C5)cc3)cnn2C)cc1
REMARK SMILES IDX 17 1 16 2 15 3 14 4 12 5 13 6 11 8 10 9 80 10 78 11 79 12
REMARK SMILES IDX 81 13 8 14 7 15 9 17 6 18 3 19 4 20 83 21 5 22 82 23 2 24
REMARK SMILES IDX 1 25 18 26 19 27 20 28 21 29 22 30 23 32 24 33 25 34 77 35
REMARK SMILES IDX 26 36 76 37 27 38 28 39 29 40 70 41 30 42 75 43 69 44 71 45
REMARK SMILES IDX 31 46 74 47 68 48 67 49 32 51 58 52 41 53 57 54 42 55 45 56
REMARK SMILES IDX 56 57 72 58 43 59 44 60 55 62 73 63 46 64 33 65 34 66 39 67
REMARK SMILES IDX 35 68 36 69 38 70 40 71 37 72 59 73 60 74 65 75 61 76 62 77
REMARK SMILES IDX 64 78 66 79 63 80 47 81 48 82 53 83 49 84 50 85 52 86 54 87
REMARK SMILES IDX 51 88
REMARK H PARENT 14 7 7 16 21 31 71 50 45 61
REMARK Flexibility Score: inf
ROOT
ATOM      1  C   UNL A   1      35.351  19.978  24.852  1.00  0.00     0.002 C 
ENDROOT
BRANCH   1   2
ATOM      2  C   UNL A   1      34.165  20.821  25.315  1.00  0.00     0.021 C 
BRANCH   2   3
ATOM      3  C   UNL A   1      33.867  22.082  24.519  1.00  0.00     0.116 C 
BRANCH   3   4
ATOM      4  N   UNL A   1      32.486  22.465  24.446  1.00  0.00    -0.352 N 
ATOM      5  C   UNL A   1      31.904  23.708  24.470  1.00  0.00     0.255 C 
ATOM      6  O   UNL A   1      30.671  23.719  24.426  1.00  0.00    -0.269 OA
ATOM      7  H   UNL A   1      31.853  21.715  24.366  1.00  0.00     0.163 HD
BRANCH   5   8
ATOM      8  C   UNL A   1      32.633  24.971  24.602  1.00  0.00     0.090 A 
ATOM      9  C   UNL A   1      33.053  25.978  23.727  1.00  0.00     0.138 A 
ATOM     10  N   UNL A   1      33.644  26.942  24.518  1.00  0.00    -0.262 N 
ATOM     11  C   UNL A   1      33.086  25.438  25.869  1.00  0.00     0.149 A 
ATOM     12  N   UNL A   1      33.725  26.603  25.814  1.00  0.00    -0.180 NA
ATOM     13  C   UNL A   1      34.220  28.208  24.116  1.00  0.00     0.174 C 
BRANCH   9  14
ATOM     14  C   UNL A   1      32.889  26.138  22.311  1.00  0.00     0.274 C 
ATOM     15  N   UNL A   1      31.901  26.962  21.802  1.00  0.00    -0.321 N 
ATOM     16  H   UNL A   1      31.915  27.040  20.821  1.00  0.00     0.170 HD
ATOM     17  O   UNL A   1      33.602  25.546  21.500  1.00  0.00    -0.267 OA
BRANCH  15  18
ATOM     18  C   UNL A   1      30.875  27.711  22.416  1.00  0.00     0.041 A 
ATOM     19  C   UNL A   1      28.610  29.297  22.928  1.00  0.00    -0.048 A 
ATOM     20  C   UNL A   1      28.631  27.950  23.293  1.00  0.00     0.006 A 
ATOM     21  C   UNL A   1      29.811  29.885  22.512  1.00  0.00     0.006 A 
ATOM     22  C   UNL A   1      29.766  27.169  23.061  1.00  0.00     0.026 A 
ATOM     23  C   UNL A   1      30.938  29.097  22.262  1.00  0.00     0.026 A 
BRANCH  19  24
ATOM     24  C   UNL A   1      27.351  30.131  22.945  1.00  0.00     0.032 C 
ATOM     25  C   UNL A   1      27.493  31.508  23.590  1.00  0.00     0.009 C 
ENDBRANCH  19  24
ENDBRANCH  15  18
ENDBRANCH   9  14
ENDBRANCH   5   8
ENDBRANCH   3   4
ENDBRANCH   2   3
ENDBRANCH   1   2
BRANCH   1  26
ATOM     26  C   UNL A   1      36.740  20.608  24.983  1.00  0.00     0.002 C 
BRANCH  26  27
ATOM     27  C   UNL A   1      37.934  19.651  24.997  1.00  0.00     0.021 C 
BRANCH  27  28
ATOM     28  C   UNL A   1      39.163  20.123  25.766  1.00  0.00     0.116 C 
BRANCH  28  29
ATOM     29  N   UNL A   1      40.211  19.121  25.834  1.00  0.00    -0.352 N 
ATOM     30  C   UNL A   1      41.554  19.265  26.084  1.00  0.00     0.251 C 
ATOM     31  H   UNL A   1      39.914  18.196  25.675  1.00  0.00     0.163 HD
ATOM     32  O   UNL A   1      42.307  18.308  25.960  1.00  0.00    -0.269 OA
BRANCH  30  33
ATOM     33  C   UNL A   1      42.100  20.581  26.483  1.00  0.00     0.039 A 
ATOM     34  C   UNL A   1      42.579  21.435  25.486  1.00  0.00     0.014 A 
ATOM     35  C   UNL A   1      42.159  20.969  27.824  1.00  0.00     0.014 A 
ATOM     36  C   UNL A   1      43.061  22.700  25.828  1.00  0.00     0.010 A 
ATOM     37  C   UNL A   1      42.568  22.258  28.157  1.00  0.00     0.010 A 
ATOM     38  C   UNL A   1      43.026  23.136  27.163  1.00  0.00    -0.014 A 
BRANCH  38  39
ATOM     39  C   UNL A   1      43.457  24.510  27.530  1.00  0.00     0.031 A 
ATOM     40  C   UNL A   1      42.445  25.552  27.912  1.00  0.00     0.074 A 
ATOM     41  C   UNL A   1      44.761  24.837  27.454  1.00  0.00     0.049 A 
ATOM     42  N   UNL A   1      42.629  26.812  28.219  1.00  0.00    -0.248 NA
ATOM     43  C   UNL A   1      41.036  25.131  27.924  1.00  0.00     0.031 C 
ATOM     44  C   UNL A   1      45.836  23.932  27.041  1.00  0.00     0.029 A 
ATOM     45  N   UNL A   1      45.405  26.022  27.710  1.00  0.00    -0.354 N 
ATOM     46  C   UNL A   1      41.363  27.335  28.445  1.00  0.00     0.074 A 
ATOM     47  C   UNL A   1      40.416  26.272  28.182  1.00  0.00     0.031 C 
ATOM     48  C   UNL A   1      47.006  24.588  27.095  1.00  0.00     0.029 A 
ATOM     49  C   UNL A   1      46.761  25.967  27.504  1.00  0.00     0.049 A 
ATOM     50  H   UNL A   1      44.938  26.834  28.013  1.00  0.00     0.167 HD
ATOM     51  C   UNL A   1      41.020  28.581  28.855  1.00  0.00     0.037 A 
ATOM     52  C   UNL A   1      47.704  26.921  27.624  1.00  0.00     0.037 A 
ATOM     53  C   UNL A   1      41.968  29.631  29.126  1.00  0.00     0.049 A 
ATOM     54  C   UNL A   1      47.304  28.297  28.073  1.00  0.00     0.074 A 
ATOM     55  C   UNL A   1      41.730  30.904  29.612  1.00  0.00     0.029 A 
ATOM     56  N   UNL A   1      43.337  29.534  28.918  1.00  0.00    -0.354 N 
ATOM     57  N   UNL A   1      46.111  28.757  28.365  1.00  0.00    -0.248 NA
ATOM     58  C   UNL A   1      48.381  29.285  28.220  1.00  0.00     0.031 C 
ATOM     59  C   UNL A   1      42.944  31.597  29.640  1.00  0.00     0.029 A 
ATOM     60  C   UNL A   1      43.951  30.736  29.232  1.00  0.00     0.049 A 
ATOM     61  H   UNL A   1      43.803  28.729  28.595  1.00  0.00     0.167 HD
ATOM     62  C   UNL A   1      46.294  30.079  28.749  1.00  0.00     0.074 A 
ATOM     63  C   UNL A   1      47.717  30.341  28.669  1.00  0.00     0.031 C 
ATOM     64  C   UNL A   1      45.368  30.990  29.137  1.00  0.00     0.037 A 
BRANCH  51  65
ATOM     65  C   UNL A   1      39.553  28.873  29.016  1.00  0.00     0.057 A 
ATOM     66  C   UNL A   1      38.762  29.327  27.951  1.00  0.00     0.134 A 
ATOM     67  C   UNL A   1      38.922  28.696  30.253  1.00  0.00     0.134 A 
ATOM     68  F   UNL A   1      39.303  29.528  26.739  1.00  0.00    -0.206 F 
ATOM     69  C   UNL A   1      37.411  29.636  28.121  1.00  0.00     0.040 A 
ATOM     70  C   UNL A   1      37.564  28.968  30.429  1.00  0.00     0.040 A 
ATOM     71  F   UNL A   1      39.614  28.255  31.316  1.00  0.00    -0.206 F 
ATOM     72  C   UNL A   1      36.808  29.452  29.364  1.00  0.00     0.006 A 
ENDBRANCH  51  65
BRANCH  52  73
ATOM     73  C   UNL A   1      49.120  26.589  27.328  1.00  0.00     0.057 A 
ATOM     74  C   UNL A   1      49.951  26.028  28.304  1.00  0.00     0.134 A 
ATOM     75  C   UNL A   1      49.667  26.794  26.055  1.00  0.00     0.134 A 
ATOM     76  F   UNL A   1      49.490  25.825  29.547  1.00  0.00    -0.206 F 
ATOM     77  C   UNL A   1      51.277  25.688  28.028  1.00  0.00     0.040 A 
ATOM     78  C   UNL A   1      50.982  26.435  25.758  1.00  0.00     0.040 A 
ATOM     79  F   UNL A   1      48.918  27.319  25.074  1.00  0.00    -0.206 F 
ATOM     80  C   UNL A   1      51.793  25.884  26.748  1.00  0.00     0.006 A 
ENDBRANCH  52  73
BRANCH  64  81
ATOM     81  C   UNL A   1      45.866  32.354  29.526  1.00  0.00     0.057 A 
ATOM     82  C   UNL A   1      46.294  32.645  30.827  1.00  0.00     0.134 A 
ATOM     83  C   UNL A   1      45.954  33.378  28.574  1.00  0.00     0.134 A 
ATOM     84  F   UNL A   1      46.225  31.714  31.792  1.00  0.00    -0.206 F 
ATOM     85  C   UNL A   1      46.766  33.913  31.175  1.00  0.00     0.040 A 
ATOM     86  C   UNL A   1      46.453  34.639  28.901  1.00  0.00     0.040 A 
ATOM     87  F   UNL A   1      45.571  33.165  27.306  1.00  0.00    -0.206 F 
ATOM     88  C   UNL A   1      46.853  34.912  30.207  1.00  0.00     0.006 A 
ENDBRANCH  64  81
ENDBRANCH  38  39
ENDBRANCH  30  33
ENDBRANCH  28  29
ENDBRANCH  27  28
ENDBRANCH  26  27
ENDBRANCH   1  26
TORSDOF 16
ENDMDL
