MODEL 1
REMARK VINA RESULT:     -12.0      0.000      0.000
REMARK SMILES O=C(NCCCCCCNC(=O)[C@@H]1CS[C@H](c2ncc(-c3ccccc3)s2)[NH2+]1)c1ccc(-c2c3nc(c(-c4c(F)cccc4F)c4ccc([nH]4)c(-c4c(F)cccc4F)c4nc(c(-c5c(F)cccc5F)c5ccc2[nH]5)C=C4)C=C3)cc1
REMARK SMILES IDX 6 1 5 2 4 3 3 4 1 5 2 6 29 8 30 9 82 10 31 11 81 12 32 13
REMARK SMILES IDX 33 14 34 15 75 16 35 17 80 18 74 19 76 20 36 21 79 22 73 23
REMARK SMILES IDX 72 24 37 26 63 27 46 28 62 29 47 30 50 31 61 32 77 33 48 34
REMARK SMILES IDX 49 35 60 37 78 38 51 39 38 40 39 41 44 42 40 43 41 44 43 45
REMARK SMILES IDX 45 46 42 47 64 48 65 49 70 50 66 51 67 52 69 53 71 54 68 55
REMARK SMILES IDX 52 56 53 57 58 58 54 59 55 60 57 61 59 62 56 63 7 64 8 65
REMARK SMILES IDX 9 66 10 67 11 68 12 70 13 71 14 72 28 73 15 74 16 75 17 78
REMARK SMILES IDX 18 79 27 80 19 81 20 82 21 83 22 84 26 85 23 86 25 87 24 88
REMARK H PARENT 3 7 76 25 50 36 10 69 28 76 28 77
REMARK Flexibility Score: inf
ROOT
ATOM      1  C   UNL A   1      31.495  30.701  26.190  1.00  0.00     0.002 C 
ENDROOT
BRANCH   1   2
ATOM      2  C   UNL A   1      31.351  32.153  26.642  1.00  0.00     0.021 C 
BRANCH   2   3
ATOM      3  C   UNL A   1      32.658  32.883  26.926  1.00  0.00     0.116 C 
BRANCH   3   4
ATOM      4  N   UNL A   1      32.474  34.118  27.668  1.00  0.00    -0.352 N 
ATOM      5  O   UNL A   1      32.805  35.604  29.336  1.00  0.00    -0.269 OA
ATOM      6  C   UNL A   1      33.174  34.591  28.751  1.00  0.00     0.251 C 
ATOM      7  H   UNL A   1      31.745  34.698  27.349  1.00  0.00     0.163 HD
BRANCH   6   8
ATOM      8  C   UNL A   1      34.362  33.854  29.233  1.00  0.00     0.039 A 
ATOM      9  C   UNL A   1      34.223  32.711  30.024  1.00  0.00     0.014 A 
ATOM     10  C   UNL A   1      35.635  34.323  28.894  1.00  0.00     0.014 A 
ATOM     11  C   UNL A   1      35.349  32.123  30.591  1.00  0.00     0.010 A 
ATOM     12  C   UNL A   1      36.768  33.681  29.399  1.00  0.00     0.010 A 
ATOM     13  C   UNL A   1      36.634  32.598  30.280  1.00  0.00    -0.014 A 
BRANCH  13  14
ATOM     14  C   UNL A   1      37.822  31.917  30.854  1.00  0.00     0.031 A 
ATOM     15  C   UNL A   1      38.310  32.238  32.239  1.00  0.00     0.074 A 
ATOM     16  C   UNL A   1      38.451  30.981  30.118  1.00  0.00     0.049 A 
ATOM     17  N   UNL A   1      39.316  31.721  32.899  1.00  0.00    -0.248 NA
ATOM     18  C   UNL A   1      37.581  33.279  32.977  1.00  0.00     0.031 C 
ATOM     19  C   UNL A   1      38.076  30.590  28.757  1.00  0.00     0.029 A 
ATOM     20  N   UNL A   1      39.521  30.178  30.412  1.00  0.00    -0.354 N 
ATOM     21  C   UNL A   1      39.356  32.386  34.117  1.00  0.00     0.074 A 
ATOM     22  C   UNL A   1      38.287  33.364  34.096  1.00  0.00     0.031 C 
ATOM     23  C   UNL A   1      38.871  29.588  28.354  1.00  0.00     0.029 A 
ATOM     24  C   UNL A   1      39.847  29.308  29.402  1.00  0.00     0.049 A 
ATOM     25  H   UNL A   1      40.010  30.221  31.265  1.00  0.00     0.167 HD
ATOM     26  C   UNL A   1      40.202  32.196  35.159  1.00  0.00     0.037 A 
ATOM     27  C   UNL A   1      40.827  28.391  29.320  1.00  0.00     0.037 A 
ATOM     28  C   UNL A   1      41.256  31.213  35.180  1.00  0.00     0.049 A 
ATOM     29  C   UNL A   1      41.764  28.215  30.478  1.00  0.00     0.074 A 
ATOM     30  C   UNL A   1      42.138  30.914  36.205  1.00  0.00     0.029 A 
ATOM     31  N   UNL A   1      41.575  30.372  34.124  1.00  0.00    -0.354 N 
ATOM     32  N   UNL A   1      41.765  28.825  31.637  1.00  0.00    -0.248 NA
ATOM     33  C   UNL A   1      42.837  27.226  30.313  1.00  0.00     0.031 C 
ATOM     34  C   UNL A   1      43.018  29.926  35.752  1.00  0.00     0.029 A 
ATOM     35  C   UNL A   1      42.655  29.572  34.462  1.00  0.00     0.049 A 
ATOM     36  H   UNL A   1      41.103  30.348  33.260  1.00  0.00     0.167 HD
ATOM     37  C   UNL A   1      42.824  28.281  32.351  1.00  0.00     0.074 A 
ATOM     38  C   UNL A   1      43.432  27.280  31.497  1.00  0.00     0.031 C 
ATOM     39  C   UNL A   1      43.250  28.580  33.603  1.00  0.00     0.037 A 
BRANCH  26  40
ATOM     40  C   UNL A   1      40.039  33.091  36.355  1.00  0.00     0.057 A 
ATOM     41  C   UNL A   1      39.128  32.804  37.380  1.00  0.00     0.134 A 
ATOM     42  C   UNL A   1      40.822  34.245  36.493  1.00  0.00     0.134 A 
ATOM     43  F   UNL A   1      38.339  31.721  37.307  1.00  0.00    -0.206 F 
ATOM     44  C   UNL A   1      38.981  33.648  38.484  1.00  0.00     0.040 A 
ATOM     45  C   UNL A   1      40.702  35.082  37.604  1.00  0.00     0.040 A 
ATOM     46  F   UNL A   1      41.720  34.575  35.554  1.00  0.00    -0.206 F 
ATOM     47  C   UNL A   1      39.773  34.788  38.600  1.00  0.00     0.006 A 
ENDBRANCH  26  40
BRANCH  27  48
ATOM     48  C   UNL A   1      40.953  27.560  28.098  1.00  0.00     0.057 A 
ATOM     49  C   UNL A   1      40.299  26.328  27.994  1.00  0.00     0.134 A 
ATOM     50  C   UNL A   1      41.702  27.991  26.995  1.00  0.00     0.134 A 
ATOM     51  F   UNL A   1      39.579  25.858  29.023  1.00  0.00    -0.206 F 
ATOM     52  C   UNL A   1      40.390  25.549  26.839  1.00  0.00     0.040 A 
ATOM     53  C   UNL A   1      41.782  27.234  25.826  1.00  0.00     0.040 A 
ATOM     54  F   UNL A   1      42.344  29.168  27.032  1.00  0.00    -0.206 F 
ATOM     55  C   UNL A   1      41.127  26.006  25.748  1.00  0.00     0.006 A 
ENDBRANCH  27  48
BRANCH  39  56
ATOM     56  C   UNL A   1      44.409  27.790  34.133  1.00  0.00     0.057 A 
ATOM     57  C   UNL A   1      44.232  26.566  34.791  1.00  0.00     0.134 A 
ATOM     58  C   UNL A   1      45.721  28.251  33.963  1.00  0.00     0.134 A 
ATOM     59  F   UNL A   1      43.000  26.077  34.998  1.00  0.00    -0.206 F 
ATOM     60  C   UNL A   1      45.319  25.841  35.284  1.00  0.00     0.040 A 
ATOM     61  C   UNL A   1      46.816  27.523  34.429  1.00  0.00     0.040 A 
ATOM     62  F   UNL A   1      45.958  29.413  33.337  1.00  0.00    -0.206 F 
ATOM     63  C   UNL A   1      46.615  26.317  35.098  1.00  0.00     0.006 A 
ENDBRANCH  39  56
ENDBRANCH  13  14
ENDBRANCH   6   8
ENDBRANCH   3   4
ENDBRANCH   2   3
ENDBRANCH   1   2
BRANCH   1  64
ATOM     64  C   UNL A   1      32.367  29.813  27.082  1.00  0.00     0.002 C 
BRANCH  64  65
ATOM     65  C   UNL A   1      31.764  28.460  27.474  1.00  0.00     0.021 C 
BRANCH  65  66
ATOM     66  C   UNL A   1      31.699  27.420  26.358  1.00  0.00     0.116 C 
BRANCH  66  67
ATOM     67  N   UNL A   1      30.879  26.283  26.723  1.00  0.00    -0.351 N 
ATOM     68  C   UNL A   1      30.989  24.977  26.334  1.00  0.00     0.279 C 
ATOM     69  H   UNL A   1      30.138  26.478  27.341  1.00  0.00     0.163 HD
ATOM     70  O   UNL A   1      30.183  24.176  26.815  1.00  0.00    -0.268 OA
BRANCH  68  71
ATOM     71  C   UNL A   1      32.037  24.573  25.276  1.00  0.00     0.284 C 
ATOM     72  C   UNL A   1      33.141  25.632  25.128  1.00  0.00     0.151 C 
ATOM     73  N   UNL A   1      31.401  24.256  23.954  1.00  0.00    -0.319 N 
ATOM     74  S   UNL A   1      33.299  25.918  23.354  1.00  0.00    -0.085 SA
ATOM     75  C   UNL A   1      31.592  25.397  23.039  1.00  0.00     0.303 C 
ATOM     76  H   UNL A   1      30.404  24.089  24.087  1.00  0.00     0.348 HD
ATOM     77  H   UNL A   1      31.833  23.423  23.557  1.00  0.00     0.348 HD
BRANCH  75  78
ATOM     78  C   UNL A   1      30.594  26.540  23.153  1.00  0.00     0.162 A 
ATOM     79  N   UNL A   1      29.373  26.416  23.649  1.00  0.00    -0.242 NA
ATOM     80  S   UNL A   1      31.018  28.163  22.735  1.00  0.00    -0.112 S 
ATOM     81  C   UNL A   1      28.691  27.612  23.538  1.00  0.00     0.132 A 
ATOM     82  C   UNL A   1      29.400  28.653  22.980  1.00  0.00     0.055 A 
BRANCH  82  83
ATOM     83  C   UNL A   1      28.971  29.993  22.610  1.00  0.00    -0.007 A 
ATOM     84  C   UNL A   1      29.035  31.030  23.552  1.00  0.00     0.009 A 
ATOM     85  C   UNL A   1      28.514  30.269  21.317  1.00  0.00     0.009 A 
ATOM     86  C   UNL A   1      28.645  32.325  23.205  1.00  0.00     0.001 A 
ATOM     87  C   UNL A   1      28.119  31.564  20.974  1.00  0.00     0.001 A 
ATOM     88  C   UNL A   1      28.186  32.589  21.917  1.00  0.00     0.000 A 
ENDBRANCH  82  83
ENDBRANCH  75  78
ENDBRANCH  68  71
ENDBRANCH  66  67
ENDBRANCH  65  66
ENDBRANCH  64  65
ENDBRANCH   1  64
TORSDOF 15
ENDMDL
MODEL 2
REMARK VINA RESULT:     -11.9      0.882      6.265
REMARK SMILES O=C(NCCCCCCNC(=O)[C@@H]1CS[C@H](c2ncc(-c3ccccc3)s2)[NH2+]1)c1ccc(-c2c3nc(c(-c4c(F)cccc4F)c4ccc([nH]4)c(-c4c(F)cccc4F)c4nc(c(-c5c(F)cccc5F)c5ccc2[nH]5)C=C4)C=C3)cc1
REMARK SMILES IDX 6 1 5 2 4 3 3 4 1 5 2 6 29 8 30 9 82 10 31 11 81 12 32 13
REMARK SMILES IDX 33 14 34 15 75 16 35 17 80 18 74 19 76 20 36 21 79 22 73 23
REMARK SMILES IDX 72 24 37 26 63 27 46 28 62 29 47 30 50 31 61 32 77 33 48 34
REMARK SMILES IDX 49 35 60 37 78 38 51 39 38 40 39 41 44 42 40 43 41 44 43 45
REMARK SMILES IDX 45 46 42 47 64 48 65 49 70 50 66 51 67 52 69 53 71 54 68 55
REMARK SMILES IDX 52 56 53 57 58 58 54 59 55 60 57 61 59 62 56 63 7 64 8 65
REMARK SMILES IDX 9 66 10 67 11 68 12 70 13 71 14 72 28 73 15 74 16 75 17 78
REMARK SMILES IDX 18 79 27 80 19 81 20 82 21 83 22 84 26 85 23 86 25 87 24 88
REMARK H PARENT 3 7 76 25 50 36 10 69 28 76 28 77
REMARK Flexibility Score: inf
ROOT
ATOM      1  C   UNL A   1      31.603  30.655  26.076  1.00  0.00     0.002 C 
ENDROOT
BRANCH   1   2
ATOM      2  C   UNL A   1      31.387  32.086  26.566  1.00  0.00     0.021 C 
BRANCH   2   3
ATOM      3  C   UNL A   1      32.588  32.733  27.245  1.00  0.00     0.116 C 
BRANCH   3   4
ATOM      4  N   UNL A   1      32.349  34.111  27.638  1.00  0.00    -0.352 N 
ATOM      5  O   UNL A   1      32.601  35.991  28.864  1.00  0.00    -0.269 OA
ATOM      6  C   UNL A   1      33.014  34.876  28.566  1.00  0.00     0.251 C 
ATOM      7  H   UNL A   1      31.606  34.561  27.173  1.00  0.00     0.163 HD
BRANCH   6   8
ATOM      8  C   UNL A   1      34.218  34.334  29.232  1.00  0.00     0.039 A 
ATOM      9  C   UNL A   1      35.481  34.478  28.655  1.00  0.00     0.014 A 
ATOM     10  C   UNL A   1      34.075  33.663  30.450  1.00  0.00     0.014 A 
ATOM     11  C   UNL A   1      36.576  33.831  29.219  1.00  0.00     0.010 A 
ATOM     12  C   UNL A   1      35.190  33.082  31.058  1.00  0.00     0.010 A 
ATOM     13  C   UNL A   1      36.444  33.132  30.430  1.00  0.00    -0.014 A 
BRANCH  13  14
ATOM     14  C   UNL A   1      37.640  32.497  31.041  1.00  0.00     0.031 A 
ATOM     15  C   UNL A   1      38.312  31.319  30.393  1.00  0.00     0.074 A 
ATOM     16  C   UNL A   1      38.133  33.011  32.184  1.00  0.00     0.049 A 
ATOM     17  N   UNL A   1      39.377  30.662  30.781  1.00  0.00    -0.248 NA
ATOM     18  C   UNL A   1      37.710  30.806  29.154  1.00  0.00     0.031 C 
ATOM     19  C   UNL A   1      37.560  34.146  32.911  1.00  0.00     0.029 A 
ATOM     20  N   UNL A   1      39.231  32.661  32.924  1.00  0.00    -0.354 N 
ATOM     21  C   UNL A   1      39.559  29.647  29.851  1.00  0.00     0.074 A 
ATOM     22  C   UNL A   1      38.479  29.759  28.891  1.00  0.00     0.031 C 
ATOM     23  C   UNL A   1      38.340  34.431  33.964  1.00  0.00     0.029 A 
ATOM     24  C   UNL A   1      39.430  33.463  34.020  1.00  0.00     0.049 A 
ATOM     25  H   UNL A   1      39.820  31.907  32.693  1.00  0.00     0.167 HD
ATOM     26  C   UNL A   1      40.538  28.711  29.799  1.00  0.00     0.037 A 
ATOM     27  C   UNL A   1      40.379  33.422  34.972  1.00  0.00     0.037 A 
ATOM     28  C   UNL A   1      41.618  28.613  30.749  1.00  0.00     0.049 A 
ATOM     29  C   UNL A   1      41.439  32.363  34.904  1.00  0.00     0.074 A 
ATOM     30  C   UNL A   1      42.683  27.727  30.758  1.00  0.00     0.029 A 
ATOM     31  N   UNL A   1      41.767  29.424  31.865  1.00  0.00    -0.354 N 
ATOM     32  N   UNL A   1      41.620  31.434  33.998  1.00  0.00    -0.248 NA
ATOM     33  C   UNL A   1      42.424  32.346  35.993  1.00  0.00     0.031 C 
ATOM     34  C   UNL A   1      43.449  27.973  31.903  1.00  0.00     0.029 A 
ATOM     35  C   UNL A   1      42.891  29.045  32.582  1.00  0.00     0.049 A 
ATOM     36  H   UNL A   1      41.162  30.161  32.112  1.00  0.00     0.167 HD
ATOM     37  C   UNL A   1      42.751  30.734  34.393  1.00  0.00     0.074 A 
ATOM     38  C   UNL A   1      43.221  31.356  35.615  1.00  0.00     0.031 C 
ATOM     39  C   UNL A   1      43.347  29.673  33.795  1.00  0.00     0.037 A 
BRANCH  26  40
ATOM     40  C   UNL A   1      40.472  27.701  28.690  1.00  0.00     0.057 A 
ATOM     41  C   UNL A   1      41.198  27.851  27.501  1.00  0.00     0.134 A 
ATOM     42  C   UNL A   1      39.685  26.549  28.822  1.00  0.00     0.134 A 
ATOM     43  F   UNL A   1      41.964  28.936  27.304  1.00  0.00    -0.206 F 
ATOM     44  C   UNL A   1      41.123  26.907  26.474  1.00  0.00     0.040 A 
ATOM     45  C   UNL A   1      39.621  25.586  27.813  1.00  0.00     0.040 A 
ATOM     46  F   UNL A   1      38.970  26.337  29.937  1.00  0.00    -0.206 F 
ATOM     47  C   UNL A   1      40.335  25.768  26.631  1.00  0.00     0.006 A 
ENDBRANCH  26  40
BRANCH  27  48
ATOM     48  C   UNL A   1      40.371  34.431  36.059  1.00  0.00     0.057 A 
ATOM     49  C   UNL A   1      39.690  34.192  37.257  1.00  0.00     0.134 A 
ATOM     50  C   UNL A   1      41.068  35.640  35.938  1.00  0.00     0.134 A 
ATOM     51  F   UNL A   1      38.995  33.058  37.424  1.00  0.00    -0.206 F 
ATOM     52  C   UNL A   1      39.697  35.124  38.297  1.00  0.00     0.040 A 
ATOM     53  C   UNL A   1      41.101  36.569  36.979  1.00  0.00     0.040 A 
ATOM     54  F   UNL A   1      41.747  35.922  34.816  1.00  0.00    -0.206 F 
ATOM     55  C   UNL A   1      40.411  36.313  38.162  1.00  0.00     0.006 A 
ENDBRANCH  27  48
BRANCH  39  56
ATOM     56  C   UNL A   1      44.595  29.144  34.439  1.00  0.00     0.057 A 
ATOM     57  C   UNL A   1      45.861  29.664  34.140  1.00  0.00     0.134 A 
ATOM     58  C   UNL A   1      44.525  28.114  35.386  1.00  0.00     0.134 A 
ATOM     59  F   UNL A   1      45.997  30.641  33.231  1.00  0.00    -0.206 F 
ATOM     60  C   UNL A   1      47.016  29.161  34.742  1.00  0.00     0.040 A 
ATOM     61  C   UNL A   1      45.669  27.620  36.013  1.00  0.00     0.040 A 
ATOM     62  F   UNL A   1      43.342  27.576  35.720  1.00  0.00    -0.206 F 
ATOM     63  C   UNL A   1      46.920  28.140  35.686  1.00  0.00     0.006 A 
ENDBRANCH  39  56
ENDBRANCH  13  14
ENDBRANCH   6   8
ENDBRANCH   3   4
ENDBRANCH   2   3
ENDBRANCH   1   2
BRANCH   1  64
ATOM     64  C   UNL A   1      32.276  29.708  27.072  1.00  0.00     0.002 C 
BRANCH  64  65
ATOM     65  C   UNL A   1      31.510  28.420  27.394  1.00  0.00     0.021 C 
BRANCH  65  66
ATOM     66  C   UNL A   1      31.834  27.222  26.503  1.00  0.00     0.116 C 
BRANCH  66  67
ATOM     67  N   UNL A   1      30.967  26.093  26.777  1.00  0.00    -0.351 N 
ATOM     68  C   UNL A   1      31.046  24.811  26.310  1.00  0.00     0.279 C 
ATOM     69  H   UNL A   1      30.217  26.276  27.386  1.00  0.00     0.163 HD
ATOM     70  O   UNL A   1      30.202  24.010  26.720  1.00  0.00    -0.268 OA
BRANCH  68  71
ATOM     71  C   UNL A   1      32.109  24.437  25.256  1.00  0.00     0.284 C 
ATOM     72  C   UNL A   1      33.215  25.497  25.155  1.00  0.00     0.151 C 
ATOM     73  N   UNL A   1      31.492  24.160  23.917  1.00  0.00    -0.319 N 
ATOM     74  S   UNL A   1      33.400  25.835  23.393  1.00  0.00    -0.085 SA
ATOM     75  C   UNL A   1      31.697  25.327  23.038  1.00  0.00     0.303 C 
ATOM     76  H   UNL A   1      30.492  23.990  24.030  1.00  0.00     0.348 HD
ATOM     77  H   UNL A   1      31.928  23.337  23.502  1.00  0.00     0.348 HD
BRANCH  75  78
ATOM     78  C   UNL A   1      30.698  26.467  23.171  1.00  0.00     0.162 A 
ATOM     79  N   UNL A   1      29.484  26.338  23.682  1.00  0.00    -0.242 NA
ATOM     80  S   UNL A   1      31.115  28.093  22.758  1.00  0.00    -0.112 S 
ATOM     81  C   UNL A   1      28.798  27.534  23.586  1.00  0.00     0.132 A 
ATOM     82  C   UNL A   1      29.499  28.579  23.025  1.00  0.00     0.055 A 
BRANCH  82  83
ATOM     83  C   UNL A   1      29.063  29.920  22.669  1.00  0.00    -0.007 A 
ATOM     84  C   UNL A   1      28.588  30.179  21.375  1.00  0.00     0.009 A 
ATOM     85  C   UNL A   1      29.090  30.957  23.608  1.00  0.00     0.009 A 
ATOM     86  C   UNL A   1      28.150  31.456  21.025  1.00  0.00     0.001 A 
ATOM     87  C   UNL A   1      28.656  32.236  23.254  1.00  0.00     0.001 A 
ATOM     88  C   UNL A   1      28.186  32.484  21.965  1.00  0.00     0.000 A 
ENDBRANCH  82  83
ENDBRANCH  75  78
ENDBRANCH  68  71
ENDBRANCH  66  67
ENDBRANCH  65  66
ENDBRANCH  64  65
ENDBRANCH   1  64
TORSDOF 15
ENDMDL
MODEL 3
REMARK VINA RESULT:     -11.8      2.212      4.450
REMARK SMILES O=C(NCCCCCCNC(=O)[C@@H]1CS[C@H](c2ncc(-c3ccccc3)s2)[NH2+]1)c1ccc(-c2c3nc(c(-c4c(F)cccc4F)c4ccc([nH]4)c(-c4c(F)cccc4F)c4nc(c(-c5c(F)cccc5F)c5ccc2[nH]5)C=C4)C=C3)cc1
REMARK SMILES IDX 6 1 5 2 4 3 3 4 1 5 2 6 29 8 30 9 82 10 31 11 81 12 32 13
REMARK SMILES IDX 33 14 34 15 75 16 35 17 80 18 74 19 76 20 36 21 79 22 73 23
REMARK SMILES IDX 72 24 37 26 63 27 46 28 62 29 47 30 50 31 61 32 77 33 48 34
REMARK SMILES IDX 49 35 60 37 78 38 51 39 38 40 39 41 44 42 40 43 41 44 43 45
REMARK SMILES IDX 45 46 42 47 64 48 65 49 70 50 66 51 67 52 69 53 71 54 68 55
REMARK SMILES IDX 52 56 53 57 58 58 54 59 55 60 57 61 59 62 56 63 7 64 8 65
REMARK SMILES IDX 9 66 10 67 11 68 12 70 13 71 14 72 28 73 15 74 16 75 17 78
REMARK SMILES IDX 18 79 27 80 19 81 20 82 21 83 22 84 26 85 23 86 25 87 24 88
REMARK H PARENT 3 7 76 25 50 36 10 69 28 76 28 77
REMARK Flexibility Score: inf
ROOT
ATOM      1  C   UNL A   1      34.689  33.961  29.072  1.00  0.00     0.002 C 
ENDROOT
BRANCH   1   2
ATOM      2  C   UNL A   1      33.363  34.716  29.013  1.00  0.00     0.021 C 
BRANCH   2   3
ATOM      3  C   UNL A   1      33.363  36.090  29.674  1.00  0.00     0.116 C 
BRANCH   3   4
ATOM      4  N   UNL A   1      32.419  36.195  30.774  1.00  0.00    -0.352 N 
ATOM      5  O   UNL A   1      31.560  35.765  32.818  1.00  0.00    -0.269 OA
ATOM      6  C   UNL A   1      32.511  35.686  32.047  1.00  0.00     0.251 C 
ATOM      7  H   UNL A   1      31.598  36.702  30.579  1.00  0.00     0.163 HD
BRANCH   6   8
ATOM      8  C   UNL A   1      33.755  35.011  32.477  1.00  0.00     0.039 A 
ATOM      9  C   UNL A   1      34.982  35.676  32.432  1.00  0.00     0.014 A 
ATOM     10  C   UNL A   1      33.688  33.687  32.922  1.00  0.00     0.014 A 
ATOM     11  C   UNL A   1      36.155  34.976  32.694  1.00  0.00     0.010 A 
ATOM     12  C   UNL A   1      34.861  33.010  33.263  1.00  0.00     0.010 A 
ATOM     13  C   UNL A   1      36.107  33.638  33.119  1.00  0.00    -0.014 A 
BRANCH  13  14
ATOM     14  C   UNL A   1      37.372  32.931  33.447  1.00  0.00     0.031 A 
ATOM     15  C   UNL A   1      38.100  33.197  34.734  1.00  0.00     0.074 A 
ATOM     16  C   UNL A   1      37.850  32.021  32.576  1.00  0.00     0.049 A 
ATOM     17  N   UNL A   1      39.202  32.651  35.186  1.00  0.00    -0.248 NA
ATOM     18  C   UNL A   1      37.525  34.212  35.629  1.00  0.00     0.031 C 
ATOM     19  C   UNL A   1      37.235  31.685  31.291  1.00  0.00     0.029 A 
ATOM     20  N   UNL A   1      38.947  31.204  32.646  1.00  0.00    -0.354 N 
ATOM     21  C   UNL A   1      39.465  33.269  36.401  1.00  0.00     0.074 A 
ATOM     22  C   UNL A   1      38.420  34.251  36.607  1.00  0.00     0.031 C 
ATOM     23  C   UNL A   1      37.935  30.696  30.716  1.00  0.00     0.029 A 
ATOM     24  C   UNL A   1      39.079  30.372  31.562  1.00  0.00     0.049 A 
ATOM     25  H   UNL A   1      39.580  31.212  33.400  1.00  0.00     0.167 HD
ATOM     26  C   UNL A   1      40.481  33.036  37.268  1.00  0.00     0.037 A 
ATOM     27  C   UNL A   1      40.019  29.455  31.273  1.00  0.00     0.037 A 
ATOM     28  C   UNL A   1      41.511  32.048  37.065  1.00  0.00     0.049 A 
ATOM     29  C   UNL A   1      41.145  29.232  32.238  1.00  0.00     0.074 A 
ATOM     30  C   UNL A   1      42.558  31.707  37.904  1.00  0.00     0.029 A 
ATOM     31  N   UNL A   1      41.629  31.248  35.938  1.00  0.00    -0.354 N 
ATOM     32  N   UNL A   1      41.358  29.797  33.401  1.00  0.00    -0.248 NA
ATOM     33  C   UNL A   1      42.160  28.246  31.849  1.00  0.00     0.031 C 
ATOM     34  C   UNL A   1      43.334  30.734  37.265  1.00  0.00     0.029 A 
ATOM     35  C   UNL A   1      42.743  30.431  36.049  1.00  0.00     0.049 A 
ATOM     36  H   UNL A   1      41.011  31.258  35.171  1.00  0.00     0.167 HD
ATOM     37  C   UNL A   1      42.521  29.221  33.895  1.00  0.00     0.074 A 
ATOM     38  C   UNL A   1      42.957  28.253  32.909  1.00  0.00     0.031 C 
ATOM     39  C   UNL A   1      43.166  29.471  35.061  1.00  0.00     0.037 A 
BRANCH  26  40
ATOM     40  C   UNL A   1      40.542  33.884  38.506  1.00  0.00     0.057 A 
ATOM     41  C   UNL A   1      39.824  33.563  39.665  1.00  0.00     0.134 A 
ATOM     42  C   UNL A   1      41.349  35.029  38.546  1.00  0.00     0.134 A 
ATOM     43  F   UNL A   1      39.023  32.486  39.693  1.00  0.00    -0.206 F 
ATOM     44  C   UNL A   1      39.884  34.363  40.809  1.00  0.00     0.040 A 
ATOM     45  C   UNL A   1      41.438  35.824  39.691  1.00  0.00     0.040 A 
ATOM     46  F   UNL A   1      42.070  35.391  37.474  1.00  0.00    -0.206 F 
ATOM     47  C   UNL A   1      40.697  35.496  40.824  1.00  0.00     0.006 A 
ENDBRANCH  26  40
BRANCH  27  48
ATOM     48  C   UNL A   1      39.917  28.672  30.018  1.00  0.00     0.057 A 
ATOM     49  C   UNL A   1      40.523  29.119  28.839  1.00  0.00     0.134 A 
ATOM     50  C   UNL A   1      39.242  27.445  29.975  1.00  0.00     0.134 A 
ATOM     51  F   UNL A   1      41.172  30.292  28.817  1.00  0.00    -0.206 F 
ATOM     52  C   UNL A   1      40.456  28.378  27.659  1.00  0.00     0.040 A 
ATOM     53  C   UNL A   1      39.187  26.684  28.808  1.00  0.00     0.040 A 
ATOM     54  F   UNL A   1      38.648  26.960  31.076  1.00  0.00    -0.206 F 
ATOM     55  C   UNL A   1      39.793  27.152  27.643  1.00  0.00     0.006 A 
ENDBRANCH  27  48
BRANCH  39  56
ATOM     56  C   UNL A   1      44.392  28.657  35.346  1.00  0.00     0.057 A 
ATOM     57  C   UNL A   1      45.671  29.087  34.970  1.00  0.00     0.134 A 
ATOM     58  C   UNL A   1      44.293  27.436  36.026  1.00  0.00     0.134 A 
ATOM     59  F   UNL A   1      45.833  30.239  34.303  1.00  0.00    -0.206 F 
ATOM     60  C   UNL A   1      46.806  28.318  35.236  1.00  0.00     0.040 A 
ATOM     61  C   UNL A   1      45.422  26.671  36.321  1.00  0.00     0.040 A 
ATOM     62  F   UNL A   1      43.098  26.971  36.419  1.00  0.00    -0.206 F 
ATOM     63  C   UNL A   1      46.682  27.109  35.920  1.00  0.00     0.006 A 
ENDBRANCH  39  56
ENDBRANCH  13  14
ENDBRANCH   6   8
ENDBRANCH   3   4
ENDBRANCH   2   3
ENDBRANCH   1   2
BRANCH   1  64
ATOM     64  C   UNL A   1      34.580  32.435  29.145  1.00  0.00     0.002 C 
BRANCH  64  65
ATOM     65  C   UNL A   1      33.790  31.766  28.016  1.00  0.00     0.021 C 
BRANCH  65  66
ATOM     66  C   UNL A   1      34.377  30.459  27.487  1.00  0.00     0.116 C 
BRANCH  66  67
ATOM     67  N   UNL A   1      33.423  29.370  27.553  1.00  0.00    -0.351 N 
ATOM     68  C   UNL A   1      32.667  28.822  26.555  1.00  0.00     0.279 C 
ATOM     69  H   UNL A   1      33.304  28.967  28.443  1.00  0.00     0.163 HD
ATOM     70  O   UNL A   1      31.946  27.867  26.854  1.00  0.00    -0.268 OA
BRANCH  68  71
ATOM     71  C   UNL A   1      32.680  29.449  25.144  1.00  0.00     0.284 C 
ATOM     72  C   UNL A   1      31.397  29.128  24.363  1.00  0.00     0.151 C 
ATOM     73  N   UNL A   1      33.904  29.056  24.371  1.00  0.00    -0.319 N 
ATOM     74  S   UNL A   1      31.949  28.551  22.745  1.00  0.00    -0.085 SA
ATOM     75  C   UNL A   1      33.548  28.005  23.400  1.00  0.00     0.303 C 
ATOM     76  H   UNL A   1      34.613  28.701  25.013  1.00  0.00     0.348 HD
ATOM     77  H   UNL A   1      34.273  29.868  23.878  1.00  0.00     0.348 HD
BRANCH  75  78
ATOM     78  C   UNL A   1      33.517  26.575  23.920  1.00  0.00     0.162 A 
ATOM     79  N   UNL A   1      34.147  26.165  25.009  1.00  0.00    -0.242 NA
ATOM     80  S   UNL A   1      32.542  25.357  23.175  1.00  0.00    -0.112 S 
ATOM     81  C   UNL A   1      33.990  24.801  25.164  1.00  0.00     0.132 A 
ATOM     82  C   UNL A   1      33.221  24.177  24.207  1.00  0.00     0.055 A 
BRANCH  82  83
ATOM     83  C   UNL A   1      32.945  22.765  23.994  1.00  0.00    -0.007 A 
ATOM     84  C   UNL A   1      32.292  22.350  22.824  1.00  0.00     0.009 A 
ATOM     85  C   UNL A   1      33.342  21.806  24.933  1.00  0.00     0.009 A 
ATOM     86  C   UNL A   1      32.038  20.997  22.599  1.00  0.00     0.001 A 
ATOM     87  C   UNL A   1      33.082  20.453  24.708  1.00  0.00     0.001 A 
ATOM     88  C   UNL A   1      32.432  20.050  23.542  1.00  0.00     0.000 A 
ENDBRANCH  82  83
ENDBRANCH  75  78
ENDBRANCH  68  71
ENDBRANCH  66  67
ENDBRANCH  65  66
ENDBRANCH  64  65
ENDBRANCH   1  64
TORSDOF 15
ENDMDL
