MODEL 1
REMARK VINA RESULT:     -10.4      0.000      0.000
REMARK SMILES O=C(CCSC1=NC=NC2=[NH+]C=N[C@@H]12)NCCCCCCNC(=O)c1ccc(-c2c3nc(c(-c4c(F)cccc4F)c4ccc([nH]4)c(-c4c(F)cccc4F)c4nc(c(-c5c(F)cccc5F)c5ccc2[nH]5)C=C4)C=C3)cc1
REMARK SMILES IDX 18 1 17 2 16 3 15 4 1 5 2 6 3 8 4 9 5 10 6 11 7 12 14 13
REMARK SMILES IDX 8 14 10 15 13 16 9 17 11 18 12 19 19 21 20 22 21 23 22 24
REMARK SMILES IDX 23 25 24 27 25 28 26 29 78 30 27 31 77 32 28 33 29 34 30 35
REMARK SMILES IDX 71 36 31 37 76 38 70 39 72 40 32 41 75 42 69 43 68 44 33 46
REMARK SMILES IDX 59 47 42 48 58 49 43 50 46 51 57 52 73 53 44 54 45 55 56 57
REMARK SMILES IDX 74 58 47 59 34 60 35 61 40 62 36 63 37 64 39 65 41 66 38 67
REMARK SMILES IDX 60 68 61 69 66 70 62 71 63 72 65 73 67 74 64 75 48 76 49 77
REMARK SMILES IDX 54 78 50 79 51 80 53 81 55 82 52 83
REMARK H PARENT 15 7 11 20 22 26 72 45 46 56
REMARK Flexibility Score: inf
ROOT
ATOM      1  C   UNL A   1      40.389  21.791  27.614  1.00  0.00     0.002 C 
ENDROOT
BRANCH   1   2
ATOM      2  C   UNL A   1      39.697  22.325  26.346  1.00  0.00     0.021 C 
BRANCH   2   3
ATOM      3  C   UNL A   1      38.415  21.691  25.770  1.00  0.00     0.116 C 
BRANCH   3   4
ATOM      4  N   UNL A   1      37.149  22.294  26.125  1.00  0.00    -0.356 N 
ATOM      5  O   UNL A   1      36.947  23.470  24.158  1.00  0.00    -0.275 OA
ATOM      6  C   UNL A   1      36.509  23.164  25.264  1.00  0.00     0.220 C 
ATOM      7  H   UNL A   1      36.737  22.081  26.993  1.00  0.00     0.163 HD
BRANCH   6   8
ATOM      8  C   UNL A   1      35.177  23.683  25.760  1.00  0.00     0.111 C 
BRANCH   8   9
ATOM      9  C   UNL A   1      34.695  24.901  24.976  1.00  0.00     0.086 C 
BRANCH   9  10
ATOM     10  S   UNL A   1      32.933  24.834  24.518  1.00  0.00    -0.106 SA
BRANCH  10  11
ATOM     11  C   UNL A   1      32.481  26.501  24.792  1.00  0.00     0.128 C 
ATOM     12  N   UNL A   1      32.194  26.861  26.000  1.00  0.00    -0.214 NA
ATOM     13  C   UNL A   1      32.364  27.458  23.650  1.00  0.00     0.340 C 
ATOM     14  C   UNL A   1      31.736  28.144  26.185  1.00  0.00     0.320 C 
ATOM     15  C   UNL A   1      32.553  28.796  24.257  1.00  0.00     0.285 C 
ATOM     16  N   UNL A   1      33.479  27.440  22.683  1.00  0.00    -0.130 NA
ATOM     17  N   UNL A   1      31.889  29.138  25.377  1.00  0.00    -0.092 NA
ATOM     18  N   UNL A   1      33.463  29.501  23.698  1.00  0.00    -0.248 N 
ATOM     19  C   UNL A   1      33.978  28.641  22.763  1.00  0.00     0.362 C 
ATOM     20  H   UNL A   1      33.728  30.430  23.889  1.00  0.00     0.266 HD
ENDBRANCH  10  11
ENDBRANCH   9  10
ENDBRANCH   8   9
ENDBRANCH   6   8
ENDBRANCH   3   4
ENDBRANCH   2   3
ENDBRANCH   1   2
BRANCH   1  21
ATOM     21  C   UNL A   1      41.900  21.475  27.695  1.00  0.00     0.002 C 
BRANCH  21  22
ATOM     22  C   UNL A   1      42.453  20.105  27.269  1.00  0.00     0.021 C 
BRANCH  22  23
ATOM     23  C   UNL A   1      42.709  19.916  25.790  1.00  0.00     0.116 C 
BRANCH  23  24
ATOM     24  N   UNL A   1      44.113  19.667  25.445  1.00  0.00    -0.352 N 
ATOM     25  C   UNL A   1      45.044  20.590  24.969  1.00  0.00     0.251 C 
ATOM     26  H   UNL A   1      44.435  18.745  25.563  1.00  0.00     0.163 HD
ATOM     27  O   UNL A   1      46.028  20.256  24.343  1.00  0.00    -0.269 OA
BRANCH  25  28
ATOM     28  C   UNL A   1      44.789  22.007  25.282  1.00  0.00     0.039 A 
ATOM     29  C   UNL A   1      43.778  22.764  24.684  1.00  0.00     0.014 A 
ATOM     30  C   UNL A   1      45.541  22.515  26.326  1.00  0.00     0.014 A 
ATOM     31  C   UNL A   1      43.498  24.017  25.223  1.00  0.00     0.010 A 
ATOM     32  C   UNL A   1      45.021  23.542  27.044  1.00  0.00     0.010 A 
ATOM     33  C   UNL A   1      44.124  24.385  26.422  1.00  0.00    -0.014 A 
BRANCH  33  34
ATOM     34  C   UNL A   1      43.874  25.638  27.107  1.00  0.00     0.031 A 
ATOM     35  C   UNL A   1      44.806  26.732  26.763  1.00  0.00     0.074 A 
ATOM     36  C   UNL A   1      42.744  25.850  27.819  1.00  0.00     0.049 A 
ATOM     37  N   UNL A   1      45.763  27.193  27.494  1.00  0.00    -0.248 NA
ATOM     38  C   UNL A   1      44.787  27.263  25.392  1.00  0.00     0.031 C 
ATOM     39  C   UNL A   1      41.557  24.993  27.978  1.00  0.00     0.029 A 
ATOM     40  N   UNL A   1      42.383  26.970  28.491  1.00  0.00    -0.354 N 
ATOM     41  C   UNL A   1      46.320  28.238  26.768  1.00  0.00     0.074 A 
ATOM     42  C   UNL A   1      45.836  28.091  25.420  1.00  0.00     0.031 C 
ATOM     43  C   UNL A   1      40.535  25.717  28.483  1.00  0.00     0.029 A 
ATOM     44  C   UNL A   1      41.044  27.016  28.862  1.00  0.00     0.049 A 
ATOM     45  H   UNL A   1      43.018  27.693  28.701  1.00  0.00     0.167 HD
ATOM     46  C   UNL A   1      46.918  29.284  27.404  1.00  0.00     0.037 A 
ATOM     47  C   UNL A   1      40.415  28.085  29.405  1.00  0.00     0.037 A 
ATOM     48  C   UNL A   1      47.168  28.969  28.794  1.00  0.00     0.049 A 
ATOM     49  C   UNL A   1      41.476  28.952  29.991  1.00  0.00     0.074 A 
ATOM     50  C   UNL A   1      47.858  27.963  29.445  1.00  0.00     0.029 A 
ATOM     51  N   UNL A   1      46.314  29.496  29.737  1.00  0.00    -0.354 N 
ATOM     52  N   UNL A   1      42.216  28.592  31.007  1.00  0.00    -0.248 NA
ATOM     53  C   UNL A   1      42.059  29.971  29.127  1.00  0.00     0.031 C 
ATOM     54  C   UNL A   1      47.019  27.598  30.541  1.00  0.00     0.029 A 
ATOM     55  C   UNL A   1      45.922  28.460  30.548  1.00  0.00     0.049 A 
ATOM     56  H   UNL A   1      46.038  30.438  29.815  1.00  0.00     0.167 HD
ATOM     57  C   UNL A   1      43.502  29.011  30.684  1.00  0.00     0.074 A 
ATOM     58  C   UNL A   1      43.329  29.910  29.541  1.00  0.00     0.031 C 
ATOM     59  C   UNL A   1      44.611  28.365  31.155  1.00  0.00     0.037 A 
BRANCH  46  60
ATOM     60  C   UNL A   1      46.925  30.702  26.894  1.00  0.00     0.057 A 
ATOM     61  C   UNL A   1      48.126  31.431  26.932  1.00  0.00     0.134 A 
ATOM     62  C   UNL A   1      45.768  31.466  26.641  1.00  0.00     0.134 A 
ATOM     63  F   UNL A   1      49.296  30.819  27.173  1.00  0.00    -0.206 F 
ATOM     64  C   UNL A   1      48.161  32.826  26.811  1.00  0.00     0.040 A 
ATOM     65  C   UNL A   1      45.799  32.852  26.464  1.00  0.00     0.040 A 
ATOM     66  F   UNL A   1      44.538  30.942  26.652  1.00  0.00    -0.206 F 
ATOM     67  C   UNL A   1      46.993  33.542  26.586  1.00  0.00     0.006 A 
ENDBRANCH  46  60
BRANCH  47  68
ATOM     68  C   UNL A   1      39.036  28.544  29.117  1.00  0.00     0.057 A 
ATOM     69  C   UNL A   1      38.067  28.616  30.125  1.00  0.00     0.134 A 
ATOM     70  C   UNL A   1      38.701  29.165  27.898  1.00  0.00     0.134 A 
ATOM     71  F   UNL A   1      38.307  28.095  31.337  1.00  0.00    -0.206 F 
ATOM     72  C   UNL A   1      36.845  29.279  29.938  1.00  0.00     0.040 A 
ATOM     73  C   UNL A   1      37.484  29.823  27.695  1.00  0.00     0.040 A 
ATOM     74  F   UNL A   1      39.578  29.229  26.885  1.00  0.00    -0.206 F 
ATOM     75  C   UNL A   1      36.554  29.893  28.723  1.00  0.00     0.006 A 
ENDBRANCH  47  68
BRANCH  59  76
ATOM     76  C   UNL A   1      44.437  27.297  32.207  1.00  0.00     0.057 A 
ATOM     77  C   UNL A   1      44.325  25.926  31.928  1.00  0.00     0.134 A 
ATOM     78  C   UNL A   1      44.582  27.649  33.553  1.00  0.00     0.134 A 
ATOM     79  F   UNL A   1      44.284  25.475  30.670  1.00  0.00    -0.206 F 
ATOM     80  C   UNL A   1      44.323  24.958  32.939  1.00  0.00     0.040 A 
ATOM     81  C   UNL A   1      44.614  26.691  34.571  1.00  0.00     0.040 A 
ATOM     82  F   UNL A   1      44.755  28.934  33.901  1.00  0.00    -0.206 F 
ATOM     83  C   UNL A   1      44.476  25.340  34.267  1.00  0.00     0.006 A 
ENDBRANCH  59  76
ENDBRANCH  33  34
ENDBRANCH  25  28
ENDBRANCH  23  24
ENDBRANCH  22  23
ENDBRANCH  21  22
ENDBRANCH   1  21
TORSDOF 16
ENDMDL
MODEL 2
REMARK VINA RESULT:     -10.4      1.386      1.818
REMARK SMILES O=C(CCSC1=NC=NC2=[NH+]C=N[C@@H]12)NCCCCCCNC(=O)c1ccc(-c2c3nc(c(-c4c(F)cccc4F)c4ccc([nH]4)c(-c4c(F)cccc4F)c4nc(c(-c5c(F)cccc5F)c5ccc2[nH]5)C=C4)C=C3)cc1
REMARK SMILES IDX 18 1 17 2 16 3 15 4 1 5 2 6 3 8 4 9 5 10 6 11 7 12 14 13
REMARK SMILES IDX 8 14 10 15 13 16 9 17 11 18 12 19 19 21 20 22 21 23 22 24
REMARK SMILES IDX 23 25 24 27 25 28 26 29 78 30 27 31 77 32 28 33 29 34 30 35
REMARK SMILES IDX 71 36 31 37 76 38 70 39 72 40 32 41 75 42 69 43 68 44 33 46
REMARK SMILES IDX 59 47 42 48 58 49 43 50 46 51 57 52 73 53 44 54 45 55 56 57
REMARK SMILES IDX 74 58 47 59 34 60 35 61 40 62 36 63 37 64 39 65 41 66 38 67
REMARK SMILES IDX 60 68 61 69 66 70 62 71 63 72 65 73 67 74 64 75 48 76 49 77
REMARK SMILES IDX 54 78 50 79 51 80 53 81 55 82 52 83
REMARK H PARENT 15 7 11 20 22 26 72 45 46 56
REMARK Flexibility Score: inf
ROOT
ATOM      1  C   UNL A   1      40.617  21.643  26.266  1.00  0.00     0.002 C 
ENDROOT
BRANCH   1   2
ATOM      2  C   UNL A   1      39.109  21.953  26.241  1.00  0.00     0.021 C 
BRANCH   2   3
ATOM      3  C   UNL A   1      38.556  23.392  26.234  1.00  0.00     0.116 C 
BRANCH   3   4
ATOM      4  N   UNL A   1      37.123  23.562  26.337  1.00  0.00    -0.356 N 
ATOM      5  O   UNL A   1      36.762  23.469  24.067  1.00  0.00    -0.275 OA
ATOM      6  C   UNL A   1      36.327  23.593  25.209  1.00  0.00     0.220 C 
ATOM      7  H   UNL A   1      36.708  23.654  27.225  1.00  0.00     0.163 HD
BRANCH   6   8
ATOM      8  C   UNL A   1      34.845  23.739  25.481  1.00  0.00     0.111 C 
BRANCH   8   9
ATOM      9  C   UNL A   1      34.089  22.422  25.320  1.00  0.00     0.086 C 
BRANCH   9  10
ATOM     10  S   UNL A   1      32.684  22.516  24.162  1.00  0.00    -0.106 SA
BRANCH  10  11
ATOM     11  C   UNL A   1      31.450  23.147  25.230  1.00  0.00     0.128 C 
ATOM     12  N   UNL A   1      31.005  22.375  26.167  1.00  0.00    -0.214 NA
ATOM     13  C   UNL A   1      30.882  24.513  25.017  1.00  0.00     0.340 C 
ATOM     14  C   UNL A   1      29.961  22.844  26.928  1.00  0.00     0.320 C 
ATOM     15  C   UNL A   1      30.364  24.918  26.343  1.00  0.00     0.285 C 
ATOM     16  N   UNL A   1      31.867  25.584  24.772  1.00  0.00    -0.130 NA
ATOM     17  N   UNL A   1      29.603  24.075  27.066  1.00  0.00    -0.092 NA
ATOM     18  N   UNL A   1      30.802  26.049  26.754  1.00  0.00    -0.248 N 
ATOM     19  C   UNL A   1      31.692  26.400  25.773  1.00  0.00     0.362 C 
ATOM     20  H   UNL A   1      30.560  26.544  27.570  1.00  0.00     0.266 HD
ENDBRANCH  10  11
ENDBRANCH   9  10
ENDBRANCH   8   9
ENDBRANCH   6   8
ENDBRANCH   3   4
ENDBRANCH   2   3
ENDBRANCH   1   2
BRANCH   1  21
ATOM     21  C   UNL A   1      41.288  20.742  27.328  1.00  0.00     0.002 C 
BRANCH  21  22
ATOM     22  C   UNL A   1      42.452  19.807  26.962  1.00  0.00     0.021 C 
BRANCH  22  23
ATOM     23  C   UNL A   1      42.593  19.455  25.497  1.00  0.00     0.116 C 
BRANCH  23  24
ATOM     24  N   UNL A   1      43.963  19.134  25.080  1.00  0.00    -0.352 N 
ATOM     25  C   UNL A   1      44.930  20.016  24.601  1.00  0.00     0.251 C 
ATOM     26  H   UNL A   1      44.229  18.189  25.148  1.00  0.00     0.163 HD
ATOM     27  O   UNL A   1      45.864  19.649  23.919  1.00  0.00    -0.269 OA
BRANCH  25  28
ATOM     28  C   UNL A   1      44.779  21.432  24.980  1.00  0.00     0.039 A 
ATOM     29  C   UNL A   1      43.839  22.293  24.406  1.00  0.00     0.014 A 
ATOM     30  C   UNL A   1      45.551  21.829  26.057  1.00  0.00     0.014 A 
ATOM     31  C   UNL A   1      43.647  23.537  25.004  1.00  0.00     0.010 A 
ATOM     32  C   UNL A   1      45.099  22.857  26.819  1.00  0.00     0.010 A 
ATOM     33  C   UNL A   1      44.280  23.797  26.228  1.00  0.00    -0.014 A 
BRANCH  33  34
ATOM     34  C   UNL A   1      44.115  25.031  26.970  1.00  0.00     0.031 A 
ATOM     35  C   UNL A   1      45.136  26.062  26.695  1.00  0.00     0.074 A 
ATOM     36  C   UNL A   1      42.992  25.296  27.674  1.00  0.00     0.049 A 
ATOM     37  N   UNL A   1      46.111  26.411  27.463  1.00  0.00    -0.248 NA
ATOM     38  C   UNL A   1      45.185  26.660  25.353  1.00  0.00     0.031 C 
ATOM     39  C   UNL A   1      41.739  24.529  27.772  1.00  0.00     0.029 A 
ATOM     40  N   UNL A   1      42.707  26.407  28.396  1.00  0.00    -0.354 N 
ATOM     41  C   UNL A   1      46.762  27.443  26.799  1.00  0.00     0.074 A 
ATOM     42  C   UNL A   1      46.294  27.400  25.438  1.00  0.00     0.031 C 
ATOM     43  C   UNL A   1      40.767  25.305  28.297  1.00  0.00     0.029 A 
ATOM     44  C   UNL A   1      41.368  26.540  28.748  1.00  0.00     0.049 A 
ATOM     45  H   UNL A   1      43.392  27.066  28.652  1.00  0.00     0.167 HD
ATOM     46  C   UNL A   1      47.427  28.406  27.495  1.00  0.00     0.037 A 
ATOM     47  C   UNL A   1      40.814  27.628  29.334  1.00  0.00     0.037 A 
ATOM     48  C   UNL A   1      47.626  28.006  28.871  1.00  0.00     0.049 A 
ATOM     49  C   UNL A   1      41.928  28.379  29.979  1.00  0.00     0.074 A 
ATOM     50  C   UNL A   1      48.223  26.918  29.482  1.00  0.00     0.029 A 
ATOM     51  N   UNL A   1      46.797  28.552  29.826  1.00  0.00    -0.354 N 
ATOM     52  N   UNL A   1      42.619  27.913  30.987  1.00  0.00    -0.248 NA
ATOM     53  C   UNL A   1      42.605  29.389  29.176  1.00  0.00     0.031 C 
ATOM     54  C   UNL A   1      47.337  26.567  30.545  1.00  0.00     0.029 A 
ATOM     55  C   UNL A   1      46.311  27.512  30.578  1.00  0.00     0.049 A 
ATOM     56  H   UNL A   1      46.594  29.508  29.947  1.00  0.00     0.167 HD
ATOM     57  C   UNL A   1      43.939  28.244  30.705  1.00  0.00     0.074 A 
ATOM     58  C   UNL A   1      43.858  29.208  29.605  1.00  0.00     0.031 C 
ATOM     59  C   UNL A   1      44.985  27.491  31.160  1.00  0.00     0.037 A 
BRANCH  46  60
ATOM     60  C   UNL A   1      47.555  29.842  27.056  1.00  0.00     0.057 A 
ATOM     61  C   UNL A   1      48.804  30.478  27.167  1.00  0.00     0.134 A 
ATOM     62  C   UNL A   1      46.466  30.701  26.807  1.00  0.00     0.134 A 
ATOM     63  F   UNL A   1      49.917  29.770  27.412  1.00  0.00    -0.206 F 
ATOM     64  C   UNL A   1      48.945  31.870  27.117  1.00  0.00     0.040 A 
ATOM     65  C   UNL A   1      46.603  32.088  26.701  1.00  0.00     0.040 A 
ATOM     66  F   UNL A   1      45.201  30.270  26.755  1.00  0.00    -0.206 F 
ATOM     67  C   UNL A   1      47.840  32.681  26.892  1.00  0.00     0.006 A 
ENDBRANCH  46  60
BRANCH  47  68
ATOM     68  C   UNL A   1      39.481  28.208  29.049  1.00  0.00     0.057 A 
ATOM     69  C   UNL A   1      38.487  28.268  30.033  1.00  0.00     0.134 A 
ATOM     70  C   UNL A   1      39.230  28.948  27.877  1.00  0.00     0.134 A 
ATOM     71  F   UNL A   1      38.650  27.633  31.203  1.00  0.00    -0.206 F 
ATOM     72  C   UNL A   1      37.321  29.030  29.870  1.00  0.00     0.040 A 
ATOM     73  C   UNL A   1      38.070  29.707  27.698  1.00  0.00     0.040 A 
ATOM     74  F   UNL A   1      40.142  29.030  26.897  1.00  0.00    -0.206 F 
ATOM     75  C   UNL A   1      37.113  29.761  28.703  1.00  0.00     0.006 A 
ENDBRANCH  47  68
BRANCH  59  76
ATOM     76  C   UNL A   1      44.709  26.390  32.154  1.00  0.00     0.057 A 
ATOM     77  C   UNL A   1      44.483  25.050  31.805  1.00  0.00     0.134 A 
ATOM     78  C   UNL A   1      44.867  26.660  33.518  1.00  0.00     0.134 A 
ATOM     79  F   UNL A   1      44.418  24.667  30.525  1.00  0.00    -0.206 F 
ATOM     80  C   UNL A   1      44.386  24.036  32.765  1.00  0.00     0.040 A 
ATOM     81  C   UNL A   1      44.805  25.653  34.486  1.00  0.00     0.040 A 
ATOM     82  F   UNL A   1      45.146  27.906  33.932  1.00  0.00    -0.206 F 
ATOM     83  C   UNL A   1      44.556  24.335  34.111  1.00  0.00     0.006 A 
ENDBRANCH  59  76
ENDBRANCH  33  34
ENDBRANCH  25  28
ENDBRANCH  23  24
ENDBRANCH  22  23
ENDBRANCH  21  22
ENDBRANCH   1  21
TORSDOF 16
ENDMDL
MODEL 3
REMARK VINA RESULT:     -10.0      4.428      8.847
REMARK SMILES O=C(CCSC1=NC=NC2=[NH+]C=N[C@@H]12)NCCCCCCNC(=O)c1ccc(-c2c3nc(c(-c4c(F)cccc4F)c4ccc([nH]4)c(-c4c(F)cccc4F)c4nc(c(-c5c(F)cccc5F)c5ccc2[nH]5)C=C4)C=C3)cc1
REMARK SMILES IDX 18 1 17 2 16 3 15 4 1 5 2 6 3 8 4 9 5 10 6 11 7 12 14 13
REMARK SMILES IDX 8 14 10 15 13 16 9 17 11 18 12 19 19 21 20 22 21 23 22 24
REMARK SMILES IDX 23 25 24 27 25 28 26 29 78 30 27 31 77 32 28 33 29 34 30 35
REMARK SMILES IDX 71 36 31 37 76 38 70 39 72 40 32 41 75 42 69 43 68 44 33 46
REMARK SMILES IDX 59 47 42 48 58 49 43 50 46 51 57 52 73 53 44 54 45 55 56 57
REMARK SMILES IDX 74 58 47 59 34 60 35 61 40 62 36 63 37 64 39 65 41 66 38 67
REMARK SMILES IDX 60 68 61 69 66 70 62 71 63 72 65 73 67 74 64 75 48 76 49 77
REMARK SMILES IDX 54 78 50 79 51 80 53 81 55 82 52 83
REMARK H PARENT 15 7 11 20 22 26 72 45 46 56
REMARK Flexibility Score: inf
ROOT
ATOM      1  C   UNL A   1      40.133  29.939  32.225  1.00  0.00     0.002 C 
ENDROOT
BRANCH   1   2
ATOM      2  C   UNL A   1      40.564  31.328  32.730  1.00  0.00     0.021 C 
BRANCH   2   3
ATOM      3  C   UNL A   1      40.124  31.888  34.098  1.00  0.00     0.116 C 
BRANCH   3   4
ATOM      4  N   UNL A   1      38.959  32.745  34.130  1.00  0.00    -0.356 N 
ATOM      5  O   UNL A   1      37.714  31.316  35.432  1.00  0.00    -0.275 OA
ATOM      6  C   UNL A   1      37.817  32.369  34.809  1.00  0.00     0.220 C 
ATOM      7  H   UNL A   1      38.981  33.610  33.660  1.00  0.00     0.163 HD
BRANCH   6   8
ATOM      8  C   UNL A   1      36.698  33.387  34.782  1.00  0.00     0.111 C 
BRANCH   8   9
ATOM      9  C   UNL A   1      36.782  34.316  33.573  1.00  0.00     0.086 C 
BRANCH   9  10
ATOM     10  S   UNL A   1      35.665  33.854  32.209  1.00  0.00    -0.106 SA
BRANCH  10  11
ATOM     11  C   UNL A   1      34.569  35.217  32.236  1.00  0.00     0.128 C 
ATOM     12  N   UNL A   1      34.864  36.218  32.999  1.00  0.00    -0.214 NA
ATOM     13  C   UNL A   1      33.296  35.188  31.453  1.00  0.00     0.340 C 
ATOM     14  C   UNL A   1      33.942  37.233  33.093  1.00  0.00     0.320 C 
ATOM     15  C   UNL A   1      32.954  36.613  31.237  1.00  0.00     0.285 C 
ATOM     16  N   UNL A   1      33.414  34.724  30.057  1.00  0.00    -0.130 NA
ATOM     17  N   UNL A   1      32.991  37.487  32.260  1.00  0.00    -0.092 NA
ATOM     18  N   UNL A   1      32.751  36.923  30.012  1.00  0.00    -0.248 N 
ATOM     19  C   UNL A   1      33.037  35.755  29.356  1.00  0.00     0.362 C 
ATOM     20  H   UNL A   1      32.462  37.785  29.634  1.00  0.00     0.266 HD
ENDBRANCH  10  11
ENDBRANCH   9  10
ENDBRANCH   8   9
ENDBRANCH   6   8
ENDBRANCH   3   4
ENDBRANCH   2   3
ENDBRANCH   1   2
BRANCH   1  21
ATOM     21  C   UNL A   1      38.997  29.110  32.866  1.00  0.00     0.002 C 
BRANCH  21  22
ATOM     22  C   UNL A   1      37.527  29.326  32.468  1.00  0.00     0.021 C 
BRANCH  22  23
ATOM     23  C   UNL A   1      37.282  30.218  31.270  1.00  0.00     0.116 C 
BRANCH  23  24
ATOM     24  N   UNL A   1      36.247  29.729  30.353  1.00  0.00    -0.352 N 
ATOM     25  C   UNL A   1      36.400  29.378  29.012  1.00  0.00     0.251 C 
ATOM     26  H   UNL A   1      35.341  29.637  30.726  1.00  0.00     0.163 HD
ATOM     27  O   UNL A   1      35.472  29.371  28.231  1.00  0.00    -0.269 OA
BRANCH  25  28
ATOM     28  C   UNL A   1      37.756  28.991  28.582  1.00  0.00     0.039 A 
ATOM     29  C   UNL A   1      38.513  29.715  27.658  1.00  0.00     0.014 A 
ATOM     30  C   UNL A   1      38.297  27.917  29.267  1.00  0.00     0.014 A 
ATOM     31  C   UNL A   1      39.855  29.372  27.504  1.00  0.00     0.010 A 
ATOM     32  C   UNL A   1      39.647  27.846  29.372  1.00  0.00     0.010 A 
ATOM     33  C   UNL A   1      40.412  28.438  28.389  1.00  0.00    -0.014 A 
BRANCH  33  34
ATOM     34  C   UNL A   1      41.806  28.041  28.363  1.00  0.00     0.031 A 
ATOM     35  C   UNL A   1      42.089  26.817  27.586  1.00  0.00     0.074 A 
ATOM     36  C   UNL A   1      42.788  28.852  28.816  1.00  0.00     0.049 A 
ATOM     37  N   UNL A   1      42.367  25.648  28.054  1.00  0.00    -0.248 NA
ATOM     38  C   UNL A   1      41.879  26.846  26.131  1.00  0.00     0.031 C 
ATOM     39  C   UNL A   1      42.713  30.239  29.303  1.00  0.00     0.029 A 
ATOM     40  N   UNL A   1      44.121  28.610  28.838  1.00  0.00    -0.354 N 
ATOM     41  C   UNL A   1      42.601  24.844  26.945  1.00  0.00     0.074 A 
ATOM     42  C   UNL A   1      42.077  25.564  25.813  1.00  0.00     0.031 C 
ATOM     43  C   UNL A   1      43.950  30.781  29.333  1.00  0.00     0.029 A 
ATOM     44  C   UNL A   1      44.909  29.733  29.062  1.00  0.00     0.049 A 
ATOM     45  H   UNL A   1      44.502  27.712  28.707  1.00  0.00     0.167 HD
ATOM     46  C   UNL A   1      43.443  23.777  27.027  1.00  0.00     0.037 A 
ATOM     47  C   UNL A   1      46.260  29.775  28.981  1.00  0.00     0.037 A 
ATOM     48  C   UNL A   1      43.730  23.449  28.406  1.00  0.00     0.049 A 
ATOM     49  C   UNL A   1      46.740  28.372  29.132  1.00  0.00     0.074 A 
ATOM     50  C   UNL A   1      42.950  23.128  29.503  1.00  0.00     0.029 A 
ATOM     51  N   UNL A   1      44.942  23.846  28.924  1.00  0.00    -0.354 N 
ATOM     52  N   UNL A   1      46.607  27.684  30.235  1.00  0.00    -0.248 NA
ATOM     53  C   UNL A   1      46.878  27.579  27.917  1.00  0.00     0.031 C 
ATOM     54  C   UNL A   1      43.535  23.848  30.588  1.00  0.00     0.029 A 
ATOM     55  C   UNL A   1      44.683  24.483  30.112  1.00  0.00     0.049 A 
ATOM     56  H   UNL A   1      45.828  23.699  28.519  1.00  0.00     0.167 HD
ATOM     57  C   UNL A   1      46.224  26.412  29.824  1.00  0.00     0.074 A 
ATOM     58  C   UNL A   1      46.470  26.393  28.381  1.00  0.00     0.031 C 
ATOM     59  C   UNL A   1      45.458  25.598  30.613  1.00  0.00     0.037 A 
BRANCH  46  60
ATOM     60  C   UNL A   1      44.303  23.280  25.894  1.00  0.00     0.057 A 
ATOM     61  C   UNL A   1      44.320  21.905  25.606  1.00  0.00     0.134 A 
ATOM     62  C   UNL A   1      45.318  24.035  25.271  1.00  0.00     0.134 A 
ATOM     63  F   UNL A   1      43.411  21.078  26.145  1.00  0.00    -0.206 F 
ATOM     64  C   UNL A   1      45.321  21.313  24.826  1.00  0.00     0.040 A 
ATOM     65  C   UNL A   1      46.290  23.462  24.446  1.00  0.00     0.040 A 
ATOM     66  F   UNL A   1      45.494  25.340  25.502  1.00  0.00    -0.206 F 
ATOM     67  C   UNL A   1      46.316  22.092  24.250  1.00  0.00     0.006 A 
ENDBRANCH  46  60
BRANCH  47  68
ATOM     68  C   UNL A   1      47.083  30.876  28.427  1.00  0.00     0.057 A 
ATOM     69  C   UNL A   1      46.882  31.352  27.126  1.00  0.00     0.134 A 
ATOM     70  C   UNL A   1      47.918  31.660  29.246  1.00  0.00     0.134 A 
ATOM     71  F   UNL A   1      46.069  30.701  26.282  1.00  0.00    -0.206 F 
ATOM     72  C   UNL A   1      47.464  32.544  26.670  1.00  0.00     0.040 A 
ATOM     73  C   UNL A   1      48.510  32.847  28.803  1.00  0.00     0.040 A 
ATOM     74  F   UNL A   1      48.123  31.348  30.534  1.00  0.00    -0.206 F 
ATOM     75  C   UNL A   1      48.273  33.301  27.513  1.00  0.00     0.006 A 
ENDBRANCH  47  68
BRANCH  59  76
ATOM     76  C   UNL A   1      45.190  26.012  32.038  1.00  0.00     0.057 A 
ATOM     77  C   UNL A   1      44.036  26.692  32.460  1.00  0.00     0.134 A 
ATOM     78  C   UNL A   1      46.037  25.539  33.047  1.00  0.00     0.134 A 
ATOM     79  F   UNL A   1      43.111  27.097  31.583  1.00  0.00    -0.206 F 
ATOM     80  C   UNL A   1      43.756  26.917  33.812  1.00  0.00     0.040 A 
ATOM     81  C   UNL A   1      45.754  25.728  34.403  1.00  0.00     0.040 A 
ATOM     82  F   UNL A   1      47.130  24.828  32.733  1.00  0.00    -0.206 F 
ATOM     83  C   UNL A   1      44.614  26.427  34.790  1.00  0.00     0.006 A 
ENDBRANCH  59  76
ENDBRANCH  33  34
ENDBRANCH  25  28
ENDBRANCH  23  24
ENDBRANCH  22  23
ENDBRANCH  21  22
ENDBRANCH   1  21
TORSDOF 16
ENDMDL
