MODEL 1
REMARK VINA RESULT:     -10.7      0.000      0.000
REMARK SMILES O=C(NCCCCCCNC(=O)[C@H](C[NH+]1CCCC1)c1ccc(Br)cc1)c1ccc(-c2c3nc(c(-c4c(F)cccc4F)c4ccc([nH]4)c(-c4c(F)cccc4F)c4nc(c(-c5c(F)cccc5F)c5ccc2[nH]5)C=C4)C=C3)cc1
REMARK SMILES IDX 6 1 5 2 4 3 3 4 1 5 2 6 27 8 28 9 80 10 29 11 79 12 30 13
REMARK SMILES IDX 31 14 32 15 73 16 33 17 78 18 72 19 74 20 34 21 77 22 71 23
REMARK SMILES IDX 70 24 35 26 61 27 44 28 60 29 45 30 48 31 59 32 75 33 46 34
REMARK SMILES IDX 47 35 58 37 76 38 49 39 36 40 37 41 42 42 38 43 39 44 41 45
REMARK SMILES IDX 43 46 40 47 62 48 63 49 68 50 64 51 65 52 67 53 69 54 66 55
REMARK SMILES IDX 50 56 51 57 56 58 52 59 53 60 55 61 57 62 54 63 7 64 8 65
REMARK SMILES IDX 9 66 10 67 11 68 12 70 13 71 20 72 21 73 26 74 22 75 25 76
REMARK SMILES IDX 23 77 24 78 14 79 15 80 16 81 19 82 17 84 18 85
REMARK H PARENT 3 7 74 25 48 36 10 69 15 83
REMARK Flexibility Score: inf
ROOT
ATOM      1  C   UNL A   1      36.378  20.858  25.116  1.00  0.00     0.002 C 
ENDROOT
BRANCH   1   2
ATOM      2  C   UNL A   1      37.707  20.191  24.770  1.00  0.00     0.021 C 
BRANCH   2   3
ATOM      3  C   UNL A   1      38.858  20.468  25.729  1.00  0.00     0.116 C 
BRANCH   3   4
ATOM      4  N   UNL A   1      39.906  19.461  25.694  1.00  0.00    -0.352 N 
ATOM      5  O   UNL A   1      41.999  18.632  25.881  1.00  0.00    -0.269 OA
ATOM      6  C   UNL A   1      41.228  19.571  26.057  1.00  0.00     0.251 C 
ATOM      7  H   UNL A   1      39.630  18.576  25.362  1.00  0.00     0.163 HD
BRANCH   6   8
ATOM      8  C   UNL A   1      41.732  20.842  26.624  1.00  0.00     0.039 A 
ATOM      9  C   UNL A   1      41.748  21.056  28.003  1.00  0.00     0.014 A 
ATOM     10  C   UNL A   1      42.167  21.846  25.755  1.00  0.00     0.014 A 
ATOM     11  C   UNL A   1      42.033  22.323  28.501  1.00  0.00     0.010 A 
ATOM     12  C   UNL A   1      42.541  23.095  26.264  1.00  0.00     0.010 A 
ATOM     13  C   UNL A   1      42.431  23.359  27.637  1.00  0.00    -0.014 A 
BRANCH  13  14
ATOM     14  C   UNL A   1      42.740  24.697  28.205  1.00  0.00     0.031 A 
ATOM     15  C   UNL A   1      44.155  25.101  28.520  1.00  0.00     0.074 A 
ATOM     16  C   UNL A   1      41.734  25.572  28.392  1.00  0.00     0.049 A 
ATOM     17  N   UNL A   1      44.604  26.249  28.968  1.00  0.00    -0.248 NA
ATOM     18  C   UNL A   1      45.203  24.090  28.318  1.00  0.00     0.031 C 
ATOM     19  C   UNL A   1      40.318  25.295  28.138  1.00  0.00     0.029 A 
ATOM     20  N   UNL A   1      41.746  26.878  28.811  1.00  0.00    -0.354 N 
ATOM     21  C   UNL A   1      45.975  26.089  29.125  1.00  0.00     0.074 A 
ATOM     22  C   UNL A   1      46.284  24.727  28.745  1.00  0.00     0.031 C 
ATOM     23  C   UNL A   1      39.607  26.411  28.350  1.00  0.00     0.029 A 
ATOM     24  C   UNL A   1      40.505  27.466  28.805  1.00  0.00     0.049 A 
ATOM     25  H   UNL A   1      42.565  27.349  29.088  1.00  0.00     0.167 HD
ATOM     26  C   UNL A   1      46.893  26.996  29.538  1.00  0.00     0.037 A 
ATOM     27  C   UNL A   1      40.128  28.715  29.133  1.00  0.00     0.037 A 
ATOM     28  C   UNL A   1      46.589  28.361  29.887  1.00  0.00     0.049 A 
ATOM     29  C   UNL A   1      41.166  29.700  29.581  1.00  0.00     0.074 A 
ATOM     30  C   UNL A   1      47.458  29.367  30.276  1.00  0.00     0.029 A 
ATOM     31  N   UNL A   1      45.316  28.911  29.889  1.00  0.00    -0.354 N 
ATOM     32  N   UNL A   1      42.463  29.543  29.687  1.00  0.00    -0.248 NA
ATOM     33  C   UNL A   1      40.688  31.038  29.955  1.00  0.00     0.031 C 
ATOM     34  C   UNL A   1      46.706  30.515  30.549  1.00  0.00     0.029 A 
ATOM     35  C   UNL A   1      45.375  30.237  30.288  1.00  0.00     0.049 A 
ATOM     36  H   UNL A   1      44.493  28.431  29.643  1.00  0.00     0.167 HD
ATOM     37  C   UNL A   1      42.959  30.766  30.120  1.00  0.00     0.074 A 
ATOM     38  C   UNL A   1      41.824  31.659  30.239  1.00  0.00     0.031 C 
ATOM     39  C   UNL A   1      44.238  31.116  30.397  1.00  0.00     0.037 A 
BRANCH  26  40
ATOM     40  C   UNL A   1      48.319  26.541  29.653  1.00  0.00     0.057 A 
ATOM     41  C   UNL A   1      48.807  25.907  30.803  1.00  0.00     0.134 A 
ATOM     42  C   UNL A   1      49.205  26.700  28.579  1.00  0.00     0.134 A 
ATOM     43  F   UNL A   1      48.014  25.732  31.870  1.00  0.00    -0.206 F 
ATOM     44  C   UNL A   1      50.130  25.465  30.888  1.00  0.00     0.040 A 
ATOM     45  C   UNL A   1      50.523  26.243  28.644  1.00  0.00     0.040 A 
ATOM     46  F   UNL A   1      48.801  27.293  27.445  1.00  0.00    -0.206 F 
ATOM     47  C   UNL A   1      50.989  25.628  29.804  1.00  0.00     0.006 A 
ENDBRANCH  26  40
BRANCH  27  48
ATOM     48  C   UNL A   1      38.701  29.105  29.029  1.00  0.00     0.057 A 
ATOM     49  C   UNL A   1      38.157  29.537  27.814  1.00  0.00     0.134 A 
ATOM     50  C   UNL A   1      37.846  29.046  30.136  1.00  0.00     0.134 A 
ATOM     51  F   UNL A   1      38.931  29.630  26.723  1.00  0.00    -0.206 F 
ATOM     52  C   UNL A   1      36.816  29.909  27.707  1.00  0.00     0.040 A 
ATOM     53  C   UNL A   1      36.498  29.390  30.037  1.00  0.00     0.040 A 
ATOM     54  F   UNL A   1      38.307  28.631  31.326  1.00  0.00    -0.206 F 
ATOM     55  C   UNL A   1      35.981  29.830  28.820  1.00  0.00     0.006 A 
ENDBRANCH  27  48
BRANCH  39  56
ATOM     56  C   UNL A   1      44.478  32.534  30.819  1.00  0.00     0.057 A 
ATOM     57  C   UNL A   1      44.718  33.552  29.889  1.00  0.00     0.134 A 
ATOM     58  C   UNL A   1      44.455  32.886  32.174  1.00  0.00     0.134 A 
ATOM     59  F   UNL A   1      44.768  33.276  28.576  1.00  0.00    -0.206 F 
ATOM     60  C   UNL A   1      44.955  34.867  30.292  1.00  0.00     0.040 A 
ATOM     61  C   UNL A   1      44.666  34.201  32.589  1.00  0.00     0.040 A 
ATOM     62  F   UNL A   1      44.224  31.959  33.116  1.00  0.00    -0.206 F 
ATOM     63  C   UNL A   1      44.925  35.195  31.647  1.00  0.00     0.006 A 
ENDBRANCH  39  56
ENDBRANCH  13  14
ENDBRANCH   6   8
ENDBRANCH   3   4
ENDBRANCH   2   3
ENDBRANCH   1   2
BRANCH   1  64
ATOM     64  C   UNL A   1      36.172  22.274  24.569  1.00  0.00     0.002 C 
BRANCH  64  65
ATOM     65  C   UNL A   1      36.124  23.407  25.600  1.00  0.00     0.021 C 
BRANCH  65  66
ATOM     66  C   UNL A   1      35.145  24.541  25.302  1.00  0.00     0.116 C 
BRANCH  66  67
ATOM     67  N   UNL A   1      33.969  24.503  26.148  1.00  0.00    -0.355 N 
ATOM     68  C   UNL A   1      32.709  24.071  25.840  1.00  0.00     0.233 C 
ATOM     69  H   UNL A   1      34.093  24.833  27.067  1.00  0.00     0.163 HD
ATOM     70  O   UNL A   1      31.893  24.030  26.763  1.00  0.00    -0.274 OA
BRANCH  68  71
ATOM     71  C   UNL A   1      32.339  23.713  24.391  1.00  0.00     0.163 C 
BRANCH  71  72
ATOM     72  C   UNL A   1      32.397  22.217  24.083  1.00  0.00    -0.030 A 
ATOM     73  C   UNL A   1      32.182  21.694  22.801  1.00  0.00     0.006 A 
ATOM     74  C   UNL A   1      32.705  21.327  25.132  1.00  0.00     0.006 A 
ATOM     75  C   UNL A   1      32.234  20.314  22.584  1.00  0.00     0.016 A 
ATOM     76  C   UNL A   1      32.777  19.952  24.913  1.00  0.00     0.016 A 
ATOM     77  C   UNL A   1      32.532  19.452  23.638  1.00  0.00     0.017 A 
ATOM     78  Br  UNL A   1      32.611  17.587  23.337  1.00  0.00    -0.051 Br
ENDBRANCH  71  72
BRANCH  71  79
ATOM     79  C   UNL A   1      30.963  24.351  24.040  1.00  0.00     0.280 C 
BRANCH  79  80
ATOM     80  N   UNL A   1      30.810  25.716  24.586  1.00  0.00    -0.334 N 
ATOM     81  C   UNL A   1      29.459  26.021  25.061  1.00  0.00     0.262 C 
ATOM     82  C   UNL A   1      31.139  26.746  23.581  1.00  0.00     0.262 C 
ATOM     83  H   UNL A   1      31.457  25.735  25.374  1.00  0.00     0.348 HD
ATOM     84  C   UNL A   1      28.746  26.615  23.866  1.00  0.00     0.067 C 
ATOM     85  C   UNL A   1      29.832  27.429  23.191  1.00  0.00     0.067 C 
ENDBRANCH  79  80
ENDBRANCH  71  79
ENDBRANCH  68  71
ENDBRANCH  66  67
ENDBRANCH  65  66
ENDBRANCH  64  65
ENDBRANCH   1  64
TORSDOF 16
ENDMDL
MODEL 2
REMARK VINA RESULT:     -10.7      4.367      9.278
REMARK SMILES O=C(NCCCCCCNC(=O)[C@H](C[NH+]1CCCC1)c1ccc(Br)cc1)c1ccc(-c2c3nc(c(-c4c(F)cccc4F)c4ccc([nH]4)c(-c4c(F)cccc4F)c4nc(c(-c5c(F)cccc5F)c5ccc2[nH]5)C=C4)C=C3)cc1
REMARK SMILES IDX 6 1 5 2 4 3 3 4 1 5 2 6 27 8 28 9 80 10 29 11 79 12 30 13
REMARK SMILES IDX 31 14 32 15 73 16 33 17 78 18 72 19 74 20 34 21 77 22 71 23
REMARK SMILES IDX 70 24 35 26 61 27 44 28 60 29 45 30 48 31 59 32 75 33 46 34
REMARK SMILES IDX 47 35 58 37 76 38 49 39 36 40 37 41 42 42 38 43 39 44 41 45
REMARK SMILES IDX 43 46 40 47 62 48 63 49 68 50 64 51 65 52 67 53 69 54 66 55
REMARK SMILES IDX 50 56 51 57 56 58 52 59 53 60 55 61 57 62 54 63 7 64 8 65
REMARK SMILES IDX 9 66 10 67 11 68 12 70 13 71 20 72 21 73 26 74 22 75 25 76
REMARK SMILES IDX 23 77 24 78 14 79 15 80 16 81 19 82 17 84 18 85
REMARK H PARENT 3 7 74 25 48 36 10 69 15 83
REMARK Flexibility Score: inf
ROOT
ATOM      1  C   UNL A   1      31.640  30.467  25.817  1.00  0.00     0.002 C 
ENDROOT
BRANCH   1   2
ATOM      2  C   UNL A   1      31.419  31.641  26.768  1.00  0.00     0.021 C 
BRANCH   2   3
ATOM      3  C   UNL A   1      32.650  32.483  27.080  1.00  0.00     0.116 C 
BRANCH   3   4
ATOM      4  N   UNL A   1      32.342  33.849  27.470  1.00  0.00    -0.352 N 
ATOM      5  O   UNL A   1      32.545  35.772  28.637  1.00  0.00    -0.269 OA
ATOM      6  C   UNL A   1      32.996  34.664  28.364  1.00  0.00     0.251 C 
ATOM      7  H   UNL A   1      31.554  34.246  27.033  1.00  0.00     0.163 HD
BRANCH   6   8
ATOM      8  C   UNL A   1      34.228  34.186  29.031  1.00  0.00     0.039 A 
ATOM      9  C   UNL A   1      35.489  34.553  28.559  1.00  0.00     0.014 A 
ATOM     10  C   UNL A   1      34.115  33.331  30.131  1.00  0.00     0.014 A 
ATOM     11  C   UNL A   1      36.624  33.935  29.072  1.00  0.00     0.010 A 
ATOM     12  C   UNL A   1      35.264  32.778  30.705  1.00  0.00     0.010 A 
ATOM     13  C   UNL A   1      36.526  33.038  30.150  1.00  0.00    -0.014 A 
BRANCH  13  14
ATOM     14  C   UNL A   1      37.761  32.404  30.681  1.00  0.00     0.031 A 
ATOM     15  C   UNL A   1      38.397  32.886  31.958  1.00  0.00     0.074 A 
ATOM     16  C   UNL A   1      38.285  31.351  30.025  1.00  0.00     0.049 A 
ATOM     17  N   UNL A   1      39.443  32.411  32.588  1.00  0.00    -0.248 NA
ATOM     18  C   UNL A   1      37.789  34.057  32.609  1.00  0.00     0.031 C 
ATOM     19  C   UNL A   1      37.770  30.799  28.770  1.00  0.00     0.029 A 
ATOM     20  N   UNL A   1      39.347  30.540  30.333  1.00  0.00    -0.354 N 
ATOM     21  C   UNL A   1      39.634  33.235  33.690  1.00  0.00     0.074 A 
ATOM     22  C   UNL A   1      38.608  34.256  33.632  1.00  0.00     0.031 C 
ATOM     23  C   UNL A   1      38.478  29.708  28.447  1.00  0.00     0.029 A 
ATOM     24  C   UNL A   1      39.529  29.514  29.440  1.00  0.00     0.049 A 
ATOM     25  H   UNL A   1      39.923  30.679  31.120  1.00  0.00     0.167 HD
ATOM     26  C   UNL A   1      40.571  33.145  34.664  1.00  0.00     0.037 A 
ATOM     27  C   UNL A   1      40.442  28.526  29.417  1.00  0.00     0.037 A 
ATOM     28  C   UNL A   1      41.573  32.112  34.737  1.00  0.00     0.049 A 
ATOM     29  C   UNL A   1      41.464  28.447  30.512  1.00  0.00     0.074 A 
ATOM     30  C   UNL A   1      42.539  31.912  35.709  1.00  0.00     0.029 A 
ATOM     31  N   UNL A   1      41.738  31.103  33.799  1.00  0.00    -0.354 N 
ATOM     32  N   UNL A   1      41.607  29.213  31.566  1.00  0.00    -0.248 NA
ATOM     33  C   UNL A   1      42.454  27.365  30.414  1.00  0.00     0.031 C 
ATOM     34  C   UNL A   1      43.311  30.805  35.341  1.00  0.00     0.029 A 
ATOM     35  C   UNL A   1      42.799  30.289  34.162  1.00  0.00     0.049 A 
ATOM     36  H   UNL A   1      41.183  30.983  32.996  1.00  0.00     0.167 HD
ATOM     37  C   UNL A   1      42.687  28.695  32.267  1.00  0.00     0.074 A 
ATOM     38  C   UNL A   1      43.151  27.539  31.527  1.00  0.00     0.031 C 
ATOM     39  C   UNL A   1      43.246  29.138  33.419  1.00  0.00     0.037 A 
BRANCH  26  40
ATOM     40  C   UNL A   1      40.572  34.204  35.729  1.00  0.00     0.057 A 
ATOM     41  C   UNL A   1      41.247  35.420  35.568  1.00  0.00     0.134 A 
ATOM     42  C   UNL A   1      39.850  34.019  36.915  1.00  0.00     0.134 A 
ATOM     43  F   UNL A   1      41.966  35.656  34.460  1.00  0.00    -0.206 F 
ATOM     44  C   UNL A   1      41.220  36.407  36.556  1.00  0.00     0.040 A 
ATOM     45  C   UNL A   1      39.796  35.008  37.901  1.00  0.00     0.040 A 
ATOM     46  F   UNL A   1      39.174  32.880  37.131  1.00  0.00    -0.206 F 
ATOM     47  C   UNL A   1      40.488  36.204  37.724  1.00  0.00     0.006 A 
ENDBRANCH  26  40
BRANCH  27  48
ATOM     48  C   UNL A   1      40.415  27.523  28.325  1.00  0.00     0.057 A 
ATOM     49  C   UNL A   1      41.135  27.723  27.142  1.00  0.00     0.134 A 
ATOM     50  C   UNL A   1      39.677  26.339  28.441  1.00  0.00     0.134 A 
ATOM     51  F   UNL A   1      41.847  28.845  26.968  1.00  0.00    -0.206 F 
ATOM     52  C   UNL A   1      41.113  26.787  26.107  1.00  0.00     0.040 A 
ATOM     53  C   UNL A   1      39.666  25.383  27.426  1.00  0.00     0.040 A 
ATOM     54  F   UNL A   1      38.972  26.086  29.554  1.00  0.00    -0.206 F 
ATOM     55  C   UNL A   1      40.381  25.609  26.251  1.00  0.00     0.006 A 
ENDBRANCH  27  48
BRANCH  39  56
ATOM     56  C   UNL A   1      44.397  28.347  33.964  1.00  0.00     0.057 A 
ATOM     57  C   UNL A   1      45.725  28.667  33.656  1.00  0.00     0.134 A 
ATOM     58  C   UNL A   1      44.172  27.261  34.818  1.00  0.00     0.134 A 
ATOM     59  F   UNL A   1      46.005  29.687  32.830  1.00  0.00    -0.206 F 
ATOM     60  C   UNL A   1      46.790  27.916  34.157  1.00  0.00     0.040 A 
ATOM     61  C   UNL A   1      45.229  26.517  35.345  1.00  0.00     0.040 A 
ATOM     62  F   UNL A   1      42.923  26.907  35.158  1.00  0.00    -0.206 F 
ATOM     63  C   UNL A   1      46.542  26.840  35.008  1.00  0.00     0.006 A 
ENDBRANCH  39  56
ENDBRANCH  13  14
ENDBRANCH   6   8
ENDBRANCH   3   4
ENDBRANCH   2   3
ENDBRANCH   1   2
BRANCH   1  64
ATOM     64  C   UNL A   1      32.075  29.149  26.462  1.00  0.00     0.002 C 
BRANCH  64  65
ATOM     65  C   UNL A   1      33.475  28.638  26.101  1.00  0.00     0.021 C 
BRANCH  65  66
ATOM     66  C   UNL A   1      33.663  27.123  26.134  1.00  0.00     0.116 C 
BRANCH  66  67
ATOM     67  N   UNL A   1      33.970  26.567  24.831  1.00  0.00    -0.355 N 
ATOM     68  C   UNL A   1      33.108  26.144  23.858  1.00  0.00     0.233 C 
ATOM     69  H   UNL A   1      34.928  26.484  24.618  1.00  0.00     0.163 HD
ATOM     70  O   UNL A   1      33.605  25.811  22.779  1.00  0.00    -0.274 OA
BRANCH  68  71
ATOM     71  C   UNL A   1      31.600  26.045  24.141  1.00  0.00     0.163 C 
BRANCH  71  72
ATOM     72  C   UNL A   1      30.776  27.184  23.540  1.00  0.00    -0.030 A 
ATOM     73  C   UNL A   1      31.353  28.261  22.854  1.00  0.00     0.006 A 
ATOM     74  C   UNL A   1      29.373  27.134  23.660  1.00  0.00     0.006 A 
ATOM     75  C   UNL A   1      30.548  29.281  22.338  1.00  0.00     0.016 A 
ATOM     76  C   UNL A   1      28.568  28.139  23.128  1.00  0.00     0.016 A 
ATOM     77  C   UNL A   1      29.162  29.214  22.476  1.00  0.00     0.017 A 
ATOM     78  Br  UNL A   1      28.077  30.591  21.767  1.00  0.00    -0.051 Br
ENDBRANCH  71  72
BRANCH  71  79
ATOM     79  C   UNL A   1      31.089  24.638  23.715  1.00  0.00     0.280 C 
BRANCH  79  80
ATOM     80  N   UNL A   1      30.512  23.873  24.841  1.00  0.00    -0.334 N 
ATOM     81  C   UNL A   1      30.636  24.537  26.139  1.00  0.00     0.262 C 
ATOM     82  C   UNL A   1      31.150  22.551  24.987  1.00  0.00     0.262 C 
ATOM     83  H   UNL A   1      29.525  23.792  24.596  1.00  0.00     0.348 HD
ATOM     84  C   UNL A   1      31.945  24.039  26.712  1.00  0.00     0.067 C 
ATOM     85  C   UNL A   1      31.986  22.592  26.262  1.00  0.00     0.067 C 
ENDBRANCH  79  80
ENDBRANCH  71  79
ENDBRANCH  68  71
ENDBRANCH  66  67
ENDBRANCH  65  66
ENDBRANCH  64  65
ENDBRANCH   1  64
TORSDOF 16
ENDMDL
MODEL 3
REMARK VINA RESULT:     -10.6      4.529      9.371
REMARK SMILES O=C(NCCCCCCNC(=O)[C@H](C[NH+]1CCCC1)c1ccc(Br)cc1)c1ccc(-c2c3nc(c(-c4c(F)cccc4F)c4ccc([nH]4)c(-c4c(F)cccc4F)c4nc(c(-c5c(F)cccc5F)c5ccc2[nH]5)C=C4)C=C3)cc1
REMARK SMILES IDX 6 1 5 2 4 3 3 4 1 5 2 6 27 8 28 9 80 10 29 11 79 12 30 13
REMARK SMILES IDX 31 14 32 15 73 16 33 17 78 18 72 19 74 20 34 21 77 22 71 23
REMARK SMILES IDX 70 24 35 26 61 27 44 28 60 29 45 30 48 31 59 32 75 33 46 34
REMARK SMILES IDX 47 35 58 37 76 38 49 39 36 40 37 41 42 42 38 43 39 44 41 45
REMARK SMILES IDX 43 46 40 47 62 48 63 49 68 50 64 51 65 52 67 53 69 54 66 55
REMARK SMILES IDX 50 56 51 57 56 58 52 59 53 60 55 61 57 62 54 63 7 64 8 65
REMARK SMILES IDX 9 66 10 67 11 68 12 70 13 71 20 72 21 73 26 74 22 75 25 76
REMARK SMILES IDX 23 77 24 78 14 79 15 80 16 81 19 82 17 84 18 85
REMARK H PARENT 3 7 74 25 48 36 10 69 15 83
REMARK Flexibility Score: inf
ROOT
ATOM      1  C   UNL A   1      32.063  30.532  26.927  1.00  0.00     0.002 C 
ENDROOT
BRANCH   1   2
ATOM      2  C   UNL A   1      31.505  31.952  26.876  1.00  0.00     0.021 C 
BRANCH   2   3
ATOM      3  C   UNL A   1      32.531  33.062  26.692  1.00  0.00     0.116 C 
BRANCH   3   4
ATOM      4  N   UNL A   1      32.318  34.208  27.561  1.00  0.00    -0.352 N 
ATOM      5  O   UNL A   1      32.656  35.557  29.341  1.00  0.00    -0.269 OA
ATOM      6  C   UNL A   1      33.032  34.601  28.670  1.00  0.00     0.251 C 
ATOM      7  H   UNL A   1      31.555  34.782  27.324  1.00  0.00     0.163 HD
BRANCH   6   8
ATOM      8  C   UNL A   1      34.234  33.840  29.078  1.00  0.00     0.039 A 
ATOM      9  C   UNL A   1      34.128  32.716  29.898  1.00  0.00     0.014 A 
ATOM     10  C   UNL A   1      35.491  34.280  28.654  1.00  0.00     0.014 A 
ATOM     11  C   UNL A   1      35.276  32.140  30.430  1.00  0.00     0.010 A 
ATOM     12  C   UNL A   1      36.646  33.643  29.119  1.00  0.00     0.010 A 
ATOM     13  C   UNL A   1      36.550  32.598  30.050  1.00  0.00    -0.014 A 
BRANCH  13  14
ATOM     14  C   UNL A   1      37.756  31.951  30.630  1.00  0.00     0.031 A 
ATOM     15  C   UNL A   1      38.226  32.286  32.020  1.00  0.00     0.074 A 
ATOM     16  C   UNL A   1      38.402  31.015  29.909  1.00  0.00     0.049 A 
ATOM     17  N   UNL A   1      39.225  31.775  32.697  1.00  0.00    -0.248 NA
ATOM     18  C   UNL A   1      37.491  33.336  32.742  1.00  0.00     0.031 C 
ATOM     19  C   UNL A   1      38.052  30.612  28.545  1.00  0.00     0.029 A 
ATOM     20  N   UNL A   1      39.468  30.213  30.228  1.00  0.00    -0.354 N 
ATOM     21  C   UNL A   1      39.255  32.455  33.908  1.00  0.00     0.074 A 
ATOM     22  C   UNL A   1      38.187  33.432  33.866  1.00  0.00     0.031 C 
ATOM     23  C   UNL A   1      38.848  29.602  28.167  1.00  0.00     0.029 A 
ATOM     24  C   UNL A   1      39.799  29.322  29.238  1.00  0.00     0.049 A 
ATOM     25  H   UNL A   1      39.950  30.272  31.085  1.00  0.00     0.167 HD
ATOM     26  C   UNL A   1      40.089  32.276  34.961  1.00  0.00     0.037 A 
ATOM     27  C   UNL A   1      40.762  28.383  29.192  1.00  0.00     0.037 A 
ATOM     28  C   UNL A   1      41.132  31.283  35.014  1.00  0.00     0.049 A 
ATOM     29  C   UNL A   1      41.666  28.203  30.375  1.00  0.00     0.074 A 
ATOM     30  C   UNL A   1      42.000  30.998  36.055  1.00  0.00     0.029 A 
ATOM     31  N   UNL A   1      41.449  30.414  33.981  1.00  0.00    -0.354 N 
ATOM     32  N   UNL A   1      41.656  28.829  31.526  1.00  0.00    -0.248 NA
ATOM     33  C   UNL A   1      42.718  27.185  30.252  1.00  0.00     0.031 C 
ATOM     34  C   UNL A   1      42.866  29.980  35.637  1.00  0.00     0.029 A 
ATOM     35  C   UNL A   1      42.509  29.603  34.354  1.00  0.00     0.049 A 
ATOM     36  H   UNL A   1      40.988  30.378  33.112  1.00  0.00     0.167 HD
ATOM     37  C   UNL A   1      42.683  28.268  32.273  1.00  0.00     0.074 A 
ATOM     38  C   UNL A   1      43.284  27.239  31.449  1.00  0.00     0.031 C 
ATOM     39  C   UNL A   1      43.093  28.579  33.526  1.00  0.00     0.037 A 
BRANCH  26  40
ATOM     40  C   UNL A   1      39.920  33.185  36.145  1.00  0.00     0.057 A 
ATOM     41  C   UNL A   1      39.044  32.883  37.195  1.00  0.00     0.134 A 
ATOM     42  C   UNL A   1      40.680  34.357  36.255  1.00  0.00     0.134 A 
ATOM     43  F   UNL A   1      38.280  31.782  37.147  1.00  0.00    -0.206 F 
ATOM     44  C   UNL A   1      38.914  33.725  38.303  1.00  0.00     0.040 A 
ATOM     45  C   UNL A   1      40.576  35.194  37.369  1.00  0.00     0.040 A 
ATOM     46  F   UNL A   1      41.545  34.702  35.289  1.00  0.00    -0.206 F 
ATOM     47  C   UNL A   1      39.686  34.880  38.393  1.00  0.00     0.006 A 
ENDBRANCH  26  40
BRANCH  27  48
ATOM     48  C   UNL A   1      40.903  27.532  27.987  1.00  0.00     0.057 A 
ATOM     49  C   UNL A   1      41.672  27.948  26.895  1.00  0.00     0.134 A 
ATOM     50  C   UNL A   1      40.282  26.280  27.901  1.00  0.00     0.134 A 
ATOM     51  F   UNL A   1      42.278  29.145  26.913  1.00  0.00    -0.206 F 
ATOM     52  C   UNL A   1      41.809  27.156  25.754  1.00  0.00     0.040 A 
ATOM     53  C   UNL A   1      40.431  25.467  26.778  1.00  0.00     0.040 A 
ATOM     54  F   UNL A   1      39.538  25.822  28.918  1.00  0.00    -0.206 F 
ATOM     55  C   UNL A   1      41.192  25.908  25.696  1.00  0.00     0.006 A 
ENDBRANCH  27  48
BRANCH  39  56
ATOM     56  C   UNL A   1      44.222  27.771  34.091  1.00  0.00     0.057 A 
ATOM     57  C   UNL A   1      44.004  26.549  34.740  1.00  0.00     0.134 A 
ATOM     58  C   UNL A   1      45.544  28.215  33.973  1.00  0.00     0.134 A 
ATOM     59  F   UNL A   1      42.758  26.076  34.899  1.00  0.00    -0.206 F 
ATOM     60  C   UNL A   1      45.060  25.810  35.276  1.00  0.00     0.040 A 
ATOM     61  C   UNL A   1      46.611  27.474  34.484  1.00  0.00     0.040 A 
ATOM     62  F   UNL A   1      45.821  29.375  33.357  1.00  0.00    -0.206 F 
ATOM     63  C   UNL A   1      46.369  26.272  35.144  1.00  0.00     0.006 A 
ENDBRANCH  39  56
ENDBRANCH  13  14
ENDBRANCH   6   8
ENDBRANCH   3   4
ENDBRANCH   2   3
ENDBRANCH   1   2
BRANCH   1  64
ATOM     64  C   UNL A   1      33.567  30.408  27.189  1.00  0.00     0.002 C 
BRANCH  64  65
ATOM     65  C   UNL A   1      34.133  28.985  27.272  1.00  0.00     0.021 C 
BRANCH  65  66
ATOM     66  C   UNL A   1      33.310  27.898  26.584  1.00  0.00     0.116 C 
BRANCH  66  67
ATOM     67  N   UNL A   1      33.840  27.529  25.286  1.00  0.00    -0.355 N 
ATOM     68  C   UNL A   1      33.182  26.988  24.218  1.00  0.00     0.233 C 
ATOM     69  H   UNL A   1      34.802  27.691  25.157  1.00  0.00     0.163 HD
ATOM     70  O   UNL A   1      33.824  26.863  23.173  1.00  0.00    -0.274 OA
BRANCH  68  71
ATOM     71  C   UNL A   1      31.726  26.513  24.358  1.00  0.00     0.163 C 
BRANCH  71  72
ATOM     72  C   UNL A   1      30.688  27.549  23.926  1.00  0.00    -0.030 A 
ATOM     73  C   UNL A   1      29.372  27.211  23.581  1.00  0.00     0.006 A 
ATOM     74  C   UNL A   1      31.064  28.907  23.898  1.00  0.00     0.006 A 
ATOM     75  C   UNL A   1      28.470  28.201  23.181  1.00  0.00     0.016 A 
ATOM     76  C   UNL A   1      30.161  29.898  23.518  1.00  0.00     0.016 A 
ATOM     77  C   UNL A   1      28.868  29.538  23.152  1.00  0.00     0.017 A 
ATOM     78  Br  UNL A   1      27.643  30.874  22.620  1.00  0.00    -0.051 Br
ENDBRANCH  71  72
BRANCH  71  79
ATOM     79  C   UNL A   1      31.559  25.148  23.628  1.00  0.00     0.280 C 
BRANCH  79  80
ATOM     80  N   UNL A   1      32.721  24.254  23.814  1.00  0.00    -0.334 N 
ATOM     81  C   UNL A   1      33.006  23.397  22.662  1.00  0.00     0.262 C 
ATOM     82  C   UNL A   1      32.537  23.351  24.968  1.00  0.00     0.262 C 
ATOM     83  H   UNL A   1      33.500  24.897  23.958  1.00  0.00     0.348 HD
ATOM     84  C   UNL A   1      32.221  22.128  22.912  1.00  0.00     0.067 C 
ATOM     85  C   UNL A   1      32.336  21.946  24.413  1.00  0.00     0.067 C 
ENDBRANCH  79  80
ENDBRANCH  71  79
ENDBRANCH  68  71
ENDBRANCH  66  67
ENDBRANCH  65  66
ENDBRANCH  64  65
ENDBRANCH   1  64
TORSDOF 16
ENDMDL
