MODEL 1
REMARK VINA RESULT:      -8.7      0.000      0.000
REMARK SMILES O=C(CCCc1csc2ccccc12)NCCCCCCNC(=O)c1ccc(-c2c3nc(c(-c4c(F)cccc4F)c4ccc([nH]4)c(-c4c(F)cccc4F)c4nc(c(-c5c(F)cccc5F)c5ccc2[nH]5)C=C4)C=C3)cc1
REMARK SMILES IDX 18 1 17 2 16 3 15 4 1 5 2 6 3 8 4 9 5 10 6 11 7 12 14 13
REMARK SMILES IDX 8 14 9 15 13 16 10 17 12 18 11 19 19 20 20 21 21 22 22 23
REMARK SMILES IDX 23 24 24 26 25 27 26 28 78 29 27 30 77 31 28 32 29 33 30 34
REMARK SMILES IDX 71 35 31 36 76 37 70 38 72 39 32 40 75 41 69 42 68 43 33 45
REMARK SMILES IDX 59 46 42 47 58 48 43 49 46 50 57 51 73 52 44 53 45 54 56 56
REMARK SMILES IDX 74 57 47 58 34 59 35 60 40 61 36 62 37 63 39 64 41 65 38 66
REMARK SMILES IDX 60 67 61 68 66 69 62 70 63 71 65 72 67 73 64 74 48 75 49 76
REMARK SMILES IDX 54 77 50 78 51 79 53 80 55 81 52 82
REMARK H PARENT 15 7 22 25 72 44 46 55
REMARK Flexibility Score: inf
ROOT
ATOM      1  C   UNL A   1      45.680  21.838  25.640  1.00  0.00     0.002 C 
ENDROOT
BRANCH   1   2
ATOM      2  C   UNL A   1      45.488  23.259  25.080  1.00  0.00     0.021 C 
BRANCH   2   3
ATOM      3  C   UNL A   1      46.764  23.957  24.594  1.00  0.00     0.116 C 
BRANCH   3   4
ATOM      4  N   UNL A   1      46.761  25.354  24.977  1.00  0.00    -0.356 N 
ATOM      5  O   UNL A   1      48.218  26.128  23.405  1.00  0.00    -0.275 OA
ATOM      6  C   UNL A   1      47.514  26.336  24.390  1.00  0.00     0.220 C 
ATOM      7  H   UNL A   1      46.171  25.619  25.720  1.00  0.00     0.163 HD
BRANCH   6   8
ATOM      8  C   UNL A   1      47.553  27.681  25.119  1.00  0.00     0.100 C 
BRANCH   8   9
ATOM      9  C   UNL A   1      47.477  27.712  26.644  1.00  0.00     0.015 C 
BRANCH   9  10
ATOM     10  C   UNL A   1      47.007  28.964  27.389  1.00  0.00     0.037 C 
BRANCH  10  11
ATOM     11  C   UNL A   1      45.558  29.401  27.304  1.00  0.00    -0.029 A 
ATOM     12  C   UNL A   1      45.200  30.673  27.721  1.00  0.00     0.069 A 
ATOM     13  C   UNL A   1      44.402  28.724  26.711  1.00  0.00    -0.004 A 
ATOM     14  S   UNL A   1      43.586  31.081  27.403  1.00  0.00    -0.144 S 
ATOM     15  C   UNL A   1      43.274  29.558  26.678  1.00  0.00     0.035 A 
ATOM     16  C   UNL A   1      44.218  27.435  26.143  1.00  0.00     0.010 A 
ATOM     17  C   UNL A   1      42.049  29.155  26.099  1.00  0.00     0.019 A 
ATOM     18  C   UNL A   1      43.008  27.020  25.577  1.00  0.00     0.001 A 
ATOM     19  C   UNL A   1      41.930  27.882  25.549  1.00  0.00     0.001 A 
ENDBRANCH  10  11
ENDBRANCH   9  10
ENDBRANCH   8   9
ENDBRANCH   6   8
ENDBRANCH   3   4
ENDBRANCH   2   3
ENDBRANCH   1   2
BRANCH   1  20
ATOM     20  C   UNL A   1      46.039  20.757  24.620  1.00  0.00     0.002 C 
BRANCH  20  21
ATOM     21  C   UNL A   1      44.955  19.708  24.392  1.00  0.00     0.021 C 
BRANCH  21  22
ATOM     22  C   UNL A   1      44.270  19.216  25.661  1.00  0.00     0.116 C 
BRANCH  22  23
ATOM     23  N   UNL A   1      42.879  18.847  25.441  1.00  0.00    -0.352 N 
ATOM     24  C   UNL A   1      41.734  19.496  25.844  1.00  0.00     0.251 C 
ATOM     25  H   UNL A   1      42.738  18.018  24.932  1.00  0.00     0.163 HD
ATOM     26  O   UNL A   1      40.641  18.959  25.715  1.00  0.00    -0.269 OA
BRANCH  24  27
ATOM     27  C   UNL A   1      41.830  20.836  26.461  1.00  0.00     0.039 A 
ATOM     28  C   UNL A   1      41.773  20.946  27.852  1.00  0.00     0.014 A 
ATOM     29  C   UNL A   1      41.990  21.979  25.673  1.00  0.00     0.014 A 
ATOM     30  C   UNL A   1      41.954  22.193  28.456  1.00  0.00     0.010 A 
ATOM     31  C   UNL A   1      42.253  23.206  26.277  1.00  0.00     0.010 A 
ATOM     32  C   UNL A   1      42.238  23.326  27.675  1.00  0.00    -0.014 A 
BRANCH  32  33
ATOM     33  C   UNL A   1      42.532  24.641  28.302  1.00  0.00     0.031 A 
ATOM     34  C   UNL A   1      43.895  24.925  28.869  1.00  0.00     0.074 A 
ATOM     35  C   UNL A   1      41.552  25.560  28.417  1.00  0.00     0.049 A 
ATOM     36  N   UNL A   1      44.321  25.983  29.510  1.00  0.00    -0.248 NA
ATOM     37  C   UNL A   1      44.908  23.868  28.715  1.00  0.00     0.031 C 
ATOM     38  C   UNL A   1      40.176  25.394  27.944  1.00  0.00     0.029 A 
ATOM     39  N   UNL A   1      41.562  26.815  28.972  1.00  0.00    -0.354 N 
ATOM     40  C   UNL A   1      45.644  25.718  29.841  1.00  0.00     0.074 A 
ATOM     41  C   UNL A   1      45.932  24.377  29.385  1.00  0.00     0.031 C 
ATOM     42  C   UNL A   1      39.484  26.514  28.204  1.00  0.00     0.029 A 
ATOM     43  C   UNL A   1      40.351  27.460  28.900  1.00  0.00     0.049 A 
ATOM     44  H   UNL A   1      42.362  27.215  29.384  1.00  0.00     0.167 HD
ATOM     45  C   UNL A   1      46.545  26.528  30.446  1.00  0.00     0.037 A 
ATOM     46  C   UNL A   1      39.978  28.673  29.350  1.00  0.00     0.037 A 
ATOM     47  C   UNL A   1      46.260  27.868  30.890  1.00  0.00     0.049 A 
ATOM     48  C   UNL A   1      40.988  29.540  30.052  1.00  0.00     0.074 A 
ATOM     49  C   UNL A   1      47.117  28.782  31.478  1.00  0.00     0.029 A 
ATOM     50  N   UNL A   1      45.020  28.484  30.801  1.00  0.00    -0.354 N 
ATOM     51  N   UNL A   1      42.250  29.298  30.305  1.00  0.00    -0.248 NA
ATOM     52  C   UNL A   1      40.520  30.851  30.524  1.00  0.00     0.031 C 
ATOM     53  C   UNL A   1      46.385  29.931  31.790  1.00  0.00     0.029 A 
ATOM     54  C   UNL A   1      45.085  29.757  31.344  1.00  0.00     0.049 A 
ATOM     55  H   UNL A   1      44.214  28.077  30.410  1.00  0.00     0.167 HD
ATOM     56  C   UNL A   1      42.736  30.436  30.938  1.00  0.00     0.074 A 
ATOM     57  C   UNL A   1      41.634  31.373  31.016  1.00  0.00     0.031 C 
ATOM     58  C   UNL A   1      43.983  30.684  31.409  1.00  0.00     0.037 A 
BRANCH  45  59
ATOM     59  C   UNL A   1      47.929  25.986  30.661  1.00  0.00     0.057 A 
ATOM     60  C   UNL A   1      48.850  25.873  29.609  1.00  0.00     0.134 A 
ATOM     61  C   UNL A   1      48.361  25.603  31.936  1.00  0.00     0.134 A 
ATOM     62  F   UNL A   1      48.498  26.213  28.359  1.00  0.00    -0.206 F 
ATOM     63  C   UNL A   1      50.137  25.376  29.814  1.00  0.00     0.040 A 
ATOM     64  C   UNL A   1      49.656  25.131  32.159  1.00  0.00     0.040 A 
ATOM     65  F   UNL A   1      47.535  25.689  32.991  1.00  0.00    -0.206 F 
ATOM     66  C   UNL A   1      50.546  25.010  31.094  1.00  0.00     0.006 A 
ENDBRANCH  45  59
BRANCH  46  67
ATOM     67  C   UNL A   1      38.588  29.153  29.134  1.00  0.00     0.057 A 
ATOM     68  C   UNL A   1      37.650  29.135  30.174  1.00  0.00     0.134 A 
ATOM     69  C   UNL A   1      38.161  29.630  27.890  1.00  0.00     0.134 A 
ATOM     70  F   UNL A   1      37.993  28.671  31.384  1.00  0.00    -0.206 F 
ATOM     71  C   UNL A   1      36.333  29.552  29.978  1.00  0.00     0.040 A 
ATOM     72  C   UNL A   1      36.855  30.078  27.687  1.00  0.00     0.040 A 
ATOM     73  F   UNL A   1      39.013  29.681  26.855  1.00  0.00    -0.206 F 
ATOM     74  C   UNL A   1      35.933  30.031  28.732  1.00  0.00     0.006 A 
ENDBRANCH  46  67
BRANCH  58  75
ATOM     75  C   UNL A   1      44.237  32.035  32.014  1.00  0.00     0.057 A 
ATOM     76  C   UNL A   1      44.653  33.128  31.245  1.00  0.00     0.134 A 
ATOM     77  C   UNL A   1      44.024  32.251  33.382  1.00  0.00     0.134 A 
ATOM     78  F   UNL A   1      44.888  32.985  29.931  1.00  0.00    -0.206 F 
ATOM     79  C   UNL A   1      44.872  34.382  31.818  1.00  0.00     0.040 A 
ATOM     80  C   UNL A   1      44.209  33.508  33.960  1.00  0.00     0.040 A 
ATOM     81  F   UNL A   1      43.615  31.250  34.175  1.00  0.00    -0.206 F 
ATOM     82  C   UNL A   1      44.641  34.576  33.178  1.00  0.00     0.006 A 
ENDBRANCH  58  75
ENDBRANCH  32  33
ENDBRANCH  24  27
ENDBRANCH  22  23
ENDBRANCH  21  22
ENDBRANCH  20  21
ENDBRANCH   1  20
TORSDOF 16
ENDMDL
MODEL 2
REMARK VINA RESULT:      -8.4      4.473     10.455
REMARK SMILES O=C(CCCc1csc2ccccc12)NCCCCCCNC(=O)c1ccc(-c2c3nc(c(-c4c(F)cccc4F)c4ccc([nH]4)c(-c4c(F)cccc4F)c4nc(c(-c5c(F)cccc5F)c5ccc2[nH]5)C=C4)C=C3)cc1
REMARK SMILES IDX 18 1 17 2 16 3 15 4 1 5 2 6 3 8 4 9 5 10 6 11 7 12 14 13
REMARK SMILES IDX 8 14 9 15 13 16 10 17 12 18 11 19 19 20 20 21 21 22 22 23
REMARK SMILES IDX 23 24 24 26 25 27 26 28 78 29 27 30 77 31 28 32 29 33 30 34
REMARK SMILES IDX 71 35 31 36 76 37 70 38 72 39 32 40 75 41 69 42 68 43 33 45
REMARK SMILES IDX 59 46 42 47 58 48 43 49 46 50 57 51 73 52 44 53 45 54 56 56
REMARK SMILES IDX 74 57 47 58 34 59 35 60 40 61 36 62 37 63 39 64 41 65 38 66
REMARK SMILES IDX 60 67 61 68 66 69 62 70 63 71 65 72 67 73 64 74 48 75 49 76
REMARK SMILES IDX 54 77 50 78 51 79 53 80 55 81 52 82
REMARK H PARENT 15 7 22 25 72 44 46 55
REMARK Flexibility Score: inf
ROOT
ATOM      1  C   UNL A   1      33.389  35.095  29.150  1.00  0.00     0.002 C 
ENDROOT
BRANCH   1   2
ATOM      2  C   UNL A   1      33.300  36.631  29.115  1.00  0.00     0.021 C 
BRANCH   2   3
ATOM      3  C   UNL A   1      33.305  37.326  30.482  1.00  0.00     0.116 C 
BRANCH   3   4
ATOM      4  N   UNL A   1      33.645  36.387  31.531  1.00  0.00    -0.356 N 
ATOM      5  O   UNL A   1      34.057  37.889  33.195  1.00  0.00    -0.275 OA
ATOM      6  C   UNL A   1      34.037  36.726  32.799  1.00  0.00     0.220 C 
ATOM      7  H   UNL A   1      33.592  35.427  31.316  1.00  0.00     0.163 HD
BRANCH   6   8
ATOM      8  C   UNL A   1      34.599  35.591  33.657  1.00  0.00     0.100 C 
BRANCH   8   9
ATOM      9  C   UNL A   1      34.368  34.142  33.232  1.00  0.00     0.015 C 
BRANCH   9  10
ATOM     10  C   UNL A   1      35.444  33.073  33.440  1.00  0.00     0.037 C 
BRANCH  10  11
ATOM     11  C   UNL A   1      36.816  33.465  33.954  1.00  0.00    -0.029 A 
ATOM     12  C   UNL A   1      37.101  33.345  35.305  1.00  0.00     0.069 A 
ATOM     13  C   UNL A   1      38.020  33.861  33.220  1.00  0.00    -0.004 A 
ATOM     14  S   UNL A   1      38.720  33.649  35.704  1.00  0.00    -0.144 S 
ATOM     15  C   UNL A   1      39.134  33.958  34.068  1.00  0.00     0.035 A 
ATOM     16  C   UNL A   1      38.279  34.121  31.848  1.00  0.00     0.010 A 
ATOM     17  C   UNL A   1      40.427  34.268  33.589  1.00  0.00     0.019 A 
ATOM     18  C   UNL A   1      39.553  34.438  31.363  1.00  0.00     0.001 A 
ATOM     19  C   UNL A   1      40.623  34.504  32.231  1.00  0.00     0.001 A 
ENDBRANCH  10  11
ENDBRANCH   9  10
ENDBRANCH   8   9
ENDBRANCH   6   8
ENDBRANCH   3   4
ENDBRANCH   2   3
ENDBRANCH   1   2
BRANCH   1  20
ATOM     20  C   UNL A   1      34.505  34.467  28.315  1.00  0.00     0.002 C 
BRANCH  20  21
ATOM     21  C   UNL A   1      35.636  33.841  29.125  1.00  0.00     0.021 C 
BRANCH  21  22
ATOM     22  C   UNL A   1      35.262  32.550  29.846  1.00  0.00     0.116 C 
BRANCH  22  23
ATOM     23  N   UNL A   1      34.420  31.681  29.038  1.00  0.00    -0.352 N 
ATOM     24  C   UNL A   1      34.762  30.550  28.333  1.00  0.00     0.251 C 
ATOM     25  H   UNL A   1      33.472  31.938  28.988  1.00  0.00     0.163 HD
ATOM     26  O   UNL A   1      33.959  30.030  27.569  1.00  0.00    -0.269 OA
BRANCH  24  27
ATOM     27  C   UNL A   1      36.118  29.977  28.480  1.00  0.00     0.039 A 
ATOM     28  C   UNL A   1      37.034  30.130  27.436  1.00  0.00     0.014 A 
ATOM     29  C   UNL A   1      36.491  29.306  29.648  1.00  0.00     0.014 A 
ATOM     30  C   UNL A   1      38.345  29.677  27.595  1.00  0.00     0.010 A 
ATOM     31  C   UNL A   1      37.818  28.930  29.837  1.00  0.00     0.010 A 
ATOM     32  C   UNL A   1      38.760  29.111  28.812  1.00  0.00    -0.014 A 
BRANCH  32  33
ATOM     33  C   UNL A   1      40.174  28.714  29.037  1.00  0.00     0.031 A 
ATOM     34  C   UNL A   1      41.140  29.673  29.676  1.00  0.00     0.074 A 
ATOM     35  C   UNL A   1      40.605  27.510  28.609  1.00  0.00     0.049 A 
ATOM     36  N   UNL A   1      42.423  29.533  29.894  1.00  0.00    -0.248 NA
ATOM     37  C   UNL A   1      40.597  30.971  30.106  1.00  0.00     0.031 C 
ATOM     38  C   UNL A   1      39.780  26.505  27.939  1.00  0.00     0.029 A 
ATOM     39  N   UNL A   1      41.848  26.931  28.670  1.00  0.00    -0.354 N 
ATOM     40  C   UNL A   1      42.840  30.722  30.478  1.00  0.00     0.074 A 
ATOM     41  C   UNL A   1      41.688  31.596  30.524  1.00  0.00     0.031 C 
ATOM     42  C   UNL A   1      40.531  25.423  27.676  1.00  0.00     0.029 A 
ATOM     43  C   UNL A   1      41.899  25.675  28.118  1.00  0.00     0.049 A 
ATOM     44  H   UNL A   1      42.631  27.376  29.071  1.00  0.00     0.167 HD
ATOM     45  C   UNL A   1      44.064  31.049  30.956  1.00  0.00     0.037 A 
ATOM     46  C   UNL A   1      42.933  24.822  27.976  1.00  0.00     0.037 A 
ATOM     47  C   UNL A   1      45.207  30.174  30.920  1.00  0.00     0.049 A 
ATOM     48  C   UNL A   1      44.291  25.223  28.483  1.00  0.00     0.074 A 
ATOM     49  C   UNL A   1      46.480  30.398  31.415  1.00  0.00     0.029 A 
ATOM     50  N   UNL A   1      45.218  28.909  30.350  1.00  0.00    -0.354 N 
ATOM     51  N   UNL A   1      44.656  26.328  29.085  1.00  0.00    -0.248 NA
ATOM     52  C   UNL A   1      45.379  24.253  28.296  1.00  0.00     0.031 C 
ATOM     53  C   UNL A   1      47.274  29.291  31.101  1.00  0.00     0.029 A 
ATOM     54  C   UNL A   1      46.482  28.351  30.462  1.00  0.00     0.049 A 
ATOM     55  H   UNL A   1      44.443  28.472  29.929  1.00  0.00     0.167 HD
ATOM     56  C   UNL A   1      46.006  26.175  29.376  1.00  0.00     0.074 A 
ATOM     57  C   UNL A   1      46.390  24.863  28.896  1.00  0.00     0.031 C 
ATOM     58  C   UNL A   1      46.850  27.041  29.987  1.00  0.00     0.037 A 
BRANCH  45  59
ATOM     59  C   UNL A   1      44.229  32.412  31.565  1.00  0.00     0.057 A 
ATOM     60  C   UNL A   1      44.607  33.523  30.797  1.00  0.00     0.134 A 
ATOM     61  C   UNL A   1      43.977  32.627  32.925  1.00  0.00     0.134 A 
ATOM     62  F   UNL A   1      44.874  33.385  29.490  1.00  0.00    -0.206 F 
ATOM     63  C   UNL A   1      44.753  34.789  31.365  1.00  0.00     0.040 A 
ATOM     64  C   UNL A   1      44.090  33.894  33.499  1.00  0.00     0.040 A 
ATOM     65  F   UNL A   1      43.605  31.610  33.719  1.00  0.00    -0.206 F 
ATOM     66  C   UNL A   1      44.487  34.979  32.720  1.00  0.00     0.006 A 
ENDBRANCH  45  59
BRANCH  46  67
ATOM     67  C   UNL A   1      42.722  23.494  27.344  1.00  0.00     0.057 A 
ATOM     68  C   UNL A   1      42.336  22.386  28.108  1.00  0.00     0.134 A 
ATOM     69  C   UNL A   1      42.908  23.296  25.971  1.00  0.00     0.134 A 
ATOM     70  F   UNL A   1      42.161  22.507  29.432  1.00  0.00    -0.206 F 
ATOM     71  C   UNL A   1      42.165  21.125  27.534  1.00  0.00     0.040 A 
ATOM     72  C   UNL A   1      42.713  22.048  25.379  1.00  0.00     0.040 A 
ATOM     73  F   UNL A   1      43.270  24.319  25.182  1.00  0.00    -0.206 F 
ATOM     74  C   UNL A   1      42.348  20.955  26.164  1.00  0.00     0.006 A 
ENDBRANCH  46  67
BRANCH  58  75
ATOM     75  C   UNL A   1      48.264  26.586  30.211  1.00  0.00     0.057 A 
ATOM     76  C   UNL A   1      48.635  25.838  31.336  1.00  0.00     0.134 A 
ATOM     77  C   UNL A   1      49.259  26.869  29.266  1.00  0.00     0.134 A 
ATOM     78  F   UNL A   1      47.734  25.545  32.285  1.00  0.00    -0.206 F 
ATOM     79  C   UNL A   1      49.951  25.409  31.524  1.00  0.00     0.040 A 
ATOM     80  C   UNL A   1      50.570  26.419  29.429  1.00  0.00     0.040 A 
ATOM     81  F   UNL A   1      48.970  27.572  28.161  1.00  0.00    -0.206 F 
ATOM     82  C   UNL A   1      50.920  25.692  30.564  1.00  0.00     0.006 A 
ENDBRANCH  58  75
ENDBRANCH  32  33
ENDBRANCH  24  27
ENDBRANCH  22  23
ENDBRANCH  21  22
ENDBRANCH  20  21
ENDBRANCH   1  20
TORSDOF 16
ENDMDL
MODEL 3
REMARK VINA RESULT:      -8.4      5.709     11.502
REMARK SMILES O=C(CCCc1csc2ccccc12)NCCCCCCNC(=O)c1ccc(-c2c3nc(c(-c4c(F)cccc4F)c4ccc([nH]4)c(-c4c(F)cccc4F)c4nc(c(-c5c(F)cccc5F)c5ccc2[nH]5)C=C4)C=C3)cc1
REMARK SMILES IDX 18 1 17 2 16 3 15 4 1 5 2 6 3 8 4 9 5 10 6 11 7 12 14 13
REMARK SMILES IDX 8 14 9 15 13 16 10 17 12 18 11 19 19 20 20 21 21 22 22 23
REMARK SMILES IDX 23 24 24 26 25 27 26 28 78 29 27 30 77 31 28 32 29 33 30 34
REMARK SMILES IDX 71 35 31 36 76 37 70 38 72 39 32 40 75 41 69 42 68 43 33 45
REMARK SMILES IDX 59 46 42 47 58 48 43 49 46 50 57 51 73 52 44 53 45 54 56 56
REMARK SMILES IDX 74 57 47 58 34 59 35 60 40 61 36 62 37 63 39 64 41 65 38 66
REMARK SMILES IDX 60 67 61 68 66 69 62 70 63 71 65 72 67 73 64 74 48 75 49 76
REMARK SMILES IDX 54 77 50 78 51 79 53 80 55 81 52 82
REMARK H PARENT 15 7 22 25 72 44 46 55
REMARK Flexibility Score: inf
ROOT
ATOM      1  C   UNL A   1      32.742  29.915  26.222  1.00  0.00     0.002 C 
ENDROOT
BRANCH   1   2
ATOM      2  C   UNL A   1      32.660  28.391  26.023  1.00  0.00     0.021 C 
BRANCH   2   3
ATOM      3  C   UNL A   1      32.233  27.585  27.257  1.00  0.00     0.116 C 
BRANCH   3   4
ATOM      4  N   UNL A   1      31.346  26.503  26.878  1.00  0.00    -0.356 N 
ATOM      5  O   UNL A   1      32.922  24.896  26.525  1.00  0.00    -0.275 OA
ATOM      6  C   UNL A   1      31.746  25.249  26.499  1.00  0.00     0.220 C 
ATOM      7  H   UNL A   1      30.378  26.684  26.894  1.00  0.00     0.163 HD
BRANCH   6   8
ATOM      8  C   UNL A   1      30.665  24.353  25.892  1.00  0.00     0.100 C 
BRANCH   8   9
ATOM      9  C   UNL A   1      31.021  23.431  24.727  1.00  0.00     0.015 C 
BRANCH   9  10
ATOM     10  C   UNL A   1      31.105  23.961  23.293  1.00  0.00     0.037 C 
BRANCH  10  11
ATOM     11  C   UNL A   1      31.609  25.366  23.030  1.00  0.00    -0.029 A 
ATOM     12  C   UNL A   1      32.902  25.554  22.567  1.00  0.00     0.069 A 
ATOM     13  C   UNL A   1      30.897  26.646  23.063  1.00  0.00    -0.004 A 
ATOM     14  S   UNL A   1      33.265  27.157  22.151  1.00  0.00    -0.144 S 
ATOM     15  C   UNL A   1      31.691  27.693  22.571  1.00  0.00     0.035 A 
ATOM     16  C   UNL A   1      29.581  27.014  23.450  1.00  0.00     0.010 A 
ATOM     17  C   UNL A   1      31.209  29.016  22.446  1.00  0.00     0.019 A 
ATOM     18  C   UNL A   1      29.095  28.322  23.340  1.00  0.00     0.001 A 
ATOM     19  C   UNL A   1      29.905  29.316  22.832  1.00  0.00     0.001 A 
ENDBRANCH  10  11
ENDBRANCH   9  10
ENDBRANCH   8   9
ENDBRANCH   6   8
ENDBRANCH   3   4
ENDBRANCH   2   3
ENDBRANCH   1   2
BRANCH   1  20
ATOM     20  C   UNL A   1      31.523  30.719  25.766  1.00  0.00     0.002 C 
BRANCH  20  21
ATOM     21  C   UNL A   1      31.255  31.986  26.571  1.00  0.00     0.021 C 
BRANCH  21  22
ATOM     22  C   UNL A   1      32.497  32.626  27.182  1.00  0.00     0.116 C 
BRANCH  22  23
ATOM     23  N   UNL A   1      32.290  34.020  27.541  1.00  0.00    -0.352 N 
ATOM     24  C   UNL A   1      32.954  34.786  28.471  1.00  0.00     0.251 C 
ATOM     25  H   UNL A   1      31.574  34.481  27.048  1.00  0.00     0.163 HD
ATOM     26  O   UNL A   1      32.541  35.901  28.764  1.00  0.00    -0.269 OA
BRANCH  24  27
ATOM     27  C   UNL A   1      34.158  34.246  29.140  1.00  0.00     0.039 A 
ATOM     28  C   UNL A   1      34.007  33.531  30.330  1.00  0.00     0.014 A 
ATOM     29  C   UNL A   1      35.429  34.430  28.588  1.00  0.00     0.014 A 
ATOM     30  C   UNL A   1      35.122  32.936  30.925  1.00  0.00     0.010 A 
ATOM     31  C   UNL A   1      36.524  33.769  29.136  1.00  0.00     0.010 A 
ATOM     32  C   UNL A   1      36.383  33.014  30.311  1.00  0.00    -0.014 A 
BRANCH  32  33
ATOM     33  C   UNL A   1      37.561  32.306  30.874  1.00  0.00     0.031 A 
ATOM     34  C   UNL A   1      38.215  32.803  32.134  1.00  0.00     0.074 A 
ATOM     35  C   UNL A   1      38.082  31.250  30.218  1.00  0.00     0.049 A 
ATOM     36  N   UNL A   1      39.288  32.360  32.740  1.00  0.00    -0.248 NA
ATOM     37  C   UNL A   1      37.595  33.967  32.786  1.00  0.00     0.031 C 
ATOM     38  C   UNL A   1      37.567  30.693  28.966  1.00  0.00     0.029 A 
ATOM     39  N   UNL A   1      39.166  30.459  30.511  1.00  0.00    -0.354 N 
ATOM     40  C   UNL A   1      39.473  33.192  33.836  1.00  0.00     0.074 A 
ATOM     41  C   UNL A   1      38.441  34.203  33.778  1.00  0.00     0.031 C 
ATOM     42  C   UNL A   1      38.316  29.636  28.614  1.00  0.00     0.029 A 
ATOM     43  C   UNL A   1      39.389  29.466  29.588  1.00  0.00     0.049 A 
ATOM     44  H   UNL A   1      39.730  30.592  31.307  1.00  0.00     0.167 HD
ATOM     45  C   UNL A   1      40.403  33.107  34.818  1.00  0.00     0.037 A 
ATOM     46  C   UNL A   1      40.355  28.528  29.529  1.00  0.00     0.037 A 
ATOM     47  C   UNL A   1      41.424  32.093  34.880  1.00  0.00     0.049 A 
ATOM     48  C   UNL A   1      41.397  28.477  30.612  1.00  0.00     0.074 A 
ATOM     49  C   UNL A   1      42.387  31.899  35.855  1.00  0.00     0.029 A 
ATOM     50  N   UNL A   1      41.618  31.106  33.925  1.00  0.00    -0.354 N 
ATOM     51  N   UNL A   1      41.526  29.235  31.673  1.00  0.00    -0.248 NA
ATOM     52  C   UNL A   1      42.426  27.435  30.490  1.00  0.00     0.031 C 
ATOM     53  C   UNL A   1      43.195  30.826  35.465  1.00  0.00     0.029 A 
ATOM     54  C   UNL A   1      42.700  30.314  34.276  1.00  0.00     0.049 A 
ATOM     55  H   UNL A   1      41.069  30.985  33.117  1.00  0.00     0.167 HD
ATOM     56  C   UNL A   1      42.628  28.743  32.361  1.00  0.00     0.074 A 
ATOM     57  C   UNL A   1      43.124  27.613  31.602  1.00  0.00     0.031 C 
ATOM     58  C   UNL A   1      43.179  29.187  33.517  1.00  0.00     0.037 A 
BRANCH  45  59
ATOM     59  C   UNL A   1      40.357  34.139  35.907  1.00  0.00     0.057 A 
ATOM     60  C   UNL A   1      41.058  35.349  35.809  1.00  0.00     0.134 A 
ATOM     61  C   UNL A   1      39.578  33.939  37.054  1.00  0.00     0.134 A 
ATOM     62  F   UNL A   1      41.831  35.601  34.742  1.00  0.00    -0.206 F 
ATOM     63  C   UNL A   1      41.007  36.309  36.821  1.00  0.00     0.040 A 
ATOM     64  C   UNL A   1      39.495  34.903  38.060  1.00  0.00     0.040 A 
ATOM     65  F   UNL A   1      38.876  32.806  37.213  1.00  0.00    -0.206 F 
ATOM     66  C   UNL A   1      40.217  36.090  37.948  1.00  0.00     0.006 A 
ENDBRANCH  45  59
BRANCH  46  67
ATOM     67  C   UNL A   1      40.370  27.545  28.415  1.00  0.00     0.057 A 
ATOM     68  C   UNL A   1      39.642  26.351  28.498  1.00  0.00     0.134 A 
ATOM     69  C   UNL A   1      41.116  27.764  27.252  1.00  0.00     0.134 A 
ATOM     70  F   UNL A   1      38.924  26.074  29.596  1.00  0.00    -0.206 F 
ATOM     71  C   UNL A   1      39.672  25.404  27.474  1.00  0.00     0.040 A 
ATOM     72  C   UNL A   1      41.133  26.839  26.208  1.00  0.00     0.040 A 
ATOM     73  F   UNL A   1      41.829  28.892  27.107  1.00  0.00    -0.206 F 
ATOM     74  C   UNL A   1      40.415  25.649  26.321  1.00  0.00     0.006 A 
ENDBRANCH  46  67
BRANCH  58  75
ATOM     75  C   UNL A   1      44.355  28.426  34.059  1.00  0.00     0.057 A 
ATOM     76  C   UNL A   1      44.200  27.304  34.883  1.00  0.00     0.134 A 
ATOM     77  C   UNL A   1      45.661  28.799  33.716  1.00  0.00     0.134 A 
ATOM     78  F   UNL A   1      42.977  26.901  35.259  1.00  0.00    -0.206 F 
ATOM     79  C   UNL A   1      45.302  26.597  35.367  1.00  0.00     0.040 A 
ATOM     80  C   UNL A   1      46.769  28.082  34.169  1.00  0.00     0.040 A 
ATOM     81  F   UNL A   1      45.882  29.857  32.922  1.00  0.00    -0.206 F 
ATOM     82  C   UNL A   1      46.591  26.981  35.003  1.00  0.00     0.006 A 
ENDBRANCH  58  75
ENDBRANCH  32  33
ENDBRANCH  24  27
ENDBRANCH  22  23
ENDBRANCH  21  22
ENDBRANCH  20  21
ENDBRANCH   1  20
TORSDOF 16
ENDMDL
