MODEL 1
REMARK VINA RESULT:     -11.8      0.000      0.000
REMARK SMILES Cc1ccccc1OCC(=O)N[C@@H](Cc1c[nH]c2ccccc12)C(=O)NCCCCCCNC(=O)c1ccc(-c2c3nc(c(-c4c(F)cccc4F)c4ccc([nH]4)c(-c4c(F)cccc4F)c4nc(c(-c5c(F)cccc5F)c5ccc2[nH]5)C=C4)C=C3)cc1
REMARK SMILES IDX 28 1 27 2 26 3 24 4 25 5 13 7 12 8 10 9 11 10 9 12 8 13 7 14
REMARK SMILES IDX 1 15 2 16 3 17 4 18 6 19 5 20 14 21 15 22 16 23 23 24 17 25
REMARK SMILES IDX 18 26 22 27 19 29 21 30 20 31 29 32 30 33 31 34 32 35 33 36
REMARK SMILES IDX 34 37 35 39 36 40 37 41 89 42 38 43 88 44 39 45 40 46 41 47
REMARK SMILES IDX 82 48 42 49 87 50 81 51 83 52 43 53 86 54 80 55 79 56 44 58
REMARK SMILES IDX 70 59 53 60 69 61 54 62 57 63 68 64 84 65 55 66 56 67 67 69
REMARK SMILES IDX 85 70 58 71 45 72 46 73 51 74 47 75 48 76 50 77 52 78 49 79
REMARK SMILES IDX 71 80 72 81 77 82 73 83 74 84 76 85 78 86 75 87 59 88 60 89
REMARK SMILES IDX 65 90 61 91 62 92 64 93 66 94 63 95
REMARK H PARENT 26 6 12 11 17 28 33 38 83 57 57 68
REMARK Flexibility Score: inf
ROOT
ATOM      1  C   UNL A   1      32.924  29.713  26.995  1.00  0.00     0.021 C 
ENDROOT
BRANCH   1   2
ATOM      2  C   UNL A   1      32.571  29.610  25.515  1.00  0.00     0.116 C 
BRANCH   2   3
ATOM      3  N   UNL A   1      33.679  29.355  24.622  1.00  0.00    -0.354 N 
ATOM      4  C   UNL A   1      33.688  28.637  23.456  1.00  0.00     0.242 C 
ATOM      5  O   UNL A   1      34.500  28.990  22.593  1.00  0.00    -0.273 OA
ATOM      6  H   UNL A   1      34.542  29.748  24.888  1.00  0.00     0.163 HD
BRANCH   4   7
ATOM      7  C   UNL A   1      32.697  27.477  23.149  1.00  0.00     0.175 C 
BRANCH   7   8
ATOM      8  N   UNL A   1      31.401  27.972  22.687  1.00  0.00    -0.341 N 
ATOM      9  C   UNL A   1      30.224  27.925  23.372  1.00  0.00     0.258 C 
ATOM     10  O   UNL A   1      29.399  28.819  23.178  1.00  0.00    -0.271 OA
ATOM     11  H   UNL A   1      31.377  28.380  21.791  1.00  0.00     0.164 HD
BRANCH   9  12
ATOM     12  C   UNL A   1      29.957  26.774  24.348  1.00  0.00     0.329 C 
BRANCH  12  13
ATOM     13  O   UNL A   1      30.708  26.709  25.547  1.00  0.00    -0.484 OA
BRANCH  13  14
ATOM     14  C   UNL A   1      31.235  25.535  26.006  1.00  0.00     0.122 A 
ATOM     15  C   UNL A   1      33.767  26.088  26.124  1.00  0.00     0.048 C 
ATOM     16  C   UNL A   1      32.567  25.202  26.296  1.00  0.00    -0.009 A 
ATOM     17  C   UNL A   1      32.844  23.908  26.796  1.00  0.00     0.007 A 
ATOM     18  C   UNL A   1      31.848  22.946  26.941  1.00  0.00     0.001 A 
ATOM     19  C   UNL A   1      30.246  24.541  26.131  1.00  0.00     0.047 A 
ATOM     20  C   UNL A   1      30.544  23.259  26.593  1.00  0.00     0.004 A 
ENDBRANCH  13  14
ENDBRANCH  12  13
ENDBRANCH   9  12
ENDBRANCH   7   8
BRANCH   7  21
ATOM     21  C   UNL A   1      33.286  26.327  22.316  1.00  0.00     0.072 C 
BRANCH  21  22
ATOM     22  C   UNL A   1      32.812  24.943  22.630  1.00  0.00    -0.020 A 
ATOM     23  C   UNL A   1      31.533  24.460  22.423  1.00  0.00     0.087 A 
ATOM     24  C   UNL A   1      33.582  23.857  23.160  1.00  0.00     0.003 A 
ATOM     25  N   UNL A   1      31.486  23.162  22.854  1.00  0.00    -0.361 N 
ATOM     26  C   UNL A   1      32.713  22.780  23.342  1.00  0.00     0.046 A 
ATOM     27  C   UNL A   1      34.934  23.697  23.526  1.00  0.00     0.010 A 
ATOM     28  H   UNL A   1      30.689  22.586  22.820  1.00  0.00     0.166 HD
ATOM     29  C   UNL A   1      33.116  21.566  23.912  1.00  0.00     0.026 A 
ATOM     30  C   UNL A   1      35.359  22.483  24.079  1.00  0.00     0.001 A 
ATOM     31  C   UNL A   1      34.458  21.439  24.280  1.00  0.00     0.002 A 
ENDBRANCH  21  22
ENDBRANCH   7  21
ENDBRANCH   4   7
ENDBRANCH   2   3
ENDBRANCH   1   2
BRANCH   1  32
ATOM     32  C   UNL A   1      34.393  29.997  27.328  1.00  0.00     0.002 C 
BRANCH  32  33
ATOM     33  C   UNL A   1      34.790  31.449  27.654  1.00  0.00     0.002 C 
BRANCH  33  34
ATOM     34  C   UNL A   1      34.585  31.935  29.092  1.00  0.00     0.021 C 
BRANCH  34  35
ATOM     35  C   UNL A   1      34.710  33.436  29.296  1.00  0.00     0.116 C 
BRANCH  35  36
ATOM     36  N   UNL A   1      33.810  33.985  30.302  1.00  0.00    -0.352 N 
ATOM     37  C   UNL A   1      34.032  34.121  31.665  1.00  0.00     0.251 C 
ATOM     38  H   UNL A   1      32.936  34.297  29.975  1.00  0.00     0.163 HD
ATOM     39  O   UNL A   1      33.188  34.620  32.390  1.00  0.00    -0.269 OA
BRANCH  37  40
ATOM     40  C   UNL A   1      35.372  33.770  32.195  1.00  0.00     0.039 A 
ATOM     41  C   UNL A   1      36.432  34.625  31.885  1.00  0.00     0.014 A 
ATOM     42  C   UNL A   1      35.611  32.512  32.745  1.00  0.00     0.014 A 
ATOM     43  C   UNL A   1      37.728  34.116  31.875  1.00  0.00     0.010 A 
ATOM     44  C   UNL A   1      36.883  31.979  32.654  1.00  0.00     0.010 A 
ATOM     45  C   UNL A   1      37.926  32.759  32.146  1.00  0.00    -0.014 A 
BRANCH  45  46
ATOM     46  C   UNL A   1      39.152  32.067  31.760  1.00  0.00     0.031 A 
ATOM     47  C   UNL A   1      39.115  30.900  30.860  1.00  0.00     0.074 A 
ATOM     48  C   UNL A   1      40.340  32.478  32.258  1.00  0.00     0.049 A 
ATOM     49  N   UNL A   1      39.903  29.882  30.970  1.00  0.00    -0.248 NA
ATOM     50  C   UNL A   1      38.154  30.779  29.773  1.00  0.00     0.031 C 
ATOM     51  C   UNL A   1      41.666  32.006  31.875  1.00  0.00     0.029 A 
ATOM     52  N   UNL A   1      40.562  33.271  33.392  1.00  0.00    -0.354 N 
ATOM     53  C   UNL A   1      39.740  29.110  29.843  1.00  0.00     0.074 A 
ATOM     54  C   UNL A   1      38.595  29.675  29.162  1.00  0.00     0.031 C 
ATOM     55  C   UNL A   1      42.520  32.259  32.879  1.00  0.00     0.029 A 
ATOM     56  C   UNL A   1      41.748  32.797  33.986  1.00  0.00     0.049 A 
ATOM     57  H   UNL A   1      40.000  34.015  33.710  1.00  0.00     0.167 HD
ATOM     58  C   UNL A   1      40.669  28.162  29.521  1.00  0.00     0.037 A 
ATOM     59  C   UNL A   1      41.772  32.323  35.263  1.00  0.00     0.037 A 
ATOM     60  C   UNL A   1      41.771  28.143  30.477  1.00  0.00     0.049 A 
ATOM     61  C   UNL A   1      42.224  30.888  35.377  1.00  0.00     0.074 A 
ATOM     62  C   UNL A   1      43.018  28.747  30.452  1.00  0.00     0.029 A 
ATOM     63  N   UNL A   1      41.572  27.700  31.778  1.00  0.00    -0.354 N 
ATOM     64  N   UNL A   1      42.258  30.056  34.375  1.00  0.00    -0.248 NA
ATOM     65  C   UNL A   1      42.628  30.264  36.636  1.00  0.00     0.031 C 
ATOM     66  C   UNL A   1      43.556  28.702  31.758  1.00  0.00     0.029 A 
ATOM     67  C   UNL A   1      42.643  28.061  32.575  1.00  0.00     0.049 A 
ATOM     68  H   UNL A   1      40.781  27.202  32.089  1.00  0.00     0.167 HD
ATOM     69  C   UNL A   1      42.626  28.815  34.826  1.00  0.00     0.074 A 
ATOM     70  C   UNL A   1      42.874  29.002  36.242  1.00  0.00     0.031 C 
ATOM     71  C   UNL A   1      42.678  27.735  33.992  1.00  0.00     0.037 A 
BRANCH  58  72
ATOM     72  C   UNL A   1      40.728  27.506  28.161  1.00  0.00     0.057 A 
ATOM     73  C   UNL A   1      40.166  26.235  27.933  1.00  0.00     0.134 A 
ATOM     74  C   UNL A   1      41.375  28.064  27.045  1.00  0.00     0.134 A 
ATOM     75  F   UNL A   1      39.406  25.622  28.849  1.00  0.00    -0.206 F 
ATOM     76  C   UNL A   1      40.360  25.517  26.745  1.00  0.00     0.040 A 
ATOM     77  C   UNL A   1      41.622  27.339  25.869  1.00  0.00     0.040 A 
ATOM     78  F   UNL A   1      41.767  29.346  27.039  1.00  0.00    -0.206 F 
ATOM     79  C   UNL A   1      41.129  26.051  25.724  1.00  0.00     0.006 A 
ENDBRANCH  58  72
BRANCH  59  80
ATOM     80  C   UNL A   1      40.783  32.970  36.160  1.00  0.00     0.057 A 
ATOM     81  C   UNL A   1      39.553  32.329  36.385  1.00  0.00     0.134 A 
ATOM     82  C   UNL A   1      41.146  33.985  37.050  1.00  0.00     0.134 A 
ATOM     83  F   UNL A   1      39.146  31.346  35.566  1.00  0.00    -0.206 F 
ATOM     84  C   UNL A   1      38.765  32.612  37.502  1.00  0.00     0.040 A 
ATOM     85  C   UNL A   1      40.360  34.284  38.169  1.00  0.00     0.040 A 
ATOM     86  F   UNL A   1      42.314  34.628  36.914  1.00  0.00    -0.206 F 
ATOM     87  C   UNL A   1      39.186  33.572  38.417  1.00  0.00     0.006 A 
ENDBRANCH  59  80
BRANCH  71  88
ATOM     88  C   UNL A   1      42.875  26.301  34.412  1.00  0.00     0.057 A 
ATOM     89  C   UNL A   1      41.939  25.560  35.148  1.00  0.00     0.134 A 
ATOM     90  C   UNL A   1      43.991  25.568  33.950  1.00  0.00     0.134 A 
ATOM     91  F   UNL A   1      40.782  26.099  35.554  1.00  0.00    -0.206 F 
ATOM     92  C   UNL A   1      42.128  24.206  35.456  1.00  0.00     0.040 A 
ATOM     93  C   UNL A   1      44.164  24.205  34.209  1.00  0.00     0.040 A 
ATOM     94  F   UNL A   1      44.951  26.138  33.209  1.00  0.00    -0.206 F 
ATOM     95  C   UNL A   1      43.237  23.520  34.979  1.00  0.00     0.006 A 
ENDBRANCH  71  88
ENDBRANCH  45  46
ENDBRANCH  37  40
ENDBRANCH  35  36
ENDBRANCH  34  35
ENDBRANCH  33  34
ENDBRANCH  32  33
ENDBRANCH   1  32
TORSDOF 19
ENDMDL
MODEL 2
REMARK VINA RESULT:     -11.8      2.976      5.646
REMARK SMILES Cc1ccccc1OCC(=O)N[C@@H](Cc1c[nH]c2ccccc12)C(=O)NCCCCCCNC(=O)c1ccc(-c2c3nc(c(-c4c(F)cccc4F)c4ccc([nH]4)c(-c4c(F)cccc4F)c4nc(c(-c5c(F)cccc5F)c5ccc2[nH]5)C=C4)C=C3)cc1
REMARK SMILES IDX 28 1 27 2 26 3 24 4 25 5 13 7 12 8 10 9 11 10 9 12 8 13 7 14
REMARK SMILES IDX 1 15 2 16 3 17 4 18 6 19 5 20 14 21 15 22 16 23 23 24 17 25
REMARK SMILES IDX 18 26 22 27 19 29 21 30 20 31 29 32 30 33 31 34 32 35 33 36
REMARK SMILES IDX 34 37 35 39 36 40 37 41 89 42 38 43 88 44 39 45 40 46 41 47
REMARK SMILES IDX 82 48 42 49 87 50 81 51 83 52 43 53 86 54 80 55 79 56 44 58
REMARK SMILES IDX 70 59 53 60 69 61 54 62 57 63 68 64 84 65 55 66 56 67 67 69
REMARK SMILES IDX 85 70 58 71 45 72 46 73 51 74 47 75 48 76 50 77 52 78 49 79
REMARK SMILES IDX 71 80 72 81 77 82 73 83 74 84 76 85 78 86 75 87 59 88 60 89
REMARK SMILES IDX 65 90 61 91 62 92 64 93 66 94 63 95
REMARK H PARENT 26 6 12 11 17 28 33 38 83 57 57 68
REMARK Flexibility Score: inf
ROOT
ATOM      1  C   UNL A   1      32.877  27.562  25.715  1.00  0.00     0.021 C 
ENDROOT
BRANCH   1   2
ATOM      2  C   UNL A   1      33.017  26.110  26.160  1.00  0.00     0.116 C 
BRANCH   2   3
ATOM      3  N   UNL A   1      31.795  25.463  26.582  1.00  0.00    -0.354 N 
ATOM      4  C   UNL A   1      30.885  24.777  25.822  1.00  0.00     0.242 C 
ATOM      5  O   UNL A   1      30.270  23.864  26.384  1.00  0.00    -0.273 OA
ATOM      6  H   UNL A   1      31.589  25.524  27.543  1.00  0.00     0.163 HD
BRANCH   4   7
ATOM      7  C   UNL A   1      30.653  25.041  24.307  1.00  0.00     0.175 C 
BRANCH   7   8
ATOM      8  N   UNL A   1      30.613  23.800  23.535  1.00  0.00    -0.341 N 
ATOM      9  C   UNL A   1      31.680  23.033  23.177  1.00  0.00     0.258 C 
ATOM     10  O   UNL A   1      31.515  21.817  23.066  1.00  0.00    -0.271 OA
ATOM     11  H   UNL A   1      29.724  23.488  23.245  1.00  0.00     0.164 HD
BRANCH   9  12
ATOM     12  C   UNL A   1      33.039  23.693  22.918  1.00  0.00     0.329 C 
BRANCH  12  13
ATOM     13  O   UNL A   1      34.173  22.867  22.730  1.00  0.00    -0.484 OA
BRANCH  13  14
ATOM     14  C   UNL A   1      35.037  22.582  23.749  1.00  0.00     0.122 A 
ATOM     15  C   UNL A   1      33.920  20.514  24.845  1.00  0.00     0.048 C 
ATOM     16  C   UNL A   1      34.992  21.554  24.703  1.00  0.00    -0.009 A 
ATOM     17  C   UNL A   1      36.045  21.463  25.644  1.00  0.00     0.007 A 
ATOM     18  C   UNL A   1      37.075  22.399  25.690  1.00  0.00     0.001 A 
ATOM     19  C   UNL A   1      36.070  23.535  23.829  1.00  0.00     0.047 A 
ATOM     20  C   UNL A   1      37.080  23.449  24.787  1.00  0.00     0.004 A 
ENDBRANCH  13  14
ENDBRANCH  12  13
ENDBRANCH   9  12
ENDBRANCH   7   8
BRANCH   7  21
ATOM     21  C   UNL A   1      29.528  26.038  23.989  1.00  0.00     0.072 C 
BRANCH  21  22
ATOM     22  C   UNL A   1      29.896  27.259  23.206  1.00  0.00    -0.020 A 
ATOM     23  C   UNL A   1      31.095  27.468  22.550  1.00  0.00     0.087 A 
ATOM     24  C   UNL A   1      29.084  28.413  22.956  1.00  0.00     0.003 A 
ATOM     25  N   UNL A   1      31.061  28.706  21.970  1.00  0.00    -0.361 N 
ATOM     26  C   UNL A   1      29.859  29.320  22.232  1.00  0.00     0.046 A 
ATOM     27  C   UNL A   1      27.766  28.781  23.298  1.00  0.00     0.010 A 
ATOM     28  H   UNL A   1      31.792  29.101  21.442  1.00  0.00     0.166 HD
ATOM     29  C   UNL A   1      29.402  30.594  21.872  1.00  0.00     0.026 A 
ATOM     30  C   UNL A   1      27.285  30.043  22.929  1.00  0.00     0.001 A 
ATOM     31  C   UNL A   1      28.098  30.939  22.238  1.00  0.00     0.002 A 
ENDBRANCH  21  22
ENDBRANCH   7  21
ENDBRANCH   4   7
ENDBRANCH   2   3
ENDBRANCH   1   2
BRANCH   1  32
ATOM     32  C   UNL A   1      33.628  28.607  26.550  1.00  0.00     0.002 C 
BRANCH  32  33
ATOM     33  C   UNL A   1      33.239  30.086  26.370  1.00  0.00     0.002 C 
BRANCH  33  34
ATOM     34  C   UNL A   1      33.732  31.082  27.424  1.00  0.00     0.021 C 
BRANCH  34  35
ATOM     35  C   UNL A   1      34.494  30.475  28.589  1.00  0.00     0.116 C 
BRANCH  35  36
ATOM     36  N   UNL A   1      35.433  31.383  29.235  1.00  0.00    -0.352 N 
ATOM     37  C   UNL A   1      36.761  31.148  29.562  1.00  0.00     0.251 C 
ATOM     38  H   UNL A   1      35.082  32.271  29.470  1.00  0.00     0.163 HD
ATOM     39  O   UNL A   1      37.438  32.014  30.089  1.00  0.00    -0.269 OA
BRANCH  37  40
ATOM     40  C   UNL A   1      37.373  29.868  29.133  1.00  0.00     0.039 A 
ATOM     41  C   UNL A   1      37.630  28.913  30.120  1.00  0.00     0.014 A 
ATOM     42  C   UNL A   1      37.912  29.731  27.855  1.00  0.00     0.014 A 
ATOM     43  C   UNL A   1      38.636  27.976  29.906  1.00  0.00     0.010 A 
ATOM     44  C   UNL A   1      38.969  28.859  27.670  1.00  0.00     0.010 A 
ATOM     45  C   UNL A   1      39.379  28.035  28.723  1.00  0.00    -0.014 A 
BRANCH  45  46
ATOM     46  C   UNL A   1      40.681  27.388  28.597  1.00  0.00     0.031 A 
ATOM     47  C   UNL A   1      40.789  25.953  28.276  1.00  0.00     0.074 A 
ATOM     48  C   UNL A   1      41.809  28.104  28.808  1.00  0.00     0.049 A 
ATOM     49  N   UNL A   1      41.700  25.175  28.760  1.00  0.00    -0.248 NA
ATOM     50  C   UNL A   1      39.848  25.274  27.397  1.00  0.00     0.031 C 
ATOM     51  C   UNL A   1      43.184  27.666  28.585  1.00  0.00     0.029 A 
ATOM     52  N   UNL A   1      41.932  29.323  29.487  1.00  0.00    -0.354 N 
ATOM     53  C   UNL A   1      41.633  23.984  28.075  1.00  0.00     0.074 A 
ATOM     54  C   UNL A   1      40.424  24.072  27.284  1.00  0.00     0.031 C 
ATOM     55  C   UNL A   1      44.001  28.418  29.339  1.00  0.00     0.029 A 
ATOM     56  C   UNL A   1      43.171  29.284  30.158  1.00  0.00     0.049 A 
ATOM     57  H   UNL A   1      41.282  30.063  29.493  1.00  0.00     0.167 HD
ATOM     58  C   UNL A   1      42.673  23.101  28.131  1.00  0.00     0.037 A 
ATOM     59  C   UNL A   1      43.257  29.404  31.512  1.00  0.00     0.037 A 
ATOM     60  C   UNL A   1      43.772  23.615  28.942  1.00  0.00     0.049 A 
ATOM     61  C   UNL A   1      43.888  28.215  32.195  1.00  0.00     0.074 A 
ATOM     62  C   UNL A   1      44.933  24.288  28.596  1.00  0.00     0.029 A 
ATOM     63  N   UNL A   1      43.633  23.749  30.318  1.00  0.00    -0.354 N 
ATOM     64  N   UNL A   1      44.024  27.046  31.637  1.00  0.00    -0.248 NA
ATOM     65  C   UNL A   1      44.370  28.236  33.574  1.00  0.00     0.031 C 
ATOM     66  C   UNL A   1      45.475  24.864  29.766  1.00  0.00     0.029 A 
ATOM     67  C   UNL A   1      44.653  24.532  30.827  1.00  0.00     0.049 A 
ATOM     68  H   UNL A   1      42.913  23.344  30.854  1.00  0.00     0.167 HD
ATOM     69  C   UNL A   1      44.546  26.165  32.548  1.00  0.00     0.074 A 
ATOM     70  C   UNL A   1      44.773  26.963  33.736  1.00  0.00     0.031 C 
ATOM     71  C   UNL A   1      44.732  24.846  32.245  1.00  0.00     0.037 A 
BRANCH  58  72
ATOM     72  C   UNL A   1      42.811  21.940  27.173  1.00  0.00     0.057 A 
ATOM     73  C   UNL A   1      42.037  20.772  27.317  1.00  0.00     0.134 A 
ATOM     74  C   UNL A   1      43.734  21.899  26.114  1.00  0.00     0.134 A 
ATOM     75  F   UNL A   1      41.026  20.696  28.191  1.00  0.00    -0.206 F 
ATOM     76  C   UNL A   1      42.263  19.610  26.568  1.00  0.00     0.040 A 
ATOM     77  C   UNL A   1      44.008  20.728  25.390  1.00  0.00     0.040 A 
ATOM     78  F   UNL A   1      44.385  23.002  25.716  1.00  0.00    -0.206 F 
ATOM     79  C   UNL A   1      43.283  19.570  25.631  1.00  0.00     0.006 A 
ENDBRANCH  58  72
BRANCH  59  80
ATOM     80  C   UNL A   1      42.197  30.255  32.107  1.00  0.00     0.057 A 
ATOM     81  C   UNL A   1      42.348  31.651  32.066  1.00  0.00     0.134 A 
ATOM     82  C   UNL A   1      40.920  29.759  32.383  1.00  0.00     0.134 A 
ATOM     83  F   UNL A   1      43.549  32.192  31.804  1.00  0.00    -0.206 F 
ATOM     84  C   UNL A   1      41.259  32.516  32.191  1.00  0.00     0.040 A 
ATOM     85  C   UNL A   1      39.822  30.616  32.520  1.00  0.00     0.040 A 
ATOM     86  F   UNL A   1      40.693  28.438  32.419  1.00  0.00    -0.206 F 
ATOM     87  C   UNL A   1      39.984  31.995  32.386  1.00  0.00     0.006 A 
ENDBRANCH  59  80
BRANCH  71  88
ATOM     88  C   UNL A   1      45.109  23.759  33.218  1.00  0.00     0.057 A 
ATOM     89  C   UNL A   1      46.383  23.620  33.788  1.00  0.00     0.134 A 
ATOM     90  C   UNL A   1      44.126  22.880  33.725  1.00  0.00     0.134 A 
ATOM     91  F   UNL A   1      47.383  24.458  33.483  1.00  0.00    -0.206 F 
ATOM     92  C   UNL A   1      46.674  22.638  34.747  1.00  0.00     0.040 A 
ATOM     93  C   UNL A   1      44.393  21.932  34.716  1.00  0.00     0.040 A 
ATOM     94  F   UNL A   1      42.857  22.918  33.294  1.00  0.00    -0.206 F 
ATOM     95  C   UNL A   1      45.677  21.797  35.221  1.00  0.00     0.006 A 
ENDBRANCH  71  88
ENDBRANCH  45  46
ENDBRANCH  37  40
ENDBRANCH  35  36
ENDBRANCH  34  35
ENDBRANCH  33  34
ENDBRANCH  32  33
ENDBRANCH   1  32
TORSDOF 19
ENDMDL
MODEL 3
REMARK VINA RESULT:     -11.4      4.575      9.765
REMARK SMILES Cc1ccccc1OCC(=O)N[C@@H](Cc1c[nH]c2ccccc12)C(=O)NCCCCCCNC(=O)c1ccc(-c2c3nc(c(-c4c(F)cccc4F)c4ccc([nH]4)c(-c4c(F)cccc4F)c4nc(c(-c5c(F)cccc5F)c5ccc2[nH]5)C=C4)C=C3)cc1
REMARK SMILES IDX 28 1 27 2 26 3 24 4 25 5 13 7 12 8 10 9 11 10 9 12 8 13 7 14
REMARK SMILES IDX 1 15 2 16 3 17 4 18 6 19 5 20 14 21 15 22 16 23 23 24 17 25
REMARK SMILES IDX 18 26 22 27 19 29 21 30 20 31 29 32 30 33 31 34 32 35 33 36
REMARK SMILES IDX 34 37 35 39 36 40 37 41 89 42 38 43 88 44 39 45 40 46 41 47
REMARK SMILES IDX 82 48 42 49 87 50 81 51 83 52 43 53 86 54 80 55 79 56 44 58
REMARK SMILES IDX 70 59 53 60 69 61 54 62 57 63 68 64 84 65 55 66 56 67 67 69
REMARK SMILES IDX 85 70 58 71 45 72 46 73 51 74 47 75 48 76 50 77 52 78 49 79
REMARK SMILES IDX 71 80 72 81 77 82 73 83 74 84 76 85 78 86 75 87 59 88 60 89
REMARK SMILES IDX 65 90 61 91 62 92 64 93 66 94 63 95
REMARK H PARENT 26 6 12 11 17 28 33 38 83 57 57 68
REMARK Flexibility Score: inf
ROOT
ATOM      1  C   UNL A   1      38.165  23.651  25.856  1.00  0.00     0.021 C 
ENDROOT
BRANCH   1   2
ATOM      2  C   UNL A   1      36.646  23.743  25.752  1.00  0.00     0.116 C 
BRANCH   2   3
ATOM      3  N   UNL A   1      35.904  23.060  26.789  1.00  0.00    -0.354 N 
ATOM      4  C   UNL A   1      34.638  22.542  26.731  1.00  0.00     0.242 C 
ATOM      5  O   UNL A   1      34.409  21.557  27.444  1.00  0.00    -0.273 OA
ATOM      6  H   UNL A   1      36.371  22.955  27.650  1.00  0.00     0.163 HD
BRANCH   4   7
ATOM      7  C   UNL A   1      33.530  23.075  25.780  1.00  0.00     0.175 C 
BRANCH   7   8
ATOM      8  N   UNL A   1      32.702  21.996  25.243  1.00  0.00    -0.341 N 
ATOM      9  C   UNL A   1      32.316  21.839  23.945  1.00  0.00     0.258 C 
ATOM     10  O   UNL A   1      32.150  20.695  23.519  1.00  0.00    -0.271 OA
ATOM     11  H   UNL A   1      32.394  21.313  25.883  1.00  0.00     0.164 HD
BRANCH   9  12
ATOM     12  C   UNL A   1      32.095  23.072  23.063  1.00  0.00     0.329 C 
BRANCH  12  13
ATOM     13  O   UNL A   1      30.842  23.729  23.112  1.00  0.00    -0.484 OA
BRANCH  13  14
ATOM     14  C   UNL A   1      30.737  25.091  23.064  1.00  0.00     0.122 A 
ATOM     15  C   UNL A   1      32.455  25.701  21.218  1.00  0.00     0.048 C 
ATOM     16  C   UNL A   1      31.405  26.014  22.245  1.00  0.00    -0.009 A 
ATOM     17  C   UNL A   1      31.085  27.386  22.377  1.00  0.00     0.007 A 
ATOM     18  C   UNL A   1      30.186  27.843  23.337  1.00  0.00     0.001 A 
ATOM     19  C   UNL A   1      29.853  25.574  24.047  1.00  0.00     0.047 A 
ATOM     20  C   UNL A   1      29.577  26.934  24.186  1.00  0.00     0.004 A 
ENDBRANCH  13  14
ENDBRANCH  12  13
ENDBRANCH   9  12
ENDBRANCH   7   8
BRANCH   7  21
ATOM     21  C   UNL A   1      32.747  24.286  26.313  1.00  0.00     0.072 C 
BRANCH  21  22
ATOM     22  C   UNL A   1      33.096  25.628  25.752  1.00  0.00    -0.020 A 
ATOM     23  C   UNL A   1      33.944  25.862  24.685  1.00  0.00     0.087 A 
ATOM     24  C   UNL A   1      32.604  26.905  26.175  1.00  0.00     0.003 A 
ATOM     25  N   UNL A   1      34.026  27.213  24.486  1.00  0.00    -0.361 N 
ATOM     26  C   UNL A   1      33.246  27.876  25.404  1.00  0.00     0.046 A 
ATOM     27  C   UNL A   1      31.687  27.329  27.159  1.00  0.00     0.010 A 
ATOM     28  H   UNL A   1      34.566  27.648  23.788  1.00  0.00     0.166 HD
ATOM     29  C   UNL A   1      33.055  29.250  25.598  1.00  0.00     0.026 A 
ATOM     30  C   UNL A   1      31.468  28.699  27.352  1.00  0.00     0.001 A 
ATOM     31  C   UNL A   1      32.153  29.643  26.590  1.00  0.00     0.002 A 
ENDBRANCH  21  22
ENDBRANCH   7  21
ENDBRANCH   4   7
ENDBRANCH   2   3
ENDBRANCH   1   2
BRANCH   1  32
ATOM     32  C   UNL A   1      38.743  22.279  26.224  1.00  0.00     0.002 C 
BRANCH  32  33
ATOM     33  C   UNL A   1      40.209  22.217  26.690  1.00  0.00     0.002 C 
BRANCH  33  34
ATOM     34  C   UNL A   1      41.020  20.972  26.319  1.00  0.00     0.021 C 
BRANCH  34  35
ATOM     35  C   UNL A   1      42.524  21.098  26.492  1.00  0.00     0.116 C 
BRANCH  35  36
ATOM     36  N   UNL A   1      43.306  20.576  25.378  1.00  0.00    -0.352 N 
ATOM     37  C   UNL A   1      44.320  21.209  24.675  1.00  0.00     0.251 C 
ATOM     38  H   UNL A   1      43.086  19.661  25.088  1.00  0.00     0.163 HD
ATOM     39  O   UNL A   1      44.904  20.639  23.769  1.00  0.00    -0.269 OA
BRANCH  37  40
ATOM     40  C   UNL A   1      44.766  22.545  25.139  1.00  0.00     0.039 A 
ATOM     41  C   UNL A   1      45.572  22.595  26.279  1.00  0.00     0.014 A 
ATOM     42  C   UNL A   1      44.190  23.705  24.625  1.00  0.00     0.014 A 
ATOM     43  C   UNL A   1      45.579  23.754  27.050  1.00  0.00     0.010 A 
ATOM     44  C   UNL A   1      44.125  24.827  25.430  1.00  0.00     0.010 A 
ATOM     45  C   UNL A   1      44.757  24.822  26.677  1.00  0.00    -0.014 A 
BRANCH  45  46
ATOM     46  C   UNL A   1      44.389  25.876  27.617  1.00  0.00     0.031 A 
ATOM     47  C   UNL A   1      43.014  26.406  27.665  1.00  0.00     0.074 A 
ATOM     48  C   UNL A   1      45.327  26.401  28.437  1.00  0.00     0.049 A 
ATOM     49  N   UNL A   1      42.729  27.644  27.897  1.00  0.00    -0.248 NA
ATOM     50  C   UNL A   1      41.844  25.573  27.424  1.00  0.00     0.031 C 
ATOM     51  C   UNL A   1      45.114  27.346  29.528  1.00  0.00     0.029 A 
ATOM     52  N   UNL A   1      46.719  26.339  28.292  1.00  0.00    -0.354 N 
ATOM     53  C   UNL A   1      41.370  27.726  28.092  1.00  0.00     0.074 A 
ATOM     54  C   UNL A   1      40.858  26.424  27.723  1.00  0.00     0.031 C 
ATOM     55  C   UNL A   1      46.266  27.990  29.772  1.00  0.00     0.029 A 
ATOM     56  C   UNL A   1      47.227  27.563  28.769  1.00  0.00     0.049 A 
ATOM     57  H   UNL A   1      47.241  25.586  27.929  1.00  0.00     0.167 HD
ATOM     58  C   UNL A   1      40.827  28.832  28.680  1.00  0.00     0.037 A 
ATOM     59  C   UNL A   1      47.955  28.397  27.974  1.00  0.00     0.037 A 
ATOM     60  C   UNL A   1      41.852  29.800  29.056  1.00  0.00     0.049 A 
ATOM     61  C   UNL A   1      47.346  29.766  27.800  1.00  0.00     0.074 A 
ATOM     62  C   UNL A   1      42.510  30.023  30.254  1.00  0.00     0.029 A 
ATOM     63  N   UNL A   1      42.558  30.497  28.082  1.00  0.00    -0.354 N 
ATOM     64  N   UNL A   1      46.102  30.046  28.068  1.00  0.00    -0.248 NA
ATOM     65  C   UNL A   1      48.075  30.915  27.266  1.00  0.00     0.031 C 
ATOM     66  C   UNL A   1      43.642  30.827  29.994  1.00  0.00     0.029 A 
ATOM     67  C   UNL A   1      43.668  31.104  28.640  1.00  0.00     0.049 A 
ATOM     68  H   UNL A   1      42.304  30.550  27.132  1.00  0.00     0.167 HD
ATOM     69  C   UNL A   1      45.842  31.346  27.717  1.00  0.00     0.074 A 
ATOM     70  C   UNL A   1      47.115  31.856  27.247  1.00  0.00     0.031 C 
ATOM     71  C   UNL A   1      44.592  31.883  27.831  1.00  0.00     0.037 A 
BRANCH  58  72
ATOM     72  C   UNL A   1      39.411  28.864  29.210  1.00  0.00     0.057 A 
ATOM     73  C   UNL A   1      38.347  29.361  28.433  1.00  0.00     0.134 A 
ATOM     74  C   UNL A   1      39.047  28.462  30.506  1.00  0.00     0.134 A 
ATOM     75  F   UNL A   1      38.497  29.665  27.138  1.00  0.00    -0.206 F 
ATOM     76  C   UNL A   1      37.063  29.577  28.950  1.00  0.00     0.040 A 
ATOM     77  C   UNL A   1      37.781  28.719  31.054  1.00  0.00     0.040 A 
ATOM     78  F   UNL A   1      39.895  27.773  31.284  1.00  0.00    -0.206 F 
ATOM     79  C   UNL A   1      36.788  29.299  30.279  1.00  0.00     0.006 A 
ENDBRANCH  58  72
BRANCH  59  80
ATOM     80  C   UNL A   1      48.757  27.693  26.944  1.00  0.00     0.057 A 
ATOM     81  C   UNL A   1      50.020  27.189  27.298  1.00  0.00     0.134 A 
ATOM     82  C   UNL A   1      48.184  27.208  25.766  1.00  0.00     0.134 A 
ATOM     83  F   UNL A   1      50.625  27.613  28.419  1.00  0.00    -0.206 F 
ATOM     84  C   UNL A   1      50.641  26.173  26.570  1.00  0.00     0.040 A 
ATOM     85  C   UNL A   1      48.801  26.195  25.022  1.00  0.00     0.040 A 
ATOM     86  F   UNL A   1      46.973  27.625  25.373  1.00  0.00    -0.206 F 
ATOM     87  C   UNL A   1      50.014  25.649  25.443  1.00  0.00     0.006 A 
ENDBRANCH  59  80
BRANCH  71  88
ATOM     88  C   UNL A   1      44.153  33.223  27.297  1.00  0.00     0.057 A 
ATOM     89  C   UNL A   1      44.176  34.412  28.039  1.00  0.00     0.134 A 
ATOM     90  C   UNL A   1      43.813  33.373  25.934  1.00  0.00     0.134 A 
ATOM     91  F   UNL A   1      44.586  34.435  29.314  1.00  0.00    -0.206 F 
ATOM     92  C   UNL A   1      43.828  35.652  27.483  1.00  0.00     0.040 A 
ATOM     93  C   UNL A   1      43.513  34.610  25.357  1.00  0.00     0.040 A 
ATOM     94  F   UNL A   1      43.778  32.326  25.097  1.00  0.00    -0.206 F 
ATOM     95  C   UNL A   1      43.505  35.756  26.137  1.00  0.00     0.006 A 
ENDBRANCH  71  88
ENDBRANCH  45  46
ENDBRANCH  37  40
ENDBRANCH  35  36
ENDBRANCH  34  35
ENDBRANCH  33  34
ENDBRANCH  32  33
ENDBRANCH   1  32
TORSDOF 19
ENDMDL
