MODEL 1
REMARK VINA RESULT:     -12.0      0.000      0.000
REMARK SMILES COc1ccc(C(=O)N2CC[C@@H](C(=O)NCCCCCCNC(=O)c3ccc(-c4c5nc(c(-c6c(F)cccc6F)c6ccc([nH]6)c(-c6c(F)cccc6F)c6nc(c(-c7c(F)cccc7F)c7ccc4[nH]7)C=C6)C=C5)cc3)[C@H]2C)cc1O
REMARK SMILES IDX 18 1 17 2 16 3 15 4 13 5 14 6 12 8 9 9 10 10 79 11 11 12
REMARK SMILES IDX 80 13 7 14 8 15 6 16 3 17 4 18 82 19 5 20 81 21 2 22 1 23
REMARK SMILES IDX 83 24 19 26 20 27 21 28 22 29 23 30 24 32 25 33 26 34 78 35
REMARK SMILES IDX 27 36 77 37 28 38 29 39 30 40 71 41 31 42 76 43 70 44 72 45
REMARK SMILES IDX 32 46 75 47 69 48 68 49 33 51 59 52 42 53 58 54 43 55 46 56
REMARK SMILES IDX 57 57 73 58 44 59 45 60 56 62 74 63 47 64 34 65 35 66 40 67
REMARK SMILES IDX 36 68 37 69 39 70 41 71 38 72 60 73 61 74 66 75 62 76 63 77
REMARK SMILES IDX 65 78 67 79 64 80 48 81 49 82 54 83 50 84 51 85 53 86 55 87
REMARK SMILES IDX 52 88
REMARK H PARENT 15 7 83 25 22 31 72 50 46 61
REMARK Flexibility Score: inf
ROOT
ATOM      1  C   UNL A   1      35.018  20.395  24.991  1.00  0.00     0.002 C 
ENDROOT
BRANCH   1   2
ATOM      2  C   UNL A   1      33.824  21.348  25.094  1.00  0.00     0.021 C 
BRANCH   2   3
ATOM      3  C   UNL A   1      33.860  22.303  26.288  1.00  0.00     0.116 C 
BRANCH   3   4
ATOM      4  N   UNL A   1      32.518  22.607  26.742  1.00  0.00    -0.356 N 
ATOM      5  C   UNL A   1      31.748  23.714  26.610  1.00  0.00     0.225 C 
ATOM      6  O   UNL A   1      30.676  23.720  27.225  1.00  0.00    -0.275 OA
ATOM      7  H   UNL A   1      32.086  21.874  27.238  1.00  0.00     0.163 HD
BRANCH   5   8
ATOM      8  C   UNL A   1      32.116  24.905  25.738  1.00  0.00     0.102 C 
ATOM      9  N   UNL A   1      31.103  26.262  24.052  1.00  0.00    -0.335 N 
ATOM     10  C   UNL A   1      31.583  27.146  25.094  1.00  0.00     0.121 C 
ATOM     11  C   UNL A   1      31.704  24.930  24.248  1.00  0.00     0.094 C 
ATOM     12  C   UNL A   1      31.692  26.261  26.317  1.00  0.00     0.037 C 
ATOM     13  C   UNL A   1      30.913  23.748  23.713  1.00  0.00     0.032 C 
BRANCH   9  14
ATOM     14  C   UNL A   1      30.910  26.823  22.791  1.00  0.00     0.254 C 
ATOM     15  O   UNL A   1      31.545  26.467  21.801  1.00  0.00    -0.269 OA
BRANCH  14  16
ATOM     16  C   UNL A   1      29.974  27.973  22.685  1.00  0.00     0.043 A 
ATOM     17  C   UNL A   1      28.211  30.162  22.441  1.00  0.00     0.160 A 
ATOM     18  C   UNL A   1      29.565  30.286  22.102  1.00  0.00     0.051 A 
ATOM     19  C   UNL A   1      27.761  28.930  22.925  1.00  0.00     0.158 A 
ATOM     20  C   UNL A   1      30.443  29.200  22.212  1.00  0.00     0.018 A 
ATOM     21  C   UNL A   1      28.644  27.864  23.101  1.00  0.00     0.064 A 
BRANCH  17  22
ATOM     22  O   UNL A   1      27.495  31.304  22.223  1.00  0.00    -0.493 OA
ATOM     23  C   UNL A   1      28.127  32.419  21.615  1.00  0.00     0.278 C 
ENDBRANCH  17  22
BRANCH  19  24
ATOM     24  O   UNL A   1      26.451  28.640  23.185  1.00  0.00    -0.504 OA
ATOM     25  H   UNL A   1      25.907  29.273  23.611  1.00  0.00     0.293 HD
ENDBRANCH  19  24
ENDBRANCH  14  16
ENDBRANCH   9  14
ENDBRANCH   5   8
ENDBRANCH   3   4
ENDBRANCH   2   3
ENDBRANCH   1   2
BRANCH   1  26
ATOM     26  C   UNL A   1      36.392  21.066  25.020  1.00  0.00     0.002 C 
BRANCH  26  27
ATOM     27  C   UNL A   1      37.584  20.109  24.934  1.00  0.00     0.021 C 
BRANCH  27  28
ATOM     28  C   UNL A   1      38.815  20.553  25.716  1.00  0.00     0.116 C 
BRANCH  28  29
ATOM     29  N   UNL A   1      39.821  19.506  25.794  1.00  0.00    -0.352 N 
ATOM     30  C   UNL A   1      41.162  19.613  26.067  1.00  0.00     0.251 C 
ATOM     31  H   UNL A   1      39.494  18.592  25.627  1.00  0.00     0.163 HD
ATOM     32  O   UNL A   1      41.914  18.664  25.887  1.00  0.00    -0.269 OA
BRANCH  30  33
ATOM     33  C   UNL A   1      41.695  20.895  26.572  1.00  0.00     0.039 A 
ATOM     34  C   UNL A   1      42.132  21.858  25.661  1.00  0.00     0.014 A 
ATOM     35  C   UNL A   1      41.751  21.143  27.947  1.00  0.00     0.014 A 
ATOM     36  C   UNL A   1      42.574  23.097  26.127  1.00  0.00     0.010 A 
ATOM     37  C   UNL A   1      42.120  22.403  28.405  1.00  0.00     0.010 A 
ATOM     38  C   UNL A   1      42.540  23.390  27.500  1.00  0.00    -0.014 A 
BRANCH  38  39
ATOM     39  C   UNL A   1      42.953  24.717  28.021  1.00  0.00     0.031 A 
ATOM     40  C   UNL A   1      41.914  25.768  28.302  1.00  0.00     0.074 A 
ATOM     41  C   UNL A   1      44.262  25.003  28.166  1.00  0.00     0.049 A 
ATOM     42  N   UNL A   1      42.075  27.017  28.657  1.00  0.00    -0.248 NA
ATOM     43  C   UNL A   1      40.508  25.366  28.135  1.00  0.00     0.031 C 
ATOM     44  C   UNL A   1      45.366  24.082  27.891  1.00  0.00     0.029 A 
ATOM     45  N   UNL A   1      44.885  26.157  28.567  1.00  0.00    -0.354 N 
ATOM     46  C   UNL A   1      40.796  27.552  28.738  1.00  0.00     0.074 A 
ATOM     47  C   UNL A   1      39.874  26.511  28.343  1.00  0.00     0.031 C 
ATOM     48  C   UNL A   1      46.529  24.700  28.148  1.00  0.00     0.029 A 
ATOM     49  C   UNL A   1      46.258  26.074  28.560  1.00  0.00     0.049 A 
ATOM     50  H   UNL A   1      44.397  26.969  28.834  1.00  0.00     0.167 HD
ATOM     51  C   UNL A   1      40.422  28.793  29.131  1.00  0.00     0.037 A 
ATOM     52  C   UNL A   1      47.190  27.005  28.839  1.00  0.00     0.037 A 
ATOM     53  C   UNL A   1      41.343  29.819  29.544  1.00  0.00     0.049 A 
ATOM     54  C   UNL A   1      46.750  28.385  29.246  1.00  0.00     0.074 A 
ATOM     55  C   UNL A   1      41.063  31.092  30.010  1.00  0.00     0.029 A 
ATOM     56  N   UNL A   1      42.725  29.690  29.538  1.00  0.00    -0.354 N 
ATOM     57  N   UNL A   1      45.535  28.860  29.378  1.00  0.00    -0.248 NA
ATOM     58  C   UNL A   1      47.810  29.356  29.547  1.00  0.00     0.031 C 
ATOM     59  C   UNL A   1      42.274  31.752  30.234  1.00  0.00     0.029 A 
ATOM     60  C   UNL A   1      43.309  30.869  29.967  1.00  0.00     0.049 A 
ATOM     61  H   UNL A   1      43.216  28.881  29.268  1.00  0.00     0.167 HD
ATOM     62  C   UNL A   1      45.684  30.171  29.812  1.00  0.00     0.074 A 
ATOM     63  C   UNL A   1      47.107  30.414  29.928  1.00  0.00     0.031 C 
ATOM     64  C   UNL A   1      44.728  31.091  30.093  1.00  0.00     0.037 A 
BRANCH  51  65
ATOM     65  C   UNL A   1      38.955  29.110  29.129  1.00  0.00     0.057 A 
ATOM     66  C   UNL A   1      38.172  29.008  30.287  1.00  0.00     0.134 A 
ATOM     67  C   UNL A   1      38.321  29.556  27.962  1.00  0.00     0.134 A 
ATOM     68  F   UNL A   1      38.712  28.575  31.436  1.00  0.00    -0.206 F 
ATOM     69  C   UNL A   1      36.808  29.308  30.277  1.00  0.00     0.040 A 
ATOM     70  C   UNL A   1      36.966  29.890  27.947  1.00  0.00     0.040 A 
ATOM     71  F   UNL A   1      39.011  29.684  26.818  1.00  0.00    -0.206 F 
ATOM     72  C   UNL A   1      36.204  29.759  29.106  1.00  0.00     0.006 A 
ENDBRANCH  51  65
BRANCH  52  73
ATOM     73  C   UNL A   1      48.633  26.662  28.756  1.00  0.00     0.057 A 
ATOM     74  C   UNL A   1      49.344  26.813  27.558  1.00  0.00     0.134 A 
ATOM     75  C   UNL A   1      49.334  26.167  29.862  1.00  0.00     0.134 A 
ATOM     76  F   UNL A   1      48.724  27.266  26.459  1.00  0.00    -0.206 F 
ATOM     77  C   UNL A   1      50.691  26.462  27.458  1.00  0.00     0.040 A 
ATOM     78  C   UNL A   1      50.688  25.838  29.783  1.00  0.00     0.040 A 
ATOM     79  F   UNL A   1      48.714  26.007  31.040  1.00  0.00    -0.206 F 
ATOM     80  C   UNL A   1      51.368  25.977  28.574  1.00  0.00     0.006 A 
ENDBRANCH  52  73
BRANCH  64  81
ATOM     81  C   UNL A   1      45.181  32.428  30.603  1.00  0.00     0.057 A 
ATOM     82  C   UNL A   1      45.469  32.651  31.955  1.00  0.00     0.134 A 
ATOM     83  C   UNL A   1      45.388  33.491  29.713  1.00  0.00     0.134 A 
ATOM     84  F   UNL A   1      45.281  31.679  32.860  1.00  0.00    -0.206 F 
ATOM     85  C   UNL A   1      45.929  33.890  32.406  1.00  0.00     0.040 A 
ATOM     86  C   UNL A   1      45.875  34.723  30.148  1.00  0.00     0.040 A 
ATOM     87  F   UNL A   1      45.140  33.341  28.403  1.00  0.00    -0.206 F 
ATOM     88  C   UNL A   1      46.143  34.927  31.500  1.00  0.00     0.006 A 
ENDBRANCH  64  81
ENDBRANCH  38  39
ENDBRANCH  30  33
ENDBRANCH  28  29
ENDBRANCH  27  28
ENDBRANCH  26  27
ENDBRANCH   1  26
TORSDOF 17
ENDMDL
MODEL 2
REMARK VINA RESULT:     -11.8      4.900     10.242
REMARK SMILES COc1ccc(C(=O)N2CC[C@@H](C(=O)NCCCCCCNC(=O)c3ccc(-c4c5nc(c(-c6c(F)cccc6F)c6ccc([nH]6)c(-c6c(F)cccc6F)c6nc(c(-c7c(F)cccc7F)c7ccc4[nH]7)C=C6)C=C5)cc3)[C@H]2C)cc1O
REMARK SMILES IDX 18 1 17 2 16 3 15 4 13 5 14 6 12 8 9 9 10 10 79 11 11 12
REMARK SMILES IDX 80 13 7 14 8 15 6 16 3 17 4 18 82 19 5 20 81 21 2 22 1 23
REMARK SMILES IDX 83 24 19 26 20 27 21 28 22 29 23 30 24 32 25 33 26 34 78 35
REMARK SMILES IDX 27 36 77 37 28 38 29 39 30 40 71 41 31 42 76 43 70 44 72 45
REMARK SMILES IDX 32 46 75 47 69 48 68 49 33 51 59 52 42 53 58 54 43 55 46 56
REMARK SMILES IDX 57 57 73 58 44 59 45 60 56 62 74 63 47 64 34 65 35 66 40 67
REMARK SMILES IDX 36 68 37 69 39 70 41 71 38 72 60 73 61 74 66 75 62 76 63 77
REMARK SMILES IDX 65 78 67 79 64 80 48 81 49 82 54 83 50 84 51 85 53 86 55 87
REMARK SMILES IDX 52 88
REMARK H PARENT 15 7 83 25 22 31 72 50 46 61
REMARK Flexibility Score: inf
ROOT
ATOM      1  C   UNL A   1      32.677  29.991  26.923  1.00  0.00     0.002 C 
ENDROOT
BRANCH   1   2
ATOM      2  C   UNL A   1      32.194  28.709  27.606  1.00  0.00     0.021 C 
BRANCH   2   3
ATOM      3  C   UNL A   1      32.331  27.438  26.766  1.00  0.00     0.116 C 
BRANCH   3   4
ATOM      4  N   UNL A   1      31.142  26.619  26.877  1.00  0.00    -0.356 N 
ATOM      5  C   UNL A   1      30.635  25.648  26.078  1.00  0.00     0.225 C 
ATOM      6  O   UNL A   1      29.518  25.212  26.378  1.00  0.00    -0.275 OA
ATOM      7  H   UNL A   1      30.602  26.801  27.680  1.00  0.00     0.163 HD
BRANCH   5   8
ATOM      8  C   UNL A   1      31.370  25.063  24.883  1.00  0.00     0.102 C 
ATOM      9  N   UNL A   1      32.290  22.963  24.206  1.00  0.00    -0.335 N 
ATOM     10  C   UNL A   1      31.379  23.397  23.166  1.00  0.00     0.121 C 
ATOM     11  C   UNL A   1      32.563  24.103  25.101  1.00  0.00     0.094 C 
ATOM     12  C   UNL A   1      30.457  24.376  23.859  1.00  0.00     0.037 C 
ATOM     13  C   UNL A   1      32.943  23.762  26.532  1.00  0.00     0.032 C 
BRANCH   9  14
ATOM     14  C   UNL A   1      33.269  22.042  23.841  1.00  0.00     0.254 C 
ATOM     15  O   UNL A   1      34.285  22.359  23.228  1.00  0.00    -0.269 OA
BRANCH  14  16
ATOM     16  C   UNL A   1      32.998  20.605  24.115  1.00  0.00     0.043 A 
ATOM     17  C   UNL A   1      32.457  17.893  24.670  1.00  0.00     0.160 A 
ATOM     18  C   UNL A   1      32.903  18.760  25.677  1.00  0.00     0.051 A 
ATOM     19  C   UNL A   1      32.309  18.403  23.378  1.00  0.00     0.158 A 
ATOM     20  C   UNL A   1      33.163  20.109  25.410  1.00  0.00     0.018 A 
ATOM     21  C   UNL A   1      32.632  19.730  23.090  1.00  0.00     0.064 A 
BRANCH  17  22
ATOM     22  O   UNL A   1      32.205  16.629  25.122  1.00  0.00    -0.493 OA
ATOM     23  C   UNL A   1      33.223  15.643  25.044  1.00  0.00     0.278 C 
ENDBRANCH  17  22
BRANCH  19  24
ATOM     24  O   UNL A   1      31.779  17.701  22.332  1.00  0.00    -0.504 OA
ATOM     25  H   UNL A   1      31.281  18.146  21.674  1.00  0.00     0.293 HD
ENDBRANCH  19  24
ENDBRANCH  14  16
ENDBRANCH   9  14
ENDBRANCH   5   8
ENDBRANCH   3   4
ENDBRANCH   2   3
ENDBRANCH   1   2
BRANCH   1  26
ATOM     26  C   UNL A   1      31.604  30.764  26.154  1.00  0.00     0.002 C 
BRANCH  26  27
ATOM     27  C   UNL A   1      31.405  32.215  26.599  1.00  0.00     0.021 C 
BRANCH  27  28
ATOM     28  C   UNL A   1      32.601  32.831  27.317  1.00  0.00     0.116 C 
BRANCH  28  29
ATOM     29  N   UNL A   1      32.388  34.236  27.627  1.00  0.00    -0.352 N 
ATOM     30  C   UNL A   1      32.972  35.003  28.604  1.00  0.00     0.251 C 
ATOM     31  H   UNL A   1      31.734  34.701  27.056  1.00  0.00     0.163 HD
ATOM     32  O   UNL A   1      32.531  36.114  28.872  1.00  0.00    -0.269 OA
BRANCH  30  33
ATOM     33  C   UNL A   1      34.136  34.471  29.341  1.00  0.00     0.039 A 
ATOM     34  C   UNL A   1      33.934  33.843  30.571  1.00  0.00     0.014 A 
ATOM     35  C   UNL A   1      35.423  34.586  28.806  1.00  0.00     0.014 A 
ATOM     36  C   UNL A   1      35.020  33.278  31.243  1.00  0.00     0.010 A 
ATOM     37  C   UNL A   1      36.490  33.957  29.438  1.00  0.00     0.010 A 
ATOM     38  C   UNL A   1      36.300  33.302  30.665  1.00  0.00    -0.014 A 
BRANCH  38  39
ATOM     39  C   UNL A   1      37.463  32.662  31.329  1.00  0.00     0.031 A 
ATOM     40  C   UNL A   1      38.160  31.506  30.669  1.00  0.00     0.074 A 
ATOM     41  C   UNL A   1      37.841  33.070  32.557  1.00  0.00     0.049 A 
ATOM     42  N   UNL A   1      39.121  30.746  31.128  1.00  0.00    -0.248 NA
ATOM     43  C   UNL A   1      37.695  31.138  29.322  1.00  0.00     0.031 C 
ATOM     44  C   UNL A   1      37.221  34.156  33.318  1.00  0.00     0.029 A 
ATOM     45  N   UNL A   1      38.830  32.606  33.387  1.00  0.00    -0.354 N 
ATOM     46  C   UNL A   1      39.362  29.803  30.138  1.00  0.00     0.074 A 
ATOM     47  C   UNL A   1      38.412  30.051  29.076  1.00  0.00     0.031 C 
ATOM     48  C   UNL A   1      37.854  34.287  34.494  1.00  0.00     0.029 A 
ATOM     49  C   UNL A   1      38.893  33.266  34.592  1.00  0.00     0.049 A 
ATOM     50  H   UNL A   1      39.437  31.871  33.144  1.00  0.00     0.167 HD
ATOM     51  C   UNL A   1      40.307  28.834  30.104  1.00  0.00     0.037 A 
ATOM     52  C   UNL A   1      39.688  33.059  35.659  1.00  0.00     0.037 A 
ATOM     53  C   UNL A   1      41.264  28.606  31.155  1.00  0.00     0.049 A 
ATOM     54  C   UNL A   1      40.712  31.958  35.609  1.00  0.00     0.074 A 
ATOM     55  C   UNL A   1      42.296  27.684  31.195  1.00  0.00     0.029 A 
ATOM     56  N   UNL A   1      41.305  29.305  32.352  1.00  0.00    -0.354 N 
ATOM     57  N   UNL A   1      40.971  31.112  34.641  1.00  0.00    -0.248 NA
ATOM     58  C   UNL A   1      41.557  31.784  36.798  1.00  0.00     0.031 C 
ATOM     59  C   UNL A   1      42.926  27.788  32.438  1.00  0.00     0.029 A 
ATOM     60  C   UNL A   1      42.328  28.817  33.148  1.00  0.00     0.049 A 
ATOM     61  H   UNL A   1      40.698  30.039  32.600  1.00  0.00     0.167 HD
ATOM     62  C   UNL A   1      42.030  30.333  35.088  1.00  0.00     0.074 A 
ATOM     63  C   UNL A   1      42.370  30.811  36.412  1.00  0.00     0.031 C 
ATOM     64  C   UNL A   1      42.666  29.315  34.458  1.00  0.00     0.037 A 
BRANCH  51  65
ATOM     65  C   UNL A   1      40.349  27.945  28.895  1.00  0.00     0.057 A 
ATOM     66  C   UNL A   1      39.628  26.745  28.831  1.00  0.00     0.134 A 
ATOM     67  C   UNL A   1      41.094  28.309  27.765  1.00  0.00     0.134 A 
ATOM     68  F   UNL A   1      38.904  26.330  29.882  1.00  0.00    -0.206 F 
ATOM     69  C   UNL A   1      39.670  25.926  27.702  1.00  0.00     0.040 A 
ATOM     70  C   UNL A   1      41.117  27.514  26.618  1.00  0.00     0.040 A 
ATOM     71  F   UNL A   1      41.803  29.447  27.754  1.00  0.00    -0.206 F 
ATOM     72  C   UNL A   1      40.409  26.315  26.588  1.00  0.00     0.006 A 
ENDBRANCH  51  65
BRANCH  52  73
ATOM     73  C   UNL A   1      39.558  33.920  36.862  1.00  0.00     0.057 A 
ATOM     74  C   UNL A   1      38.721  33.557  37.924  1.00  0.00     0.134 A 
ATOM     75  C   UNL A   1      40.255  35.129  36.977  1.00  0.00     0.134 A 
ATOM     76  F   UNL A   1      38.014  32.418  37.866  1.00  0.00    -0.206 F 
ATOM     77  C   UNL A   1      38.564  34.374  39.045  1.00  0.00     0.040 A 
ATOM     78  C   UNL A   1      40.128  35.943  38.104  1.00  0.00     0.040 A 
ATOM     79  F   UNL A   1      41.079  35.531  35.999  1.00  0.00    -0.206 F 
ATOM     80  C   UNL A   1      39.273  35.569  39.139  1.00  0.00     0.006 A 
ENDBRANCH  52  73
BRANCH  64  81
ATOM     81  C   UNL A   1      43.828  28.680  35.164  1.00  0.00     0.057 A 
ATOM     82  C   UNL A   1      43.666  27.605  36.047  1.00  0.00     0.134 A 
ATOM     83  C   UNL A   1      45.136  29.115  34.909  1.00  0.00     0.134 A 
ATOM     84  F   UNL A   1      42.440  27.148  36.344  1.00  0.00    -0.206 F 
ATOM     85  C   UNL A   1      44.761  26.998  36.665  1.00  0.00     0.040 A 
ATOM     86  C   UNL A   1      46.239  28.498  35.497  1.00  0.00     0.040 A 
ATOM     87  F   UNL A   1      45.361  30.134  34.066  1.00  0.00    -0.206 F 
ATOM     88  C   UNL A   1      46.053  27.438  36.382  1.00  0.00     0.006 A 
ENDBRANCH  64  81
ENDBRANCH  38  39
ENDBRANCH  30  33
ENDBRANCH  28  29
ENDBRANCH  27  28
ENDBRANCH  26  27
ENDBRANCH   1  26
TORSDOF 17
ENDMDL
MODEL 3
REMARK VINA RESULT:     -11.8      2.689      8.170
REMARK SMILES COc1ccc(C(=O)N2CC[C@@H](C(=O)NCCCCCCNC(=O)c3ccc(-c4c5nc(c(-c6c(F)cccc6F)c6ccc([nH]6)c(-c6c(F)cccc6F)c6nc(c(-c7c(F)cccc7F)c7ccc4[nH]7)C=C6)C=C5)cc3)[C@H]2C)cc1O
REMARK SMILES IDX 18 1 17 2 16 3 15 4 13 5 14 6 12 8 9 9 10 10 79 11 11 12
REMARK SMILES IDX 80 13 7 14 8 15 6 16 3 17 4 18 82 19 5 20 81 21 2 22 1 23
REMARK SMILES IDX 83 24 19 26 20 27 21 28 22 29 23 30 24 32 25 33 26 34 78 35
REMARK SMILES IDX 27 36 77 37 28 38 29 39 30 40 71 41 31 42 76 43 70 44 72 45
REMARK SMILES IDX 32 46 75 47 69 48 68 49 33 51 59 52 42 53 58 54 43 55 46 56
REMARK SMILES IDX 57 57 73 58 44 59 45 60 56 62 74 63 47 64 34 65 35 66 40 67
REMARK SMILES IDX 36 68 37 69 39 70 41 71 38 72 60 73 61 74 66 75 62 76 63 77
REMARK SMILES IDX 65 78 67 79 64 80 48 81 49 82 54 83 50 84 51 85 53 86 55 87
REMARK SMILES IDX 52 88
REMARK H PARENT 15 7 83 25 22 31 72 50 46 61
REMARK Flexibility Score: inf
ROOT
ATOM      1  C   UNL A   1      30.798  27.417  24.923  1.00  0.00     0.002 C 
ENDROOT
BRANCH   1   2
ATOM      2  C   UNL A   1      30.774  27.366  23.393  1.00  0.00     0.021 C 
BRANCH   2   3
ATOM      3  C   UNL A   1      32.122  27.623  22.717  1.00  0.00     0.116 C 
BRANCH   3   4
ATOM      4  N   UNL A   1      32.375  26.638  21.686  1.00  0.00    -0.356 N 
ATOM      5  C   UNL A   1      32.884  25.383  21.741  1.00  0.00     0.225 C 
ATOM      6  O   UNL A   1      33.101  24.826  20.659  1.00  0.00    -0.275 OA
ATOM      7  H   UNL A   1      32.134  26.935  20.779  1.00  0.00     0.163 HD
BRANCH   5   8
ATOM      8  C   UNL A   1      33.162  24.635  23.035  1.00  0.00     0.102 C 
ATOM      9  N   UNL A   1      32.692  22.498  23.998  1.00  0.00    -0.335 N 
ATOM     10  C   UNL A   1      34.126  22.697  24.052  1.00  0.00     0.121 C 
ATOM     11  C   UNL A   1      32.047  23.790  23.696  1.00  0.00     0.094 C 
ATOM     12  C   UNL A   1      34.402  23.734  22.986  1.00  0.00     0.037 C 
ATOM     13  C   UNL A   1      30.701  23.724  22.994  1.00  0.00     0.032 C 
BRANCH   9  14
ATOM     14  C   UNL A   1      32.150  21.578  24.892  1.00  0.00     0.254 C 
ATOM     15  O   UNL A   1      31.544  21.913  25.906  1.00  0.00    -0.269 OA
BRANCH  14  16
ATOM     16  C   UNL A   1      32.426  20.137  24.647  1.00  0.00     0.043 A 
ATOM     17  C   UNL A   1      32.925  17.393  24.222  1.00  0.00     0.160 A 
ATOM     18  C   UNL A   1      33.223  17.998  25.451  1.00  0.00     0.051 A 
ATOM     19  C   UNL A   1      32.394  18.191  23.205  1.00  0.00     0.158 A 
ATOM     20  C   UNL A   1      32.968  19.357  25.671  1.00  0.00     0.018 A 
ATOM     21  C   UNL A   1      32.201  19.560  23.395  1.00  0.00     0.064 A 
BRANCH  17  22
ATOM     22  O   UNL A   1      33.191  16.053  24.204  1.00  0.00    -0.493 OA
ATOM     23  C   UNL A   1      32.962  15.280  25.371  1.00  0.00     0.278 C 
ENDBRANCH  17  22
BRANCH  19  24
ATOM     24  O   UNL A   1      31.957  17.711  22.002  1.00  0.00    -0.504 OA
ATOM     25  H   UNL A   1      32.215  16.856  21.718  1.00  0.00     0.293 HD
ENDBRANCH  19  24
ENDBRANCH  14  16
ENDBRANCH   9  14
ENDBRANCH   5   8
ENDBRANCH   3   4
ENDBRANCH   2   3
ENDBRANCH   1   2
BRANCH   1  26
ATOM     26  C   UNL A   1      31.822  28.378  25.528  1.00  0.00     0.002 C 
BRANCH  26  27
ATOM     27  C   UNL A   1      32.496  27.885  26.811  1.00  0.00     0.021 C 
BRANCH  27  28
ATOM     28  C   UNL A   1      33.872  28.484  27.078  1.00  0.00     0.116 C 
BRANCH  28  29
ATOM     29  N   UNL A   1      33.787  29.842  27.593  1.00  0.00    -0.352 N 
ATOM     30  C   UNL A   1      34.711  30.549  28.321  1.00  0.00     0.251 C 
ATOM     31  H   UNL A   1      32.950  30.319  27.391  1.00  0.00     0.163 HD
ATOM     32  O   UNL A   1      34.405  31.605  28.860  1.00  0.00    -0.269 OA
BRANCH  30  33
ATOM     33  C   UNL A   1      36.082  30.018  28.458  1.00  0.00     0.039 A 
ATOM     34  C   UNL A   1      36.963  30.119  27.380  1.00  0.00     0.014 A 
ATOM     35  C   UNL A   1      36.495  29.430  29.658  1.00  0.00     0.014 A 
ATOM     36  C   UNL A   1      38.281  29.681  27.523  1.00  0.00     0.010 A 
ATOM     37  C   UNL A   1      37.826  29.064  29.823  1.00  0.00     0.010 A 
ATOM     38  C   UNL A   1      38.731  29.181  28.757  1.00  0.00    -0.014 A 
BRANCH  38  39
ATOM     39  C   UNL A   1      40.140  28.758  28.955  1.00  0.00     0.031 A 
ATOM     40  C   UNL A   1      41.145  29.733  29.501  1.00  0.00     0.074 A 
ATOM     41  C   UNL A   1      40.529  27.526  28.572  1.00  0.00     0.049 A 
ATOM     42  N   UNL A   1      42.437  29.595  29.648  1.00  0.00    -0.248 NA
ATOM     43  C   UNL A   1      40.631  31.050  29.910  1.00  0.00     0.031 C 
ATOM     44  C   UNL A   1      39.657  26.502  27.995  1.00  0.00     0.029 A 
ATOM     45  N   UNL A   1      41.766  26.932  28.599  1.00  0.00    -0.354 N 
ATOM     46  C   UNL A   1      42.891  30.808  30.149  1.00  0.00     0.074 A 
ATOM     47  C   UNL A   1      41.747  31.689  30.229  1.00  0.00     0.031 C 
ATOM     48  C   UNL A   1      40.381  25.401  27.738  1.00  0.00     0.029 A 
ATOM     49  C   UNL A   1      41.775  25.656  28.087  1.00  0.00     0.049 A 
ATOM     50  H   UNL A   1      42.571  27.377  28.949  1.00  0.00     0.167 HD
ATOM     51  C   UNL A   1      44.145  31.150  30.532  1.00  0.00     0.037 A 
ATOM     52  C   UNL A   1      42.796  24.795  27.907  1.00  0.00     0.037 A 
ATOM     53  C   UNL A   1      45.275  30.262  30.471  1.00  0.00     0.049 A 
ATOM     54  C   UNL A   1      44.184  25.208  28.315  1.00  0.00     0.074 A 
ATOM     55  C   UNL A   1      46.576  30.494  30.883  1.00  0.00     0.029 A 
ATOM     56  N   UNL A   1      45.241  28.972  29.961  1.00  0.00    -0.354 N 
ATOM     57  N   UNL A   1      44.589  26.337  28.844  1.00  0.00    -0.248 NA
ATOM     58  C   UNL A   1      45.257  24.226  28.103  1.00  0.00     0.031 C 
ATOM     59  C   UNL A   1      47.340  29.366  30.573  1.00  0.00     0.029 A 
ATOM     60  C   UNL A   1      46.503  28.407  30.025  1.00  0.00     0.049 A 
ATOM     61  H   UNL A   1      44.439  28.525  29.607  1.00  0.00     0.167 HD
ATOM     62  C   UNL A   1      45.953  26.188  29.063  1.00  0.00     0.074 A 
ATOM     63  C   UNL A   1      46.305  24.856  28.615  1.00  0.00     0.031 C 
ATOM     64  C   UNL A   1      46.834  27.072  29.591  1.00  0.00     0.037 A 
BRANCH  51  65
ATOM     65  C   UNL A   1      44.358  32.544  31.048  1.00  0.00     0.057 A 
ATOM     66  C   UNL A   1      44.289  32.849  32.414  1.00  0.00     0.134 A 
ATOM     67  C   UNL A   1      44.671  33.591  30.170  1.00  0.00     0.134 A 
ATOM     68  F   UNL A   1      43.982  31.896  33.307  1.00  0.00    -0.206 F 
ATOM     69  C   UNL A   1      44.492  34.147  32.885  1.00  0.00     0.040 A 
ATOM     70  C   UNL A   1      44.909  34.886  30.633  1.00  0.00     0.040 A 
ATOM     71  F   UNL A   1      44.760  33.370  28.850  1.00  0.00    -0.206 F 
ATOM     72  C   UNL A   1      44.812  35.168  31.993  1.00  0.00     0.006 A 
ENDBRANCH  51  65
BRANCH  52  73
ATOM     73  C   UNL A   1      42.544  23.453  27.325  1.00  0.00     0.057 A 
ATOM     74  C   UNL A   1      42.618  23.239  25.943  1.00  0.00     0.134 A 
ATOM     75  C   UNL A   1      42.213  22.355  28.129  1.00  0.00     0.134 A 
ATOM     76  F   UNL A   1      42.914  24.254  25.118  1.00  0.00    -0.206 F 
ATOM     77  C   UNL A   1      42.350  21.990  25.380  1.00  0.00     0.040 A 
ATOM     78  C   UNL A   1      41.969  21.094  27.581  1.00  0.00     0.040 A 
ATOM     79  F   UNL A   1      42.133  22.490  29.460  1.00  0.00    -0.206 F 
ATOM     80  C   UNL A   1      42.028  20.912  26.201  1.00  0.00     0.006 A 
ENDBRANCH  52  73
BRANCH  64  81
ATOM     81  C   UNL A   1      48.254  26.618  29.763  1.00  0.00     0.057 A 
ATOM     82  C   UNL A   1      49.237  26.861  28.795  1.00  0.00     0.134 A 
ATOM     83  C   UNL A   1      48.655  25.979  30.945  1.00  0.00     0.134 A 
ATOM     84  F   UNL A   1      48.918  27.458  27.637  1.00  0.00    -0.206 F 
ATOM     85  C   UNL A   1      50.563  26.468  28.989  1.00  0.00     0.040 A 
ATOM     86  C   UNL A   1      49.981  25.609  31.161  1.00  0.00     0.040 A 
ATOM     87  F   UNL A   1      47.765  25.724  31.916  1.00  0.00    -0.206 F 
ATOM     88  C   UNL A   1      50.940  25.849  30.179  1.00  0.00     0.006 A 
ENDBRANCH  64  81
ENDBRANCH  38  39
ENDBRANCH  30  33
ENDBRANCH  28  29
ENDBRANCH  27  28
ENDBRANCH  26  27
ENDBRANCH   1  26
TORSDOF 17
ENDMDL
