MODEL 1
REMARK VINA RESULT:      -9.8      0.000      0.000
REMARK SMILES O=C(Cc1ccn(C(F)F)c(=O)c1)NCCCCCCNC(=O)c1ccc(-c2c3nc(c(-c4c(F)cccc4F)c4ccc([nH]4)c(-c4c(F)cccc4F)c4nc(c(-c5c(F)cccc5F)c5ccc2[nH]5)C=C4)C=C3)cc1
REMARK SMILES IDX 17 1 16 2 15 3 14 4 1 5 2 6 3 8 4 9 5 10 13 11 6 12 11 13
REMARK SMILES IDX 7 14 12 15 8 16 9 17 10 18 18 19 19 20 20 21 21 22 22 23
REMARK SMILES IDX 23 25 24 26 25 27 77 28 26 29 76 30 27 31 28 32 29 33 70 34
REMARK SMILES IDX 30 35 75 36 69 37 71 38 31 39 74 40 68 41 67 42 32 44 58 45
REMARK SMILES IDX 41 46 57 47 42 48 45 49 56 50 72 51 43 52 44 53 55 55 73 56
REMARK SMILES IDX 46 57 33 58 34 59 39 60 35 61 36 62 38 63 40 64 37 65 59 66
REMARK SMILES IDX 60 67 65 68 61 69 62 70 64 71 66 72 63 73 47 74 48 75 53 76
REMARK SMILES IDX 49 77 50 78 52 79 54 80 51 81
REMARK H PARENT 14 7 21 24 71 43 45 54
REMARK Flexibility Score: inf
ROOT
ATOM      1  C   UNL A   1      34.048  36.797  33.209  1.00  0.00     0.002 C 
ENDROOT
BRANCH   1   2
ATOM      2  C   UNL A   1      34.905  35.543  32.989  1.00  0.00     0.021 C 
BRANCH   2   3
ATOM      3  C   UNL A   1      35.059  34.643  34.214  1.00  0.00     0.116 C 
BRANCH   3   4
ATOM      4  N   UNL A   1      36.396  34.098  34.313  1.00  0.00    -0.356 N 
ATOM      5  O   UNL A   1      36.242  33.395  36.495  1.00  0.00    -0.275 OA
ATOM      6  C   UNL A   1      36.881  33.493  35.452  1.00  0.00     0.224 C 
ATOM      7  H   UNL A   1      36.988  34.162  33.528  1.00  0.00     0.163 HD
BRANCH   6   8
ATOM      8  C   UNL A   1      38.322  32.998  35.339  1.00  0.00     0.135 C 
BRANCH   8   9
ATOM      9  C   UNL A   1      38.439  31.697  34.584  1.00  0.00    -0.032 A 
ATOM     10  C   UNL A   1      39.673  30.946  34.707  1.00  0.00     0.022 A 
ATOM     11  C   UNL A   1      37.462  31.223  33.791  1.00  0.00     0.076 A 
ATOM     12  C   UNL A   1      39.851  29.818  34.009  1.00  0.00     0.095 A 
ATOM     13  C   UNL A   1      37.647  29.971  33.004  1.00  0.00     0.255 A 
ATOM     14  N   UNL A   1      38.867  29.336  33.166  1.00  0.00    -0.258 N 
ATOM     15  O   UNL A   1      36.737  29.600  32.269  1.00  0.00    -0.269 OA
BRANCH  14  16
ATOM     16  C   UNL A   1      39.088  28.142  32.390  1.00  0.00     0.451 C 
ATOM     17  F   UNL A   1      40.322  27.630  32.611  1.00  0.00    -0.185 F 
ATOM     18  F   UNL A   1      38.174  27.190  32.702  1.00  0.00    -0.185 F 
ENDBRANCH  14  16
ENDBRANCH   8   9
ENDBRANCH   6   8
ENDBRANCH   3   4
ENDBRANCH   2   3
ENDBRANCH   1   2
BRANCH   1  19
ATOM     19  C   UNL A   1      33.411  37.401  31.953  1.00  0.00     0.002 C 
BRANCH  19  20
ATOM     20  C   UNL A   1      32.727  36.407  31.014  1.00  0.00     0.021 C 
BRANCH  20  21
ATOM     21  C   UNL A   1      33.129  36.508  29.546  1.00  0.00     0.116 C 
BRANCH  21  22
ATOM     22  N   UNL A   1      32.579  35.441  28.725  1.00  0.00    -0.352 N 
ATOM     23  C   UNL A   1      33.149  34.238  28.371  1.00  0.00     0.251 C 
ATOM     24  H   UNL A   1      31.673  35.599  28.374  1.00  0.00     0.163 HD
ATOM     25  O   UNL A   1      32.584  33.493  27.575  1.00  0.00    -0.269 OA
BRANCH  23  26
ATOM     26  C   UNL A   1      34.473  33.866  28.918  1.00  0.00     0.039 A 
ATOM     27  C   UNL A   1      35.647  34.349  28.337  1.00  0.00     0.014 A 
ATOM     28  C   UNL A   1      34.537  32.984  30.001  1.00  0.00     0.014 A 
ATOM     29  C   UNL A   1      36.875  33.815  28.719  1.00  0.00     0.010 A 
ATOM     30  C   UNL A   1      35.778  32.506  30.433  1.00  0.00     0.010 A 
ATOM     31  C   UNL A   1      36.952  32.872  29.757  1.00  0.00    -0.014 A 
BRANCH  31  32
ATOM     32  C   UNL A   1      38.260  32.250  30.087  1.00  0.00     0.031 A 
ATOM     33  C   UNL A   1      39.193  32.908  31.071  1.00  0.00     0.074 A 
ATOM     34  C   UNL A   1      38.588  31.060  29.549  1.00  0.00     0.049 A 
ATOM     35  N   UNL A   1      40.368  32.508  31.492  1.00  0.00    -0.248 NA
ATOM     36  C   UNL A   1      38.750  34.182  31.660  1.00  0.00     0.031 C 
ATOM     37  C   UNL A   1      37.767  30.311  28.596  1.00  0.00     0.029 A 
ATOM     38  N   UNL A   1      39.688  30.263  29.742  1.00  0.00    -0.354 N 
ATOM     39  C   UNL A   1      40.809  33.486  32.376  1.00  0.00     0.074 A 
ATOM     40  C   UNL A   1      39.791  34.513  32.411  1.00  0.00     0.031 C 
ATOM     41  C   UNL A   1      38.371  29.144  28.322  1.00  0.00     0.029 A 
ATOM     42  C   UNL A   1      39.643  29.087  29.034  1.00  0.00     0.049 A 
ATOM     43  H   UNL A   1      40.436  30.511  30.330  1.00  0.00     0.167 HD
ATOM     44  C   UNL A   1      41.951  33.520  33.104  1.00  0.00     0.037 A 
ATOM     45  C   UNL A   1      40.532  28.080  28.958  1.00  0.00     0.037 A 
ATOM     46  C   UNL A   1      42.958  32.490  33.091  1.00  0.00     0.049 A 
ATOM     47  C   UNL A   1      41.812  28.166  29.738  1.00  0.00     0.074 A 
ATOM     48  C   UNL A   1      44.139  32.426  33.810  1.00  0.00     0.029 A 
ATOM     49  N   UNL A   1      42.900  31.341  32.318  1.00  0.00    -0.354 N 
ATOM     50  N   UNL A   1      42.212  29.094  30.572  1.00  0.00    -0.248 NA
ATOM     51  C   UNL A   1      42.770  27.067  29.556  1.00  0.00     0.031 C 
ATOM     52  C   UNL A   1      44.812  31.254  33.447  1.00  0.00     0.029 A 
ATOM     53  C   UNL A   1      44.032  30.570  32.529  1.00  0.00     0.049 A 
ATOM     54  H   UNL A   1      42.162  31.106  31.710  1.00  0.00     0.167 HD
ATOM     55  C   UNL A   1      43.460  28.687  31.023  1.00  0.00     0.074 A 
ATOM     56  C   UNL A   1      43.742  27.416  30.386  1.00  0.00     0.031 C 
ATOM     57  C   UNL A   1      44.300  29.311  31.885  1.00  0.00     0.037 A 
BRANCH  44  58
ATOM     58  C   UNL A   1      42.181  34.723  33.971  1.00  0.00     0.057 A 
ATOM     59  C   UNL A   1      42.728  35.896  33.435  1.00  0.00     0.134 A 
ATOM     60  C   UNL A   1      41.888  34.713  35.341  1.00  0.00     0.134 A 
ATOM     61  F   UNL A   1      43.037  35.969  32.132  1.00  0.00    -0.206 F 
ATOM     62  C   UNL A   1      42.975  37.017  34.231  1.00  0.00     0.040 A 
ATOM     63  C   UNL A   1      42.110  35.835  36.143  1.00  0.00     0.040 A 
ATOM     64  F   UNL A   1      41.349  33.626  35.913  1.00  0.00    -0.206 F 
ATOM     65  C   UNL A   1      42.660  36.990  35.589  1.00  0.00     0.006 A 
ENDBRANCH  44  58
BRANCH  45  66
ATOM     66  C   UNL A   1      40.248  26.904  28.100  1.00  0.00     0.057 A 
ATOM     67  C   UNL A   1      40.791  26.793  26.815  1.00  0.00     0.134 A 
ATOM     68  C   UNL A   1      39.436  25.859  28.553  1.00  0.00     0.134 A 
ATOM     69  F   UNL A   1      41.577  27.763  26.325  1.00  0.00    -0.206 F 
ATOM     70  C   UNL A   1      40.529  25.689  26.004  1.00  0.00     0.040 A 
ATOM     71  C   UNL A   1      39.184  24.737  27.762  1.00  0.00     0.040 A 
ATOM     72  F   UNL A   1      38.905  25.901  29.783  1.00  0.00    -0.206 F 
ATOM     73  C   UNL A   1      39.727  24.652  26.481  1.00  0.00     0.006 A 
ENDBRANCH  45  66
BRANCH  57  74
ATOM     74  C   UNL A   1      45.589  28.615  32.197  1.00  0.00     0.057 A 
ATOM     75  C   UNL A   1      46.738  28.859  31.436  1.00  0.00     0.134 A 
ATOM     76  C   UNL A   1      45.690  27.691  33.246  1.00  0.00     0.134 A 
ATOM     77  F   UNL A   1      46.706  29.729  30.415  1.00  0.00    -0.206 F 
ATOM     78  C   UNL A   1      47.943  28.210  31.706  1.00  0.00     0.040 A 
ATOM     79  C   UNL A   1      46.894  27.053  33.540  1.00  0.00     0.040 A 
ATOM     80  F   UNL A   1      44.628  27.426  34.023  1.00  0.00    -0.206 F 
ATOM     81  C   UNL A   1      48.025  27.308  32.766  1.00  0.00     0.006 A 
ENDBRANCH  57  74
ENDBRANCH  31  32
ENDBRANCH  23  26
ENDBRANCH  21  22
ENDBRANCH  20  21
ENDBRANCH  19  20
ENDBRANCH   1  19
TORSDOF 15
ENDMDL
MODEL 2
REMARK VINA RESULT:      -9.7      0.318      6.390
REMARK SMILES O=C(Cc1ccn(C(F)F)c(=O)c1)NCCCCCCNC(=O)c1ccc(-c2c3nc(c(-c4c(F)cccc4F)c4ccc([nH]4)c(-c4c(F)cccc4F)c4nc(c(-c5c(F)cccc5F)c5ccc2[nH]5)C=C4)C=C3)cc1
REMARK SMILES IDX 17 1 16 2 15 3 14 4 1 5 2 6 3 8 4 9 5 10 13 11 6 12 11 13
REMARK SMILES IDX 7 14 12 15 8 16 9 17 10 18 18 19 19 20 20 21 21 22 22 23
REMARK SMILES IDX 23 25 24 26 25 27 77 28 26 29 76 30 27 31 28 32 29 33 70 34
REMARK SMILES IDX 30 35 75 36 69 37 71 38 31 39 74 40 68 41 67 42 32 44 58 45
REMARK SMILES IDX 41 46 57 47 42 48 45 49 56 50 72 51 43 52 44 53 55 55 73 56
REMARK SMILES IDX 46 57 33 58 34 59 39 60 35 61 36 62 38 63 40 64 37 65 59 66
REMARK SMILES IDX 60 67 65 68 61 69 62 70 64 71 66 72 63 73 47 74 48 75 53 76
REMARK SMILES IDX 49 77 50 78 52 79 54 80 51 81
REMARK H PARENT 14 7 21 24 71 43 45 54
REMARK Flexibility Score: inf
ROOT
ATOM      1  C   UNL A   1      34.022  36.887  32.877  1.00  0.00     0.002 C 
ENDROOT
BRANCH   1   2
ATOM      2  C   UNL A   1      34.882  35.622  32.753  1.00  0.00     0.021 C 
BRANCH   2   3
ATOM      3  C   UNL A   1      35.041  34.819  34.044  1.00  0.00     0.116 C 
BRANCH   3   4
ATOM      4  N   UNL A   1      36.364  34.244  34.157  1.00  0.00    -0.356 N 
ATOM      5  O   UNL A   1      36.151  33.496  36.320  1.00  0.00    -0.275 OA
ATOM      6  C   UNL A   1      36.813  33.605  35.293  1.00  0.00     0.224 C 
ATOM      7  H   UNL A   1      36.974  34.314  33.387  1.00  0.00     0.163 HD
BRANCH   6   8
ATOM      8  C   UNL A   1      38.246  33.082  35.197  1.00  0.00     0.135 C 
BRANCH   8   9
ATOM      9  C   UNL A   1      38.344  31.765  34.467  1.00  0.00    -0.032 A 
ATOM     10  C   UNL A   1      39.581  31.016  34.577  1.00  0.00     0.022 A 
ATOM     11  C   UNL A   1      37.348  31.275  33.709  1.00  0.00     0.076 A 
ATOM     12  C   UNL A   1      39.742  29.874  33.898  1.00  0.00     0.095 A 
ATOM     13  C   UNL A   1      37.513  30.006  32.944  1.00  0.00     0.255 A 
ATOM     14  N   UNL A   1      38.738  29.374  33.090  1.00  0.00    -0.258 N 
ATOM     15  O   UNL A   1      36.586  29.620  32.240  1.00  0.00    -0.269 OA
BRANCH  14  16
ATOM     16  C   UNL A   1      38.939  28.164  32.334  1.00  0.00     0.451 C 
ATOM     17  F   UNL A   1      40.225  27.746  32.405  1.00  0.00    -0.185 F 
ATOM     18  F   UNL A   1      38.145  27.169  32.800  1.00  0.00    -0.185 F 
ENDBRANCH  14  16
ENDBRANCH   8   9
ENDBRANCH   6   8
ENDBRANCH   3   4
ENDBRANCH   2   3
ENDBRANCH   1   2
BRANCH   1  19
ATOM     19  C   UNL A   1      33.235  37.286  31.624  1.00  0.00     0.002 C 
BRANCH  19  20
ATOM     20  C   UNL A   1      32.744  36.129  30.755  1.00  0.00     0.021 C 
BRANCH  20  21
ATOM     21  C   UNL A   1      33.074  36.239  29.269  1.00  0.00     0.116 C 
BRANCH  21  22
ATOM     22  N   UNL A   1      32.587  35.113  28.487  1.00  0.00    -0.352 N 
ATOM     23  C   UNL A   1      33.215  33.924  28.195  1.00  0.00     0.251 C 
ATOM     24  H   UNL A   1      31.681  35.215  28.115  1.00  0.00     0.163 HD
ATOM     25  O   UNL A   1      32.699  33.120  27.423  1.00  0.00    -0.269 OA
BRANCH  23  26
ATOM     26  C   UNL A   1      34.545  33.636  28.778  1.00  0.00     0.039 A 
ATOM     27  C   UNL A   1      35.714  33.947  28.081  1.00  0.00     0.014 A 
ATOM     28  C   UNL A   1      34.618  33.003  30.022  1.00  0.00     0.014 A 
ATOM     29  C   UNL A   1      36.938  33.469  28.539  1.00  0.00     0.010 A 
ATOM     30  C   UNL A   1      35.858  32.590  30.519  1.00  0.00     0.010 A 
ATOM     31  C   UNL A   1      37.021  32.767  29.753  1.00  0.00    -0.014 A 
BRANCH  31  32
ATOM     32  C   UNL A   1      38.323  32.190  30.178  1.00  0.00     0.031 A 
ATOM     33  C   UNL A   1      38.794  30.872  29.617  1.00  0.00     0.074 A 
ATOM     34  C   UNL A   1      39.114  32.878  31.022  1.00  0.00     0.049 A 
ATOM     35  N   UNL A   1      39.904  30.219  29.860  1.00  0.00    -0.248 NA
ATOM     36  C   UNL A   1      37.902  30.198  28.660  1.00  0.00     0.031 C 
ATOM     37  C   UNL A   1      38.784  34.171  31.623  1.00  0.00     0.029 A 
ATOM     38  N   UNL A   1      40.367  32.595  31.505  1.00  0.00    -0.354 N 
ATOM     39  C   UNL A   1      39.835  29.055  29.104  1.00  0.00     0.074 A 
ATOM     40  C   UNL A   1      38.562  29.075  28.416  1.00  0.00     0.031 C 
ATOM     41  C   UNL A   1      39.825  34.590  32.359  1.00  0.00     0.029 A 
ATOM     42  C   UNL A   1      40.871  33.574  32.326  1.00  0.00     0.049 A 
ATOM     43  H   UNL A   1      40.856  31.771  31.285  1.00  0.00     0.167 HD
ATOM     44  C   UNL A   1      40.752  28.066  28.981  1.00  0.00     0.037 A 
ATOM     45  C   UNL A   1      42.041  33.640  32.988  1.00  0.00     0.037 A 
ATOM     46  C   UNL A   1      42.030  28.051  29.646  1.00  0.00     0.049 A 
ATOM     47  C   UNL A   1      43.019  32.507  32.873  1.00  0.00     0.074 A 
ATOM     48  C   UNL A   1      43.034  27.102  29.568  1.00  0.00     0.029 A 
ATOM     49  N   UNL A   1      42.479  29.036  30.512  1.00  0.00    -0.354 N 
ATOM     50  N   UNL A   1      42.940  31.417  32.151  1.00  0.00    -0.248 NA
ATOM     51  C   UNL A   1      44.245  32.611  33.676  1.00  0.00     0.031 C 
ATOM     52  C   UNL A   1      44.078  27.496  30.413  1.00  0.00     0.029 A 
ATOM     53  C   UNL A   1      43.738  28.709  30.990  1.00  0.00     0.049 A 
ATOM     54  H   UNL A   1      41.977  29.849  30.752  1.00  0.00     0.167 HD
ATOM     55  C   UNL A   1      44.109  30.711  32.401  1.00  0.00     0.074 A 
ATOM     56  C   UNL A   1      44.890  31.507  33.327  1.00  0.00     0.031 C 
ATOM     57  C   UNL A   1      44.499  29.509  31.912  1.00  0.00     0.037 A 
BRANCH  44  58
ATOM     58  C   UNL A   1      40.399  26.903  28.101  1.00  0.00     0.057 A 
ATOM     59  C   UNL A   1      39.548  25.890  28.561  1.00  0.00     0.134 A 
ATOM     60  C   UNL A   1      40.923  26.770  26.808  1.00  0.00     0.134 A 
ATOM     61  F   UNL A   1      39.018  25.954  29.791  1.00  0.00    -0.206 F 
ATOM     62  C   UNL A   1      39.230  24.787  27.766  1.00  0.00     0.040 A 
ATOM     63  C   UNL A   1      40.595  25.682  25.996  1.00  0.00     0.040 A 
ATOM     64  F   UNL A   1      41.733  27.713  26.302  1.00  0.00    -0.206 F 
ATOM     65  C   UNL A   1      39.750  24.684  26.477  1.00  0.00     0.006 A 
ENDBRANCH  44  58
BRANCH  45  66
ATOM     66  C   UNL A   1      42.348  34.821  33.831  1.00  0.00     0.057 A 
ATOM     67  C   UNL A   1      42.055  34.834  35.200  1.00  0.00     0.134 A 
ATOM     68  C   UNL A   1      42.954  35.959  33.288  1.00  0.00     0.134 A 
ATOM     69  F   UNL A   1      41.473  33.773  35.778  1.00  0.00    -0.206 F 
ATOM     70  C   UNL A   1      42.344  35.941  35.998  1.00  0.00     0.040 A 
ATOM     71  C   UNL A   1      43.271  37.064  34.078  1.00  0.00     0.040 A 
ATOM     72  F   UNL A   1      43.278  35.995  31.987  1.00  0.00    -0.206 F 
ATOM     73  C   UNL A   1      42.961  37.059  35.438  1.00  0.00     0.006 A 
ENDBRANCH  45  66
BRANCH  57  74
ATOM     74  C   UNL A   1      45.836  28.998  32.358  1.00  0.00     0.057 A 
ATOM     75  C   UNL A   1      46.983  29.229  31.590  1.00  0.00     0.134 A 
ATOM     76  C   UNL A   1      45.984  28.265  33.543  1.00  0.00     0.134 A 
ATOM     77  F   UNL A   1      46.907  29.919  30.442  1.00  0.00    -0.206 F 
ATOM     78  C   UNL A   1      48.233  28.749  31.985  1.00  0.00     0.040 A 
ATOM     79  C   UNL A   1      47.231  27.800  33.960  1.00  0.00     0.040 A 
ATOM     80  F   UNL A   1      44.925  28.026  34.331  1.00  0.00    -0.206 F 
ATOM     81  C   UNL A   1      48.360  28.038  33.177  1.00  0.00     0.006 A 
ENDBRANCH  57  74
ENDBRANCH  31  32
ENDBRANCH  23  26
ENDBRANCH  21  22
ENDBRANCH  20  21
ENDBRANCH  19  20
ENDBRANCH   1  19
TORSDOF 15
ENDMDL
MODEL 3
REMARK VINA RESULT:      -9.6      4.614     11.111
REMARK SMILES O=C(Cc1ccn(C(F)F)c(=O)c1)NCCCCCCNC(=O)c1ccc(-c2c3nc(c(-c4c(F)cccc4F)c4ccc([nH]4)c(-c4c(F)cccc4F)c4nc(c(-c5c(F)cccc5F)c5ccc2[nH]5)C=C4)C=C3)cc1
REMARK SMILES IDX 17 1 16 2 15 3 14 4 1 5 2 6 3 8 4 9 5 10 13 11 6 12 11 13
REMARK SMILES IDX 7 14 12 15 8 16 9 17 10 18 18 19 19 20 20 21 21 22 22 23
REMARK SMILES IDX 23 25 24 26 25 27 77 28 26 29 76 30 27 31 28 32 29 33 70 34
REMARK SMILES IDX 30 35 75 36 69 37 71 38 31 39 74 40 68 41 67 42 32 44 58 45
REMARK SMILES IDX 41 46 57 47 42 48 45 49 56 50 72 51 43 52 44 53 55 55 73 56
REMARK SMILES IDX 46 57 33 58 34 59 39 60 35 61 36 62 38 63 40 64 37 65 59 66
REMARK SMILES IDX 60 67 65 68 61 69 62 70 64 71 66 72 63 73 47 74 48 75 53 76
REMARK SMILES IDX 49 77 50 78 52 79 54 80 51 81
REMARK H PARENT 14 7 21 24 71 43 45 54
REMARK Flexibility Score: inf
ROOT
ATOM      1  C   UNL A   1      46.426  19.860  24.928  1.00  0.00     0.002 C 
ENDROOT
BRANCH   1   2
ATOM      2  C   UNL A   1      45.668  21.194  24.948  1.00  0.00     0.021 C 
BRANCH   2   3
ATOM      3  C   UNL A   1      46.404  22.365  24.298  1.00  0.00     0.116 C 
BRANCH   3   4
ATOM      4  N   UNL A   1      46.413  23.533  25.152  1.00  0.00    -0.356 N 
ATOM      5  O   UNL A   1      47.594  24.900  23.731  1.00  0.00    -0.275 OA
ATOM      6  C   UNL A   1      46.998  24.727  24.789  1.00  0.00     0.224 C 
ATOM      7  H   UNL A   1      45.980  23.472  26.035  1.00  0.00     0.163 HD
BRANCH   6   8
ATOM      8  C   UNL A   1      46.898  25.825  25.848  1.00  0.00     0.135 C 
BRANCH   8   9
ATOM      9  C   UNL A   1      45.606  26.601  25.771  1.00  0.00    -0.032 A 
ATOM     10  C   UNL A   1      45.586  27.945  26.314  1.00  0.00     0.022 A 
ATOM     11  C   UNL A   1      44.479  26.090  25.245  1.00  0.00     0.076 A 
ATOM     12  C   UNL A   1      44.449  28.651  26.327  1.00  0.00     0.095 A 
ATOM     13  C   UNL A   1      43.204  26.863  25.256  1.00  0.00     0.255 A 
ATOM     14  N   UNL A   1      43.275  28.127  25.818  1.00  0.00    -0.258 N 
ATOM     15  O   UNL A   1      42.196  26.338  24.795  1.00  0.00    -0.269 OA
BRANCH  14  16
ATOM     16  C   UNL A   1      42.049  28.884  25.875  1.00  0.00     0.451 C 
ATOM     17  F   UNL A   1      40.973  28.071  25.987  1.00  0.00    -0.185 F 
ATOM     18  F   UNL A   1      42.054  29.727  26.936  1.00  0.00    -0.185 F 
ENDBRANCH  14  16
ENDBRANCH   8   9
ENDBRANCH   6   8
ENDBRANCH   3   4
ENDBRANCH   2   3
ENDBRANCH   1   2
BRANCH   1  19
ATOM     19  C   UNL A   1      45.586  18.609  25.212  1.00  0.00     0.002 C 
BRANCH  19  20
ATOM     20  C   UNL A   1      44.086  18.748  24.954  1.00  0.00     0.021 C 
BRANCH  20  21
ATOM     21  C   UNL A   1      43.187  18.474  26.156  1.00  0.00     0.116 C 
BRANCH  21  22
ATOM     22  N   UNL A   1      41.771  18.655  25.868  1.00  0.00    -0.352 N 
ATOM     23  C   UNL A   1      40.964  19.736  26.136  1.00  0.00     0.251 C 
ATOM     24  H   UNL A   1      41.330  17.899  25.418  1.00  0.00     0.163 HD
ATOM     25  O   UNL A   1      39.756  19.679  25.922  1.00  0.00    -0.269 OA
BRANCH  23  26
ATOM     26  C   UNL A   1      41.550  20.958  26.732  1.00  0.00     0.039 A 
ATOM     27  C   UNL A   1      41.612  21.117  28.118  1.00  0.00     0.014 A 
ATOM     28  C   UNL A   1      42.001  21.977  25.888  1.00  0.00     0.014 A 
ATOM     29  C   UNL A   1      41.955  22.355  28.654  1.00  0.00     0.010 A 
ATOM     30  C   UNL A   1      42.418  23.195  26.432  1.00  0.00     0.010 A 
ATOM     31  C   UNL A   1      42.342  23.414  27.817  1.00  0.00    -0.014 A 
BRANCH  31  32
ATOM     32  C   UNL A   1      42.618  24.751  28.404  1.00  0.00     0.031 A 
ATOM     33  C   UNL A   1      44.022  25.143  28.786  1.00  0.00     0.074 A 
ATOM     34  C   UNL A   1      41.615  25.639  28.540  1.00  0.00     0.049 A 
ATOM     35  N   UNL A   1      44.455  26.269  29.299  1.00  0.00    -0.248 NA
ATOM     36  C   UNL A   1      45.077  24.142  28.564  1.00  0.00     0.031 C 
ATOM     37  C   UNL A   1      40.215  25.391  28.193  1.00  0.00     0.029 A 
ATOM     38  N   UNL A   1      41.624  26.937  28.986  1.00  0.00    -0.354 N 
ATOM     39  C   UNL A   1      45.824  26.104  29.477  1.00  0.00     0.074 A 
ATOM     40  C   UNL A   1      46.146  24.761  29.045  1.00  0.00     0.031 C 
ATOM     41  C   UNL A   1      39.508  26.513  28.398  1.00  0.00     0.029 A 
ATOM     42  C   UNL A   1      40.391  27.540  28.940  1.00  0.00     0.049 A 
ATOM     43  H   UNL A   1      42.434  27.391  29.308  1.00  0.00     0.167 HD
ATOM     44  C   UNL A   1      46.734  26.993  29.944  1.00  0.00     0.037 A 
ATOM     45  C   UNL A   1      40.011  28.778  29.305  1.00  0.00     0.037 A 
ATOM     46  C   UNL A   1      46.423  28.338  30.355  1.00  0.00     0.049 A 
ATOM     47  C   UNL A   1      41.030  29.727  29.865  1.00  0.00     0.074 A 
ATOM     48  C   UNL A   1      47.280  29.319  30.822  1.00  0.00     0.029 A 
ATOM     49  N   UNL A   1      45.152  28.892  30.344  1.00  0.00    -0.354 N 
ATOM     50  N   UNL A   1      42.320  29.558  30.022  1.00  0.00    -0.248 NA
ATOM     51  C   UNL A   1      40.536  31.038  30.309  1.00  0.00     0.031 C 
ATOM     52  C   UNL A   1      46.523  30.456  31.126  1.00  0.00     0.029 A 
ATOM     53  C   UNL A   1      45.199  30.194  30.814  1.00  0.00     0.049 A 
ATOM     54  H   UNL A   1      44.336  28.427  30.045  1.00  0.00     0.167 HD
ATOM     55  C   UNL A   1      42.795  30.741  30.571  1.00  0.00     0.074 A 
ATOM     56  C   UNL A   1      41.657  31.629  30.699  1.00  0.00     0.031 C 
ATOM     57  C   UNL A   1      44.058  31.063  30.939  1.00  0.00     0.037 A 
BRANCH  44  58
ATOM     58  C   UNL A   1      48.158  26.532  30.050  1.00  0.00     0.057 A 
ATOM     59  C   UNL A   1      49.072  26.794  29.022  1.00  0.00     0.134 A 
ATOM     60  C   UNL A   1      48.618  25.804  31.155  1.00  0.00     0.134 A 
ATOM     61  F   UNL A   1      48.695  27.480  27.934  1.00  0.00    -0.206 F 
ATOM     62  C   UNL A   1      50.395  26.349  29.091  1.00  0.00     0.040 A 
ATOM     63  C   UNL A   1      49.943  25.372  31.245  1.00  0.00     0.040 A 
ATOM     64  F   UNL A   1      47.795  25.532  32.181  1.00  0.00    -0.206 F 
ATOM     65  C   UNL A   1      50.834  25.640  30.208  1.00  0.00     0.006 A 
ENDBRANCH  44  58
BRANCH  45  66
ATOM     66  C   UNL A   1      38.593  29.190  29.163  1.00  0.00     0.057 A 
ATOM     67  C   UNL A   1      38.083  29.630  27.936  1.00  0.00     0.134 A 
ATOM     68  C   UNL A   1      37.714  29.141  30.250  1.00  0.00     0.134 A 
ATOM     69  F   UNL A   1      38.877  29.700  26.857  1.00  0.00    -0.206 F 
ATOM     70  C   UNL A   1      36.750  30.017  27.795  1.00  0.00     0.040 A 
ATOM     71  C   UNL A   1      36.373  29.502  30.119  1.00  0.00     0.040 A 
ATOM     72  F   UNL A   1      38.141  28.708  31.444  1.00  0.00    -0.206 F 
ATOM     73  C   UNL A   1      35.888  29.946  28.889  1.00  0.00     0.006 A 
ENDBRANCH  45  66
BRANCH  57  74
ATOM     74  C   UNL A   1      44.272  32.438  31.497  1.00  0.00     0.057 A 
ATOM     75  C   UNL A   1      44.238  32.663  32.877  1.00  0.00     0.134 A 
ATOM     76  C   UNL A   1      44.498  33.541  30.664  1.00  0.00     0.134 A 
ATOM     77  F   UNL A   1      44.020  31.650  33.729  1.00  0.00    -0.206 F 
ATOM     78  C   UNL A   1      44.423  33.940  33.412  1.00  0.00     0.040 A 
ATOM     79  C   UNL A   1      44.707  34.817  31.187  1.00  0.00     0.040 A 
ATOM     80  F   UNL A   1      44.560  33.386  29.332  1.00  0.00    -0.206 F 
ATOM     81  C   UNL A   1      44.665  35.019  32.565  1.00  0.00     0.006 A 
ENDBRANCH  57  74
ENDBRANCH  31  32
ENDBRANCH  23  26
ENDBRANCH  21  22
ENDBRANCH  20  21
ENDBRANCH  19  20
ENDBRANCH   1  19
TORSDOF 15
ENDMDL
