MODEL 1
REMARK VINA RESULT:     -12.2      0.000      0.000
REMARK SMILES O=C(NCCCCCCNC(=O)c1cc2c(c(S(=O)(=O)Nc3cc(C(F)(F)F)ccc3-n3cccn3)c1)CCC2)c1ccc(-c2c3nc(c(-c4c(F)cccc4F)c4ccc([nH]4)c(-c4c(F)cccc4F)c4nc(c(-c5c(F)cccc5F)c5ccc2[nH]5)C=C4)C=C3)cc1
REMARK SMILES IDX 7 1 6 2 5 3 4 4 3 5 1 6 2 7 41 9 42 10 94 11 43 12 93 13
REMARK SMILES IDX 44 14 45 15 46 16 87 17 47 18 92 19 86 20 88 21 48 22 91 23
REMARK SMILES IDX 85 24 84 25 49 27 75 28 58 29 74 30 59 31 62 32 73 33 89 34
REMARK SMILES IDX 60 35 61 36 72 38 90 39 63 40 50 41 51 42 56 43 52 44 53 45
REMARK SMILES IDX 55 46 57 47 54 48 76 49 77 50 82 51 78 52 79 53 81 54 83 55
REMARK SMILES IDX 80 56 64 57 65 58 70 59 66 60 67 61 69 62 71 63 68 64 8 65
REMARK SMILES IDX 9 66 10 67 11 68 12 70 13 71 14 72 37 73 15 74 17 75 16 76
REMARK SMILES IDX 40 77 38 78 39 79 18 80 19 81 20 82 21 83 22 85 23 86 31 87
REMARK SMILES IDX 24 88 30 89 29 90 32 91 33 92 36 93 34 94 35 95 25 96 26 97
REMARK SMILES IDX 27 98 28 99
REMARK H PARENT 3 8 88 26 62 37 10 69 21 84
REMARK Flexibility Score: inf
ROOT
ATOM      1  C   UNL A   1      36.464  30.573  27.632  1.00  0.00     0.002 C 
ENDROOT
BRANCH   1   2
ATOM      2  C   UNL A   1      35.894  31.967  27.914  1.00  0.00     0.002 C 
BRANCH   2   3
ATOM      3  C   UNL A   1      34.596  32.029  28.733  1.00  0.00     0.021 C 
BRANCH   3   4
ATOM      4  C   UNL A   1      34.406  33.292  29.574  1.00  0.00     0.116 C 
BRANCH   4   5
ATOM      5  N   UNL A   1      34.418  33.061  31.003  1.00  0.00    -0.352 N 
ATOM      6  O   UNL A   1      34.966  32.588  33.084  1.00  0.00    -0.269 OA
ATOM      7  C   UNL A   1      35.272  32.472  31.894  1.00  0.00     0.251 C 
ATOM      8  H   UNL A   1      33.611  33.415  31.442  1.00  0.00     0.163 HD
BRANCH   7   9
ATOM      9  C   UNL A   1      36.491  31.684  31.551  1.00  0.00     0.039 A 
ATOM     10  C   UNL A   1      37.724  32.202  31.159  1.00  0.00     0.014 A 
ATOM     11  C   UNL A   1      36.357  30.281  31.638  1.00  0.00     0.014 A 
ATOM     12  C   UNL A   1      38.775  31.344  30.823  1.00  0.00     0.010 A 
ATOM     13  C   UNL A   1      37.404  29.421  31.307  1.00  0.00     0.010 A 
ATOM     14  C   UNL A   1      38.614  29.953  30.883  1.00  0.00    -0.014 A 
BRANCH  14  15
ATOM     15  C   UNL A   1      39.792  29.110  30.666  1.00  0.00     0.031 A 
ATOM     16  C   UNL A   1      40.618  28.875  31.885  1.00  0.00     0.074 A 
ATOM     17  C   UNL A   1      40.099  28.452  29.529  1.00  0.00     0.049 A 
ATOM     18  N   UNL A   1      41.832  29.257  32.107  1.00  0.00    -0.248 NA
ATOM     19  C   UNL A   1      39.982  28.202  33.027  1.00  0.00     0.031 C 
ATOM     20  C   UNL A   1      39.278  28.277  28.332  1.00  0.00     0.029 A 
ATOM     21  N   UNL A   1      41.217  27.715  29.247  1.00  0.00    -0.354 N 
ATOM     22  C   UNL A   1      42.185  28.727  33.348  1.00  0.00     0.074 A 
ATOM     23  C   UNL A   1      40.973  28.200  33.921  1.00  0.00     0.031 C 
ATOM     24  C   UNL A   1      39.837  27.331  27.540  1.00  0.00     0.029 A 
ATOM     25  C   UNL A   1      41.118  26.933  28.103  1.00  0.00     0.049 A 
ATOM     26  H   UNL A   1      42.026  27.738  29.808  1.00  0.00     0.167 HD
ATOM     27  C   UNL A   1      43.488  28.587  33.718  1.00  0.00     0.037 A 
ATOM     28  C   UNL A   1      42.003  25.997  27.673  1.00  0.00     0.037 A 
ATOM     29  C   UNL A   1      44.356  29.405  32.911  1.00  0.00     0.049 A 
ATOM     30  C   UNL A   1      43.305  26.258  28.328  1.00  0.00     0.074 A 
ATOM     31  C   UNL A   1      44.454  30.755  32.635  1.00  0.00     0.029 A 
ATOM     32  N   UNL A   1      45.130  28.783  31.964  1.00  0.00    -0.354 N 
ATOM     33  N   UNL A   1      44.087  27.258  28.040  1.00  0.00    -0.248 NA
ATOM     34  C   UNL A   1      43.579  25.596  29.593  1.00  0.00     0.031 C 
ATOM     35  C   UNL A   1      44.850  30.825  31.266  1.00  0.00     0.029 A 
ATOM     36  C   UNL A   1      45.019  29.517  30.814  1.00  0.00     0.049 A 
ATOM     37  H   UNL A   1      45.664  27.966  32.087  1.00  0.00     0.167 HD
ATOM     38  C   UNL A   1      44.630  27.634  29.256  1.00  0.00     0.074 A 
ATOM     39  C   UNL A   1      44.378  26.507  30.149  1.00  0.00     0.031 C 
ATOM     40  C   UNL A   1      44.979  28.931  29.496  1.00  0.00     0.037 A 
BRANCH  27  41
ATOM     41  C   UNL A   1      44.025  27.446  34.554  1.00  0.00     0.057 A 
ATOM     42  C   UNL A   1      44.830  27.735  35.674  1.00  0.00     0.134 A 
ATOM     43  C   UNL A   1      44.054  26.102  34.132  1.00  0.00     0.134 A 
ATOM     44  F   UNL A   1      44.893  28.979  36.175  1.00  0.00    -0.206 F 
ATOM     45  C   UNL A   1      45.674  26.785  36.260  1.00  0.00     0.040 A 
ATOM     46  C   UNL A   1      44.855  25.133  34.744  1.00  0.00     0.040 A 
ATOM     47  F   UNL A   1      43.395  25.674  33.048  1.00  0.00    -0.206 F 
ATOM     48  C   UNL A   1      45.697  25.481  35.787  1.00  0.00     0.006 A 
ENDBRANCH  27  41
BRANCH  28  49
ATOM     49  C   UNL A   1      41.777  24.750  26.907  1.00  0.00     0.057 A 
ATOM     50  C   UNL A   1      42.659  24.349  25.891  1.00  0.00     0.134 A 
ATOM     51  C   UNL A   1      40.869  23.777  27.354  1.00  0.00     0.134 A 
ATOM     52  F   UNL A   1      43.588  25.193  25.419  1.00  0.00    -0.206 F 
ATOM     53  C   UNL A   1      42.662  23.045  25.376  1.00  0.00     0.040 A 
ATOM     54  C   UNL A   1      40.856  22.474  26.843  1.00  0.00     0.040 A 
ATOM     55  F   UNL A   1      40.028  24.031  28.366  1.00  0.00    -0.206 F 
ATOM     56  C   UNL A   1      41.767  22.099  25.863  1.00  0.00     0.006 A 
ENDBRANCH  28  49
BRANCH  40  57
ATOM     57  C   UNL A   1      45.076  29.867  28.326  1.00  0.00     0.057 A 
ATOM     58  C   UNL A   1      43.990  30.558  27.767  1.00  0.00     0.134 A 
ATOM     59  C   UNL A   1      46.347  30.170  27.821  1.00  0.00     0.134 A 
ATOM     60  F   UNL A   1      42.748  30.419  28.252  1.00  0.00    -0.206 F 
ATOM     61  C   UNL A   1      44.159  31.462  26.713  1.00  0.00     0.040 A 
ATOM     62  C   UNL A   1      46.533  31.100  26.797  1.00  0.00     0.040 A 
ATOM     63  F   UNL A   1      47.439  29.591  28.345  1.00  0.00    -0.206 F 
ATOM     64  C   UNL A   1      45.435  31.739  26.228  1.00  0.00     0.006 A 
ENDBRANCH  40  57
ENDBRANCH  14  15
ENDBRANCH   7   9
ENDBRANCH   4   5
ENDBRANCH   3   4
ENDBRANCH   2   3
ENDBRANCH   1   2
BRANCH   1  65
ATOM     65  C   UNL A   1      35.609  29.390  28.090  1.00  0.00     0.021 C 
BRANCH  65  66
ATOM     66  C   UNL A   1      34.496  28.967  27.134  1.00  0.00     0.116 C 
BRANCH  66  67
ATOM     67  N   UNL A   1      33.178  28.894  27.759  1.00  0.00    -0.352 N 
ATOM     68  C   UNL A   1      32.109  28.073  27.444  1.00  0.00     0.251 C 
ATOM     69  H   UNL A   1      33.028  29.516  28.508  1.00  0.00     0.163 HD
ATOM     70  O   UNL A   1      31.025  28.202  28.001  1.00  0.00    -0.269 OA
BRANCH  68  71
ATOM     71  C   UNL A   1      32.282  27.045  26.390  1.00  0.00     0.041 A 
ATOM     72  C   UNL A   1      32.417  27.464  25.070  1.00  0.00     0.018 A 
ATOM     73  C   UNL A   1      32.146  25.676  26.706  1.00  0.00     0.036 A 
ATOM     74  C   UNL A   1      32.136  26.543  24.088  1.00  0.00    -0.043 A 
ATOM     75  C   UNL A   1      31.941  24.716  25.690  1.00  0.00     0.092 A 
ATOM     76  C   UNL A   1      31.807  25.203  24.393  1.00  0.00    -0.024 A 
ATOM     77  C   UNL A   1      31.957  26.847  22.631  1.00  0.00     0.036 C 
ATOM     78  C   UNL A   1      31.177  24.621  23.168  1.00  0.00     0.037 C 
ATOM     79  C   UNL A   1      31.872  25.433  22.069  1.00  0.00     0.010 C 
BRANCH  75  80
ATOM     80  S   UNL A   1      31.579  23.043  26.190  1.00  0.00     0.262 S 
ATOM     81  O   UNL A   1      32.234  22.838  27.472  1.00  0.00    -0.201 OA
ATOM     82  O   UNL A   1      30.148  22.873  26.088  1.00  0.00    -0.201 OA
BRANCH  80  83
ATOM     83  N   UNL A   1      32.267  21.825  25.205  1.00  0.00    -0.277 N 
ATOM     84  H   UNL A   1      31.661  21.241  24.694  1.00  0.00     0.180 HD
BRANCH  83  85
ATOM     85  C   UNL A   1      33.679  21.612  25.083  1.00  0.00     0.075 A 
ATOM     86  C   UNL A   1      34.547  22.710  25.228  1.00  0.00     0.042 A 
ATOM     87  C   UNL A   1      34.220  20.326  24.948  1.00  0.00     0.089 A 
ATOM     88  C   UNL A   1      35.941  22.518  25.328  1.00  0.00     0.058 A 
ATOM     89  C   UNL A   1      35.609  20.135  24.997  1.00  0.00     0.031 A 
ATOM     90  C   UNL A   1      36.464  21.225  25.179  1.00  0.00     0.015 A 
BRANCH  87  91
ATOM     91  N   UNL A   1      33.387  19.192  24.822  1.00  0.00    -0.239 N 
ATOM     92  C   UNL A   1      33.128  18.224  25.764  1.00  0.00     0.115 A 
ATOM     93  N   UNL A   1      32.821  18.889  23.628  1.00  0.00    -0.177 NA
ATOM     94  C   UNL A   1      32.531  17.178  25.105  1.00  0.00     0.042 A 
ATOM     95  C   UNL A   1      32.413  17.626  23.780  1.00  0.00     0.135 A 
ENDBRANCH  87  91
BRANCH  88  96
ATOM     96  C   UNL A   1      36.846  23.673  25.700  1.00  0.00     0.416 C 
ATOM     97  F   UNL A   1      37.765  23.956  24.742  1.00  0.00    -0.166 F 
ATOM     98  F   UNL A   1      36.148  24.826  25.910  1.00  0.00    -0.166 F 
ATOM     99  F   UNL A   1      37.545  23.458  26.850  1.00  0.00    -0.166 F 
ENDBRANCH  88  96
ENDBRANCH  83  85
ENDBRANCH  80  83
ENDBRANCH  75  80
ENDBRANCH  68  71
ENDBRANCH  66  67
ENDBRANCH  65  66
ENDBRANCH   1  65
TORSDOF 18
ENDMDL
MODEL 2
REMARK VINA RESULT:     -12.1      1.790      2.450
REMARK SMILES O=C(NCCCCCCNC(=O)c1cc2c(c(S(=O)(=O)Nc3cc(C(F)(F)F)ccc3-n3cccn3)c1)CCC2)c1ccc(-c2c3nc(c(-c4c(F)cccc4F)c4ccc([nH]4)c(-c4c(F)cccc4F)c4nc(c(-c5c(F)cccc5F)c5ccc2[nH]5)C=C4)C=C3)cc1
REMARK SMILES IDX 7 1 6 2 5 3 4 4 3 5 1 6 2 7 41 9 42 10 94 11 43 12 93 13
REMARK SMILES IDX 44 14 45 15 46 16 87 17 47 18 92 19 86 20 88 21 48 22 91 23
REMARK SMILES IDX 85 24 84 25 49 27 75 28 58 29 74 30 59 31 62 32 73 33 89 34
REMARK SMILES IDX 60 35 61 36 72 38 90 39 63 40 50 41 51 42 56 43 52 44 53 45
REMARK SMILES IDX 55 46 57 47 54 48 76 49 77 50 82 51 78 52 79 53 81 54 83 55
REMARK SMILES IDX 80 56 64 57 65 58 70 59 66 60 67 61 69 62 71 63 68 64 8 65
REMARK SMILES IDX 9 66 10 67 11 68 12 70 13 71 14 72 37 73 15 74 17 75 16 76
REMARK SMILES IDX 40 77 38 78 39 79 18 80 19 81 20 82 21 83 22 85 23 86 31 87
REMARK SMILES IDX 24 88 30 89 29 90 32 91 33 92 36 93 34 94 35 95 25 96 26 97
REMARK SMILES IDX 27 98 28 99
REMARK H PARENT 3 8 88 26 62 37 10 69 21 84
REMARK Flexibility Score: inf
ROOT
ATOM      1  C   UNL A   1      36.551  30.838  27.893  1.00  0.00     0.002 C 
ENDROOT
BRANCH   1   2
ATOM      2  C   UNL A   1      35.735  32.128  27.749  1.00  0.00     0.002 C 
BRANCH   2   3
ATOM      3  C   UNL A   1      35.522  32.956  29.026  1.00  0.00     0.021 C 
BRANCH   3   4
ATOM      4  C   UNL A   1      34.293  32.583  29.854  1.00  0.00     0.116 C 
BRANCH   4   5
ATOM      5  N   UNL A   1      34.510  32.614  31.286  1.00  0.00    -0.352 N 
ATOM      6  O   UNL A   1      35.364  32.567  33.316  1.00  0.00    -0.269 OA
ATOM      7  C   UNL A   1      35.526  32.264  32.131  1.00  0.00     0.251 C 
ATOM      8  H   UNL A   1      33.734  32.978  31.771  1.00  0.00     0.163 HD
BRANCH   7   9
ATOM      9  C   UNL A   1      36.766  31.525  31.754  1.00  0.00     0.039 A 
ATOM     10  C   UNL A   1      38.016  32.087  31.504  1.00  0.00     0.014 A 
ATOM     11  C   UNL A   1      36.633  30.124  31.644  1.00  0.00     0.014 A 
ATOM     12  C   UNL A   1      39.088  31.278  31.115  1.00  0.00     0.010 A 
ATOM     13  C   UNL A   1      37.700  29.312  31.259  1.00  0.00     0.010 A 
ATOM     14  C   UNL A   1      38.930  29.892  30.978  1.00  0.00    -0.014 A 
BRANCH  14  15
ATOM     15  C   UNL A   1      40.121  29.082  30.716  1.00  0.00     0.031 A 
ATOM     16  C   UNL A   1      40.972  28.826  31.914  1.00  0.00     0.074 A 
ATOM     17  C   UNL A   1      40.423  28.466  29.554  1.00  0.00     0.049 A 
ATOM     18  N   UNL A   1      42.182  29.228  32.129  1.00  0.00    -0.248 NA
ATOM     19  C   UNL A   1      40.369  28.105  33.044  1.00  0.00     0.031 C 
ATOM     20  C   UNL A   1      39.586  28.312  28.365  1.00  0.00     0.029 A 
ATOM     21  N   UNL A   1      41.551  27.763  29.231  1.00  0.00    -0.354 N 
ATOM     22  C   UNL A   1      42.566  28.666  33.346  1.00  0.00     0.074 A 
ATOM     23  C   UNL A   1      41.375  28.095  33.921  1.00  0.00     0.031 C 
ATOM     24  C   UNL A   1      40.152  27.404  27.535  1.00  0.00     0.029 A 
ATOM     25  C   UNL A   1      41.450  27.015  28.064  1.00  0.00     0.049 A 
ATOM     26  H   UNL A   1      42.370  27.786  29.779  1.00  0.00     0.167 HD
ATOM     27  C   UNL A   1      43.878  28.543  33.691  1.00  0.00     0.037 A 
ATOM     28  C   UNL A   1      42.348  26.113  27.591  1.00  0.00     0.037 A 
ATOM     29  C   UNL A   1      44.715  29.404  32.897  1.00  0.00     0.049 A 
ATOM     30  C   UNL A   1      43.655  26.381  28.233  1.00  0.00     0.074 A 
ATOM     31  C   UNL A   1      44.780  30.764  32.662  1.00  0.00     0.029 A 
ATOM     32  N   UNL A   1      45.486  28.829  31.918  1.00  0.00    -0.354 N 
ATOM     33  N   UNL A   1      44.411  27.406  27.965  1.00  0.00    -0.248 NA
ATOM     34  C   UNL A   1      43.964  25.686  29.472  1.00  0.00     0.031 C 
ATOM     35  C   UNL A   1      45.152  30.886  31.291  1.00  0.00     0.029 A 
ATOM     36  C   UNL A   1      45.340  29.597  30.794  1.00  0.00     0.049 A 
ATOM     37  H   UNL A   1      46.039  28.020  32.007  1.00  0.00     0.167 HD
ATOM     38  C   UNL A   1      44.966  27.756  29.183  1.00  0.00     0.074 A 
ATOM     39  C   UNL A   1      44.752  26.596  30.045  1.00  0.00     0.031 C 
ATOM     40  C   UNL A   1      45.291  29.052  29.459  1.00  0.00     0.037 A 
BRANCH  27  41
ATOM     41  C   UNL A   1      44.452  27.388  34.482  1.00  0.00     0.057 A 
ATOM     42  C   UNL A   1      45.329  27.657  35.551  1.00  0.00     0.134 A 
ATOM     43  C   UNL A   1      44.438  26.047  34.047  1.00  0.00     0.134 A 
ATOM     44  F   UNL A   1      45.439  28.895  36.058  1.00  0.00    -0.206 F 
ATOM     45  C   UNL A   1      46.197  26.692  36.075  1.00  0.00     0.040 A 
ATOM     46  C   UNL A   1      45.264  25.064  34.600  1.00  0.00     0.040 A 
ATOM     47  F   UNL A   1      43.708  25.638  33.003  1.00  0.00    -0.206 F 
ATOM     48  C   UNL A   1      46.175  25.392  35.590  1.00  0.00     0.006 A 
ENDBRANCH  27  41
BRANCH  28  49
ATOM     49  C   UNL A   1      42.135  24.886  26.790  1.00  0.00     0.057 A 
ATOM     50  C   UNL A   1      42.920  24.609  25.658  1.00  0.00     0.134 A 
ATOM     51  C   UNL A   1      41.370  23.818  27.284  1.00  0.00     0.134 A 
ATOM     52  F   UNL A   1      43.714  25.552  25.130  1.00  0.00    -0.206 F 
ATOM     53  C   UNL A   1      42.969  23.335  25.076  1.00  0.00     0.040 A 
ATOM     54  C   UNL A   1      41.403  22.543  26.708  1.00  0.00     0.040 A 
ATOM     55  F   UNL A   1      40.637  23.951  28.399  1.00  0.00    -0.206 F 
ATOM     56  C   UNL A   1      42.219  22.294  25.611  1.00  0.00     0.006 A 
ENDBRANCH  28  49
BRANCH  40  57
ATOM     57  C   UNL A   1      45.349  30.025  28.318  1.00  0.00     0.057 A 
ATOM     58  C   UNL A   1      44.243  30.725  27.811  1.00  0.00     0.134 A 
ATOM     59  C   UNL A   1      46.603  30.355  27.788  1.00  0.00     0.134 A 
ATOM     60  F   UNL A   1      43.016  30.561  28.325  1.00  0.00    -0.206 F 
ATOM     61  C   UNL A   1      44.377  31.664  26.783  1.00  0.00     0.040 A 
ATOM     62  C   UNL A   1      46.754  31.319  26.791  1.00  0.00     0.040 A 
ATOM     63  F   UNL A   1      47.714  29.768  28.264  1.00  0.00    -0.206 F 
ATOM     64  C   UNL A   1      45.636  31.967  26.273  1.00  0.00     0.006 A 
ENDBRANCH  40  57
ENDBRANCH  14  15
ENDBRANCH   7   9
ENDBRANCH   4   5
ENDBRANCH   3   4
ENDBRANCH   2   3
ENDBRANCH   1   2
BRANCH   1  65
ATOM     65  C   UNL A   1      35.753  29.568  28.193  1.00  0.00     0.021 C 
BRANCH  65  66
ATOM     66  C   UNL A   1      34.664  29.216  27.182  1.00  0.00     0.116 C 
BRANCH  66  67
ATOM     67  N   UNL A   1      33.353  28.987  27.784  1.00  0.00    -0.352 N 
ATOM     68  C   UNL A   1      32.325  28.168  27.349  1.00  0.00     0.251 C 
ATOM     69  H   UNL A   1      33.175  29.486  28.615  1.00  0.00     0.163 HD
ATOM     70  O   UNL A   1      31.238  28.161  27.915  1.00  0.00    -0.269 OA
BRANCH  68  71
ATOM     71  C   UNL A   1      32.546  27.313  26.158  1.00  0.00     0.041 A 
ATOM     72  C   UNL A   1      32.323  27.861  24.899  1.00  0.00     0.018 A 
ATOM     73  C   UNL A   1      32.814  25.937  26.315  1.00  0.00     0.036 A 
ATOM     74  C   UNL A   1      32.100  26.982  23.864  1.00  0.00    -0.043 A 
ATOM     75  C   UNL A   1      32.666  25.044  25.230  1.00  0.00     0.092 A 
ATOM     76  C   UNL A   1      32.175  25.582  24.044  1.00  0.00    -0.024 A 
ATOM     77  C   UNL A   1      31.580  27.346  22.506  1.00  0.00     0.036 C 
ATOM     78  C   UNL A   1      31.490  24.957  22.871  1.00  0.00     0.037 C 
ATOM     79  C   UNL A   1      31.744  26.011  21.789  1.00  0.00     0.010 C 
BRANCH  75  80
ATOM     80  S   UNL A   1      32.829  23.299  25.563  1.00  0.00     0.262 S 
ATOM     81  O   UNL A   1      33.708  23.173  26.714  1.00  0.00    -0.201 OA
ATOM     82  O   UNL A   1      31.492  22.755  25.627  1.00  0.00    -0.201 OA
BRANCH  80  83
ATOM     83  N   UNL A   1      33.642  22.402  24.355  1.00  0.00    -0.277 N 
ATOM     84  H   UNL A   1      33.790  22.827  23.478  1.00  0.00     0.180 HD
BRANCH  83  85
ATOM     85  C   UNL A   1      34.121  21.066  24.552  1.00  0.00     0.075 A 
ATOM     86  C   UNL A   1      33.235  19.991  24.355  1.00  0.00     0.042 A 
ATOM     87  C   UNL A   1      35.473  20.799  24.810  1.00  0.00     0.089 A 
ATOM     88  C   UNL A   1      33.709  18.662  24.328  1.00  0.00     0.058 A 
ATOM     89  C   UNL A   1      35.941  19.477  24.833  1.00  0.00     0.031 A 
ATOM     90  C   UNL A   1      35.062  18.415  24.601  1.00  0.00     0.015 A 
BRANCH  87  91
ATOM     91  N   UNL A   1      36.403  21.847  24.992  1.00  0.00    -0.239 N 
ATOM     92  C   UNL A   1      37.210  22.083  26.080  1.00  0.00     0.115 A 
ATOM     93  N   UNL A   1      36.497  22.844  24.078  1.00  0.00    -0.177 NA
ATOM     94  C   UNL A   1      37.698  23.359  25.944  1.00  0.00     0.042 A 
ATOM     95  C   UNL A   1      37.183  23.797  24.714  1.00  0.00     0.135 A 
ENDBRANCH  87  91
BRANCH  88  96
ATOM     96  C   UNL A   1      32.794  17.534  23.902  1.00  0.00     0.416 C 
ATOM     97  F   UNL A   1      32.061  17.834  22.800  1.00  0.00    -0.166 F 
ATOM     98  F   UNL A   1      33.486  16.398  23.600  1.00  0.00    -0.166 F 
ATOM     99  F   UNL A   1      31.904  17.171  24.867  1.00  0.00    -0.166 F 
ENDBRANCH  88  96
ENDBRANCH  83  85
ENDBRANCH  80  83
ENDBRANCH  75  80
ENDBRANCH  68  71
ENDBRANCH  66  67
ENDBRANCH  65  66
ENDBRANCH   1  65
TORSDOF 18
ENDMDL
MODEL 3
REMARK VINA RESULT:     -11.9      3.229      8.445
REMARK SMILES O=C(NCCCCCCNC(=O)c1cc2c(c(S(=O)(=O)Nc3cc(C(F)(F)F)ccc3-n3cccn3)c1)CCC2)c1ccc(-c2c3nc(c(-c4c(F)cccc4F)c4ccc([nH]4)c(-c4c(F)cccc4F)c4nc(c(-c5c(F)cccc5F)c5ccc2[nH]5)C=C4)C=C3)cc1
REMARK SMILES IDX 7 1 6 2 5 3 4 4 3 5 1 6 2 7 41 9 42 10 94 11 43 12 93 13
REMARK SMILES IDX 44 14 45 15 46 16 87 17 47 18 92 19 86 20 88 21 48 22 91 23
REMARK SMILES IDX 85 24 84 25 49 27 75 28 58 29 74 30 59 31 62 32 73 33 89 34
REMARK SMILES IDX 60 35 61 36 72 38 90 39 63 40 50 41 51 42 56 43 52 44 53 45
REMARK SMILES IDX 55 46 57 47 54 48 76 49 77 50 82 51 78 52 79 53 81 54 83 55
REMARK SMILES IDX 80 56 64 57 65 58 70 59 66 60 67 61 69 62 71 63 68 64 8 65
REMARK SMILES IDX 9 66 10 67 11 68 12 70 13 71 14 72 37 73 15 74 17 75 16 76
REMARK SMILES IDX 40 77 38 78 39 79 18 80 19 81 20 82 21 83 22 85 23 86 31 87
REMARK SMILES IDX 24 88 30 89 29 90 32 91 33 92 36 93 34 94 35 95 25 96 26 97
REMARK SMILES IDX 27 98 28 99
REMARK H PARENT 3 8 88 26 62 37 10 69 21 84
REMARK Flexibility Score: inf
ROOT
ATOM      1  C   UNL A   1      39.432  22.313  26.390  1.00  0.00     0.002 C 
ENDROOT
BRANCH   1   2
ATOM      2  C   UNL A   1      40.391  21.885  27.506  1.00  0.00     0.002 C 
BRANCH   2   3
ATOM      3  C   UNL A   1      41.290  20.674  27.215  1.00  0.00     0.021 C 
BRANCH   3   4
ATOM      4  C   UNL A   1      42.757  20.996  26.930  1.00  0.00     0.116 C 
BRANCH   4   5
ATOM      5  N   UNL A   1      42.979  21.692  25.679  1.00  0.00    -0.352 N 
ATOM      6  O   UNL A   1      43.401  23.181  24.112  1.00  0.00    -0.269 OA
ATOM      7  C   UNL A   1      43.080  22.998  25.289  1.00  0.00     0.251 C 
ATOM      8  H   UNL A   1      43.082  21.070  24.922  1.00  0.00     0.163 HD
BRANCH   7   9
ATOM      9  C   UNL A   1      42.800  24.192  26.138  1.00  0.00     0.039 A 
ATOM     10  C   UNL A   1      43.383  24.482  27.370  1.00  0.00     0.014 A 
ATOM     11  C   UNL A   1      41.846  25.097  25.625  1.00  0.00     0.014 A 
ATOM     12  C   UNL A   1      42.994  25.620  28.084  1.00  0.00     0.010 A 
ATOM     13  C   UNL A   1      41.456  26.235  26.332  1.00  0.00     0.010 A 
ATOM     14  C   UNL A   1      42.021  26.490  27.574  1.00  0.00    -0.014 A 
BRANCH  14  15
ATOM     15  C   UNL A   1      41.765  27.739  28.294  1.00  0.00     0.031 A 
ATOM     16  C   UNL A   1      42.809  28.788  28.106  1.00  0.00     0.074 A 
ATOM     17  C   UNL A   1      40.642  28.048  28.976  1.00  0.00     0.049 A 
ATOM     18  N   UNL A   1      43.603  29.286  28.995  1.00  0.00    -0.248 NA
ATOM     19  C   UNL A   1      43.052  29.279  26.742  1.00  0.00     0.031 C 
ATOM     20  C   UNL A   1      39.378  27.315  29.020  1.00  0.00     0.029 A 
ATOM     21  N   UNL A   1      40.380  29.162  29.724  1.00  0.00    -0.354 N 
ATOM     22  C   UNL A   1      44.333  30.283  28.349  1.00  0.00     0.074 A 
ATOM     23  C   UNL A   1      44.045  30.147  26.944  1.00  0.00     0.031 C 
ATOM     24  C   UNL A   1      38.428  28.095  29.589  1.00  0.00     0.029 A 
ATOM     25  C   UNL A   1      39.043  29.323  30.070  1.00  0.00     0.049 A 
ATOM     26  H   UNL A   1      41.081  29.799  29.998  1.00  0.00     0.167 HD
ATOM     27  C   UNL A   1      44.963  31.270  29.045  1.00  0.00     0.037 A 
ATOM     28  C   UNL A   1      38.477  30.402  30.670  1.00  0.00     0.037 A 
ATOM     29  C   UNL A   1      45.131  30.912  30.430  1.00  0.00     0.049 A 
ATOM     30  C   UNL A   1      39.551  31.180  31.329  1.00  0.00     0.074 A 
ATOM     31  C   UNL A   1      45.744  29.877  31.108  1.00  0.00     0.029 A 
ATOM     32  N   UNL A   1      44.327  31.528  31.356  1.00  0.00    -0.354 N 
ATOM     33  N   UNL A   1      40.181  30.803  32.404  1.00  0.00    -0.248 NA
ATOM     34  C   UNL A   1      40.197  32.237  30.566  1.00  0.00     0.031 C 
ATOM     35  C   UNL A   1      44.903  29.621  32.232  1.00  0.00     0.029 A 
ATOM     36  C   UNL A   1      43.863  30.550  32.194  1.00  0.00     0.049 A 
ATOM     37  H   UNL A   1      44.122  32.489  31.408  1.00  0.00     0.167 HD
ATOM     38  C   UNL A   1      41.484  31.228  32.209  1.00  0.00     0.074 A 
ATOM     39  C   UNL A   1      41.407  32.204  31.126  1.00  0.00     0.031 C 
ATOM     40  C   UNL A   1      42.532  30.544  32.751  1.00  0.00     0.037 A 
BRANCH  27  41
ATOM     41  C   UNL A   1      45.100  32.700  28.573  1.00  0.00     0.057 A 
ATOM     42  C   UNL A   1      43.937  33.455  28.324  1.00  0.00     0.134 A 
ATOM     43  C   UNL A   1      46.289  33.252  28.054  1.00  0.00     0.134 A 
ATOM     44  F   UNL A   1      42.738  33.040  28.762  1.00  0.00    -0.206 F 
ATOM     45  C   UNL A   1      43.943  34.611  27.535  1.00  0.00     0.040 A 
ATOM     46  C   UNL A   1      46.313  34.434  27.308  1.00  0.00     0.040 A 
ATOM     47  F   UNL A   1      47.471  32.630  28.149  1.00  0.00    -0.206 F 
ATOM     48  C   UNL A   1      45.134  35.098  27.013  1.00  0.00     0.006 A 
ENDBRANCH  27  41
BRANCH  28  49
ATOM     49  C   UNL A   1      37.109  30.954  30.546  1.00  0.00     0.057 A 
ATOM     50  C   UNL A   1      36.308  31.178  31.678  1.00  0.00     0.134 A 
ATOM     51  C   UNL A   1      36.672  31.553  29.354  1.00  0.00     0.134 A 
ATOM     52  F   UNL A   1      36.658  30.678  32.872  1.00  0.00    -0.206 F 
ATOM     53  C   UNL A   1      35.161  31.982  31.634  1.00  0.00     0.040 A 
ATOM     54  C   UNL A   1      35.524  32.352  29.294  1.00  0.00     0.040 A 
ATOM     55  F   UNL A   1      37.395  31.461  28.229  1.00  0.00    -0.206 F 
ATOM     56  C   UNL A   1      34.775  32.583  30.441  1.00  0.00     0.006 A 
ENDBRANCH  28  49
BRANCH  40  57
ATOM     57  C   UNL A   1      42.241  29.531  33.820  1.00  0.00     0.057 A 
ATOM     58  C   UNL A   1      41.830  28.212  33.577  1.00  0.00     0.134 A 
ATOM     59  C   UNL A   1      42.503  29.877  35.152  1.00  0.00     0.134 A 
ATOM     60  F   UNL A   1      41.658  27.751  32.330  1.00  0.00    -0.206 F 
ATOM     61  C   UNL A   1      41.632  27.300  34.619  1.00  0.00     0.040 A 
ATOM     62  C   UNL A   1      42.348  28.964  36.196  1.00  0.00     0.040 A 
ATOM     63  F   UNL A   1      42.954  31.105  35.455  1.00  0.00    -0.206 F 
ATOM     64  C   UNL A   1      41.896  27.674  35.934  1.00  0.00     0.006 A 
ENDBRANCH  40  57
ENDBRANCH  14  15
ENDBRANCH   7   9
ENDBRANCH   4   5
ENDBRANCH   3   4
ENDBRANCH   2   3
ENDBRANCH   1   2
BRANCH   1  65
ATOM     65  C   UNL A   1      38.699  23.639  26.604  1.00  0.00     0.021 C 
BRANCH  65  66
ATOM     66  C   UNL A   1      37.369  23.786  25.870  1.00  0.00     0.116 C 
BRANCH  66  67
ATOM     67  N   UNL A   1      37.405  23.322  24.484  1.00  0.00    -0.352 N 
ATOM     68  C   UNL A   1      36.367  23.208  23.576  1.00  0.00     0.251 C 
ATOM     69  H   UNL A   1      38.292  23.053  24.150  1.00  0.00     0.163 HD
ATOM     70  O   UNL A   1      36.543  22.703  22.473  1.00  0.00    -0.269 OA
BRANCH  68  71
ATOM     71  C   UNL A   1      35.017  23.679  23.969  1.00  0.00     0.041 A 
ATOM     72  C   UNL A   1      34.292  22.924  24.885  1.00  0.00     0.018 A 
ATOM     73  C   UNL A   1      34.427  24.773  23.301  1.00  0.00     0.036 A 
ATOM     74  C   UNL A   1      32.928  23.104  24.907  1.00  0.00    -0.043 A 
ATOM     75  C   UNL A   1      33.037  25.009  23.391  1.00  0.00     0.092 A 
ATOM     76  C   UNL A   1      32.290  24.071  24.098  1.00  0.00    -0.024 A 
ATOM     77  C   UNL A   1      31.942  22.220  25.609  1.00  0.00     0.036 C 
ATOM     78  C   UNL A   1      30.838  23.718  24.063  1.00  0.00     0.037 C 
ATOM     79  C   UNL A   1      30.669  23.040  25.426  1.00  0.00     0.010 C 
BRANCH  75  80
ATOM     80  S   UNL A   1      32.345  26.289  22.358  1.00  0.00     0.262 S 
ATOM     81  O   UNL A   1      33.366  27.315  22.222  1.00  0.00    -0.201 OA
ATOM     82  O   UNL A   1      31.827  25.641  21.174  1.00  0.00    -0.201 OA
BRANCH  80  83
ATOM     83  N   UNL A   1      31.027  27.140  23.041  1.00  0.00    -0.277 N 
ATOM     84  H   UNL A   1      30.118  26.910  22.740  1.00  0.00     0.180 HD
BRANCH  83  85
ATOM     85  C   UNL A   1      31.178  28.169  24.027  1.00  0.00     0.075 A 
ATOM     86  C   UNL A   1      32.112  27.986  25.062  1.00  0.00     0.042 A 
ATOM     87  C   UNL A   1      30.513  29.398  23.915  1.00  0.00     0.089 A 
ATOM     88  C   UNL A   1      32.448  29.049  25.927  1.00  0.00     0.058 A 
ATOM     89  C   UNL A   1      30.806  30.444  24.803  1.00  0.00     0.031 A 
ATOM     90  C   UNL A   1      31.763  30.267  25.807  1.00  0.00     0.015 A 
BRANCH  87  91
ATOM     91  N   UNL A   1      29.583  29.634  22.878  1.00  0.00    -0.239 N 
ATOM     92  C   UNL A   1      29.728  30.452  21.782  1.00  0.00     0.115 A 
ATOM     93  N   UNL A   1      28.333  29.116  22.950  1.00  0.00    -0.177 NA
ATOM     94  C   UNL A   1      28.479  30.608  21.235  1.00  0.00     0.042 A 
ATOM     95  C   UNL A   1      27.650  29.801  22.028  1.00  0.00     0.135 A 
ENDBRANCH  87  91
BRANCH  88  96
ATOM     96  C   UNL A   1      33.605  28.912  26.893  1.00  0.00     0.416 C 
ATOM     97  F   UNL A   1      33.284  28.205  28.006  1.00  0.00    -0.166 F 
ATOM     98  F   UNL A   1      34.670  28.273  26.331  1.00  0.00    -0.166 F 
ATOM     99  F   UNL A   1      34.087  30.110  27.327  1.00  0.00    -0.166 F 
ENDBRANCH  88  96
ENDBRANCH  83  85
ENDBRANCH  80  83
ENDBRANCH  75  80
ENDBRANCH  68  71
ENDBRANCH  66  67
ENDBRANCH  65  66
ENDBRANCH   1  65
TORSDOF 18
ENDMDL
