MODEL 1
REMARK VINA RESULT:      -9.1      0.000      0.000
REMARK SMILES O=C(NCCCCCCNC(=O)[C@@H]1CC(=O)N(CCO)C1)c1ccc(-c2c3nc(c(-c4c(F)cccc4F)c4ccc([nH]4)c(-c4c(F)cccc4F)c4nc(c(-c5c(F)cccc5F)c5ccc2[nH]5)C=C4)C=C3)cc1
REMARK SMILES IDX 7 1 6 2 5 3 4 4 3 5 1 6 2 7 22 9 23 10 75 11 24 12 74 13
REMARK SMILES IDX 25 14 26 15 27 16 68 17 28 18 73 19 67 20 69 21 29 22 72 23
REMARK SMILES IDX 66 24 65 25 30 27 56 28 39 29 55 30 40 31 43 32 54 33 70 34
REMARK SMILES IDX 41 35 42 36 53 38 71 39 44 40 31 41 32 42 37 43 33 44 34 45
REMARK SMILES IDX 36 46 38 47 35 48 57 49 58 50 63 51 59 52 60 53 62 54 64 55
REMARK SMILES IDX 61 56 45 57 46 58 51 59 47 60 48 61 50 62 52 63 49 64 8 65
REMARK SMILES IDX 9 66 10 67 11 68 12 70 13 71 14 72 21 73 15 74 17 75 16 76
REMARK SMILES IDX 18 77 19 78 20 79
REMARK H PARENT 3 8 69 26 43 37 10 69 20 80
REMARK Flexibility Score: inf
ROOT
ATOM      1  C   UNL A   1      33.164  35.108  32.518  1.00  0.00     0.002 C 
ENDROOT
BRANCH   1   2
ATOM      2  C   UNL A   1      32.472  35.796  31.333  1.00  0.00     0.002 C 
BRANCH   2   3
ATOM      3  C   UNL A   1      33.285  36.912  30.674  1.00  0.00     0.021 C 
BRANCH   3   4
ATOM      4  C   UNL A   1      33.571  36.679  29.197  1.00  0.00     0.116 C 
BRANCH   4   5
ATOM      5  N   UNL A   1      32.740  35.615  28.654  1.00  0.00    -0.352 N 
ATOM      6  O   UNL A   1      32.329  33.660  27.607  1.00  0.00    -0.269 OA
ATOM      7  C   UNL A   1      33.091  34.343  28.285  1.00  0.00     0.251 C 
ATOM      8  H   UNL A   1      31.790  35.843  28.533  1.00  0.00     0.163 HD
BRANCH   7   9
ATOM      9  C   UNL A   1      34.396  33.799  28.707  1.00  0.00     0.039 A 
ATOM     10  C   UNL A   1      35.559  34.128  28.006  1.00  0.00     0.014 A 
ATOM     11  C   UNL A   1      34.457  32.969  29.829  1.00  0.00     0.014 A 
ATOM     12  C   UNL A   1      36.765  33.530  28.349  1.00  0.00     0.010 A 
ATOM     13  C   UNL A   1      35.685  32.438  30.224  1.00  0.00     0.010 A 
ATOM     14  C   UNL A   1      36.844  32.696  29.474  1.00  0.00    -0.014 A 
BRANCH  14  15
ATOM     15  C   UNL A   1      38.154  32.144  29.891  1.00  0.00     0.031 A 
ATOM     16  C   UNL A   1      38.624  30.810  29.390  1.00  0.00     0.074 A 
ATOM     17  C   UNL A   1      38.915  32.856  30.745  1.00  0.00     0.049 A 
ATOM     18  N   UNL A   1      39.711  30.149  29.699  1.00  0.00    -0.248 NA
ATOM     19  C   UNL A   1      37.757  30.124  28.421  1.00  0.00     0.031 C 
ATOM     20  C   UNL A   1      38.559  34.164  31.299  1.00  0.00     0.029 A 
ATOM     21  N   UNL A   1      40.137  32.580  31.300  1.00  0.00    -0.354 N 
ATOM     22  C   UNL A   1      39.648  28.961  28.982  1.00  0.00     0.074 A 
ATOM     23  C   UNL A   1      38.401  28.980  28.245  1.00  0.00     0.031 C 
ATOM     24  C   UNL A   1      39.551  34.587  32.097  1.00  0.00     0.029 A 
ATOM     25  C   UNL A   1      40.575  33.552  32.165  1.00  0.00     0.049 A 
ATOM     26  H   UNL A   1      40.651  31.765  31.098  1.00  0.00     0.167 HD
ATOM     27  C   UNL A   1      40.552  27.952  28.942  1.00  0.00     0.037 A 
ATOM     28  C   UNL A   1      41.665  33.594  32.953  1.00  0.00     0.037 A 
ATOM     29  C   UNL A   1      41.788  27.945  29.683  1.00  0.00     0.049 A 
ATOM     30  C   UNL A   1      42.625  32.441  32.929  1.00  0.00     0.074 A 
ATOM     31  C   UNL A   1      42.785  26.986  29.688  1.00  0.00     0.029 A 
ATOM     32  N   UNL A   1      42.189  28.942  30.563  1.00  0.00    -0.354 N 
ATOM     33  N   UNL A   1      42.572  31.338  32.223  1.00  0.00    -0.248 NA
ATOM     34  C   UNL A   1      43.795  32.538  33.811  1.00  0.00     0.031 C 
ATOM     35  C   UNL A   1      43.760  27.372  30.614  1.00  0.00     0.029 A 
ATOM     36  C   UNL A   1      43.405  28.605  31.137  1.00  0.00     0.049 A 
ATOM     37  H   UNL A   1      41.684  29.766  30.751  1.00  0.00     0.167 HD
ATOM     38  C   UNL A   1      43.716  30.621  32.550  1.00  0.00     0.074 A 
ATOM     39  C   UNL A   1      44.445  31.421  33.514  1.00  0.00     0.031 C 
ATOM     40  C   UNL A   1      44.125  29.414  32.091  1.00  0.00     0.037 A 
BRANCH  27  41
ATOM     41  C   UNL A   1      40.217  26.756  28.094  1.00  0.00     0.057 A 
ATOM     42  C   UNL A   1      39.379  25.730  28.548  1.00  0.00     0.134 A 
ATOM     43  C   UNL A   1      40.727  26.641  26.793  1.00  0.00     0.134 A 
ATOM     44  F   UNL A   1      38.862  25.771  29.785  1.00  0.00    -0.206 F 
ATOM     45  C   UNL A   1      39.088  24.617  27.754  1.00  0.00     0.040 A 
ATOM     46  C   UNL A   1      40.419  25.549  25.980  1.00  0.00     0.040 A 
ATOM     47  F   UNL A   1      41.529  27.591  26.288  1.00  0.00    -0.206 F 
ATOM     48  C   UNL A   1      39.605  24.528  26.464  1.00  0.00     0.006 A 
ENDBRANCH  27  41
BRANCH  28  49
ATOM     49  C   UNL A   1      41.890  34.770  33.829  1.00  0.00     0.057 A 
ATOM     50  C   UNL A   1      42.532  35.916  33.352  1.00  0.00     0.134 A 
ATOM     51  C   UNL A   1      41.442  34.785  35.156  1.00  0.00     0.134 A 
ATOM     52  F   UNL A   1      42.996  35.957  32.093  1.00  0.00    -0.206 F 
ATOM     53  C   UNL A   1      42.734  37.032  34.165  1.00  0.00     0.040 A 
ATOM     54  C   UNL A   1      41.609  35.904  35.972  1.00  0.00     0.040 A 
ATOM     55  F   UNL A   1      40.807  33.720  35.669  1.00  0.00    -0.206 F 
ATOM     56  C   UNL A   1      42.263  37.030  35.478  1.00  0.00     0.006 A 
ENDBRANCH  28  49
BRANCH  40  57
ATOM     57  C   UNL A   1      45.449  28.904  32.581  1.00  0.00     0.057 A 
ATOM     58  C   UNL A   1      45.560  28.088  33.714  1.00  0.00     0.134 A 
ATOM     59  C   UNL A   1      46.625  29.199  31.879  1.00  0.00     0.134 A 
ATOM     60  F   UNL A   1      44.476  27.780  34.441  1.00  0.00    -0.206 F 
ATOM     61  C   UNL A   1      46.797  27.602  34.142  1.00  0.00     0.040 A 
ATOM     62  C   UNL A   1      47.862  28.694  32.280  1.00  0.00     0.040 A 
ATOM     63  F   UNL A   1      46.588  29.971  30.781  1.00  0.00    -0.206 F 
ATOM     64  C   UNL A   1      47.951  27.896  33.418  1.00  0.00     0.006 A 
ENDBRANCH  40  57
ENDBRANCH  14  15
ENDBRANCH   7   9
ENDBRANCH   4   5
ENDBRANCH   3   4
ENDBRANCH   2   3
ENDBRANCH   1   2
BRANCH   1  65
ATOM     65  C   UNL A   1      34.623  35.524  32.732  1.00  0.00     0.021 C 
BRANCH  65  66
ATOM     66  C   UNL A   1      35.312  34.740  33.847  1.00  0.00     0.116 C 
BRANCH  66  67
ATOM     67  N   UNL A   1      35.453  33.343  33.496  1.00  0.00    -0.356 N 
ATOM     68  C   UNL A   1      36.452  32.449  33.693  1.00  0.00     0.225 C 
ATOM     69  H   UNL A   1      34.673  32.971  33.024  1.00  0.00     0.163 HD
ATOM     70  O   UNL A   1      36.286  31.322  33.212  1.00  0.00    -0.275 OA
BRANCH  68  71
ATOM     71  C   UNL A   1      37.709  32.732  34.506  1.00  0.00     0.107 C 
ATOM     72  C   UNL A   1      38.647  31.532  34.592  1.00  0.00     0.115 C 
ATOM     73  C   UNL A   1      37.504  33.209  35.931  1.00  0.00     0.133 C 
ATOM     74  C   UNL A   1      38.590  31.118  36.036  1.00  0.00     0.223 C 
ATOM     75  N   UNL A   1      37.943  32.108  36.759  1.00  0.00    -0.340 N 
ATOM     76  O   UNL A   1      39.019  30.063  36.478  1.00  0.00    -0.275 OA
BRANCH  75  77
ATOM     77  C   UNL A   1      37.511  31.931  38.144  1.00  0.00     0.147 C 
BRANCH  77  78
ATOM     78  C   UNL A   1      37.785  33.122  39.053  1.00  0.00     0.177 C 
BRANCH  78  79
ATOM     79  O   UNL A   1      39.072  33.674  38.794  1.00  0.00    -0.395 OA
ATOM     80  H   UNL A   1      39.019  34.272  38.033  1.00  0.00     0.210 HD
ENDBRANCH  78  79
ENDBRANCH  77  78
ENDBRANCH  75  77
ENDBRANCH  68  71
ENDBRANCH  66  67
ENDBRANCH  65  66
ENDBRANCH   1  65
TORSDOF 16
ENDMDL
MODEL 2
REMARK VINA RESULT:      -9.0      4.009      7.531
REMARK SMILES O=C(NCCCCCCNC(=O)[C@@H]1CC(=O)N(CCO)C1)c1ccc(-c2c3nc(c(-c4c(F)cccc4F)c4ccc([nH]4)c(-c4c(F)cccc4F)c4nc(c(-c5c(F)cccc5F)c5ccc2[nH]5)C=C4)C=C3)cc1
REMARK SMILES IDX 7 1 6 2 5 3 4 4 3 5 1 6 2 7 22 9 23 10 75 11 24 12 74 13
REMARK SMILES IDX 25 14 26 15 27 16 68 17 28 18 73 19 67 20 69 21 29 22 72 23
REMARK SMILES IDX 66 24 65 25 30 27 56 28 39 29 55 30 40 31 43 32 54 33 70 34
REMARK SMILES IDX 41 35 42 36 53 38 71 39 44 40 31 41 32 42 37 43 33 44 34 45
REMARK SMILES IDX 36 46 38 47 35 48 57 49 58 50 63 51 59 52 60 53 62 54 64 55
REMARK SMILES IDX 61 56 45 57 46 58 51 59 47 60 48 61 50 62 52 63 49 64 8 65
REMARK SMILES IDX 9 66 10 67 11 68 12 70 13 71 14 72 21 73 15 74 17 75 16 76
REMARK SMILES IDX 18 77 19 78 20 79
REMARK H PARENT 3 8 69 26 43 37 10 69 20 80
REMARK Flexibility Score: inf
ROOT
ATOM      1  C   UNL A   1      32.109  29.673  26.874  1.00  0.00     0.002 C 
ENDROOT
BRANCH   1   2
ATOM      2  C   UNL A   1      31.509  30.849  26.091  1.00  0.00     0.002 C 
BRANCH   2   3
ATOM      3  C   UNL A   1      31.403  32.157  26.877  1.00  0.00     0.021 C 
BRANCH   3   4
ATOM      4  C   UNL A   1      32.728  32.893  27.034  1.00  0.00     0.116 C 
BRANCH   4   5
ATOM      5  N   UNL A   1      32.542  34.207  27.628  1.00  0.00    -0.352 N 
ATOM      6  O   UNL A   1      32.657  35.759  29.261  1.00  0.00    -0.269 OA
ATOM      7  C   UNL A   1      33.114  34.740  28.754  1.00  0.00     0.251 C 
ATOM      8  H   UNL A   1      31.913  34.799  27.154  1.00  0.00     0.163 HD
BRANCH   7   9
ATOM      9  C   UNL A   1      34.285  34.075  29.357  1.00  0.00     0.039 A 
ATOM     10  C   UNL A   1      34.115  33.074  30.316  1.00  0.00     0.014 A 
ATOM     11  C   UNL A   1      35.567  34.443  28.938  1.00  0.00     0.014 A 
ATOM     12  C   UNL A   1      35.223  32.527  30.950  1.00  0.00     0.010 A 
ATOM     13  C   UNL A   1      36.680  33.830  29.516  1.00  0.00     0.010 A 
ATOM     14  C   UNL A   1      36.516  32.885  30.541  1.00  0.00    -0.014 A 
BRANCH  14  15
ATOM     15  C   UNL A   1      37.692  32.221  31.153  1.00  0.00     0.031 A 
ATOM     16  C   UNL A   1      38.419  31.126  30.431  1.00  0.00     0.074 A 
ATOM     17  C   UNL A   1      38.089  32.608  32.380  1.00  0.00     0.049 A 
ATOM     18  N   UNL A   1      39.426  30.394  30.840  1.00  0.00    -0.248 NA
ATOM     19  C   UNL A   1      37.953  30.801  29.075  1.00  0.00     0.031 C 
ATOM     20  C   UNL A   1      37.456  33.661  33.178  1.00  0.00     0.029 A 
ATOM     21  N   UNL A   1      39.112  32.159  33.174  1.00  0.00    -0.354 N 
ATOM     22  C   UNL A   1      39.698  29.510  29.805  1.00  0.00     0.074 A 
ATOM     23  C   UNL A   1      38.732  29.777  28.760  1.00  0.00     0.031 C 
ATOM     24  C   UNL A   1      38.117  33.793  34.336  1.00  0.00     0.029 A 
ATOM     25  C   UNL A   1      39.174  32.788  34.392  1.00  0.00     0.049 A 
ATOM     26  H   UNL A   1      39.741  31.454  32.898  1.00  0.00     0.167 HD
ATOM     27  C   UNL A   1      40.669  28.567  29.735  1.00  0.00     0.037 A 
ATOM     28  C   UNL A   1      39.970  32.563  35.453  1.00  0.00     0.037 A 
ATOM     29  C   UNL A   1      41.623  28.311  30.784  1.00  0.00     0.049 A 
ATOM     30  C   UNL A   1      41.003  31.479  35.371  1.00  0.00     0.074 A 
ATOM     31  C   UNL A   1      42.664  27.400  30.799  1.00  0.00     0.029 A 
ATOM     32  N   UNL A   1      41.643  28.959  32.012  1.00  0.00    -0.354 N 
ATOM     33  N   UNL A   1      41.273  30.671  34.374  1.00  0.00    -0.248 NA
ATOM     34  C   UNL A   1      41.842  31.274  36.558  1.00  0.00     0.031 C 
ATOM     35  C   UNL A   1      43.276  27.454  32.056  1.00  0.00     0.029 A 
ATOM     36  C   UNL A   1      42.660  28.447  32.802  1.00  0.00     0.049 A 
ATOM     37  H   UNL A   1      41.025  29.677  32.282  1.00  0.00     0.167 HD
ATOM     38  C   UNL A   1      42.334  29.882  34.800  1.00  0.00     0.074 A 
ATOM     39  C   UNL A   1      42.660  30.315  36.144  1.00  0.00     0.031 C 
ATOM     40  C   UNL A   1      42.979  28.893  34.137  1.00  0.00     0.037 A 
BRANCH  27  41
ATOM     41  C   UNL A   1      40.723  27.721  28.493  1.00  0.00     0.057 A 
ATOM     42  C   UNL A   1      40.018  26.515  28.381  1.00  0.00     0.134 A 
ATOM     43  C   UNL A   1      41.477  28.129  27.385  1.00  0.00     0.134 A 
ATOM     44  F   UNL A   1      39.282  26.059  29.406  1.00  0.00    -0.206 F 
ATOM     45  C   UNL A   1      40.089  25.731  27.227  1.00  0.00     0.040 A 
ATOM     46  C   UNL A   1      41.531  27.369  26.215  1.00  0.00     0.040 A 
ATOM     47  F   UNL A   1      42.170  29.278  27.417  1.00  0.00    -0.206 F 
ATOM     48  C   UNL A   1      40.843  26.160  26.138  1.00  0.00     0.006 A 
ENDBRANCH  27  41
BRANCH  28  49
ATOM     49  C   UNL A   1      39.805  33.382  36.679  1.00  0.00     0.057 A 
ATOM     50  C   UNL A   1      38.896  33.018  37.676  1.00  0.00     0.134 A 
ATOM     51  C   UNL A   1      40.575  34.532  36.896  1.00  0.00     0.134 A 
ATOM     52  F   UNL A   1      38.120  31.934  37.520  1.00  0.00    -0.206 F 
ATOM     53  C   UNL A   1      38.746  33.773  38.840  1.00  0.00     0.040 A 
ATOM     54  C   UNL A   1      40.459  35.281  38.067  1.00  0.00     0.040 A 
ATOM     55  F   UNL A   1      41.475  34.927  35.983  1.00  0.00    -0.206 F 
ATOM     56  C   UNL A   1      39.536  34.905  39.041  1.00  0.00     0.006 A 
ENDBRANCH  28  49
BRANCH  40  57
ATOM     57  C   UNL A   1      44.142  28.243  34.831  1.00  0.00     0.057 A 
ATOM     58  C   UNL A   1      43.999  27.073  35.587  1.00  0.00     0.134 A 
ATOM     59  C   UNL A   1      45.431  28.776  34.701  1.00  0.00     0.134 A 
ATOM     60  F   UNL A   1      42.790  26.520  35.764  1.00  0.00    -0.206 F 
ATOM     61  C   UNL A   1      45.095  26.468  36.205  1.00  0.00     0.040 A 
ATOM     62  C   UNL A   1      46.538  28.164  35.289  1.00  0.00     0.040 A 
ATOM     63  F   UNL A   1      45.638  29.893  33.985  1.00  0.00    -0.206 F 
ATOM     64  C   UNL A   1      46.370  27.008  36.048  1.00  0.00     0.006 A 
ENDBRANCH  40  57
ENDBRANCH  14  15
ENDBRANCH   7   9
ENDBRANCH   4   5
ENDBRANCH   3   4
ENDBRANCH   2   3
ENDBRANCH   1   2
BRANCH   1  65
ATOM     65  C   UNL A   1      31.524  28.304  26.513  1.00  0.00     0.021 C 
BRANCH  65  66
ATOM     66  C   UNL A   1      31.807  27.894  25.069  1.00  0.00     0.116 C 
BRANCH  66  67
ATOM     67  N   UNL A   1      30.581  27.598  24.358  1.00  0.00    -0.356 N 
ATOM     68  C   UNL A   1      29.794  28.347  23.548  1.00  0.00     0.225 C 
ATOM     69  H   UNL A   1      30.258  26.678  24.488  1.00  0.00     0.163 HD
ATOM     70  O   UNL A   1      28.762  27.809  23.133  1.00  0.00    -0.275 OA
BRANCH  68  71
ATOM     71  C   UNL A   1      30.135  29.757  23.083  1.00  0.00     0.107 C 
ATOM     72  C   UNL A   1      29.428  30.839  23.892  1.00  0.00     0.115 C 
ATOM     73  C   UNL A   1      29.865  30.077  21.626  1.00  0.00     0.133 C 
ATOM     74  C   UNL A   1      28.458  31.454  22.923  1.00  0.00     0.223 C 
ATOM     75  N   UNL A   1      28.753  31.001  21.647  1.00  0.00    -0.340 N 
ATOM     76  O   UNL A   1      27.541  32.203  23.230  1.00  0.00    -0.275 OA
BRANCH  75  77
ATOM     77  C   UNL A   1      27.871  31.214  20.500  1.00  0.00     0.147 C 
BRANCH  77  78
ATOM     78  C   UNL A   1      28.029  32.567  19.820  1.00  0.00     0.177 C 
BRANCH  78  79
ATOM     79  O   UNL A   1      27.277  33.569  20.499  1.00  0.00    -0.395 OA
ATOM     80  H   UNL A   1      27.156  34.333  19.914  1.00  0.00     0.210 HD
ENDBRANCH  78  79
ENDBRANCH  77  78
ENDBRANCH  75  77
ENDBRANCH  68  71
ENDBRANCH  66  67
ENDBRANCH  65  66
ENDBRANCH   1  65
TORSDOF 16
ENDMDL
MODEL 3
REMARK VINA RESULT:      -8.8      6.622     12.471
REMARK SMILES O=C(NCCCCCCNC(=O)[C@@H]1CC(=O)N(CCO)C1)c1ccc(-c2c3nc(c(-c4c(F)cccc4F)c4ccc([nH]4)c(-c4c(F)cccc4F)c4nc(c(-c5c(F)cccc5F)c5ccc2[nH]5)C=C4)C=C3)cc1
REMARK SMILES IDX 7 1 6 2 5 3 4 4 3 5 1 6 2 7 22 9 23 10 75 11 24 12 74 13
REMARK SMILES IDX 25 14 26 15 27 16 68 17 28 18 73 19 67 20 69 21 29 22 72 23
REMARK SMILES IDX 66 24 65 25 30 27 56 28 39 29 55 30 40 31 43 32 54 33 70 34
REMARK SMILES IDX 41 35 42 36 53 38 71 39 44 40 31 41 32 42 37 43 33 44 34 45
REMARK SMILES IDX 36 46 38 47 35 48 57 49 58 50 63 51 59 52 60 53 62 54 64 55
REMARK SMILES IDX 61 56 45 57 46 58 51 59 47 60 48 61 50 62 52 63 49 64 8 65
REMARK SMILES IDX 9 66 10 67 11 68 12 70 13 71 14 72 21 73 15 74 17 75 16 76
REMARK SMILES IDX 18 77 19 78 20 79
REMARK H PARENT 3 8 69 26 43 37 10 69 20 80
REMARK Flexibility Score: inf
ROOT
ATOM      1  C   UNL A   1      41.988  21.528  27.536  1.00  0.00     0.002 C 
ENDROOT
BRANCH   1   2
ATOM      2  C   UNL A   1      41.671  20.031  27.651  1.00  0.00     0.002 C 
BRANCH   2   3
ATOM      3  C   UNL A   1      42.616  19.112  26.873  1.00  0.00     0.021 C 
BRANCH   3   4
ATOM      4  C   UNL A   1      42.580  19.322  25.365  1.00  0.00     0.116 C 
BRANCH   4   5
ATOM      5  N   UNL A   1      43.808  18.866  24.732  1.00  0.00    -0.352 N 
ATOM      6  O   UNL A   1      45.721  19.090  23.559  1.00  0.00    -0.269 OA
ATOM      7  C   UNL A   1      44.885  19.596  24.301  1.00  0.00     0.251 C 
ATOM      8  H   UNL A   1      43.874  17.893  24.594  1.00  0.00     0.163 HD
BRANCH   7   9
ATOM      9  C   UNL A   1      45.031  20.999  24.733  1.00  0.00     0.039 A 
ATOM     10  C   UNL A   1      44.699  22.044  23.866  1.00  0.00     0.014 A 
ATOM     11  C   UNL A   1      45.482  21.270  26.027  1.00  0.00     0.014 A 
ATOM     12  C   UNL A   1      44.936  23.359  24.246  1.00  0.00     0.010 A 
ATOM     13  C   UNL A   1      45.639  22.594  26.437  1.00  0.00     0.010 A 
ATOM     14  C   UNL A   1      45.389  23.648  25.542  1.00  0.00    -0.014 A 
BRANCH  14  15
ATOM     15  C   UNL A   1      45.541  25.058  25.972  1.00  0.00     0.031 A 
ATOM     16  C   UNL A   1      46.875  25.742  25.908  1.00  0.00     0.074 A 
ATOM     17  C   UNL A   1      44.462  25.714  26.437  1.00  0.00     0.049 A 
ATOM     18  N   UNL A   1      47.204  26.948  26.299  1.00  0.00    -0.248 NA
ATOM     19  C   UNL A   1      47.990  24.970  25.339  1.00  0.00     0.031 C 
ATOM     20  C   UNL A   1      43.115  25.149  26.546  1.00  0.00     0.029 A 
ATOM     21  N   UNL A   1      44.326  26.993  26.910  1.00  0.00    -0.354 N 
ATOM     22  C   UNL A   1      48.563  27.072  26.045  1.00  0.00     0.074 A 
ATOM     23  C   UNL A   1      49.005  25.808  25.493  1.00  0.00     0.031 C 
ATOM     24  C   UNL A   1      42.285  26.083  27.032  1.00  0.00     0.029 A 
ATOM     25  C   UNL A   1      43.053  27.286  27.334  1.00  0.00     0.049 A 
ATOM     26  H   UNL A   1      45.068  27.639  26.943  1.00  0.00     0.167 HD
ATOM     27  C   UNL A   1      49.365  28.145  26.251  1.00  0.00     0.037 A 
ATOM     28  C   UNL A   1      42.562  28.387  27.931  1.00  0.00     0.037 A 
ATOM     29  C   UNL A   1      48.912  29.397  26.803  1.00  0.00     0.049 A 
ATOM     30  C   UNL A   1      43.481  29.543  28.195  1.00  0.00     0.074 A 
ATOM     31  C   UNL A   1      49.637  30.554  27.023  1.00  0.00     0.029 A 
ATOM     32  N   UNL A   1      47.617  29.649  27.237  1.00  0.00    -0.354 N 
ATOM     33  N   UNL A   1      44.757  29.661  27.920  1.00  0.00    -0.248 NA
ATOM     34  C   UNL A   1      42.894  30.717  28.851  1.00  0.00     0.031 C 
ATOM     35  C   UNL A   1      48.798  31.486  27.644  1.00  0.00     0.029 A 
ATOM     36  C   UNL A   1      47.531  30.933  27.750  1.00  0.00     0.049 A 
ATOM     37  H   UNL A   1      46.870  29.009  27.187  1.00  0.00     0.167 HD
ATOM     38  C   UNL A   1      45.121  30.934  28.341  1.00  0.00     0.074 A 
ATOM     39  C   UNL A   1      43.926  31.549  28.883  1.00  0.00     0.031 C 
ATOM     40  C   UNL A   1      46.332  31.537  28.280  1.00  0.00     0.037 A 
BRANCH  27  41
ATOM     41  C   UNL A   1      50.821  27.997  25.907  1.00  0.00     0.057 A 
ATOM     42  C   UNL A   1      51.297  28.140  24.597  1.00  0.00     0.134 A 
ATOM     43  C   UNL A   1      51.765  27.728  26.908  1.00  0.00     0.134 A 
ATOM     44  F   UNL A   1      50.449  28.389  23.588  1.00  0.00    -0.206 F 
ATOM     45  C   UNL A   1      52.651  27.985  24.290  1.00  0.00     0.040 A 
ATOM     46  C   UNL A   1      53.125  27.602  26.617  1.00  0.00     0.040 A 
ATOM     47  F   UNL A   1      51.383  27.589  28.186  1.00  0.00    -0.206 F 
ATOM     48  C   UNL A   1      53.570  27.720  25.303  1.00  0.00     0.006 A 
ENDBRANCH  27  41
BRANCH  28  49
ATOM     49  C   UNL A   1      41.131  28.433  28.320  1.00  0.00     0.057 A 
ATOM     50  C   UNL A   1      40.153  28.884  27.429  1.00  0.00     0.134 A 
ATOM     51  C   UNL A   1      40.705  27.998  29.581  1.00  0.00     0.134 A 
ATOM     52  F   UNL A   1      40.500  29.326  26.211  1.00  0.00    -0.206 F 
ATOM     53  C   UNL A   1      38.803  28.916  27.781  1.00  0.00     0.040 A 
ATOM     54  C   UNL A   1      39.357  27.995  29.937  1.00  0.00     0.040 A 
ATOM     55  F   UNL A   1      41.594  27.541  30.476  1.00  0.00    -0.206 F 
ATOM     56  C   UNL A   1      38.401  28.461  29.037  1.00  0.00     0.006 A 
ENDBRANCH  28  49
BRANCH  40  57
ATOM     57  C   UNL A   1      46.420  32.957  28.762  1.00  0.00     0.057 A 
ATOM     58  C   UNL A   1      46.173  34.047  27.917  1.00  0.00     0.134 A 
ATOM     59  C   UNL A   1      46.712  33.232  30.104  1.00  0.00     0.134 A 
ATOM     60  F   UNL A   1      45.903  33.854  26.618  1.00  0.00    -0.206 F 
ATOM     61  C   UNL A   1      46.235  35.360  28.388  1.00  0.00     0.040 A 
ATOM     62  C   UNL A   1      46.746  34.538  30.592  1.00  0.00     0.040 A 
ATOM     63  F   UNL A   1      46.953  32.233  30.967  1.00  0.00    -0.206 F 
ATOM     64  C   UNL A   1      46.511  35.607  29.731  1.00  0.00     0.006 A 
ENDBRANCH  40  57
ENDBRANCH  14  15
ENDBRANCH   7   9
ENDBRANCH   4   5
ENDBRANCH   3   4
ENDBRANCH   2   3
ENDBRANCH   1   2
BRANCH   1  65
ATOM     65  C   UNL A   1      41.285  22.240  26.376  1.00  0.00     0.021 C 
BRANCH  65  66
ATOM     66  C   UNL A   1      39.880  21.703  26.107  1.00  0.00     0.116 C 
BRANCH  66  67
ATOM     67  N   UNL A   1      38.878  22.726  26.320  1.00  0.00    -0.356 N 
ATOM     68  C   UNL A   1      37.691  22.978  25.718  1.00  0.00     0.225 C 
ATOM     69  H   UNL A   1      39.102  23.358  27.040  1.00  0.00     0.163 HD
ATOM     70  O   UNL A   1      37.082  23.984  26.100  1.00  0.00    -0.275 OA
BRANCH  68  71
ATOM     71  C   UNL A   1      37.053  22.079  24.667  1.00  0.00     0.107 C 
ATOM     72  C   UNL A   1      36.532  22.850  23.458  1.00  0.00     0.115 C 
ATOM     73  C   UNL A   1      35.909  21.198  25.129  1.00  0.00     0.133 C 
ATOM     74  C   UNL A   1      35.038  22.712  23.545  1.00  0.00     0.223 C 
ATOM     75  N   UNL A   1      34.732  21.753  24.498  1.00  0.00    -0.340 N 
ATOM     76  O   UNL A   1      34.236  23.369  22.898  1.00  0.00    -0.275 OA
BRANCH  75  77
ATOM     77  C   UNL A   1      33.378  21.532  25.002  1.00  0.00     0.147 C 
BRANCH  77  78
ATOM     78  C   UNL A   1      32.674  20.313  24.420  1.00  0.00     0.177 C 
BRANCH  78  79
ATOM     79  O   UNL A   1      32.077  19.530  25.450  1.00  0.00    -0.395 OA
ATOM     80  H   UNL A   1      31.973  18.616  25.141  1.00  0.00     0.210 HD
ENDBRANCH  78  79
ENDBRANCH  77  78
ENDBRANCH  75  77
ENDBRANCH  68  71
ENDBRANCH  66  67
ENDBRANCH  65  66
ENDBRANCH   1  65
TORSDOF 16
ENDMDL
