MODEL 1
REMARK VINA RESULT:     -11.6      0.000      0.000
REMARK SMILES O=C(NCCCCCCNC(=O)c1cccnc1C(=O)Nc1ccc(Cl)cn1)c1ccc(-c2c3nc(c(-c4c(F)cccc4F)c4ccc([nH]4)c(-c4c(F)cccc4F)c4nc(c(-c5c(F)cccc5F)c5ccc2[nH]5)C=C4)C=C3)cc1
REMARK SMILES IDX 6 1 5 2 4 3 3 4 1 5 2 6 29 8 30 9 82 10 31 11 81 12 32 13
REMARK SMILES IDX 33 14 34 15 75 16 35 17 80 18 74 19 76 20 36 21 79 22 73 23
REMARK SMILES IDX 72 24 37 26 63 27 46 28 62 29 47 30 50 31 61 32 77 33 48 34
REMARK SMILES IDX 49 35 60 37 78 38 51 39 38 40 39 41 44 42 40 43 41 44 43 45
REMARK SMILES IDX 45 46 42 47 64 48 65 49 70 50 66 51 67 52 69 53 71 54 68 55
REMARK SMILES IDX 52 56 53 57 58 58 54 59 55 60 57 61 59 62 56 63 7 64 8 65
REMARK SMILES IDX 9 66 10 67 11 68 12 70 13 71 14 72 18 73 15 74 17 75 16 76
REMARK SMILES IDX 19 77 20 78 21 79 22 81 23 82 28 83 24 84 27 85 25 86 26 87
REMARK H PARENT 3 7 76 25 50 36 10 69 21 80
REMARK Flexibility Score: inf
ROOT
ATOM      1  C   UNL A   1      31.491  30.417  25.947  1.00  0.00     0.002 C 
ENDROOT
BRANCH   1   2
ATOM      2  C   UNL A   1      31.318  31.799  26.567  1.00  0.00     0.021 C 
BRANCH   2   3
ATOM      3  C   UNL A   1      32.619  32.502  26.919  1.00  0.00     0.116 C 
BRANCH   3   4
ATOM      4  N   UNL A   1      32.411  33.829  27.475  1.00  0.00    -0.352 N 
ATOM      5  O   UNL A   1      32.748  35.523  28.941  1.00  0.00    -0.269 OA
ATOM      6  C   UNL A   1      33.117  34.443  28.477  1.00  0.00     0.251 C 
ATOM      7  H   UNL A   1      31.673  34.351  27.084  1.00  0.00     0.163 HD
BRANCH   6   8
ATOM      8  C   UNL A   1      34.314  33.774  29.022  1.00  0.00     0.039 A 
ATOM      9  C   UNL A   1      34.177  32.674  29.874  1.00  0.00     0.014 A 
ATOM     10  C   UNL A   1      35.577  34.278  28.708  1.00  0.00     0.014 A 
ATOM     11  C   UNL A   1      35.297  32.151  30.508  1.00  0.00     0.010 A 
ATOM     12  C   UNL A   1      36.708  33.704  29.289  1.00  0.00     0.010 A 
ATOM     13  C   UNL A   1      36.573  32.654  30.210  1.00  0.00    -0.014 A 
BRANCH  13  14
ATOM     14  C   UNL A   1      37.771  32.024  30.811  1.00  0.00     0.031 A 
ATOM     15  C   UNL A   1      38.526  30.948  30.089  1.00  0.00     0.074 A 
ATOM     16  C   UNL A   1      38.151  32.414  32.042  1.00  0.00     0.049 A 
ATOM     17  N   UNL A   1      39.542  30.235  30.502  1.00  0.00    -0.248 NA
ATOM     18  C   UNL A   1      38.076  30.623  28.727  1.00  0.00     0.031 C 
ATOM     19  C   UNL A   1      37.483  33.443  32.842  1.00  0.00     0.029 A 
ATOM     20  N   UNL A   1      39.178  31.986  32.840  1.00  0.00    -0.354 N 
ATOM     21  C   UNL A   1      39.838  29.360  29.466  1.00  0.00     0.074 A 
ATOM     22  C   UNL A   1      38.883  29.620  28.409  1.00  0.00     0.031 C 
ATOM     23  C   UNL A   1      38.118  33.570  34.013  1.00  0.00     0.029 A 
ATOM     24  C   UNL A   1      39.199  32.592  34.071  1.00  0.00     0.049 A 
ATOM     25  H   UNL A   1      39.837  31.310  32.559  1.00  0.00     0.167 HD
ATOM     26  C   UNL A   1      40.818  28.425  29.409  1.00  0.00     0.037 A 
ATOM     27  C   UNL A   1      39.974  32.361  35.146  1.00  0.00     0.037 A 
ATOM     28  C   UNL A   1      41.768  28.184  30.463  1.00  0.00     0.049 A 
ATOM     29  C   UNL A   1      41.035  31.307  35.068  1.00  0.00     0.074 A 
ATOM     30  C   UNL A   1      42.834  27.301  30.481  1.00  0.00     0.029 A 
ATOM     31  N   UNL A   1      41.758  28.821  31.697  1.00  0.00    -0.354 N 
ATOM     32  N   UNL A   1      41.335  30.516  34.066  1.00  0.00    -0.248 NA
ATOM     33  C   UNL A   1      41.863  31.108  36.264  1.00  0.00     0.031 C 
ATOM     34  C   UNL A   1      43.441  27.371  31.739  1.00  0.00     0.029 A 
ATOM     35  C   UNL A   1      42.781  28.330  32.492  1.00  0.00     0.049 A 
ATOM     36  H   UNL A   1      41.118  29.520  31.967  1.00  0.00     0.167 HD
ATOM     37  C   UNL A   1      42.394  29.734  34.503  1.00  0.00     0.074 A 
ATOM     38  C   UNL A   1      42.692  30.155  35.858  1.00  0.00     0.031 C 
ATOM     39  C   UNL A   1      43.061  28.759  33.840  1.00  0.00     0.037 A 
BRANCH  26  40
ATOM     40  C   UNL A   1      40.891  27.574  28.175  1.00  0.00     0.057 A 
ATOM     41  C   UNL A   1      41.655  27.942  27.060  1.00  0.00     0.134 A 
ATOM     42  C   UNL A   1      40.205  26.354  28.112  1.00  0.00     0.134 A 
ATOM     43  F   UNL A   1      42.327  29.104  27.050  1.00  0.00    -0.206 F 
ATOM     44  C   UNL A   1      41.712  27.141  25.917  1.00  0.00     0.040 A 
ATOM     45  C   UNL A   1      40.273  25.534  26.984  1.00  0.00     0.040 A 
ATOM     46  F   UNL A   1      39.460  25.937  29.146  1.00  0.00    -0.206 F 
ATOM     47  C   UNL A   1      41.023  25.931  25.880  1.00  0.00     0.006 A 
ENDBRANCH  26  40
BRANCH  27  48
ATOM     48  C   UNL A   1      39.740  33.145  36.381  1.00  0.00     0.057 A 
ATOM     49  C   UNL A   1      40.429  34.335  36.626  1.00  0.00     0.134 A 
ATOM     50  C   UNL A   1      38.768  32.753  37.311  1.00  0.00     0.134 A 
ATOM     51  F   UNL A   1      41.377  34.754  35.775  1.00  0.00    -0.206 F 
ATOM     52  C   UNL A   1      40.158  35.114  37.752  1.00  0.00     0.040 A 
ATOM     53  C   UNL A   1      38.471  33.533  38.429  1.00  0.00     0.040 A 
ATOM     54  F   UNL A   1      38.065  31.626  37.122  1.00  0.00    -0.206 F 
ATOM     55  C   UNL A   1      39.169  34.718  38.652  1.00  0.00     0.006 A 
ENDBRANCH  27  48
BRANCH  39  56
ATOM     56  C   UNL A   1      44.193  28.093  34.561  1.00  0.00     0.057 A 
ATOM     57  C   UNL A   1      44.013  26.895  35.263  1.00  0.00     0.134 A 
ATOM     58  C   UNL A   1      45.485  28.628  34.505  1.00  0.00     0.134 A 
ATOM     59  F   UNL A   1      42.796  26.342  35.366  1.00  0.00    -0.206 F 
ATOM     60  C   UNL A   1      45.082  26.257  35.895  1.00  0.00     0.040 A 
ATOM     61  C   UNL A   1      46.564  27.989  35.115  1.00  0.00     0.040 A 
ATOM     62  F   UNL A   1      45.721  29.770  33.844  1.00  0.00    -0.206 F 
ATOM     63  C   UNL A   1      46.363  26.800  35.814  1.00  0.00     0.006 A 
ENDBRANCH  39  56
ENDBRANCH  13  14
ENDBRANCH   6   8
ENDBRANCH   3   4
ENDBRANCH   2   3
ENDBRANCH   1   2
BRANCH   1  64
ATOM     64  C   UNL A   1      31.727  29.274  26.937  1.00  0.00     0.002 C 
BRANCH  64  65
ATOM     65  C   UNL A   1      33.100  28.595  26.938  1.00  0.00     0.021 C 
BRANCH  65  66
ATOM     66  C   UNL A   1      33.902  28.595  25.638  1.00  0.00     0.116 C 
BRANCH  66  67
ATOM     67  N   UNL A   1      34.004  27.303  24.982  1.00  0.00    -0.352 N 
ATOM     68  C   UNL A   1      33.208  26.744  24.020  1.00  0.00     0.253 C 
ATOM     69  H   UNL A   1      34.760  26.745  25.274  1.00  0.00     0.163 HD
ATOM     70  O   UNL A   1      33.606  25.782  23.363  1.00  0.00    -0.269 OA
BRANCH  68  71
ATOM     71  C   UNL A   1      31.930  27.353  23.682  1.00  0.00     0.071 A 
ATOM     72  C   UNL A   1      31.997  28.414  22.767  1.00  0.00     0.018 A 
ATOM     73  C   UNL A   1      30.693  26.962  24.187  1.00  0.00     0.141 A 
ATOM     74  C   UNL A   1      30.840  29.089  22.413  1.00  0.00     0.021 A 
ATOM     75  N   UNL A   1      29.553  27.636  23.847  1.00  0.00    -0.250 NA
ATOM     76  C   UNL A   1      29.652  28.670  22.979  1.00  0.00     0.112 A 
BRANCH  73  77
ATOM     77  C   UNL A   1      30.441  25.836  25.167  1.00  0.00     0.276 C 
ATOM     78  O   UNL A   1      30.293  26.076  26.364  1.00  0.00    -0.267 OA
ATOM     79  N   UNL A   1      30.170  24.594  24.654  1.00  0.00    -0.305 N 
ATOM     80  H   UNL A   1      29.241  24.424  24.375  1.00  0.00     0.171 HD
BRANCH  79  81
ATOM     81  C   UNL A   1      31.073  23.547  24.488  1.00  0.00     0.132 A 
ATOM     82  C   UNL A   1      31.427  23.063  23.235  1.00  0.00     0.049 A 
ATOM     83  N   UNL A   1      31.480  22.972  25.638  1.00  0.00    -0.238 NA
ATOM     84  C   UNL A   1      32.122  21.854  23.157  1.00  0.00     0.026 A 
ATOM     85  C   UNL A   1      32.124  21.781  25.531  1.00  0.00     0.134 A 
ATOM     86  C   UNL A   1      32.440  21.179  24.326  1.00  0.00     0.059 A 
ATOM     87  Cl  UNL A   1      33.181  19.634  24.264  1.00  0.00    -0.083 Cl
ENDBRANCH  79  81
ENDBRANCH  73  77
ENDBRANCH  68  71
ENDBRANCH  66  67
ENDBRANCH  65  66
ENDBRANCH  64  65
ENDBRANCH   1  64
TORSDOF 15
ENDMDL
MODEL 2
REMARK VINA RESULT:     -11.6      5.006      9.974
REMARK SMILES O=C(NCCCCCCNC(=O)c1cccnc1C(=O)Nc1ccc(Cl)cn1)c1ccc(-c2c3nc(c(-c4c(F)cccc4F)c4ccc([nH]4)c(-c4c(F)cccc4F)c4nc(c(-c5c(F)cccc5F)c5ccc2[nH]5)C=C4)C=C3)cc1
REMARK SMILES IDX 6 1 5 2 4 3 3 4 1 5 2 6 29 8 30 9 82 10 31 11 81 12 32 13
REMARK SMILES IDX 33 14 34 15 75 16 35 17 80 18 74 19 76 20 36 21 79 22 73 23
REMARK SMILES IDX 72 24 37 26 63 27 46 28 62 29 47 30 50 31 61 32 77 33 48 34
REMARK SMILES IDX 49 35 60 37 78 38 51 39 38 40 39 41 44 42 40 43 41 44 43 45
REMARK SMILES IDX 45 46 42 47 64 48 65 49 70 50 66 51 67 52 69 53 71 54 68 55
REMARK SMILES IDX 52 56 53 57 58 58 54 59 55 60 57 61 59 62 56 63 7 64 8 65
REMARK SMILES IDX 9 66 10 67 11 68 12 70 13 71 14 72 18 73 15 74 17 75 16 76
REMARK SMILES IDX 19 77 20 78 21 79 22 81 23 82 28 83 24 84 27 85 25 86 26 87
REMARK H PARENT 3 7 76 25 50 36 10 69 21 80
REMARK Flexibility Score: inf
ROOT
ATOM      1  C   UNL A   1      36.928  20.500  25.029  1.00  0.00     0.002 C 
ENDROOT
BRANCH   1   2
ATOM      2  C   UNL A   1      38.161  19.615  24.897  1.00  0.00     0.021 C 
BRANCH   2   3
ATOM      3  C   UNL A   1      39.318  20.002  25.805  1.00  0.00     0.116 C 
BRANCH   3   4
ATOM      4  N   UNL A   1      40.351  18.982  25.868  1.00  0.00    -0.352 N 
ATOM      5  O   UNL A   1      42.476  18.211  26.029  1.00  0.00    -0.269 OA
ATOM      6  C   UNL A   1      41.686  19.149  26.138  1.00  0.00     0.251 C 
ATOM      7  H   UNL A   1      40.059  18.057  25.696  1.00  0.00     0.163 HD
BRANCH   6   8
ATOM      8  C   UNL A   1      42.173  20.485  26.529  1.00  0.00     0.039 A 
ATOM      9  C   UNL A   1      42.171  20.868  27.875  1.00  0.00     0.014 A 
ATOM     10  C   UNL A   1      42.596  21.372  25.538  1.00  0.00     0.014 A 
ATOM     11  C   UNL A   1      42.479  22.178  28.218  1.00  0.00     0.010 A 
ATOM     12  C   UNL A   1      42.975  22.667  25.893  1.00  0.00     0.010 A 
ATOM     13  C   UNL A   1      42.897  23.085  27.231  1.00  0.00    -0.014 A 
BRANCH  13  14
ATOM     14  C   UNL A   1      43.322  24.449  27.618  1.00  0.00     0.031 A 
ATOM     15  C   UNL A   1      42.318  25.486  28.028  1.00  0.00     0.074 A 
ATOM     16  C   UNL A   1      44.631  24.753  27.561  1.00  0.00     0.049 A 
ATOM     17  N   UNL A   1      42.509  26.748  28.317  1.00  0.00    -0.248 NA
ATOM     18  C   UNL A   1      40.916  25.053  28.117  1.00  0.00     0.031 C 
ATOM     19  C   UNL A   1      45.693  23.827  27.163  1.00  0.00     0.029 A 
ATOM     20  N   UNL A   1      45.291  25.925  27.821  1.00  0.00    -0.354 N 
ATOM     21  C   UNL A   1      41.252  27.268  28.596  1.00  0.00     0.074 A 
ATOM     22  C   UNL A   1      40.303  26.187  28.426  1.00  0.00     0.031 C 
ATOM     23  C   UNL A   1      46.871  24.462  27.210  1.00  0.00     0.029 A 
ATOM     24  C   UNL A   1      46.641  25.853  27.582  1.00  0.00     0.049 A 
ATOM     25  H   UNL A   1      44.842  26.739  28.148  1.00  0.00     0.167 HD
ATOM     26  C   UNL A   1      40.926  28.532  28.958  1.00  0.00     0.037 A 
ATOM     27  C   UNL A   1      47.586  26.809  27.617  1.00  0.00     0.037 A 
ATOM     28  C   UNL A   1      41.882  29.595  29.134  1.00  0.00     0.049 A 
ATOM     29  C   UNL A   1      47.199  28.206  27.998  1.00  0.00     0.074 A 
ATOM     30  C   UNL A   1      41.661  30.894  29.554  1.00  0.00     0.029 A 
ATOM     31  N   UNL A   1      43.243  29.483  28.883  1.00  0.00    -0.354 N 
ATOM     32  N   UNL A   1      46.013  28.675  28.303  1.00  0.00    -0.248 NA
ATOM     33  C   UNL A   1      48.274  29.205  28.036  1.00  0.00     0.031 C 
ATOM     34  C   UNL A   1      42.880  31.581  29.516  1.00  0.00     0.029 A 
ATOM     35  C   UNL A   1      43.869  30.697  29.114  1.00  0.00     0.049 A 
ATOM     36  H   UNL A   1      43.697  28.660  28.586  1.00  0.00     0.167 HD
ATOM     37  C   UNL A   1      46.199  30.020  28.584  1.00  0.00     0.074 A 
ATOM     38  C   UNL A   1      47.614  30.289  28.423  1.00  0.00     0.031 C 
ATOM     39  C   UNL A   1      45.279  30.948  28.945  1.00  0.00     0.037 A 
BRANCH  26  40
ATOM     40  C   UNL A   1      39.471  28.841  29.160  1.00  0.00     0.057 A 
ATOM     41  C   UNL A   1      38.845  28.699  30.405  1.00  0.00     0.134 A 
ATOM     42  C   UNL A   1      38.691  29.313  28.096  1.00  0.00     0.134 A 
ATOM     43  F   UNL A   1      39.532  28.241  31.463  1.00  0.00    -0.206 F 
ATOM     44  C   UNL A   1      37.490  28.988  30.578  1.00  0.00     0.040 A 
ATOM     45  C   UNL A   1      37.342  29.627  28.262  1.00  0.00     0.040 A 
ATOM     46  F   UNL A   1      39.228  29.479  26.878  1.00  0.00    -0.206 F 
ATOM     47  C   UNL A   1      36.736  29.458  29.505  1.00  0.00     0.006 A 
ENDBRANCH  26  40
BRANCH  27  48
ATOM     48  C   UNL A   1      48.979  26.455  27.259  1.00  0.00     0.057 A 
ATOM     49  C   UNL A   1      49.859  25.926  28.206  1.00  0.00     0.134 A 
ATOM     50  C   UNL A   1      49.437  26.572  25.940  1.00  0.00     0.134 A 
ATOM     51  F   UNL A   1      49.478  25.800  29.485  1.00  0.00    -0.206 F 
ATOM     52  C   UNL A   1      51.149  25.521  27.855  1.00  0.00     0.040 A 
ATOM     53  C   UNL A   1      50.715  26.151  25.571  1.00  0.00     0.040 A 
ATOM     54  F   UNL A   1      48.632  27.060  24.984  1.00  0.00    -0.206 F 
ATOM     55  C   UNL A   1      51.575  25.625  26.532  1.00  0.00     0.006 A 
ENDBRANCH  27  48
BRANCH  39  56
ATOM     56  C   UNL A   1      45.776  32.335  29.213  1.00  0.00     0.057 A 
ATOM     57  C   UNL A   1      46.246  32.718  30.474  1.00  0.00     0.134 A 
ATOM     58  C   UNL A   1      45.835  33.280  28.182  1.00  0.00     0.134 A 
ATOM     59  F   UNL A   1      46.201  31.861  31.506  1.00  0.00    -0.206 F 
ATOM     60  C   UNL A   1      46.750  33.999  30.704  1.00  0.00     0.040 A 
ATOM     61  C   UNL A   1      46.356  34.557  28.394  1.00  0.00     0.040 A 
ATOM     62  F   UNL A   1      45.404  32.972  26.950  1.00  0.00    -0.206 F 
ATOM     63  C   UNL A   1      46.813  34.919  29.659  1.00  0.00     0.006 A 
ENDBRANCH  39  56
ENDBRANCH  13  14
ENDBRANCH   6   8
ENDBRANCH   3   4
ENDBRANCH   2   3
ENDBRANCH   1   2
BRANCH   1  64
ATOM     64  C   UNL A   1      37.016  21.864  24.340  1.00  0.00     0.002 C 
BRANCH  64  65
ATOM     65  C   UNL A   1      37.161  23.107  25.222  1.00  0.00     0.021 C 
BRANCH  65  66
ATOM     66  C   UNL A   1      35.887  23.765  25.751  1.00  0.00     0.116 C 
BRANCH  66  67
ATOM     67  N   UNL A   1      35.209  23.027  26.802  1.00  0.00    -0.352 N 
ATOM     68  C   UNL A   1      34.069  22.272  26.746  1.00  0.00     0.253 C 
ATOM     69  H   UNL A   1      35.632  23.079  27.688  1.00  0.00     0.163 HD
ATOM     70  O   UNL A   1      33.804  21.476  27.646  1.00  0.00    -0.269 OA
BRANCH  68  71
ATOM     71  C   UNL A   1      33.220  22.316  25.566  1.00  0.00     0.071 A 
ATOM     72  C   UNL A   1      33.415  21.271  24.649  1.00  0.00     0.018 A 
ATOM     73  C   UNL A   1      32.259  23.287  25.299  1.00  0.00     0.141 A 
ATOM     74  C   UNL A   1      32.685  21.245  23.472  1.00  0.00     0.021 A 
ATOM     75  N   UNL A   1      31.547  23.269  24.132  1.00  0.00    -0.250 NA
ATOM     76  C   UNL A   1      31.774  22.261  23.257  1.00  0.00     0.112 A 
BRANCH  73  77
ATOM     77  C   UNL A   1      31.913  24.469  26.181  1.00  0.00     0.276 C 
ATOM     78  O   UNL A   1      31.343  24.295  27.257  1.00  0.00    -0.267 OA
ATOM     79  N   UNL A   1      32.443  25.689  25.848  1.00  0.00    -0.305 N 
ATOM     80  H   UNL A   1      33.365  25.866  26.144  1.00  0.00     0.171 HD
BRANCH  79  81
ATOM     81  C   UNL A   1      31.811  26.703  25.135  1.00  0.00     0.132 A 
ATOM     82  C   UNL A   1      30.470  26.635  24.775  1.00  0.00     0.049 A 
ATOM     83  N   UNL A   1      32.630  27.693  24.724  1.00  0.00    -0.238 NA
ATOM     84  C   UNL A   1      29.980  27.553  23.843  1.00  0.00     0.026 A 
ATOM     85  C   UNL A   1      32.136  28.550  23.794  1.00  0.00     0.134 A 
ATOM     86  C   UNL A   1      30.840  28.502  23.311  1.00  0.00     0.059 A 
ATOM     87  Cl  UNL A   1      30.305  29.563  22.075  1.00  0.00    -0.083 Cl
ENDBRANCH  79  81
ENDBRANCH  73  77
ENDBRANCH  68  71
ENDBRANCH  66  67
ENDBRANCH  65  66
ENDBRANCH  64  65
ENDBRANCH   1  64
TORSDOF 15
ENDMDL
MODEL 3
REMARK VINA RESULT:     -11.6      5.134      9.731
REMARK SMILES O=C(NCCCCCCNC(=O)c1cccnc1C(=O)Nc1ccc(Cl)cn1)c1ccc(-c2c3nc(c(-c4c(F)cccc4F)c4ccc([nH]4)c(-c4c(F)cccc4F)c4nc(c(-c5c(F)cccc5F)c5ccc2[nH]5)C=C4)C=C3)cc1
REMARK SMILES IDX 6 1 5 2 4 3 3 4 1 5 2 6 29 8 30 9 82 10 31 11 81 12 32 13
REMARK SMILES IDX 33 14 34 15 75 16 35 17 80 18 74 19 76 20 36 21 79 22 73 23
REMARK SMILES IDX 72 24 37 26 63 27 46 28 62 29 47 30 50 31 61 32 77 33 48 34
REMARK SMILES IDX 49 35 60 37 78 38 51 39 38 40 39 41 44 42 40 43 41 44 43 45
REMARK SMILES IDX 45 46 42 47 64 48 65 49 70 50 66 51 67 52 69 53 71 54 68 55
REMARK SMILES IDX 52 56 53 57 58 58 54 59 55 60 57 61 59 62 56 63 7 64 8 65
REMARK SMILES IDX 9 66 10 67 11 68 12 70 13 71 14 72 18 73 15 74 17 75 16 76
REMARK SMILES IDX 19 77 20 78 21 79 22 81 23 82 28 83 24 84 27 85 25 86 26 87
REMARK H PARENT 3 7 76 25 50 36 10 69 21 80
REMARK Flexibility Score: inf
ROOT
ATOM      1  C   UNL A   1      36.892  20.780  24.872  1.00  0.00     0.002 C 
ENDROOT
BRANCH   1   2
ATOM      2  C   UNL A   1      37.967  19.704  24.973  1.00  0.00     0.021 C 
BRANCH   2   3
ATOM      3  C   UNL A   1      39.159  20.080  25.838  1.00  0.00     0.116 C 
BRANCH   3   4
ATOM      4  N   UNL A   1      40.196  19.061  25.845  1.00  0.00    -0.352 N 
ATOM      5  O   UNL A   1      42.325  18.290  25.933  1.00  0.00    -0.269 OA
ATOM      6  C   UNL A   1      41.535  19.223  26.091  1.00  0.00     0.251 C 
ATOM      7  H   UNL A   1      39.901  18.142  25.649  1.00  0.00     0.163 HD
BRANCH   6   8
ATOM      8  C   UNL A   1      42.029  20.546  26.516  1.00  0.00     0.039 A 
ATOM      9  C   UNL A   1      42.120  20.858  27.877  1.00  0.00     0.014 A 
ATOM     10  C   UNL A   1      42.364  21.491  25.546  1.00  0.00     0.014 A 
ATOM     11  C   UNL A   1      42.431  22.155  28.265  1.00  0.00     0.010 A 
ATOM     12  C   UNL A   1      42.748  22.773  25.940  1.00  0.00     0.010 A 
ATOM     13  C   UNL A   1      42.761  23.120  27.300  1.00  0.00    -0.014 A 
BRANCH  13  14
ATOM     14  C   UNL A   1      43.191  24.471  27.727  1.00  0.00     0.031 A 
ATOM     15  C   UNL A   1      42.189  25.513  28.124  1.00  0.00     0.074 A 
ATOM     16  C   UNL A   1      44.506  24.757  27.719  1.00  0.00     0.049 A 
ATOM     17  N   UNL A   1      42.387  26.767  28.444  1.00  0.00    -0.248 NA
ATOM     18  C   UNL A   1      40.779  25.098  28.159  1.00  0.00     0.031 C 
ATOM     19  C   UNL A   1      45.567  23.823  27.338  1.00  0.00     0.029 A 
ATOM     20  N   UNL A   1      45.173  25.914  28.023  1.00  0.00    -0.354 N 
ATOM     21  C   UNL A   1      41.128  27.299  28.691  1.00  0.00     0.074 A 
ATOM     22  C   UNL A   1      40.171  26.235  28.470  1.00  0.00     0.031 C 
ATOM     23  C   UNL A   1      46.751  24.441  27.436  1.00  0.00     0.029 A 
ATOM     24  C   UNL A   1      46.528  25.828  27.827  1.00  0.00     0.049 A 
ATOM     25  H   UNL A   1      44.724  26.728  28.351  1.00  0.00     0.167 HD
ATOM     26  C   UNL A   1      40.808  28.561  29.067  1.00  0.00     0.037 A 
ATOM     27  C   UNL A   1      47.484  26.770  27.911  1.00  0.00     0.037 A 
ATOM     28  C   UNL A   1      41.772  29.606  29.294  1.00  0.00     0.049 A 
ATOM     29  C   UNL A   1      47.104  28.164  28.306  1.00  0.00     0.074 A 
ATOM     30  C   UNL A   1      41.555  30.901  29.733  1.00  0.00     0.029 A 
ATOM     31  N   UNL A   1      43.139  29.480  29.086  1.00  0.00    -0.354 N 
ATOM     32  N   UNL A   1      45.916  28.644  28.581  1.00  0.00    -0.248 NA
ATOM     33  C   UNL A   1      48.190  29.147  28.398  1.00  0.00     0.031 C 
ATOM     34  C   UNL A   1      42.784  31.571  29.747  1.00  0.00     0.029 A 
ATOM     35  C   UNL A   1      43.773  30.681  29.361  1.00  0.00     0.049 A 
ATOM     36  H   UNL A   1      43.591  28.656  28.788  1.00  0.00     0.167 HD
ATOM     37  C   UNL A   1      46.110  29.981  28.894  1.00  0.00     0.074 A 
ATOM     38  C   UNL A   1      47.533  30.233  28.784  1.00  0.00     0.031 C 
ATOM     39  C   UNL A   1      45.191  30.914  29.243  1.00  0.00     0.037 A 
BRANCH  26  40
ATOM     40  C   UNL A   1      39.352  28.887  29.227  1.00  0.00     0.057 A 
ATOM     41  C   UNL A   1      38.681  28.720  30.446  1.00  0.00     0.134 A 
ATOM     42  C   UNL A   1      38.616  29.399  28.151  1.00  0.00     0.134 A 
ATOM     43  F   UNL A   1      39.324  28.223  31.514  1.00  0.00    -0.206 F 
ATOM     44  C   UNL A   1      37.324  29.025  30.580  1.00  0.00     0.040 A 
ATOM     45  C   UNL A   1      37.266  29.729  28.279  1.00  0.00     0.040 A 
ATOM     46  F   UNL A   1      39.197  29.590  26.957  1.00  0.00    -0.206 F 
ATOM     47  C   UNL A   1      36.615  29.536  29.495  1.00  0.00     0.006 A 
ENDBRANCH  26  40
BRANCH  27  48
ATOM     48  C   UNL A   1      48.884  26.402  27.591  1.00  0.00     0.057 A 
ATOM     49  C   UNL A   1      49.396  26.551  26.300  1.00  0.00     0.134 A 
ATOM     50  C   UNL A   1      49.761  25.961  28.591  1.00  0.00     0.134 A 
ATOM     51  F   UNL A   1      48.600  26.960  25.302  1.00  0.00    -0.206 F 
ATOM     52  C   UNL A   1      50.734  26.276  26.012  1.00  0.00     0.040 A 
ATOM     53  C   UNL A   1      51.105  25.705  28.322  1.00  0.00     0.040 A 
ATOM     54  F   UNL A   1      49.329  25.813  29.853  1.00  0.00    -0.206 F 
ATOM     55  C   UNL A   1      51.594  25.861  27.027  1.00  0.00     0.006 A 
ENDBRANCH  27  48
BRANCH  39  56
ATOM     56  C   UNL A   1      45.698  32.290  29.553  1.00  0.00     0.057 A 
ATOM     57  C   UNL A   1      46.171  32.629  30.826  1.00  0.00     0.134 A 
ATOM     58  C   UNL A   1      45.763  33.266  28.552  1.00  0.00     0.134 A 
ATOM     59  F   UNL A   1      46.121  31.741  31.830  1.00  0.00    -0.206 F 
ATOM     60  C   UNL A   1      46.684  33.899  31.094  1.00  0.00     0.040 A 
ATOM     61  C   UNL A   1      46.292  34.532  28.803  1.00  0.00     0.040 A 
ATOM     62  F   UNL A   1      45.329  32.999  27.311  1.00  0.00    -0.206 F 
ATOM     63  C   UNL A   1      46.753  34.851  30.079  1.00  0.00     0.006 A 
ENDBRANCH  39  56
ENDBRANCH  13  14
ENDBRANCH   6   8
ENDBRANCH   3   4
ENDBRANCH   2   3
ENDBRANCH   1   2
BRANCH   1  64
ATOM     64  C   UNL A   1      37.402  22.205  24.650  1.00  0.00     0.002 C 
BRANCH  64  65
ATOM     65  C   UNL A   1      36.943  23.293  25.626  1.00  0.00     0.021 C 
BRANCH  65  66
ATOM     66  C   UNL A   1      35.466  23.684  25.624  1.00  0.00     0.116 C 
BRANCH  66  67
ATOM     67  N   UNL A   1      34.913  23.974  24.312  1.00  0.00    -0.352 N 
ATOM     68  C   UNL A   1      33.611  23.970  23.891  1.00  0.00     0.253 C 
ATOM     69  H   UNL A   1      35.575  24.209  23.622  1.00  0.00     0.163 HD
ATOM     70  O   UNL A   1      33.294  24.530  22.841  1.00  0.00    -0.269 OA
BRANCH  68  71
ATOM     71  C   UNL A   1      32.570  23.408  24.736  1.00  0.00     0.071 A 
ATOM     72  C   UNL A   1      32.055  24.277  25.709  1.00  0.00     0.018 A 
ATOM     73  C   UNL A   1      32.068  22.112  24.643  1.00  0.00     0.141 A 
ATOM     74  C   UNL A   1      31.089  23.823  26.593  1.00  0.00     0.021 A 
ATOM     75  N   UNL A   1      31.124  21.661  25.523  1.00  0.00    -0.250 NA
ATOM     76  C   UNL A   1      30.662  22.516  26.465  1.00  0.00     0.112 A 
BRANCH  73  77
ATOM     77  C   UNL A   1      32.500  21.055  23.649  1.00  0.00     0.276 C 
ATOM     78  O   UNL A   1      32.020  21.034  22.516  1.00  0.00    -0.267 OA
ATOM     79  N   UNL A   1      33.581  20.277  23.975  1.00  0.00    -0.305 N 
ATOM     80  H   UNL A   1      34.471  20.662  23.801  1.00  0.00     0.171 HD
BRANCH  79  81
ATOM     81  C   UNL A   1      33.550  19.000  24.527  1.00  0.00     0.132 A 
ATOM     82  C   UNL A   1      34.576  18.082  24.335  1.00  0.00     0.049 A 
ATOM     83  N   UNL A   1      32.400  18.691  25.160  1.00  0.00    -0.238 NA
ATOM     84  C   UNL A   1      34.356  16.750  24.690  1.00  0.00     0.026 A 
ATOM     85  C   UNL A   1      32.201  17.383  25.464  1.00  0.00     0.134 A 
ATOM     86  C   UNL A   1      33.130  16.385  25.226  1.00  0.00     0.059 A 
ATOM     87  Cl  UNL A   1      32.782  14.739  25.558  1.00  0.00    -0.083 Cl
ENDBRANCH  79  81
ENDBRANCH  73  77
ENDBRANCH  68  71
ENDBRANCH  66  67
ENDBRANCH  65  66
ENDBRANCH  64  65
ENDBRANCH   1  64
TORSDOF 15
ENDMDL
