MODEL 1
REMARK VINA RESULT:     -12.9      0.000      0.000
REMARK SMILES Cc1c(CC(=O)NCCCCCCNC(=O)c2ccc(-c3c4nc(c(-c5c(F)cccc5F)c5ccc([nH]5)c(-c5c(F)cccc5F)c5nc(c(-c6c(F)cccc6F)c6ccc3[nH]6)C=C5)C=C4)cc2)cc(-c2ccccc2)cc1-c1ccccc1
REMARK SMILES IDX 10 1 9 2 8 3 7 4 5 5 6 6 4 8 3 9 1 10 2 11 80 12 71 13 79 14
REMARK SMILES IDX 72 15 81 16 82 17 86 18 83 19 85 20 84 21 73 22 74 23 78 24
REMARK SMILES IDX 75 25 77 26 76 27 11 28 12 29 13 30 14 31 15 32 16 34 17 35
REMARK SMILES IDX 18 36 70 37 19 38 69 39 20 40 21 41 22 42 63 43 23 44 68 45
REMARK SMILES IDX 62 46 64 47 24 48 67 49 61 50 60 51 25 53 51 54 34 55 50 56
REMARK SMILES IDX 35 57 38 58 49 59 65 60 36 61 37 62 48 64 66 65 39 66 26 67
REMARK SMILES IDX 27 68 32 69 28 70 29 71 31 72 33 73 30 74 52 75 53 76 58 77
REMARK SMILES IDX 54 78 55 79 57 80 59 81 56 82 40 83 41 84 46 85 42 86 43 87
REMARK SMILES IDX 45 88 47 89 44 90
REMARK H PARENT 7 7 14 33 64 52 38 63
REMARK Flexibility Score: inf
ROOT
ATOM      1  C   UNL A   1      33.431  27.687  26.017  1.00  0.00     0.002 C 
ENDROOT
BRANCH   1   2
ATOM      2  C   UNL A   1      33.739  27.618  24.515  1.00  0.00     0.021 C 
BRANCH   2   3
ATOM      3  C   UNL A   1      33.646  26.221  23.899  1.00  0.00     0.116 C 
BRANCH   3   4
ATOM      4  N   UNL A   1      32.471  25.497  24.332  1.00  0.00    -0.356 N 
ATOM      5  C   UNL A   1      32.060  24.241  23.985  1.00  0.00     0.224 C 
ATOM      6  O   UNL A   1      31.036  23.798  24.507  1.00  0.00    -0.275 OA
ATOM      7  H   UNL A   1      31.886  25.975  24.964  1.00  0.00     0.163 HD
BRANCH   5   8
ATOM      8  C   UNL A   1      32.879  23.400  23.010  1.00  0.00     0.135 C 
BRANCH   8   9
ATOM      9  C   UNL A   1      33.716  22.320  23.675  1.00  0.00    -0.035 A 
ATOM     10  C   UNL A   1      32.079  20.473  23.044  1.00  0.00     0.045 C 
ATOM     11  C   UNL A   1      33.330  20.955  23.745  1.00  0.00    -0.040 A 
ATOM     12  C   UNL A   1      34.163  20.035  24.439  1.00  0.00    -0.015 A 
ATOM     13  C   UNL A   1      34.944  22.723  24.239  1.00  0.00     0.013 A 
ATOM     14  C   UNL A   1      35.371  20.496  25.005  1.00  0.00     0.017 A 
ATOM     15  C   UNL A   1      35.786  21.829  24.904  1.00  0.00    -0.017 A 
BRANCH  12  16
ATOM     16  C   UNL A   1      33.812  18.614  24.631  1.00  0.00    -0.018 A 
ATOM     17  C   UNL A   1      32.887  18.239  25.622  1.00  0.00     0.009 A 
ATOM     18  C   UNL A   1      34.386  17.601  23.846  1.00  0.00     0.009 A 
ATOM     19  C   UNL A   1      32.533  16.901  25.809  1.00  0.00     0.001 A 
ATOM     20  C   UNL A   1      34.021  16.263  24.024  1.00  0.00     0.001 A 
ATOM     21  C   UNL A   1      33.095  15.915  25.005  1.00  0.00     0.000 A 
ENDBRANCH  12  16
BRANCH  15  22
ATOM     22  C   UNL A   1      37.069  22.278  25.462  1.00  0.00    -0.018 A 
ATOM     23  C   UNL A   1      38.163  21.402  25.567  1.00  0.00     0.009 A 
ATOM     24  C   UNL A   1      37.228  23.593  25.932  1.00  0.00     0.009 A 
ATOM     25  C   UNL A   1      39.372  21.824  26.129  1.00  0.00     0.001 A 
ATOM     26  C   UNL A   1      38.434  24.014  26.497  1.00  0.00     0.001 A 
ATOM     27  C   UNL A   1      39.505  23.130  26.596  1.00  0.00     0.000 A 
ENDBRANCH  15  22
ENDBRANCH   8   9
ENDBRANCH   5   8
ENDBRANCH   3   4
ENDBRANCH   2   3
ENDBRANCH   1   2
BRANCH   1  28
ATOM     28  C   UNL A   1      34.372  28.549  26.876  1.00  0.00     0.002 C 
BRANCH  28  29
ATOM     29  C   UNL A   1      33.770  29.824  27.476  1.00  0.00     0.021 C 
BRANCH  29  30
ATOM     30  C   UNL A   1      34.736  31.000  27.542  1.00  0.00     0.116 C 
BRANCH  30  31
ATOM     31  N   UNL A   1      35.018  31.456  28.897  1.00  0.00    -0.352 N 
ATOM     32  C   UNL A   1      35.989  31.027  29.785  1.00  0.00     0.251 C 
ATOM     33  H   UNL A   1      34.432  32.173  29.230  1.00  0.00     0.163 HD
ATOM     34  O   UNL A   1      36.060  31.519  30.901  1.00  0.00    -0.269 OA
BRANCH  32  35
ATOM     35  C   UNL A   1      37.026  30.068  29.327  1.00  0.00     0.039 A 
ATOM     36  C   UNL A   1      37.228  28.918  30.098  1.00  0.00     0.014 A 
ATOM     37  C   UNL A   1      37.908  30.384  28.297  1.00  0.00     0.014 A 
ATOM     38  C   UNL A   1      38.440  28.239  30.006  1.00  0.00     0.010 A 
ATOM     39  C   UNL A   1      39.144  29.766  28.258  1.00  0.00     0.010 A 
ATOM     40  C   UNL A   1      39.432  28.743  29.166  1.00  0.00    -0.014 A 
BRANCH  40  41
ATOM     41  C   UNL A   1      40.834  28.359  29.295  1.00  0.00     0.031 A 
ATOM     42  C   UNL A   1      41.355  27.152  28.632  1.00  0.00     0.074 A 
ATOM     43  C   UNL A   1      41.660  29.138  30.027  1.00  0.00     0.049 A 
ATOM     44  N   UNL A   1      42.327  26.435  29.092  1.00  0.00    -0.248 NA
ATOM     45  C   UNL A   1      40.785  26.635  27.395  1.00  0.00     0.031 C 
ATOM     46  C   UNL A   1      43.113  29.048  30.120  1.00  0.00     0.029 A 
ATOM     47  N   UNL A   1      41.300  30.058  31.022  1.00  0.00    -0.354 N 
ATOM     48  C   UNL A   1      42.678  25.533  28.113  1.00  0.00     0.074 A 
ATOM     49  C   UNL A   1      41.650  25.658  27.103  1.00  0.00     0.031 C 
ATOM     50  C   UNL A   1      43.510  29.640  31.259  1.00  0.00     0.029 A 
ATOM     51  C   UNL A   1      42.312  30.002  31.999  1.00  0.00     0.049 A 
ATOM     52  H   UNL A   1      40.499  30.629  31.034  1.00  0.00     0.167 HD
ATOM     53  C   UNL A   1      43.873  24.877  28.190  1.00  0.00     0.037 A 
ATOM     54  C   UNL A   1      42.042  29.623  33.281  1.00  0.00     0.037 A 
ATOM     55  C   UNL A   1      44.615  25.259  29.388  1.00  0.00     0.049 A 
ATOM     56  C   UNL A   1      42.803  28.400  33.732  1.00  0.00     0.074 A 
ATOM     57  C   UNL A   1      45.605  26.207  29.594  1.00  0.00     0.029 A 
ATOM     58  N   UNL A   1      44.166  24.877  30.646  1.00  0.00    -0.354 N 
ATOM     59  N   UNL A   1      43.367  27.553  32.916  1.00  0.00    -0.248 NA
ATOM     60  C   UNL A   1      42.943  28.008  35.133  1.00  0.00     0.031 C 
ATOM     61  C   UNL A   1      45.710  26.439  30.984  1.00  0.00     0.029 A 
ATOM     62  C   UNL A   1      44.799  25.618  31.626  1.00  0.00     0.049 A 
ATOM     63  H   UNL A   1      43.493  24.178  30.816  1.00  0.00     0.167 HD
ATOM     64  C   UNL A   1      43.888  26.512  33.637  1.00  0.00     0.074 A 
ATOM     65  C   UNL A   1      43.623  26.854  35.021  1.00  0.00     0.031 C 
ATOM     66  C   UNL A   1      44.479  25.441  33.032  1.00  0.00     0.037 A 
BRANCH  53  67
ATOM     67  C   UNL A   1      44.494  24.162  27.011  1.00  0.00     0.057 A 
ATOM     68  C   UNL A   1      44.135  22.837  26.688  1.00  0.00     0.134 A 
ATOM     69  C   UNL A   1      45.498  24.703  26.191  1.00  0.00     0.134 A 
ATOM     70  F   UNL A   1      43.106  22.219  27.283  1.00  0.00    -0.206 F 
ATOM     71  C   UNL A   1      44.819  22.072  25.735  1.00  0.00     0.040 A 
ATOM     72  C   UNL A   1      46.227  23.936  25.271  1.00  0.00     0.040 A 
ATOM     73  F   UNL A   1      45.786  26.013  26.220  1.00  0.00    -0.206 F 
ATOM     74  C   UNL A   1      45.902  22.605  25.055  1.00  0.00     0.006 A 
ENDBRANCH  53  67
BRANCH  54  75
ATOM     75  C   UNL A   1      40.669  29.966  33.732  1.00  0.00     0.057 A 
ATOM     76  C   UNL A   1      40.416  31.260  34.219  1.00  0.00     0.134 A 
ATOM     77  C   UNL A   1      39.561  29.191  33.374  1.00  0.00     0.134 A 
ATOM     78  F   UNL A   1      41.437  32.055  34.579  1.00  0.00    -0.206 F 
ATOM     79  C   UNL A   1      39.128  31.797  34.253  1.00  0.00     0.040 A 
ATOM     80  C   UNL A   1      38.265  29.716  33.413  1.00  0.00     0.040 A 
ATOM     81  F   UNL A   1      39.722  27.956  32.881  1.00  0.00    -0.206 F 
ATOM     82  C   UNL A   1      38.050  31.034  33.818  1.00  0.00     0.006 A 
ENDBRANCH  54  75
BRANCH  66  83
ATOM     83  C   UNL A   1      44.895  24.175  33.730  1.00  0.00     0.057 A 
ATOM     84  C   UNL A   1      44.105  23.018  33.782  1.00  0.00     0.134 A 
ATOM     85  C   UNL A   1      46.196  24.045  34.258  1.00  0.00     0.134 A 
ATOM     86  F   UNL A   1      42.888  22.977  33.222  1.00  0.00    -0.206 F 
ATOM     87  C   UNL A   1      44.555  21.831  34.373  1.00  0.00     0.040 A 
ATOM     88  C   UNL A   1      46.673  22.852  34.808  1.00  0.00     0.040 A 
ATOM     89  F   UNL A   1      47.064  25.068  34.247  1.00  0.00    -0.206 F 
ATOM     90  C   UNL A   1      45.846  21.742  34.880  1.00  0.00     0.006 A 
ENDBRANCH  66  83
ENDBRANCH  40  41
ENDBRANCH  32  35
ENDBRANCH  30  31
ENDBRANCH  29  30
ENDBRANCH  28  29
ENDBRANCH   1  28
TORSDOF 16
ENDMDL
MODEL 2
REMARK VINA RESULT:     -12.4      1.800      2.841
REMARK SMILES Cc1c(CC(=O)NCCCCCCNC(=O)c2ccc(-c3c4nc(c(-c5c(F)cccc5F)c5ccc([nH]5)c(-c5c(F)cccc5F)c5nc(c(-c6c(F)cccc6F)c6ccc3[nH]6)C=C5)C=C4)cc2)cc(-c2ccccc2)cc1-c1ccccc1
REMARK SMILES IDX 10 1 9 2 8 3 7 4 5 5 6 6 4 8 3 9 1 10 2 11 80 12 71 13 79 14
REMARK SMILES IDX 72 15 81 16 82 17 86 18 83 19 85 20 84 21 73 22 74 23 78 24
REMARK SMILES IDX 75 25 77 26 76 27 11 28 12 29 13 30 14 31 15 32 16 34 17 35
REMARK SMILES IDX 18 36 70 37 19 38 69 39 20 40 21 41 22 42 63 43 23 44 68 45
REMARK SMILES IDX 62 46 64 47 24 48 67 49 61 50 60 51 25 53 51 54 34 55 50 56
REMARK SMILES IDX 35 57 38 58 49 59 65 60 36 61 37 62 48 64 66 65 39 66 26 67
REMARK SMILES IDX 27 68 32 69 28 70 29 71 31 72 33 73 30 74 52 75 53 76 58 77
REMARK SMILES IDX 54 78 55 79 57 80 59 81 56 82 40 83 41 84 46 85 42 86 43 87
REMARK SMILES IDX 45 88 47 89 44 90
REMARK H PARENT 7 7 14 33 64 52 38 63
REMARK Flexibility Score: inf
ROOT
ATOM      1  C   UNL A   1      32.846  28.612  25.451  1.00  0.00     0.002 C 
ENDROOT
BRANCH   1   2
ATOM      2  C   UNL A   1      33.521  27.244  25.618  1.00  0.00     0.021 C 
BRANCH   2   3
ATOM      3  C   UNL A   1      33.315  26.275  24.452  1.00  0.00     0.116 C 
BRANCH   3   4
ATOM      4  N   UNL A   1      32.139  25.448  24.613  1.00  0.00    -0.356 N 
ATOM      5  C   UNL A   1      31.860  24.234  24.052  1.00  0.00     0.224 C 
ATOM      6  O   UNL A   1      30.803  23.680  24.359  1.00  0.00    -0.275 OA
ATOM      7  H   UNL A   1      31.445  25.810  25.211  1.00  0.00     0.163 HD
BRANCH   5   8
ATOM      8  C   UNL A   1      32.856  23.570  23.106  1.00  0.00     0.135 C 
BRANCH   8   9
ATOM      9  C   UNL A   1      33.691  22.477  23.752  1.00  0.00    -0.035 A 
ATOM     10  C   UNL A   1      32.078  20.638  23.039  1.00  0.00     0.045 C 
ATOM     11  C   UNL A   1      33.314  21.108  23.775  1.00  0.00    -0.040 A 
ATOM     12  C   UNL A   1      34.143  20.174  24.455  1.00  0.00    -0.015 A 
ATOM     13  C   UNL A   1      34.905  22.872  24.348  1.00  0.00     0.013 A 
ATOM     14  C   UNL A   1      35.338  20.627  25.054  1.00  0.00     0.017 A 
ATOM     15  C   UNL A   1      35.744  21.965  25.000  1.00  0.00    -0.017 A 
BRANCH  12  16
ATOM     16  C   UNL A   1      33.800  18.745  24.599  1.00  0.00    -0.018 A 
ATOM     17  C   UNL A   1      32.854  18.336  25.556  1.00  0.00     0.009 A 
ATOM     18  C   UNL A   1      34.402  17.759  23.801  1.00  0.00     0.009 A 
ATOM     19  C   UNL A   1      32.508  16.990  25.697  1.00  0.00     0.001 A 
ATOM     20  C   UNL A   1      34.045  16.414  23.933  1.00  0.00     0.001 A 
ATOM     21  C   UNL A   1      33.099  16.031  24.880  1.00  0.00     0.000 A 
ENDBRANCH  12  16
BRANCH  15  22
ATOM     22  C   UNL A   1      37.015  22.407  25.592  1.00  0.00    -0.018 A 
ATOM     23  C   UNL A   1      37.187  23.728  26.041  1.00  0.00     0.009 A 
ATOM     24  C   UNL A   1      38.102  21.525  25.700  1.00  0.00     0.009 A 
ATOM     25  C   UNL A   1      38.407  24.153  26.573  1.00  0.00     0.001 A 
ATOM     26  C   UNL A   1      39.324  21.950  26.229  1.00  0.00     0.001 A 
ATOM     27  C   UNL A   1      39.476  23.264  26.664  1.00  0.00     0.000 A 
ENDBRANCH  15  22
ENDBRANCH   8   9
ENDBRANCH   5   8
ENDBRANCH   3   4
ENDBRANCH   2   3
ENDBRANCH   1   2
BRANCH   1  28
ATOM     28  C   UNL A   1      33.012  29.609  26.612  1.00  0.00     0.002 C 
BRANCH  28  29
ATOM     29  C   UNL A   1      34.300  29.489  27.432  1.00  0.00     0.021 C 
BRANCH  29  30
ATOM     30  C   UNL A   1      35.055  30.801  27.605  1.00  0.00     0.116 C 
BRANCH  30  31
ATOM     31  N   UNL A   1      34.236  31.888  28.125  1.00  0.00    -0.352 N 
ATOM     32  C   UNL A   1      34.489  32.756  29.173  1.00  0.00     0.251 C 
ATOM     33  H   UNL A   1      33.376  32.024  27.665  1.00  0.00     0.163 HD
ATOM     34  O   UNL A   1      33.662  33.602  29.481  1.00  0.00    -0.269 OA
BRANCH  32  35
ATOM     35  C   UNL A   1      35.822  32.745  29.826  1.00  0.00     0.039 A 
ATOM     36  C   UNL A   1      36.841  33.496  29.227  1.00  0.00     0.014 A 
ATOM     37  C   UNL A   1      36.117  31.870  30.868  1.00  0.00     0.014 A 
ATOM     38  C   UNL A   1      38.169  33.177  29.495  1.00  0.00     0.010 A 
ATOM     39  C   UNL A   1      37.431  31.494  31.077  1.00  0.00     0.010 A 
ATOM     40  C   UNL A   1      38.448  32.098  30.333  1.00  0.00    -0.014 A 
BRANCH  40  41
ATOM     41  C   UNL A   1      39.752  31.445  30.358  1.00  0.00     0.031 A 
ATOM     42  C   UNL A   1      39.995  30.202  29.605  1.00  0.00     0.074 A 
ATOM     43  C   UNL A   1      40.750  32.006  31.076  1.00  0.00     0.049 A 
ATOM     44  N   UNL A   1      40.830  29.287  29.968  1.00  0.00    -0.248 NA
ATOM     45  C   UNL A   1      39.274  29.880  28.380  1.00  0.00     0.031 C 
ATOM     46  C   UNL A   1      42.161  31.634  31.075  1.00  0.00     0.029 A 
ATOM     47  N   UNL A   1      40.626  32.915  32.135  1.00  0.00    -0.354 N 
ATOM     48  C   UNL A   1      40.950  28.395  28.926  1.00  0.00     0.074 A 
ATOM     49  C   UNL A   1      39.916  28.775  27.988  1.00  0.00     0.031 C 
ATOM     50  C   UNL A   1      42.722  32.068  32.215  1.00  0.00     0.029 A 
ATOM     51  C   UNL A   1      41.656  32.608  33.044  1.00  0.00     0.049 A 
ATOM     52  H   UNL A   1      39.953  33.627  32.224  1.00  0.00     0.167 HD
ATOM     53  C   UNL A   1      41.996  27.519  28.898  1.00  0.00     0.037 A 
ATOM     54  C   UNL A   1      41.382  32.211  34.320  1.00  0.00     0.037 A 
ATOM     55  C   UNL A   1      42.858  27.678  30.066  1.00  0.00     0.049 A 
ATOM     56  C   UNL A   1      41.912  30.840  34.663  1.00  0.00     0.074 A 
ATOM     57  C   UNL A   1      44.022  28.405  30.258  1.00  0.00     0.029 A 
ATOM     58  N   UNL A   1      42.407  27.314  31.329  1.00  0.00    -0.354 N 
ATOM     59  N   UNL A   1      42.259  29.951  33.773  1.00  0.00    -0.248 NA
ATOM     60  C   UNL A   1      42.043  30.344  36.031  1.00  0.00     0.031 C 
ATOM     61  C   UNL A   1      44.241  28.529  31.649  1.00  0.00     0.029 A 
ATOM     62  C   UNL A   1      43.221  27.860  32.304  1.00  0.00     0.049 A 
ATOM     63  H   UNL A   1      41.621  26.748  31.505  1.00  0.00     0.167 HD
ATOM     64  C   UNL A   1      42.603  28.788  34.408  1.00  0.00     0.074 A 
ATOM     65  C   UNL A   1      42.479  29.090  35.821  1.00  0.00     0.031 C 
ATOM     66  C   UNL A   1      42.943  27.662  33.716  1.00  0.00     0.037 A 
BRANCH  53  67
ATOM     67  C   UNL A   1      42.407  26.771  27.649  1.00  0.00     0.057 A 
ATOM     68  C   UNL A   1      42.369  25.362  27.596  1.00  0.00     0.134 A 
ATOM     69  C   UNL A   1      42.907  27.379  26.486  1.00  0.00     0.134 A 
ATOM     70  F   UNL A   1      41.800  24.634  28.564  1.00  0.00    -0.206 F 
ATOM     71  C   UNL A   1      42.922  24.624  26.541  1.00  0.00     0.040 A 
ATOM     72  C   UNL A   1      43.510  26.655  25.447  1.00  0.00     0.040 A 
ATOM     73  F   UNL A   1      42.794  28.701  26.290  1.00  0.00    -0.206 F 
ATOM     74  C   UNL A   1      43.539  25.269  25.482  1.00  0.00     0.006 A 
ENDBRANCH  53  67
BRANCH  54  75
ATOM     75  C   UNL A   1      40.126  32.782  34.870  1.00  0.00     0.057 A 
ATOM     76  C   UNL A   1      38.951  32.012  34.824  1.00  0.00     0.134 A 
ATOM     77  C   UNL A   1      40.133  33.884  35.731  1.00  0.00     0.134 A 
ATOM     78  F   UNL A   1      38.879  30.941  34.018  1.00  0.00    -0.206 F 
ATOM     79  C   UNL A   1      37.869  32.265  35.670  1.00  0.00     0.040 A 
ATOM     80  C   UNL A   1      39.051  34.152  36.576  1.00  0.00     0.040 A 
ATOM     81  F   UNL A   1      41.224  34.653  35.847  1.00  0.00    -0.206 F 
ATOM     82  C   UNL A   1      37.931  33.321  36.573  1.00  0.00     0.006 A 
ENDBRANCH  54  75
BRANCH  66  83
ATOM     83  C   UNL A   1      43.139  26.301  34.323  1.00  0.00     0.057 A 
ATOM     84  C   UNL A   1      42.111  25.557  34.918  1.00  0.00     0.134 A 
ATOM     85  C   UNL A   1      44.374  25.631  34.193  1.00  0.00     0.134 A 
ATOM     86  F   UNL A   1      40.863  26.038  35.009  1.00  0.00    -0.206 F 
ATOM     87  C   UNL A   1      42.311  24.259  35.405  1.00  0.00     0.040 A 
ATOM     88  C   UNL A   1      44.573  24.319  34.631  1.00  0.00     0.040 A 
ATOM     89  F   UNL A   1      45.434  26.219  33.618  1.00  0.00    -0.206 F 
ATOM     90  C   UNL A   1      43.542  23.632  35.253  1.00  0.00     0.006 A 
ENDBRANCH  66  83
ENDBRANCH  40  41
ENDBRANCH  32  35
ENDBRANCH  30  31
ENDBRANCH  29  30
ENDBRANCH  28  29
ENDBRANCH   1  28
TORSDOF 16
ENDMDL
MODEL 3
REMARK VINA RESULT:     -12.4      3.576      9.309
REMARK SMILES Cc1c(CC(=O)NCCCCCCNC(=O)c2ccc(-c3c4nc(c(-c5c(F)cccc5F)c5ccc([nH]5)c(-c5c(F)cccc5F)c5nc(c(-c6c(F)cccc6F)c6ccc3[nH]6)C=C5)C=C4)cc2)cc(-c2ccccc2)cc1-c1ccccc1
REMARK SMILES IDX 10 1 9 2 8 3 7 4 5 5 6 6 4 8 3 9 1 10 2 11 80 12 71 13 79 14
REMARK SMILES IDX 72 15 81 16 82 17 86 18 83 19 85 20 84 21 73 22 74 23 78 24
REMARK SMILES IDX 75 25 77 26 76 27 11 28 12 29 13 30 14 31 15 32 16 34 17 35
REMARK SMILES IDX 18 36 70 37 19 38 69 39 20 40 21 41 22 42 63 43 23 44 68 45
REMARK SMILES IDX 62 46 64 47 24 48 67 49 61 50 60 51 25 53 51 54 34 55 50 56
REMARK SMILES IDX 35 57 38 58 49 59 65 60 36 61 37 62 48 64 66 65 39 66 26 67
REMARK SMILES IDX 27 68 32 69 28 70 29 71 31 72 33 73 30 74 52 75 53 76 58 77
REMARK SMILES IDX 54 78 55 79 57 80 59 81 56 82 40 83 41 84 46 85 42 86 43 87
REMARK SMILES IDX 45 88 47 89 44 90
REMARK H PARENT 7 7 14 33 64 52 38 63
REMARK Flexibility Score: inf
ROOT
ATOM      1  C   UNL A   1      41.931  20.034  25.963  1.00  0.00     0.002 C 
ENDROOT
BRANCH   1   2
ATOM      2  C   UNL A   1      40.535  20.050  26.601  1.00  0.00     0.021 C 
BRANCH   2   3
ATOM      3  C   UNL A   1      39.434  20.654  25.729  1.00  0.00     0.116 C 
BRANCH   3   4
ATOM      4  N   UNL A   1      38.845  21.839  26.312  1.00  0.00    -0.356 N 
ATOM      5  C   UNL A   1      37.859  22.643  25.812  1.00  0.00     0.224 C 
ATOM      6  O   UNL A   1      37.476  23.591  26.500  1.00  0.00    -0.275 OA
ATOM      7  H   UNL A   1      39.203  22.103  27.191  1.00  0.00     0.163 HD
BRANCH   5   8
ATOM      8  C   UNL A   1      37.225  22.342  24.457  1.00  0.00     0.135 C 
BRANCH   8   9
ATOM      9  C   UNL A   1      35.743  22.012  24.526  1.00  0.00    -0.035 A 
ATOM     10  C   UNL A   1      35.052  24.453  24.291  1.00  0.00     0.045 C 
ATOM     11  C   UNL A   1      34.716  22.993  24.503  1.00  0.00    -0.040 A 
ATOM     12  C   UNL A   1      33.362  22.579  24.627  1.00  0.00    -0.015 A 
ATOM     13  C   UNL A   1      35.398  20.649  24.610  1.00  0.00     0.013 A 
ATOM     14  C   UNL A   1      33.072  21.202  24.730  1.00  0.00     0.017 A 
ATOM     15  C   UNL A   1      34.071  20.222  24.709  1.00  0.00    -0.017 A 
BRANCH  12  16
ATOM     16  C   UNL A   1      32.230  23.526  24.689  1.00  0.00    -0.018 A 
ATOM     17  C   UNL A   1      31.526  23.867  23.520  1.00  0.00     0.009 A 
ATOM     18  C   UNL A   1      31.827  24.114  25.898  1.00  0.00     0.009 A 
ATOM     19  C   UNL A   1      30.446  24.750  23.561  1.00  0.00     0.001 A 
ATOM     20  C   UNL A   1      30.736  24.987  25.942  1.00  0.00     0.001 A 
ATOM     21  C   UNL A   1      30.047  25.304  24.774  1.00  0.00     0.000 A 
ENDBRANCH  12  16
BRANCH  15  22
ATOM     22  C   UNL A   1      33.745  18.790  24.774  1.00  0.00    -0.018 A 
ATOM     23  C   UNL A   1      32.795  18.301  25.686  1.00  0.00     0.009 A 
ATOM     24  C   UNL A   1      34.396  17.866  23.939  1.00  0.00     0.009 A 
ATOM     25  C   UNL A   1      32.511  16.935  25.767  1.00  0.00     0.001 A 
ATOM     26  C   UNL A   1      34.116  16.500  24.021  1.00  0.00     0.001 A 
ATOM     27  C   UNL A   1      33.174  16.035  24.936  1.00  0.00     0.000 A 
ENDBRANCH  15  22
ENDBRANCH   8   9
ENDBRANCH   5   8
ENDBRANCH   3   4
ENDBRANCH   2   3
ENDBRANCH   1   2
BRANCH   1  28
ATOM     28  C   UNL A   1      42.760  18.750  26.151  1.00  0.00     0.002 C 
BRANCH  28  29
ATOM     29  C   UNL A   1      44.118  18.708  25.443  1.00  0.00     0.021 C 
BRANCH  29  30
ATOM     30  C   UNL A   1      44.224  19.636  24.240  1.00  0.00     0.116 C 
BRANCH  30  31
ATOM     31  N   UNL A   1      45.492  20.349  24.155  1.00  0.00    -0.352 N 
ATOM     32  C   UNL A   1      45.788  21.660  24.484  1.00  0.00     0.251 C 
ATOM     33  H   UNL A   1      46.249  19.820  23.814  1.00  0.00     0.163 HD
ATOM     34  O   UNL A   1      46.920  22.092  24.322  1.00  0.00    -0.269 OA
BRANCH  32  35
ATOM     35  C   UNL A   1      44.762  22.494  25.159  1.00  0.00     0.039 A 
ATOM     36  C   UNL A   1      44.412  23.705  24.552  1.00  0.00     0.014 A 
ATOM     37  C   UNL A   1      44.310  22.197  26.442  1.00  0.00     0.014 A 
ATOM     38  C   UNL A   1      43.837  24.713  25.322  1.00  0.00     0.010 A 
ATOM     39  C   UNL A   1      43.815  23.219  27.232  1.00  0.00     0.010 A 
ATOM     40  C   UNL A   1      43.652  24.495  26.687  1.00  0.00    -0.014 A 
BRANCH  40  41
ATOM     41  C   UNL A   1      43.443  25.588  27.630  1.00  0.00     0.031 A 
ATOM     42  C   UNL A   1      42.149  26.288  27.708  1.00  0.00     0.074 A 
ATOM     43  C   UNL A   1      44.455  25.946  28.450  1.00  0.00     0.049 A 
ATOM     44  N   UNL A   1      42.017  27.530  28.038  1.00  0.00    -0.248 NA
ATOM     45  C   UNL A   1      40.889  25.636  27.379  1.00  0.00     0.031 C 
ATOM     46  C   UNL A   1      44.397  26.861  29.585  1.00  0.00     0.029 A 
ATOM     47  N   UNL A   1      45.822  25.695  28.270  1.00  0.00    -0.354 N 
ATOM     48  C   UNL A   1      40.673  27.773  28.214  1.00  0.00     0.074 A 
ATOM     49  C   UNL A   1      40.011  26.580  27.733  1.00  0.00     0.031 C 
ATOM     50  C   UNL A   1      45.635  27.317  29.835  1.00  0.00     0.029 A 
ATOM     51  C   UNL A   1      46.502  26.818  28.780  1.00  0.00     0.049 A 
ATOM     52  H   UNL A   1      46.226  24.894  27.867  1.00  0.00     0.167 HD
ATOM     53  C   UNL A   1      40.267  28.896  28.876  1.00  0.00     0.037 A 
ATOM     54  C   UNL A   1      47.288  27.595  27.982  1.00  0.00     0.037 A 
ATOM     55  C   UNL A   1      41.404  29.709  29.297  1.00  0.00     0.049 A 
ATOM     56  C   UNL A   1      46.847  29.037  27.904  1.00  0.00     0.074 A 
ATOM     57  C   UNL A   1      42.099  29.768  30.495  1.00  0.00     0.029 A 
ATOM     58  N   UNL A   1      42.179  30.376  28.356  1.00  0.00    -0.354 N 
ATOM     59  N   UNL A   1      45.655  29.451  28.232  1.00  0.00    -0.248 NA
ATOM     60  C   UNL A   1      47.697  30.115  27.404  1.00  0.00     0.031 C 
ATOM     61  C   UNL A   1      43.329  30.425  30.258  1.00  0.00     0.029 A 
ATOM     62  C   UNL A   1      43.373  30.784  28.922  1.00  0.00     0.049 A 
ATOM     63  H   UNL A   1      41.916  30.537  27.421  1.00  0.00     0.167 HD
ATOM     64  C   UNL A   1      45.550  30.788  27.957  1.00  0.00     0.074 A 
ATOM     65  C   UNL A   1      46.861  31.165  27.466  1.00  0.00     0.031 C 
ATOM     66  C   UNL A   1      44.383  31.472  28.137  1.00  0.00     0.037 A 
BRANCH  53  67
ATOM     67  C   UNL A   1      38.867  29.063  29.425  1.00  0.00     0.057 A 
ATOM     68  C   UNL A   1      37.834  29.610  28.637  1.00  0.00     0.134 A 
ATOM     69  C   UNL A   1      38.489  28.760  30.744  1.00  0.00     0.134 A 
ATOM     70  F   UNL A   1      37.987  29.831  27.326  1.00  0.00    -0.206 F 
ATOM     71  C   UNL A   1      36.583  29.964  29.159  1.00  0.00     0.040 A 
ATOM     72  C   UNL A   1      37.261  29.156  31.294  1.00  0.00     0.040 A 
ATOM     73  F   UNL A   1      39.281  28.030  31.543  1.00  0.00    -0.206 F 
ATOM     74  C   UNL A   1      36.308  29.782  30.505  1.00  0.00     0.006 A 
ENDBRANCH  53  67
BRANCH  54  75
ATOM     75  C   UNL A   1      47.925  26.856  26.862  1.00  0.00     0.057 A 
ATOM     76  C   UNL A   1      47.312  26.877  25.597  1.00  0.00     0.134 A 
ATOM     77  C   UNL A   1      49.259  26.441  26.918  1.00  0.00     0.134 A 
ATOM     78  F   UNL A   1      46.033  27.266  25.475  1.00  0.00    -0.206 F 
ATOM     79  C   UNL A   1      48.023  26.597  24.429  1.00  0.00     0.040 A 
ATOM     80  C   UNL A   1      49.978  26.149  25.754  1.00  0.00     0.040 A 
ATOM     81  F   UNL A   1      49.918  26.416  28.085  1.00  0.00    -0.206 F 
ATOM     82  C   UNL A   1      49.371  26.262  24.504  1.00  0.00     0.006 A 
ENDBRANCH  54  75
BRANCH  66  83
ATOM     83  C   UNL A   1      44.127  32.881  27.677  1.00  0.00     0.057 A 
ATOM     84  C   UNL A   1      44.090  33.987  28.537  1.00  0.00     0.134 A 
ATOM     85  C   UNL A   1      44.051  33.180  26.301  1.00  0.00     0.134 A 
ATOM     86  F   UNL A   1      44.257  33.850  29.860  1.00  0.00    -0.206 F 
ATOM     87  C   UNL A   1      43.926  35.296  28.066  1.00  0.00     0.040 A 
ATOM     88  C   UNL A   1      43.936  34.486  25.816  1.00  0.00     0.040 A 
ATOM     89  F   UNL A   1      44.102  32.216  25.369  1.00  0.00    -0.206 F 
ATOM     90  C   UNL A   1      43.859  35.550  26.702  1.00  0.00     0.006 A 
ENDBRANCH  66  83
ENDBRANCH  40  41
ENDBRANCH  32  35
ENDBRANCH  30  31
ENDBRANCH  29  30
ENDBRANCH  28  29
ENDBRANCH   1  28
TORSDOF 16
ENDMDL
