MODEL 1
REMARK VINA RESULT:     -11.5      0.000      0.000
REMARK SMILES Cc1cccc(O[C@H](C)C(=O)N2CCC[C@@H](C(=O)NCCCCCCNC(=O)c3ccc(-c4c5nc(c(-c6c(F)cccc6F)c6ccc([nH]6)c(-c6c(F)cccc6F)c6nc(c(-c7c(F)cccc7F)c7ccc4[nH]7)C=C6)C=C5)cc3)C2)c1
REMARK SMILES IDX 21 1 20 2 19 3 17 4 18 5 16 7 12 8 13 9 83 10 14 11 15 12
REMARK SMILES IDX 10 13 11 14 8 15 9 16 7 17 6 18 1 19 2 20 3 21 84 22 4 23
REMARK SMILES IDX 5 24 22 25 23 26 24 27 25 28 26 29 27 30 28 32 29 33 30 34
REMARK SMILES IDX 82 35 31 36 81 37 32 38 33 39 34 40 75 41 35 42 80 43 74 44
REMARK SMILES IDX 76 45 36 46 79 47 73 48 72 49 37 51 63 52 46 53 62 54 47 55
REMARK SMILES IDX 50 56 61 57 77 58 48 59 49 60 60 62 78 63 51 64 38 65 39 66
REMARK SMILES IDX 44 67 40 68 41 69 43 70 45 71 42 72 64 73 65 74 70 75 66 76
REMARK SMILES IDX 67 77 69 78 71 79 68 80 52 81 53 82 58 83 54 84 55 85 57 86
REMARK SMILES IDX 59 87 56 88
REMARK H PARENT 19 6 26 31 76 50 50 61
REMARK Flexibility Score: inf
ROOT
ATOM      1  C   UNL A   1      30.743  27.100  25.865  1.00  0.00     0.021 C 
ENDROOT
BRANCH   1   2
ATOM      2  C   UNL A   1      30.153  25.797  25.331  1.00  0.00     0.116 C 
BRANCH   2   3
ATOM      3  N   UNL A   1      29.871  24.877  26.412  1.00  0.00    -0.356 N 
ATOM      4  C   UNL A   1      30.342  23.635  26.684  1.00  0.00     0.224 C 
ATOM      5  O   UNL A   1      29.804  23.030  27.617  1.00  0.00    -0.275 OA
ATOM      6  H   UNL A   1      29.220  25.215  27.069  1.00  0.00     0.163 HD
BRANCH   4   7
ATOM      7  C   UNL A   1      31.516  23.000  25.950  1.00  0.00     0.098 C 
ATOM      8  N   UNL A   1      33.953  22.696  25.687  1.00  0.00    -0.339 N 
ATOM      9  C   UNL A   1      33.773  21.273  25.376  1.00  0.00     0.119 C 
ATOM     10  C   UNL A   1      32.908  23.277  26.536  1.00  0.00     0.133 C 
ATOM     11  C   UNL A   1      32.398  20.966  24.794  1.00  0.00     0.022 C 
ATOM     12  C   UNL A   1      31.289  21.507  25.693  1.00  0.00     0.017 C 
BRANCH   8  13
ATOM     13  C   UNL A   1      35.107  23.309  25.222  1.00  0.00     0.263 C 
ATOM     14  O   UNL A   1      35.960  23.696  26.037  1.00  0.00    -0.271 OA
BRANCH  13  15
ATOM     15  C   UNL A   1      35.370  23.616  23.718  1.00  0.00     0.259 C 
ATOM     16  C   UNL A   1      36.669  23.137  23.082  1.00  0.00     0.064 C 
BRANCH  15  17
ATOM     17  O   UNL A   1      34.226  23.689  22.868  1.00  0.00    -0.481 OA
BRANCH  17  18
ATOM     18  C   UNL A   1      33.437  24.791  22.785  1.00  0.00     0.120 A 
ATOM     19  C   UNL A   1      34.129  28.545  22.974  1.00  0.00     0.044 C 
ATOM     20  C   UNL A   1      33.425  27.234  22.778  1.00  0.00    -0.047 A 
ATOM     21  C   UNL A   1      32.102  27.210  22.336  1.00  0.00     0.003 A 
ATOM     22  C   UNL A   1      34.078  26.016  23.016  1.00  0.00     0.049 A 
ATOM     23  C   UNL A   1      31.478  25.997  22.058  1.00  0.00     0.004 A 
ATOM     24  C   UNL A   1      32.147  24.791  22.274  1.00  0.00     0.046 A 
ENDBRANCH  17  18
ENDBRANCH  15  17
ENDBRANCH  13  15
ENDBRANCH   8  13
ENDBRANCH   4   7
ENDBRANCH   2   3
ENDBRANCH   1   2
BRANCH   1  25
ATOM     25  C   UNL A   1      32.242  27.072  26.188  1.00  0.00     0.002 C 
BRANCH  25  26
ATOM     26  C   UNL A   1      32.749  28.142  27.164  1.00  0.00     0.002 C 
BRANCH  26  27
ATOM     27  C   UNL A   1      33.468  29.333  26.530  1.00  0.00     0.021 C 
BRANCH  27  28
ATOM     28  C   UNL A   1      34.221  30.226  27.511  1.00  0.00     0.116 C 
BRANCH  28  29
ATOM     29  N   UNL A   1      33.634  31.551  27.665  1.00  0.00    -0.352 N 
ATOM     30  C   UNL A   1      34.060  32.649  28.395  1.00  0.00     0.251 C 
ATOM     31  H   UNL A   1      32.796  31.690  27.167  1.00  0.00     0.163 HD
ATOM     32  O   UNL A   1      33.399  33.673  28.384  1.00  0.00    -0.269 OA
BRANCH  30  33
ATOM     33  C   UNL A   1      35.378  32.630  29.082  1.00  0.00     0.039 A 
ATOM     34  C   UNL A   1      36.437  33.340  28.496  1.00  0.00     0.014 A 
ATOM     35  C   UNL A   1      35.623  31.824  30.187  1.00  0.00     0.014 A 
ATOM     36  C   UNL A   1      37.752  33.038  28.849  1.00  0.00     0.010 A 
ATOM     37  C   UNL A   1      36.921  31.462  30.481  1.00  0.00     0.010 A 
ATOM     38  C   UNL A   1      37.982  32.009  29.758  1.00  0.00    -0.014 A 
BRANCH  38  39
ATOM     39  C   UNL A   1      39.262  31.329  29.905  1.00  0.00     0.031 A 
ATOM     40  C   UNL A   1      39.534  30.042  29.237  1.00  0.00     0.074 A 
ATOM     41  C   UNL A   1      40.265  31.957  30.559  1.00  0.00     0.049 A 
ATOM     42  N   UNL A   1      40.395  29.186  29.673  1.00  0.00    -0.248 NA
ATOM     43  C   UNL A   1      38.845  29.608  28.027  1.00  0.00     0.031 C 
ATOM     44  C   UNL A   1      41.684  31.612  30.543  1.00  0.00     0.029 A 
ATOM     45  N   UNL A   1      40.159  32.947  31.544  1.00  0.00    -0.354 N 
ATOM     46  C   UNL A   1      40.583  28.256  28.681  1.00  0.00     0.074 A 
ATOM     47  C   UNL A   1      39.545  28.514  27.710  1.00  0.00     0.031 C 
ATOM     48  C   UNL A   1      42.271  32.140  31.627  1.00  0.00     0.029 A 
ATOM     49  C   UNL A   1      41.221  32.718  32.445  1.00  0.00     0.049 A 
ATOM     50  H   UNL A   1      39.482  33.660  31.596  1.00  0.00     0.167 HD
ATOM     51  C   UNL A   1      41.685  27.455  28.693  1.00  0.00     0.037 A 
ATOM     52  C   UNL A   1      40.996  32.417  33.756  1.00  0.00     0.037 A 
ATOM     53  C   UNL A   1      42.565  27.754  29.813  1.00  0.00     0.049 A 
ATOM     54  C   UNL A   1      41.594  31.103  34.197  1.00  0.00     0.074 A 
ATOM     55  C   UNL A   1      43.707  28.532  29.917  1.00  0.00     0.029 A 
ATOM     56  N   UNL A   1      42.149  27.493  31.112  1.00  0.00    -0.354 N 
ATOM     57  N   UNL A   1      41.922  30.144  33.376  1.00  0.00    -0.248 NA
ATOM     58  C   UNL A   1      41.856  30.757  35.589  1.00  0.00     0.031 C 
ATOM     59  C   UNL A   1      43.976  28.746  31.288  1.00  0.00     0.029 A 
ATOM     60  C   UNL A   1      43.003  28.091  32.019  1.00  0.00     0.049 A 
ATOM     61  H   UNL A   1      41.359  26.958  31.353  1.00  0.00     0.167 HD
ATOM     62  C   UNL A   1      42.416  29.076  34.086  1.00  0.00     0.074 A 
ATOM     63  C   UNL A   1      42.370  29.520  35.466  1.00  0.00     0.031 C 
ATOM     64  C   UNL A   1      42.813  27.930  33.454  1.00  0.00     0.037 A 
BRANCH  51  65
ATOM     65  C   UNL A   1      42.076  26.633  27.496  1.00  0.00     0.057 A 
ATOM     66  C   UNL A   1      41.857  25.244  27.447  1.00  0.00     0.134 A 
ATOM     67  C   UNL A   1      42.719  27.172  26.369  1.00  0.00     0.134 A 
ATOM     68  F   UNL A   1      41.186  24.600  28.409  1.00  0.00    -0.206 F 
ATOM     69  C   UNL A   1      42.336  24.439  26.408  1.00  0.00     0.040 A 
ATOM     70  C   UNL A   1      43.245  26.373  25.344  1.00  0.00     0.040 A 
ATOM     71  F   UNL A   1      42.856  28.499  26.222  1.00  0.00    -0.206 F 
ATOM     72  C   UNL A   1      43.065  24.997  25.368  1.00  0.00     0.006 A 
ENDBRANCH  51  65
BRANCH  52  73
ATOM     73  C   UNL A   1      39.742  33.009  34.286  1.00  0.00     0.057 A 
ATOM     74  C   UNL A   1      38.577  32.220  34.286  1.00  0.00     0.134 A 
ATOM     75  C   UNL A   1      39.761  34.120  35.132  1.00  0.00     0.134 A 
ATOM     76  F   UNL A   1      38.499  31.135  33.499  1.00  0.00    -0.206 F 
ATOM     77  C   UNL A   1      37.528  32.455  35.177  1.00  0.00     0.040 A 
ATOM     78  C   UNL A   1      38.708  34.372  36.022  1.00  0.00     0.040 A 
ATOM     79  F   UNL A   1      40.845  34.905  35.205  1.00  0.00    -0.206 F 
ATOM     80  C   UNL A   1      37.609  33.516  36.075  1.00  0.00     0.006 A 
ENDBRANCH  52  73
BRANCH  64  81
ATOM     81  C   UNL A   1      43.170  26.591  34.073  1.00  0.00     0.057 A 
ATOM     82  C   UNL A   1      44.457  26.037  34.114  1.00  0.00     0.134 A 
ATOM     83  C   UNL A   1      42.194  25.853  34.794  1.00  0.00     0.134 A 
ATOM     84  F   UNL A   1      45.512  26.659  33.577  1.00  0.00    -0.206 F 
ATOM     85  C   UNL A   1      44.741  24.829  34.772  1.00  0.00     0.040 A 
ATOM     86  C   UNL A   1      42.478  24.680  35.498  1.00  0.00     0.040 A 
ATOM     87  F   UNL A   1      40.915  26.249  34.873  1.00  0.00    -0.206 F 
ATOM     88  C   UNL A   1      43.755  24.153  35.479  1.00  0.00     0.006 A 
ENDBRANCH  64  81
ENDBRANCH  38  39
ENDBRANCH  30  33
ENDBRANCH  28  29
ENDBRANCH  27  28
ENDBRANCH  26  27
ENDBRANCH  25  26
ENDBRANCH   1  25
TORSDOF 17
ENDMDL
MODEL 2
REMARK VINA RESULT:     -11.4      3.967      9.324
REMARK SMILES Cc1cccc(O[C@H](C)C(=O)N2CCC[C@@H](C(=O)NCCCCCCNC(=O)c3ccc(-c4c5nc(c(-c6c(F)cccc6F)c6ccc([nH]6)c(-c6c(F)cccc6F)c6nc(c(-c7c(F)cccc7F)c7ccc4[nH]7)C=C6)C=C5)cc3)C2)c1
REMARK SMILES IDX 21 1 20 2 19 3 17 4 18 5 16 7 12 8 13 9 83 10 14 11 15 12
REMARK SMILES IDX 10 13 11 14 8 15 9 16 7 17 6 18 1 19 2 20 3 21 84 22 4 23
REMARK SMILES IDX 5 24 22 25 23 26 24 27 25 28 26 29 27 30 28 32 29 33 30 34
REMARK SMILES IDX 82 35 31 36 81 37 32 38 33 39 34 40 75 41 35 42 80 43 74 44
REMARK SMILES IDX 76 45 36 46 79 47 73 48 72 49 37 51 63 52 46 53 62 54 47 55
REMARK SMILES IDX 50 56 61 57 77 58 48 59 49 60 60 62 78 63 51 64 38 65 39 66
REMARK SMILES IDX 44 67 40 68 41 69 43 70 45 71 42 72 64 73 65 74 70 75 66 76
REMARK SMILES IDX 67 77 69 78 71 79 68 80 52 81 53 82 58 83 54 84 55 85 57 86
REMARK SMILES IDX 59 87 56 88
REMARK H PARENT 19 6 26 31 76 50 50 61
REMARK Flexibility Score: inf
ROOT
ATOM      1  C   UNL A   1      38.503  23.775  26.203  1.00  0.00     0.021 C 
ENDROOT
BRANCH   1   2
ATOM      2  C   UNL A   1      37.487  22.747  25.711  1.00  0.00     0.116 C 
BRANCH   2   3
ATOM      3  N   UNL A   1      36.924  23.148  24.439  1.00  0.00    -0.356 N 
ATOM      4  C   UNL A   1      35.680  23.004  23.920  1.00  0.00     0.224 C 
ATOM      5  O   UNL A   1      35.532  23.327  22.737  1.00  0.00    -0.275 OA
ATOM      6  H   UNL A   1      37.559  23.609  23.844  1.00  0.00     0.163 HD
BRANCH   4   7
ATOM      7  C   UNL A   1      34.478  22.536  24.730  1.00  0.00     0.098 C 
ATOM      8  N   UNL A   1      32.142  22.864  25.463  1.00  0.00    -0.339 N 
ATOM      9  C   UNL A   1      31.880  21.422  25.378  1.00  0.00     0.119 C 
ATOM     10  C   UNL A   1      33.190  23.353  24.561  1.00  0.00     0.133 C 
ATOM     11  C   UNL A   1      33.143  20.583  25.540  1.00  0.00     0.022 C 
ATOM     12  C   UNL A   1      34.229  21.033  24.566  1.00  0.00     0.017 C 
BRANCH   8  13
ATOM     13  C   UNL A   1      31.336  23.609  26.311  1.00  0.00     0.263 C 
ATOM     14  O   UNL A   1      30.737  23.038  27.237  1.00  0.00    -0.271 OA
BRANCH  13  15
ATOM     15  C   UNL A   1      31.073  25.132  26.126  1.00  0.00     0.259 C 
ATOM     16  C   UNL A   1      29.672  25.600  25.754  1.00  0.00     0.064 C 
BRANCH  15  17
ATOM     17  O   UNL A   1      31.859  26.021  26.919  1.00  0.00    -0.481 OA
BRANCH  17  18
ATOM     18  C   UNL A   1      32.220  27.261  26.501  1.00  0.00     0.120 A 
ATOM     19  C   UNL A   1      34.030  28.572  23.401  1.00  0.00     0.044 C 
ATOM     20  C   UNL A   1      33.259  28.526  24.687  1.00  0.00    -0.047 A 
ATOM     21  C   UNL A   1      32.789  29.707  25.263  1.00  0.00     0.003 A 
ATOM     22  C   UNL A   1      32.983  27.309  25.326  1.00  0.00     0.049 A 
ATOM     23  C   UNL A   1      31.990  29.661  26.402  1.00  0.00     0.004 A 
ATOM     24  C   UNL A   1      31.699  28.441  27.015  1.00  0.00     0.046 A 
ENDBRANCH  17  18
ENDBRANCH  15  17
ENDBRANCH  13  15
ENDBRANCH   8  13
ENDBRANCH   4   7
ENDBRANCH   2   3
ENDBRANCH   1   2
BRANCH   1  25
ATOM     25  C   UNL A   1      39.539  23.260  27.212  1.00  0.00     0.002 C 
BRANCH  25  26
ATOM     26  C   UNL A   1      40.110  21.861  26.948  1.00  0.00     0.002 C 
BRANCH  26  27
ATOM     27  C   UNL A   1      41.353  21.807  26.060  1.00  0.00     0.021 C 
BRANCH  27  28
ATOM     28  C   UNL A   1      42.380  20.750  26.455  1.00  0.00     0.116 C 
BRANCH  28  29
ATOM     29  N   UNL A   1      43.249  20.341  25.359  1.00  0.00    -0.352 N 
ATOM     30  C   UNL A   1      44.297  21.004  24.741  1.00  0.00     0.251 C 
ATOM     31  H   UNL A   1      43.062  19.444  25.000  1.00  0.00     0.163 HD
ATOM     32  O   UNL A   1      44.893  20.465  23.825  1.00  0.00    -0.269 OA
BRANCH  30  33
ATOM     33  C   UNL A   1      44.780  22.307  25.270  1.00  0.00     0.039 A 
ATOM     34  C   UNL A   1      45.339  22.329  26.556  1.00  0.00     0.014 A 
ATOM     35  C   UNL A   1      44.562  23.503  24.597  1.00  0.00     0.014 A 
ATOM     36  C   UNL A   1      45.429  23.535  27.252  1.00  0.00     0.010 A 
ATOM     37  C   UNL A   1      44.571  24.685  25.308  1.00  0.00     0.010 A 
ATOM     38  C   UNL A   1      44.927  24.689  26.657  1.00  0.00    -0.014 A 
BRANCH  38  39
ATOM     39  C   UNL A   1      44.586  25.899  27.395  1.00  0.00     0.031 A 
ATOM     40  C   UNL A   1      43.209  26.422  27.427  1.00  0.00     0.074 A 
ATOM     41  C   UNL A   1      45.529  26.476  28.174  1.00  0.00     0.049 A 
ATOM     42  N   UNL A   1      42.927  27.665  27.631  1.00  0.00    -0.248 NA
ATOM     43  C   UNL A   1      42.031  25.587  27.216  1.00  0.00     0.031 C 
ATOM     44  C   UNL A   1      45.321  27.473  29.221  1.00  0.00     0.029 A 
ATOM     45  N   UNL A   1      46.921  26.403  28.033  1.00  0.00    -0.354 N 
ATOM     46  C   UNL A   1      41.576  27.743  27.865  1.00  0.00     0.074 A 
ATOM     47  C   UNL A   1      41.049  26.442  27.522  1.00  0.00     0.031 C 
ATOM     48  C   UNL A   1      46.476  28.122  29.437  1.00  0.00     0.029 A 
ATOM     49  C   UNL A   1      47.420  27.661  28.436  1.00  0.00     0.049 A 
ATOM     50  H   UNL A   1      47.445  25.632  27.718  1.00  0.00     0.167 HD
ATOM     51  C   UNL A   1      41.049  28.843  28.469  1.00  0.00     0.037 A 
ATOM     52  C   UNL A   1      48.105  28.469  27.577  1.00  0.00     0.037 A 
ATOM     53  C   UNL A   1      42.073  29.815  28.824  1.00  0.00     0.049 A 
ATOM     54  C   UNL A   1      47.488  29.834  27.392  1.00  0.00     0.074 A 
ATOM     55  C   UNL A   1      42.747  30.064  30.010  1.00  0.00     0.029 A 
ATOM     56  N   UNL A   1      42.773  30.484  27.828  1.00  0.00    -0.354 N 
ATOM     57  N   UNL A   1      46.242  30.108  27.657  1.00  0.00    -0.248 NA
ATOM     58  C   UNL A   1      48.216  30.991  26.882  1.00  0.00     0.031 C 
ATOM     59  C   UNL A   1      43.862  30.884  29.724  1.00  0.00     0.029 A 
ATOM     60  C   UNL A   1      43.863  31.141  28.365  1.00  0.00     0.049 A 
ATOM     61  H   UNL A   1      42.526  30.489  26.876  1.00  0.00     0.167 HD
ATOM     62  C   UNL A   1      45.984  31.426  27.362  1.00  0.00     0.074 A 
ATOM     63  C   UNL A   1      47.260  31.937  26.898  1.00  0.00     0.031 C 
ATOM     64  C   UNL A   1      44.737  31.958  27.534  1.00  0.00     0.037 A 
BRANCH  51  65
ATOM     65  C   UNL A   1      39.642  28.856  28.998  1.00  0.00     0.057 A 
ATOM     66  C   UNL A   1      38.566  29.340  28.233  1.00  0.00     0.134 A 
ATOM     67  C   UNL A   1      39.303  28.431  30.294  1.00  0.00     0.134 A 
ATOM     68  F   UNL A   1      38.717  29.707  26.954  1.00  0.00    -0.206 F 
ATOM     69  C   UNL A   1      37.275  29.491  28.751  1.00  0.00     0.040 A 
ATOM     70  C   UNL A   1      38.026  28.617  30.842  1.00  0.00     0.040 A 
ATOM     71  F   UNL A   1      40.203  27.812  31.074  1.00  0.00    -0.206 F 
ATOM     72  C   UNL A   1      37.009  29.163  30.072  1.00  0.00     0.006 A 
ENDBRANCH  51  65
BRANCH  52  73
ATOM     73  C   UNL A   1      48.853  27.717  26.537  1.00  0.00     0.057 A 
ATOM     74  C   UNL A   1      48.249  27.531  25.281  1.00  0.00     0.134 A 
ATOM     75  C   UNL A   1      50.239  27.556  26.610  1.00  0.00     0.134 A 
ATOM     76  F   UNL A   1      46.921  27.679  25.145  1.00  0.00    -0.206 F 
ATOM     77  C   UNL A   1      49.002  27.315  24.125  1.00  0.00     0.040 A 
ATOM     78  C   UNL A   1      51.003  27.327  25.458  1.00  0.00     0.040 A 
ATOM     79  F   UNL A   1      50.889  27.741  27.766  1.00  0.00    -0.206 F 
ATOM     80  C   UNL A   1      50.390  27.248  24.208  1.00  0.00     0.006 A 
ENDBRANCH  52  73
BRANCH  64  81
ATOM     81  C   UNL A   1      44.216  33.304  27.065  1.00  0.00     0.057 A 
ATOM     82  C   UNL A   1      43.821  33.605  25.754  1.00  0.00     0.134 A 
ATOM     83  C   UNL A   1      43.964  34.341  28.002  1.00  0.00     0.134 A 
ATOM     84  F   UNL A   1      43.890  32.702  24.769  1.00  0.00    -0.206 F 
ATOM     85  C   UNL A   1      43.271  34.846  25.394  1.00  0.00     0.040 A 
ATOM     86  C   UNL A   1      43.366  35.558  27.664  1.00  0.00     0.040 A 
ATOM     87  F   UNL A   1      44.264  34.215  29.303  1.00  0.00    -0.206 F 
ATOM     88  C   UNL A   1      43.028  35.823  26.351  1.00  0.00     0.006 A 
ENDBRANCH  64  81
ENDBRANCH  38  39
ENDBRANCH  30  33
ENDBRANCH  28  29
ENDBRANCH  27  28
ENDBRANCH  26  27
ENDBRANCH  25  26
ENDBRANCH   1  25
TORSDOF 17
ENDMDL
MODEL 3
REMARK VINA RESULT:     -11.3      2.979      8.428
REMARK SMILES Cc1cccc(O[C@H](C)C(=O)N2CCC[C@@H](C(=O)NCCCCCCNC(=O)c3ccc(-c4c5nc(c(-c6c(F)cccc6F)c6ccc([nH]6)c(-c6c(F)cccc6F)c6nc(c(-c7c(F)cccc7F)c7ccc4[nH]7)C=C6)C=C5)cc3)C2)c1
REMARK SMILES IDX 21 1 20 2 19 3 17 4 18 5 16 7 12 8 13 9 83 10 14 11 15 12
REMARK SMILES IDX 10 13 11 14 8 15 9 16 7 17 6 18 1 19 2 20 3 21 84 22 4 23
REMARK SMILES IDX 5 24 22 25 23 26 24 27 25 28 26 29 27 30 28 32 29 33 30 34
REMARK SMILES IDX 82 35 31 36 81 37 32 38 33 39 34 40 75 41 35 42 80 43 74 44
REMARK SMILES IDX 76 45 36 46 79 47 73 48 72 49 37 51 63 52 46 53 62 54 47 55
REMARK SMILES IDX 50 56 61 57 77 58 48 59 49 60 60 62 78 63 51 64 38 65 39 66
REMARK SMILES IDX 44 67 40 68 41 69 43 70 45 71 42 72 64 73 65 74 70 75 66 76
REMARK SMILES IDX 67 77 69 78 71 79 68 80 52 81 53 82 58 83 54 84 55 85 57 86
REMARK SMILES IDX 59 87 56 88
REMARK H PARENT 19 6 26 31 76 50 50 61
REMARK Flexibility Score: inf
ROOT
ATOM      1  C   UNL A   1      34.255  22.591  23.105  1.00  0.00     0.021 C 
ENDROOT
BRANCH   1   2
ATOM      2  C   UNL A   1      32.976  23.366  22.797  1.00  0.00     0.116 C 
BRANCH   2   3
ATOM      3  N   UNL A   1      33.105  24.101  21.556  1.00  0.00    -0.356 N 
ATOM      4  C   UNL A   1      32.969  25.419  21.273  1.00  0.00     0.224 C 
ATOM      5  O   UNL A   1      33.001  25.736  20.079  1.00  0.00    -0.275 OA
ATOM      6  H   UNL A   1      33.333  23.542  20.778  1.00  0.00     0.163 HD
BRANCH   4   7
ATOM      7  C   UNL A   1      32.848  26.502  22.338  1.00  0.00     0.098 C 
ATOM      8  N   UNL A   1      32.753  27.149  24.720  1.00  0.00    -0.339 N 
ATOM      9  C   UNL A   1      33.561  28.346  24.459  1.00  0.00     0.119 C 
ATOM     10  C   UNL A   1      32.987  26.035  23.794  1.00  0.00     0.133 C 
ATOM     11  C   UNL A   1      33.446  28.833  23.018  1.00  0.00     0.022 C 
ATOM     12  C   UNL A   1      33.745  27.706  22.033  1.00  0.00     0.017 C 
BRANCH   8  13
ATOM     13  C   UNL A   1      31.931  27.165  25.836  1.00  0.00     0.263 C 
ATOM     14  O   UNL A   1      32.263  27.837  26.826  1.00  0.00    -0.271 OA
BRANCH  13  15
ATOM     15  C   UNL A   1      30.629  26.318  25.956  1.00  0.00     0.259 C 
ATOM     16  C   UNL A   1      29.673  26.262  24.771  1.00  0.00     0.064 C 
BRANCH  15  17
ATOM     17  O   UNL A   1      30.690  25.161  26.790  1.00  0.00    -0.481 OA
BRANCH  17  18
ATOM     18  C   UNL A   1      31.303  24.010  26.412  1.00  0.00     0.120 A 
ATOM     19  C   UNL A   1      34.564  22.302  27.439  1.00  0.00     0.044 C 
ATOM     20  C   UNL A   1      33.229  22.559  26.804  1.00  0.00    -0.047 A 
ATOM     21  C   UNL A   1      32.609  21.561  26.050  1.00  0.00     0.003 A 
ATOM     22  C   UNL A   1      32.573  23.788  26.962  1.00  0.00     0.049 A 
ATOM     23  C   UNL A   1      31.328  21.759  25.542  1.00  0.00     0.004 A 
ATOM     24  C   UNL A   1      30.674  22.979  25.730  1.00  0.00     0.046 A 
ENDBRANCH  17  18
ENDBRANCH  15  17
ENDBRANCH  13  15
ENDBRANCH   8  13
ENDBRANCH   4   7
ENDBRANCH   2   3
ENDBRANCH   1   2
BRANCH   1  25
ATOM     25  C   UNL A   1      35.359  23.382  23.819  1.00  0.00     0.002 C 
BRANCH  25  26
ATOM     26  C   UNL A   1      36.803  22.952  23.528  1.00  0.00     0.002 C 
BRANCH  26  27
ATOM     27  C   UNL A   1      37.402  21.933  24.498  1.00  0.00     0.021 C 
BRANCH  27  28
ATOM     28  C   UNL A   1      37.885  22.514  25.823  1.00  0.00     0.116 C 
BRANCH  28  29
ATOM     29  N   UNL A   1      39.311  22.324  26.059  1.00  0.00    -0.352 N 
ATOM     30  C   UNL A   1      40.280  23.212  26.502  1.00  0.00     0.251 C 
ATOM     31  H   UNL A   1      39.641  21.416  25.874  1.00  0.00     0.163 HD
ATOM     32  O   UNL A   1      41.432  22.833  26.625  1.00  0.00    -0.269 OA
BRANCH  30  33
ATOM     33  C   UNL A   1      39.901  24.577  26.951  1.00  0.00     0.039 A 
ATOM     34  C   UNL A   1      40.364  25.670  26.201  1.00  0.00     0.014 A 
ATOM     35  C   UNL A   1      39.240  24.802  28.152  1.00  0.00     0.014 A 
ATOM     36  C   UNL A   1      40.394  26.940  26.775  1.00  0.00     0.010 A 
ATOM     37  C   UNL A   1      39.343  26.039  28.755  1.00  0.00     0.010 A 
ATOM     38  C   UNL A   1      39.992  27.086  28.100  1.00  0.00    -0.014 A 
BRANCH  38  39
ATOM     39  C   UNL A   1      40.344  28.229  28.933  1.00  0.00     0.031 A 
ATOM     40  C   UNL A   1      39.355  29.264  29.281  1.00  0.00     0.074 A 
ATOM     41  C   UNL A   1      41.569  28.268  29.504  1.00  0.00     0.049 A 
ATOM     42  N   UNL A   1      39.674  30.478  29.580  1.00  0.00    -0.248 NA
ATOM     43  C   UNL A   1      37.917  29.020  29.307  1.00  0.00     0.031 C 
ATOM     44  C   UNL A   1      42.005  29.127  30.603  1.00  0.00     0.029 A 
ATOM     45  N   UNL A   1      42.743  27.647  29.061  1.00  0.00    -0.354 N 
ATOM     46  C   UNL A   1      38.556  31.076  30.106  1.00  0.00     0.074 A 
ATOM     47  C   UNL A   1      37.470  30.159  29.846  1.00  0.00     0.031 C 
ATOM     48  C   UNL A   1      43.344  29.213  30.581  1.00  0.00     0.029 A 
ATOM     49  C   UNL A   1      43.798  28.529  29.384  1.00  0.00     0.049 A 
ATOM     50  H   UNL A   1      42.819  26.773  28.615  1.00  0.00     0.167 HD
ATOM     51  C   UNL A   1      38.672  32.214  30.845  1.00  0.00     0.037 A 
ATOM     52  C   UNL A   1      44.591  29.081  28.422  1.00  0.00     0.037 A 
ATOM     53  C   UNL A   1      40.059  32.627  30.999  1.00  0.00     0.049 A 
ATOM     54  C   UNL A   1      44.595  30.590  28.419  1.00  0.00     0.074 A 
ATOM     55  C   UNL A   1      40.980  32.431  32.016  1.00  0.00     0.029 A 
ATOM     56  N   UNL A   1      40.781  33.065  29.896  1.00  0.00    -0.354 N 
ATOM     57  N   UNL A   1      43.658  31.319  28.959  1.00  0.00    -0.248 NA
ATOM     58  C   UNL A   1      45.640  31.398  27.800  1.00  0.00     0.031 C 
ATOM     59  C   UNL A   1      42.266  32.748  31.519  1.00  0.00     0.029 A 
ATOM     60  C   UNL A   1      42.125  33.145  30.202  1.00  0.00     0.049 A 
ATOM     61  H   UNL A   1      40.389  33.286  29.020  1.00  0.00     0.167 HD
ATOM     62  C   UNL A   1      43.939  32.651  28.769  1.00  0.00     0.074 A 
ATOM     63  C   UNL A   1      45.201  32.644  28.054  1.00  0.00     0.031 C 
ATOM     64  C   UNL A   1      43.095  33.624  29.226  1.00  0.00     0.037 A 
BRANCH  51  65
ATOM     65  C   UNL A   1      37.530  32.740  31.669  1.00  0.00     0.057 A 
ATOM     66  C   UNL A   1      37.336  32.347  33.006  1.00  0.00     0.134 A 
ATOM     67  C   UNL A   1      36.557  33.619  31.164  1.00  0.00     0.134 A 
ATOM     68  F   UNL A   1      38.220  31.576  33.651  1.00  0.00    -0.206 F 
ATOM     69  C   UNL A   1      36.207  32.712  33.747  1.00  0.00     0.040 A 
ATOM     70  C   UNL A   1      35.398  33.957  31.877  1.00  0.00     0.040 A 
ATOM     71  F   UNL A   1      36.700  34.186  29.956  1.00  0.00    -0.206 F 
ATOM     72  C   UNL A   1      35.214  33.491  33.172  1.00  0.00     0.006 A 
ENDBRANCH  51  65
BRANCH  52  73
ATOM     73  C   UNL A   1      44.740  28.221  27.221  1.00  0.00     0.057 A 
ATOM     74  C   UNL A   1      45.627  27.131  27.284  1.00  0.00     0.134 A 
ATOM     75  C   UNL A   1      43.768  28.196  26.217  1.00  0.00     0.134 A 
ATOM     76  F   UNL A   1      46.579  27.092  28.230  1.00  0.00    -0.206 F 
ATOM     77  C   UNL A   1      45.478  26.011  26.464  1.00  0.00     0.040 A 
ATOM     78  C   UNL A   1      43.618  27.082  25.381  1.00  0.00     0.040 A 
ATOM     79  F   UNL A   1      42.872  29.186  26.110  1.00  0.00    -0.206 F 
ATOM     80  C   UNL A   1      44.446  25.970  25.531  1.00  0.00     0.006 A 
ENDBRANCH  52  73
BRANCH  64  81
ATOM     81  C   UNL A   1      43.123  35.111  28.924  1.00  0.00     0.057 A 
ATOM     82  C   UNL A   1      43.401  36.120  29.857  1.00  0.00     0.134 A 
ATOM     83  C   UNL A   1      42.993  35.573  27.587  1.00  0.00     0.134 A 
ATOM     84  F   UNL A   1      43.656  35.845  31.141  1.00  0.00    -0.206 F 
ATOM     85  C   UNL A   1      43.493  37.476  29.502  1.00  0.00     0.040 A 
ATOM     86  C   UNL A   1      43.138  36.912  27.216  1.00  0.00     0.040 A 
ATOM     87  F   UNL A   1      42.744  34.740  26.566  1.00  0.00    -0.206 F 
ATOM     88  C   UNL A   1      43.376  37.876  28.177  1.00  0.00     0.006 A 
ENDBRANCH  64  81
ENDBRANCH  38  39
ENDBRANCH  30  33
ENDBRANCH  28  29
ENDBRANCH  27  28
ENDBRANCH  26  27
ENDBRANCH  25  26
ENDBRANCH   1  25
TORSDOF 17
ENDMDL
