MODEL 1
REMARK VINA RESULT:     -11.7      0.000      0.000
REMARK SMILES COc1ccc2cc([C@H](C)C(=O)NCCCCCCNC(=O)c3ccc(-c4c5nc(c(-c6c(F)cccc6F)c6ccc([nH]6)c(-c6c(F)cccc6F)c6nc(c(-c7c(F)cccc7F)c7ccc4[nH]7)C=C6)C=C5)cc3)ccc2c1
REMARK SMILES IDX 16 1 15 2 14 3 13 4 11 5 12 6 9 8 10 9 8 10 3 11 4 12 80 13
REMARK SMILES IDX 5 14 79 15 6 16 78 17 7 18 77 19 2 20 1 21 17 22 18 23 19 24
REMARK SMILES IDX 20 25 21 26 22 28 23 29 24 30 76 31 25 32 75 33 26 34 27 35
REMARK SMILES IDX 28 36 69 37 29 38 74 39 68 40 70 41 30 42 73 43 67 44 66 45
REMARK SMILES IDX 31 47 57 48 40 49 56 50 41 51 44 52 55 53 71 54 42 55 43 56
REMARK SMILES IDX 54 58 72 59 45 60 32 61 33 62 38 63 34 64 35 65 37 66 39 67
REMARK SMILES IDX 36 68 58 69 59 70 64 71 60 72 61 73 63 74 65 75 62 76 46 77
REMARK SMILES IDX 47 78 52 79 48 80 49 81 51 82 53 83 50 84
REMARK H PARENT 13 7 20 27 70 46 44 57
REMARK Flexibility Score: inf
ROOT
ATOM      1  C   UNL A   1      35.988  21.820  24.477  1.00  0.00     0.002 C 
ENDROOT
BRANCH   1   2
ATOM      2  C   UNL A   1      35.922  22.949  25.507  1.00  0.00     0.021 C 
BRANCH   2   3
ATOM      3  C   UNL A   1      34.867  24.015  25.243  1.00  0.00     0.116 C 
BRANCH   3   4
ATOM      4  N   UNL A   1      34.673  24.289  23.836  1.00  0.00    -0.356 N 
ATOM      5  C   UNL A   1      33.526  24.220  23.099  1.00  0.00     0.227 C 
ATOM      6  O   UNL A   1      33.571  24.620  21.931  1.00  0.00    -0.274 OA
ATOM      7  H   UNL A   1      35.480  24.563  23.343  1.00  0.00     0.163 HD
BRANCH   5   8
ATOM      8  C   UNL A   1      32.219  23.653  23.685  1.00  0.00     0.105 C 
ATOM      9  C   UNL A   1      31.002  24.477  23.242  1.00  0.00     0.023 C 
BRANCH   8  10
ATOM     10  C   UNL A   1      32.163  22.133  23.560  1.00  0.00    -0.035 A 
ATOM     11  C   UNL A   1      33.009  17.200  24.436  1.00  0.00     0.119 A 
ATOM     12  C   UNL A   1      33.063  17.815  25.683  1.00  0.00     0.047 A 
ATOM     13  C   UNL A   1      32.726  17.945  23.294  1.00  0.00     0.055 A 
ATOM     14  C   UNL A   1      32.844  19.191  25.786  1.00  0.00     0.012 A 
ATOM     15  C   UNL A   1      32.478  19.321  23.388  1.00  0.00    -0.015 A 
ATOM     16  C   UNL A   1      32.569  19.962  24.643  1.00  0.00    -0.018 A 
ATOM     17  C   UNL A   1      32.155  20.077  22.257  1.00  0.00     0.009 A 
ATOM     18  C   UNL A   1      32.422  21.359  24.708  1.00  0.00     0.013 A 
ATOM     19  C   UNL A   1      31.974  21.458  22.348  1.00  0.00     0.005 A 
BRANCH  11  20
ATOM     20  O   UNL A   1      33.311  15.878  24.258  1.00  0.00    -0.497 OA
ATOM     21  C   UNL A   1      32.773  15.067  25.300  1.00  0.00     0.278 C 
ENDBRANCH  11  20
ENDBRANCH   8  10
ENDBRANCH   5   8
ENDBRANCH   3   4
ENDBRANCH   2   3
ENDBRANCH   1   2
BRANCH   1  22
ATOM     22  C   UNL A   1      36.363  20.439  25.022  1.00  0.00     0.002 C 
BRANCH  22  23
ATOM     23  C   UNL A   1      37.769  19.939  24.681  1.00  0.00     0.021 C 
BRANCH  23  24
ATOM     24  C   UNL A   1      38.854  20.263  25.704  1.00  0.00     0.116 C 
BRANCH  24  25
ATOM     25  N   UNL A   1      39.857  19.218  25.814  1.00  0.00    -0.352 N 
ATOM     26  C   UNL A   1      41.193  19.310  26.117  1.00  0.00     0.251 C 
ATOM     27  H   UNL A   1      39.529  18.305  25.646  1.00  0.00     0.163 HD
ATOM     28  O   UNL A   1      41.912  18.321  26.026  1.00  0.00    -0.269 OA
BRANCH  26  29
ATOM     29  C   UNL A   1      41.779  20.605  26.527  1.00  0.00     0.039 A 
ATOM     30  C   UNL A   1      42.174  21.506  25.534  1.00  0.00     0.014 A 
ATOM     31  C   UNL A   1      41.955  20.929  27.875  1.00  0.00     0.014 A 
ATOM     32  C   UNL A   1      42.681  22.758  25.890  1.00  0.00     0.010 A 
ATOM     33  C   UNL A   1      42.402  22.201  28.230  1.00  0.00     0.010 A 
ATOM     34  C   UNL A   1      42.765  23.129  27.242  1.00  0.00    -0.014 A 
BRANCH  34  35
ATOM     35  C   UNL A   1      43.210  24.490  27.640  1.00  0.00     0.031 A 
ATOM     36  C   UNL A   1      42.203  25.532  28.041  1.00  0.00     0.074 A 
ATOM     37  C   UNL A   1      44.518  24.806  27.576  1.00  0.00     0.049 A 
ATOM     38  N   UNL A   1      42.389  26.796  28.324  1.00  0.00    -0.248 NA
ATOM     39  C   UNL A   1      40.797  25.102  28.112  1.00  0.00     0.031 C 
ATOM     40  C   UNL A   1      45.591  23.896  27.169  1.00  0.00     0.029 A 
ATOM     41  N   UNL A   1      45.167  25.988  27.836  1.00  0.00    -0.354 N 
ATOM     42  C   UNL A   1      41.129  27.314  28.598  1.00  0.00     0.074 A 
ATOM     43  C   UNL A   1      40.180  26.239  28.401  1.00  0.00     0.031 C 
ATOM     44  C   UNL A   1      46.763  24.549  27.215  1.00  0.00     0.029 A 
ATOM     45  C   UNL A   1      46.522  25.931  27.616  1.00  0.00     0.049 A 
ATOM     46  H   UNL A   1      44.705  26.798  28.151  1.00  0.00     0.167 HD
ATOM     47  C   UNL A   1      40.796  28.564  28.997  1.00  0.00     0.037 A 
ATOM     48  C   UNL A   1      47.463  26.890  27.709  1.00  0.00     0.037 A 
ATOM     49  C   UNL A   1      41.743  29.628  29.209  1.00  0.00     0.049 A 
ATOM     50  C   UNL A   1      47.062  28.277  28.132  1.00  0.00     0.074 A 
ATOM     51  C   UNL A   1      41.505  30.917  29.654  1.00  0.00     0.029 A 
ATOM     52  N   UNL A   1      43.108  29.526  28.992  1.00  0.00    -0.354 N 
ATOM     53  N   UNL A   1      45.873  28.736  28.437  1.00  0.00    -0.248 NA
ATOM     54  C   UNL A   1      48.135  29.276  28.227  1.00  0.00     0.031 C 
ATOM     55  C   UNL A   1      42.720  31.607  29.668  1.00  0.00     0.029 A 
ATOM     56  C   UNL A   1      43.723  30.735  29.276  1.00  0.00     0.049 A 
ATOM     57  H   UNL A   1      43.572  28.715  28.683  1.00  0.00     0.167 HD
ATOM     58  C   UNL A   1      46.058  30.068  28.786  1.00  0.00     0.074 A 
ATOM     59  C   UNL A   1      47.476  30.338  28.671  1.00  0.00     0.031 C 
ATOM     60  C   UNL A   1      45.137  30.985  29.165  1.00  0.00     0.037 A 
BRANCH  47  61
ATOM     61  C   UNL A   1      39.343  28.852  29.240  1.00  0.00     0.057 A 
ATOM     62  C   UNL A   1      38.758  28.669  30.501  1.00  0.00     0.134 A 
ATOM     63  C   UNL A   1      38.533  29.369  28.221  1.00  0.00     0.134 A 
ATOM     64  F   UNL A   1      39.477  28.167  31.517  1.00  0.00    -0.206 F 
ATOM     65  C   UNL A   1      37.416  28.972  30.734  1.00  0.00     0.040 A 
ATOM     66  C   UNL A   1      37.197  29.701  28.449  1.00  0.00     0.040 A 
ATOM     67  F   UNL A   1      39.032  29.575  26.993  1.00  0.00    -0.206 F 
ATOM     68  C   UNL A   1      36.634  29.497  29.707  1.00  0.00     0.006 A 
ENDBRANCH  47  61
BRANCH  48  69
ATOM     69  C   UNL A   1      48.881  26.579  27.396  1.00  0.00     0.057 A 
ATOM     70  C   UNL A   1      49.390  26.749  26.102  1.00  0.00     0.134 A 
ATOM     71  C   UNL A   1      49.752  26.079  28.370  1.00  0.00     0.134 A 
ATOM     72  F   UNL A   1      48.598  27.206  25.121  1.00  0.00    -0.206 F 
ATOM     73  C   UNL A   1      50.704  26.409  25.783  1.00  0.00     0.040 A 
ATOM     74  C   UNL A   1      51.078  25.760  28.071  1.00  0.00     0.040 A 
ATOM     75  F   UNL A   1      49.330  25.898  29.630  1.00  0.00    -0.206 F 
ATOM     76  C   UNL A   1      51.555  25.916  26.771  1.00  0.00     0.006 A 
ENDBRANCH  48  69
BRANCH  60  77
ATOM     77  C   UNL A   1      45.638  32.355  29.517  1.00  0.00     0.057 A 
ATOM     78  C   UNL A   1      46.064  32.677  30.812  1.00  0.00     0.134 A 
ATOM     79  C   UNL A   1      45.726  33.356  28.540  1.00  0.00     0.134 A 
ATOM     80  F   UNL A   1      45.992  31.768  31.796  1.00  0.00    -0.206 F 
ATOM     81  C   UNL A   1      46.536  33.951  31.129  1.00  0.00     0.040 A 
ATOM     82  C   UNL A   1      46.221  34.625  28.839  1.00  0.00     0.040 A 
ATOM     83  F   UNL A   1      45.342  33.110  27.278  1.00  0.00    -0.206 F 
ATOM     84  C   UNL A   1      46.623  34.928  30.138  1.00  0.00     0.006 A 
ENDBRANCH  60  77
ENDBRANCH  34  35
ENDBRANCH  26  29
ENDBRANCH  24  25
ENDBRANCH  23  24
ENDBRANCH  22  23
ENDBRANCH   1  22
TORSDOF 15
ENDMDL
MODEL 2
REMARK VINA RESULT:     -11.6      1.222      6.260
REMARK SMILES COc1ccc2cc([C@H](C)C(=O)NCCCCCCNC(=O)c3ccc(-c4c5nc(c(-c6c(F)cccc6F)c6ccc([nH]6)c(-c6c(F)cccc6F)c6nc(c(-c7c(F)cccc7F)c7ccc4[nH]7)C=C6)C=C5)cc3)ccc2c1
REMARK SMILES IDX 16 1 15 2 14 3 13 4 11 5 12 6 9 8 10 9 8 10 3 11 4 12 80 13
REMARK SMILES IDX 5 14 79 15 6 16 78 17 7 18 77 19 2 20 1 21 17 22 18 23 19 24
REMARK SMILES IDX 20 25 21 26 22 28 23 29 24 30 76 31 25 32 75 33 26 34 27 35
REMARK SMILES IDX 28 36 69 37 29 38 74 39 68 40 70 41 30 42 73 43 67 44 66 45
REMARK SMILES IDX 31 47 57 48 40 49 56 50 41 51 44 52 55 53 71 54 42 55 43 56
REMARK SMILES IDX 54 58 72 59 45 60 32 61 33 62 38 63 34 64 35 65 37 66 39 67
REMARK SMILES IDX 36 68 58 69 59 70 64 71 60 72 61 73 63 74 65 75 62 76 46 77
REMARK SMILES IDX 47 78 52 79 48 80 49 81 51 82 53 83 50 84
REMARK H PARENT 13 7 20 27 70 46 44 57
REMARK Flexibility Score: inf
ROOT
ATOM      1  C   UNL A   1      35.915  21.775  24.265  1.00  0.00     0.002 C 
ENDROOT
BRANCH   1   2
ATOM      2  C   UNL A   1      35.959  23.008  25.168  1.00  0.00     0.021 C 
BRANCH   2   3
ATOM      3  C   UNL A   1      34.835  24.014  24.960  1.00  0.00     0.116 C 
BRANCH   3   4
ATOM      4  N   UNL A   1      34.551  24.270  23.565  1.00  0.00    -0.356 N 
ATOM      5  C   UNL A   1      33.365  24.163  22.897  1.00  0.00     0.227 C 
ATOM      6  O   UNL A   1      33.331  24.553  21.726  1.00  0.00    -0.274 OA
ATOM      7  H   UNL A   1      35.319  24.562  23.023  1.00  0.00     0.163 HD
BRANCH   5   8
ATOM      8  C   UNL A   1      32.111  23.565  23.563  1.00  0.00     0.105 C 
ATOM      9  C   UNL A   1      30.847  24.348  23.184  1.00  0.00     0.023 C 
BRANCH   8  10
ATOM     10  C   UNL A   1      32.092  22.042  23.454  1.00  0.00    -0.035 A 
ATOM     11  C   UNL A   1      33.006  17.139  24.425  1.00  0.00     0.119 A 
ATOM     12  C   UNL A   1      32.997  17.770  25.666  1.00  0.00     0.047 A 
ATOM     13  C   UNL A   1      32.754  17.864  23.264  1.00  0.00     0.055 A 
ATOM     14  C   UNL A   1      32.745  19.142  25.742  1.00  0.00     0.012 A 
ATOM     15  C   UNL A   1      32.474  19.236  23.331  1.00  0.00    -0.015 A 
ATOM     16  C   UNL A   1      32.500  19.893  24.580  1.00  0.00    -0.018 A 
ATOM     17  C   UNL A   1      32.180  19.971  22.178  1.00  0.00     0.009 A 
ATOM     18  C   UNL A   1      32.321  21.288  24.622  1.00  0.00     0.013 A 
ATOM     19  C   UNL A   1      31.966  21.350  22.244  1.00  0.00     0.005 A 
BRANCH  11  20
ATOM     20  O   UNL A   1      33.343  15.822  24.276  1.00  0.00    -0.497 OA
ATOM     21  C   UNL A   1      32.852  15.025  25.351  1.00  0.00     0.278 C 
ENDBRANCH  11  20
ENDBRANCH   8  10
ENDBRANCH   5   8
ENDBRANCH   3   4
ENDBRANCH   2   3
ENDBRANCH   1   2
BRANCH   1  22
ATOM     22  C   UNL A   1      36.344  20.455  24.911  1.00  0.00     0.002 C 
BRANCH  22  23
ATOM     23  C   UNL A   1      37.790  20.020  24.661  1.00  0.00     0.021 C 
BRANCH  23  24
ATOM     24  C   UNL A   1      38.747  20.192  25.837  1.00  0.00     0.116 C 
BRANCH  24  25
ATOM     25  N   UNL A   1      39.881  19.285  25.780  1.00  0.00    -0.352 N 
ATOM     26  C   UNL A   1      41.209  19.521  26.033  1.00  0.00     0.251 C 
ATOM     27  H   UNL A   1      39.663  18.361  25.518  1.00  0.00     0.163 HD
ATOM     28  O   UNL A   1      42.042  18.653  25.796  1.00  0.00    -0.269 OA
BRANCH  26  29
ATOM     29  C   UNL A   1      41.647  20.829  26.569  1.00  0.00     0.039 A 
ATOM     30  C   UNL A   1      42.295  21.721  25.710  1.00  0.00     0.014 A 
ATOM     31  C   UNL A   1      41.439  21.173  27.908  1.00  0.00     0.014 A 
ATOM     32  C   UNL A   1      42.672  22.984  26.173  1.00  0.00     0.010 A 
ATOM     33  C   UNL A   1      41.760  22.455  28.352  1.00  0.00     0.010 A 
ATOM     34  C   UNL A   1      42.374  23.375  27.489  1.00  0.00    -0.014 A 
BRANCH  34  35
ATOM     35  C   UNL A   1      42.680  24.746  27.972  1.00  0.00     0.031 A 
ATOM     36  C   UNL A   1      44.082  25.118  28.365  1.00  0.00     0.074 A 
ATOM     37  C   UNL A   1      41.680  25.637  28.120  1.00  0.00     0.049 A 
ATOM     38  N   UNL A   1      44.525  26.227  28.900  1.00  0.00    -0.248 NA
ATOM     39  C   UNL A   1      45.123  24.099  28.150  1.00  0.00     0.031 C 
ATOM     40  C   UNL A   1      40.271  25.388  27.807  1.00  0.00     0.029 A 
ATOM     41  N   UNL A   1      41.693  26.927  28.588  1.00  0.00    -0.354 N 
ATOM     42  C   UNL A   1      45.887  26.039  29.092  1.00  0.00     0.074 A 
ATOM     43  C   UNL A   1      46.192  24.692  28.661  1.00  0.00     0.031 C 
ATOM     44  C   UNL A   1      39.558  26.492  28.083  1.00  0.00     0.029 A 
ATOM     45  C   UNL A   1      40.449  27.510  28.628  1.00  0.00     0.049 A 
ATOM     46  H   UNL A   1      42.515  27.391  28.868  1.00  0.00     0.167 HD
ATOM     47  C   UNL A   1      46.805  26.917  29.564  1.00  0.00     0.037 A 
ATOM     48  C   UNL A   1      40.067  28.724  29.070  1.00  0.00     0.037 A 
ATOM     49  C   UNL A   1      46.504  28.263  29.977  1.00  0.00     0.049 A 
ATOM     50  C   UNL A   1      41.103  29.670  29.612  1.00  0.00     0.074 A 
ATOM     51  C   UNL A   1      47.373  29.241  30.430  1.00  0.00     0.029 A 
ATOM     52  N   UNL A   1      45.235  28.821  29.986  1.00  0.00    -0.354 N 
ATOM     53  N   UNL A   1      42.396  29.495  29.739  1.00  0.00    -0.248 NA
ATOM     54  C   UNL A   1      40.627  30.983  30.069  1.00  0.00     0.031 C 
ATOM     55  C   UNL A   1      46.626  30.377  30.751  1.00  0.00     0.029 A 
ATOM     56  C   UNL A   1      45.296  30.124  30.455  1.00  0.00     0.049 A 
ATOM     57  H   UNL A   1      44.413  28.362  29.701  1.00  0.00     0.167 HD
ATOM     58  C   UNL A   1      42.890  30.683  30.262  1.00  0.00     0.074 A 
ATOM     59  C   UNL A   1      41.761  31.576  30.415  1.00  0.00     0.031 C 
ATOM     60  C   UNL A   1      44.164  31.004  30.591  1.00  0.00     0.037 A 
BRANCH  47  61
ATOM     61  C   UNL A   1      48.229  26.451  29.655  1.00  0.00     0.057 A 
ATOM     62  C   UNL A   1      48.713  25.781  30.786  1.00  0.00     0.134 A 
ATOM     63  C   UNL A   1      49.111  26.624  28.580  1.00  0.00     0.134 A 
ATOM     64  F   UNL A   1      47.922  25.592  31.854  1.00  0.00    -0.206 F 
ATOM     65  C   UNL A   1      50.027  25.316  30.853  1.00  0.00     0.040 A 
ATOM     66  C   UNL A   1      50.419  26.140  28.625  1.00  0.00     0.040 A 
ATOM     67  F   UNL A   1      48.710  27.251  27.464  1.00  0.00    -0.206 F 
ATOM     68  C   UNL A   1      50.881  25.489  29.766  1.00  0.00     0.006 A 
ENDBRANCH  47  61
BRANCH  48  69
ATOM     69  C   UNL A   1      38.636  29.120  29.024  1.00  0.00     0.057 A 
ATOM     70  C   UNL A   1      38.067  29.639  27.854  1.00  0.00     0.134 A 
ATOM     71  C   UNL A   1      37.812  29.016  30.150  1.00  0.00     0.134 A 
ATOM     72  F   UNL A   1      38.812  29.782  26.749  1.00  0.00    -0.206 F 
ATOM     73  C   UNL A   1      36.739  30.065  27.814  1.00  0.00     0.040 A 
ATOM     74  C   UNL A   1      36.474  29.412  30.117  1.00  0.00     0.040 A 
ATOM     75  F   UNL A   1      38.293  28.520  31.300  1.00  0.00    -0.206 F 
ATOM     76  C   UNL A   1      35.937  29.948  28.948  1.00  0.00     0.006 A 
ENDBRANCH  48  69
BRANCH  60  77
ATOM     77  C   UNL A   1      44.410  32.389  31.113  1.00  0.00     0.057 A 
ATOM     78  C   UNL A   1      44.666  33.467  30.256  1.00  0.00     0.134 A 
ATOM     79  C   UNL A   1      44.356  32.654  32.487  1.00  0.00     0.134 A 
ATOM     80  F   UNL A   1      44.745  33.278  28.930  1.00  0.00    -0.206 F 
ATOM     81  C   UNL A   1      44.885  34.755  30.749  1.00  0.00     0.040 A 
ATOM     82  C   UNL A   1      44.546  33.942  32.990  1.00  0.00     0.040 A 
ATOM     83  F   UNL A   1      44.105  31.668  33.361  1.00  0.00    -0.206 F 
ATOM     84  C   UNL A   1      44.817  34.995  32.120  1.00  0.00     0.006 A 
ENDBRANCH  60  77
ENDBRANCH  34  35
ENDBRANCH  26  29
ENDBRANCH  24  25
ENDBRANCH  23  24
ENDBRANCH  22  23
ENDBRANCH   1  22
TORSDOF 15
ENDMDL
MODEL 3
REMARK VINA RESULT:     -11.4      5.391      9.843
REMARK SMILES COc1ccc2cc([C@H](C)C(=O)NCCCCCCNC(=O)c3ccc(-c4c5nc(c(-c6c(F)cccc6F)c6ccc([nH]6)c(-c6c(F)cccc6F)c6nc(c(-c7c(F)cccc7F)c7ccc4[nH]7)C=C6)C=C5)cc3)ccc2c1
REMARK SMILES IDX 16 1 15 2 14 3 13 4 11 5 12 6 9 8 10 9 8 10 3 11 4 12 80 13
REMARK SMILES IDX 5 14 79 15 6 16 78 17 7 18 77 19 2 20 1 21 17 22 18 23 19 24
REMARK SMILES IDX 20 25 21 26 22 28 23 29 24 30 76 31 25 32 75 33 26 34 27 35
REMARK SMILES IDX 28 36 69 37 29 38 74 39 68 40 70 41 30 42 73 43 67 44 66 45
REMARK SMILES IDX 31 47 57 48 40 49 56 50 41 51 44 52 55 53 71 54 42 55 43 56
REMARK SMILES IDX 54 58 72 59 45 60 32 61 33 62 38 63 34 64 35 65 37 66 39 67
REMARK SMILES IDX 36 68 58 69 59 70 64 71 60 72 61 73 63 74 65 75 62 76 46 77
REMARK SMILES IDX 47 78 52 79 48 80 49 81 51 82 53 83 50 84
REMARK H PARENT 13 7 20 27 70 46 44 57
REMARK Flexibility Score: inf
ROOT
ATOM      1  C   UNL A   1      32.196  29.560  26.197  1.00  0.00     0.002 C 
ENDROOT
BRANCH   1   2
ATOM      2  C   UNL A   1      31.458  28.365  26.800  1.00  0.00     0.021 C 
BRANCH   2   3
ATOM      3  C   UNL A   1      32.136  27.014  26.614  1.00  0.00     0.116 C 
BRANCH   3   4
ATOM      4  N   UNL A   1      31.278  25.896  26.940  1.00  0.00    -0.356 N 
ATOM      5  C   UNL A   1      30.769  24.936  26.115  1.00  0.00     0.227 C 
ATOM      6  O   UNL A   1      30.154  24.000  26.636  1.00  0.00    -0.274 OA
ATOM      7  H   UNL A   1      31.027  25.817  27.889  1.00  0.00     0.163 HD
BRANCH   5   8
ATOM      8  C   UNL A   1      30.934  25.011  24.584  1.00  0.00     0.105 C 
ATOM      9  C   UNL A   1      30.965  23.613  23.953  1.00  0.00     0.023 C 
BRANCH   8  10
ATOM     10  C   UNL A   1      30.022  26.073  23.975  1.00  0.00    -0.035 A 
ATOM     11  C   UNL A   1      28.362  30.512  22.143  1.00  0.00     0.119 A 
ATOM     12  C   UNL A   1      29.714  30.457  21.819  1.00  0.00     0.047 A 
ATOM     13  C   UNL A   1      27.751  29.450  22.804  1.00  0.00     0.055 A 
ATOM     14  C   UNL A   1      30.464  29.331  22.169  1.00  0.00     0.012 A 
ATOM     15  C   UNL A   1      28.488  28.304  23.138  1.00  0.00    -0.015 A 
ATOM     16  C   UNL A   1      29.868  28.254  22.848  1.00  0.00    -0.018 A 
ATOM     17  C   UNL A   1      27.881  27.213  23.767  1.00  0.00     0.009 A 
ATOM     18  C   UNL A   1      30.617  27.144  23.281  1.00  0.00     0.013 A 
ATOM     19  C   UNL A   1      28.634  26.102  24.155  1.00  0.00     0.005 A 
BRANCH  11  20
ATOM     20  O   UNL A   1      27.599  31.625  21.915  1.00  0.00    -0.497 OA
ATOM     21  C   UNL A   1      27.968  32.280  20.704  1.00  0.00     0.278 C 
ENDBRANCH  11  20
ENDBRANCH   8  10
ENDBRANCH   5   8
ENDBRANCH   3   4
ENDBRANCH   2   3
ENDBRANCH   1   2
BRANCH   1  22
ATOM     22  C   UNL A   1      31.315  30.639  25.560  1.00  0.00     0.002 C 
BRANCH  22  23
ATOM     23  C   UNL A   1      31.174  31.945  26.346  1.00  0.00     0.021 C 
BRANCH  23  24
ATOM     24  C   UNL A   1      32.425  32.414  27.083  1.00  0.00     0.116 C 
BRANCH  24  25
ATOM     25  N   UNL A   1      32.372  33.819  27.448  1.00  0.00    -0.352 N 
ATOM     26  C   UNL A   1      33.123  34.520  28.359  1.00  0.00     0.251 C 
ATOM     27  H   UNL A   1      31.695  34.349  26.970  1.00  0.00     0.163 HD
ATOM     28  O   UNL A   1      32.835  35.681  28.628  1.00  0.00    -0.269 OA
BRANCH  26  29
ATOM     29  C   UNL A   1      34.266  33.873  29.041  1.00  0.00     0.039 A 
ATOM     30  C   UNL A   1      34.007  32.838  29.945  1.00  0.00     0.014 A 
ATOM     31  C   UNL A   1      35.580  34.287  28.809  1.00  0.00     0.014 A 
ATOM     32  C   UNL A   1      35.068  32.173  30.564  1.00  0.00     0.010 A 
ATOM     33  C   UNL A   1      36.640  33.582  29.379  1.00  0.00     0.010 A 
ATOM     34  C   UNL A   1      36.395  32.515  30.257  1.00  0.00    -0.014 A 
BRANCH  34  35
ATOM     35  C   UNL A   1      37.538  31.758  30.830  1.00  0.00     0.031 A 
ATOM     36  C   UNL A   1      38.048  32.079  32.207  1.00  0.00     0.074 A 
ATOM     37  C   UNL A   1      38.158  30.824  30.082  1.00  0.00     0.049 A 
ATOM     38  N   UNL A   1      39.090  31.598  32.836  1.00  0.00    -0.248 NA
ATOM     39  C   UNL A   1      37.301  33.091  32.971  1.00  0.00     0.031 C 
ATOM     40  C   UNL A   1      37.782  30.444  28.719  1.00  0.00     0.029 A 
ATOM     41  N   UNL A   1      39.248  30.037  30.357  1.00  0.00    -0.354 N 
ATOM     42  C   UNL A   1      39.130  32.251  34.061  1.00  0.00     0.074 A 
ATOM     43  C   UNL A   1      38.036  33.198  34.070  1.00  0.00     0.031 C 
ATOM     44  C   UNL A   1      38.620  29.492  28.280  1.00  0.00     0.029 A 
ATOM     45  C   UNL A   1      39.616  29.222  29.312  1.00  0.00     0.049 A 
ATOM     46  H   UNL A   1      39.722  30.054  31.219  1.00  0.00     0.167 HD
ATOM     47  C   UNL A   1      39.988  32.064  35.092  1.00  0.00     0.037 A 
ATOM     48  C   UNL A   1      40.649  28.366  29.193  1.00  0.00     0.037 A 
ATOM     49  C   UNL A   1      41.066  31.111  35.089  1.00  0.00     0.049 A 
ATOM     50  C   UNL A   1      41.600  28.196  30.347  1.00  0.00     0.074 A 
ATOM     51  C   UNL A   1      41.962  30.819  36.104  1.00  0.00     0.029 A 
ATOM     52  N   UNL A   1      41.394  30.292  34.020  1.00  0.00    -0.354 N 
ATOM     53  N   UNL A   1      41.593  28.784  31.517  1.00  0.00    -0.248 NA
ATOM     54  C   UNL A   1      42.700  27.240  30.161  1.00  0.00     0.031 C 
ATOM     55  C   UNL A   1      42.857  29.854  35.635  1.00  0.00     0.029 A 
ATOM     56  C   UNL A   1      42.491  29.509  34.344  1.00  0.00     0.049 A 
ATOM     57  H   UNL A   1      40.919  30.269  33.159  1.00  0.00     0.167 HD
ATOM     58  C   UNL A   1      42.667  28.250  32.217  1.00  0.00     0.074 A 
ATOM     59  C   UNL A   1      43.294  27.279  31.345  1.00  0.00     0.031 C 
ATOM     60  C   UNL A   1      43.098  28.540  33.468  1.00  0.00     0.037 A 
BRANCH  47  61
ATOM     61  C   UNL A   1      39.791  32.905  36.320  1.00  0.00     0.057 A 
ATOM     62  C   UNL A   1      38.869  32.550  37.315  1.00  0.00     0.134 A 
ATOM     63  C   UNL A   1      40.568  34.050  36.538  1.00  0.00     0.134 A 
ATOM     64  F   UNL A   1      38.087  31.471  37.162  1.00  0.00    -0.206 F 
ATOM     65  C   UNL A   1      38.715  33.314  38.473  1.00  0.00     0.040 A 
ATOM     66  C   UNL A   1      40.441  34.807  37.704  1.00  0.00     0.040 A 
ATOM     67  F   UNL A   1      41.473  34.442  35.630  1.00  0.00    -0.206 F 
ATOM     68  C   UNL A   1      39.508  34.442  38.673  1.00  0.00     0.006 A 
ENDBRANCH  47  61
BRANCH  48  69
ATOM     69  C   UNL A   1      40.845  27.602  27.936  1.00  0.00     0.057 A 
ATOM     70  C   UNL A   1      40.325  26.310  27.786  1.00  0.00     0.134 A 
ATOM     71  C   UNL A   1      41.577  28.130  26.866  1.00  0.00     0.134 A 
ATOM     72  F   UNL A   1      39.633  25.742  28.784  1.00  0.00    -0.206 F 
ATOM     73  C   UNL A   1      40.549  25.561  26.630  1.00  0.00     0.040 A 
ATOM     74  C   UNL A   1      41.786  27.403  25.693  1.00  0.00     0.040 A 
ATOM     75  F   UNL A   1      42.096  29.364  26.943  1.00  0.00    -0.206 F 
ATOM     76  C   UNL A   1      41.279  26.109  25.577  1.00  0.00     0.006 A 
ENDBRANCH  48  69
BRANCH  60  77
ATOM     77  C   UNL A   1      44.281  27.773  33.981  1.00  0.00     0.057 A 
ATOM     78  C   UNL A   1      45.588  28.261  33.859  1.00  0.00     0.134 A 
ATOM     79  C   UNL A   1      44.108  26.546  34.634  1.00  0.00     0.134 A 
ATOM     80  F   UNL A   1      45.823  29.424  33.232  1.00  0.00    -0.206 F 
ATOM     81  C   UNL A   1      46.683  27.546  34.347  1.00  0.00     0.040 A 
ATOM     82  C   UNL A   1      45.191  25.834  35.150  1.00  0.00     0.040 A 
ATOM     83  F   UNL A   1      42.880  26.027  34.793  1.00  0.00    -0.206 F 
ATOM     84  C   UNL A   1      46.484  26.331  35.001  1.00  0.00     0.006 A 
ENDBRANCH  60  77
ENDBRANCH  34  35
ENDBRANCH  26  29
ENDBRANCH  24  25
ENDBRANCH  23  24
ENDBRANCH  22  23
ENDBRANCH   1  22
TORSDOF 15
ENDMDL
