MODEL 1
REMARK VINA RESULT:     -13.0      0.000      0.000
REMARK SMILES Cc1c(NC(=O)c2ccc(Br)cc2N)cccc1C(=O)NCCCCCCNC(=O)c1ccc(-c2c3nc(c(-c4c(F)cccc4F)c4ccc([nH]4)c(-c4c(F)cccc4F)c4nc(c(-c5c(F)cccc5F)c5ccc2[nH]5)C=C4)C=C3)cc1
REMARK SMILES IDX 24 1 23 2 22 3 21 4 19 5 20 6 18 8 1 9 2 10 3 11 15 12 17 13
REMARK SMILES IDX 16 14 4 15 5 16 6 18 7 19 8 20 13 21 9 22 12 23 10 24 11 25
REMARK SMILES IDX 14 26 25 29 26 30 27 31 28 32 29 33 30 35 31 36 32 37 84 38
REMARK SMILES IDX 33 39 83 40 34 41 35 42 36 43 77 44 37 45 82 46 76 47 78 48
REMARK SMILES IDX 38 49 81 50 75 51 74 52 39 54 65 55 48 56 64 57 49 58 52 59
REMARK SMILES IDX 63 60 79 61 50 62 51 63 62 65 80 66 53 67 40 68 41 69 46 70
REMARK SMILES IDX 42 71 43 72 45 73 47 74 44 75 66 76 67 77 72 78 68 79 69 80
REMARK SMILES IDX 71 81 73 82 70 83 54 84 55 85 60 86 56 87 57 88 59 89 61 90
REMARK SMILES IDX 58 91
REMARK H PARENT 21 7 4 17 14 27 14 28 28 34 78 53 52 64
REMARK Flexibility Score: inf
ROOT
ATOM      1  C   UNL A   1      33.152  28.924  25.466  1.00  0.00     0.002 C 
ENDROOT
BRANCH   1   2
ATOM      2  C   UNL A   1      33.702  29.051  24.040  1.00  0.00     0.021 C 
BRANCH   2   3
ATOM      3  C   UNL A   1      32.684  28.815  22.911  1.00  0.00     0.116 C 
BRANCH   3   4
ATOM      4  N   UNL A   1      33.143  27.746  22.048  1.00  0.00    -0.352 N 
ATOM      5  C   UNL A   1      33.096  26.379  22.103  1.00  0.00     0.251 C 
ATOM      6  O   UNL A   1      33.644  25.780  21.175  1.00  0.00    -0.269 OA
ATOM      7  H   UNL A   1      33.591  28.077  21.236  1.00  0.00     0.163 HD
BRANCH   5   8
ATOM      8  C   UNL A   1      32.388  25.560  23.138  1.00  0.00     0.044 A 
ATOM      9  C   UNL A   1      34.281  25.405  24.851  1.00  0.00     0.047 C 
ATOM     10  C   UNL A   1      32.882  25.117  24.385  1.00  0.00    -0.015 A 
ATOM     11  C   UNL A   1      32.083  24.242  25.175  1.00  0.00     0.045 A 
ATOM     12  C   UNL A   1      30.864  23.754  24.699  1.00  0.00     0.026 A 
ATOM     13  C   UNL A   1      31.146  25.053  22.692  1.00  0.00     0.014 A 
ATOM     14  C   UNL A   1      30.400  24.153  23.453  1.00  0.00     0.003 A 
BRANCH  11  15
ATOM     15  N   UNL A   1      32.550  23.882  26.453  1.00  0.00    -0.322 N 
ATOM     16  C   UNL A   1      32.899  22.660  26.981  1.00  0.00     0.257 C 
ATOM     17  H   UNL A   1      32.644  24.637  27.078  1.00  0.00     0.170 HD
ATOM     18  O   UNL A   1      32.956  22.543  28.206  1.00  0.00    -0.269 OA
BRANCH  16  19
ATOM     19  C   UNL A   1      33.305  21.509  26.128  1.00  0.00     0.063 A 
ATOM     20  C   UNL A   1      32.261  20.669  25.700  1.00  0.00     0.017 A 
ATOM     21  C   UNL A   1      34.645  21.178  25.824  1.00  0.00     0.045 A 
ATOM     22  C   UNL A   1      32.530  19.523  24.952  1.00  0.00     0.016 A 
ATOM     23  C   UNL A   1      34.891  20.025  25.063  1.00  0.00     0.042 A 
ATOM     24  C   UNL A   1      33.844  19.213  24.628  1.00  0.00     0.020 A 
ATOM     25  Br  UNL A   1      34.226  17.651  23.634  1.00  0.00    -0.051 Br
BRANCH  21  26
ATOM     26  N   UNL A   1      35.750  21.810  26.389  1.00  0.00    -0.398 N 
ATOM     27  H   UNL A   1      35.623  22.577  26.993  1.00  0.00     0.156 HD
ATOM     28  H   UNL A   1      36.658  21.491  26.184  1.00  0.00     0.156 HD
ENDBRANCH  21  26
ENDBRANCH  16  19
ENDBRANCH  11  15
ENDBRANCH   5   8
ENDBRANCH   3   4
ENDBRANCH   2   3
ENDBRANCH   1   2
BRANCH   1  29
ATOM     29  C   UNL A   1      32.345  30.120  25.991  1.00  0.00     0.002 C 
BRANCH  29  30
ATOM     30  C   UNL A   1      32.916  30.822  27.226  1.00  0.00     0.021 C 
BRANCH  30  31
ATOM     31  C   UNL A   1      34.293  30.319  27.649  1.00  0.00     0.116 C 
BRANCH  31  32
ATOM     32  N   UNL A   1      34.988  31.219  28.563  1.00  0.00    -0.352 N 
ATOM     33  C   UNL A   1      36.175  31.040  29.242  1.00  0.00     0.251 C 
ATOM     34  H   UNL A   1      34.543  32.084  28.717  1.00  0.00     0.163 HD
ATOM     35  O   UNL A   1      36.584  31.923  29.996  1.00  0.00    -0.269 OA
BRANCH  33  36
ATOM     36  C   UNL A   1      37.018  29.852  28.974  1.00  0.00     0.039 A 
ATOM     37  C   UNL A   1      37.257  28.962  30.029  1.00  0.00     0.014 A 
ATOM     38  C   UNL A   1      37.695  29.696  27.766  1.00  0.00     0.014 A 
ATOM     39  C   UNL A   1      38.334  28.082  29.955  1.00  0.00     0.010 A 
ATOM     40  C   UNL A   1      38.811  28.882  27.720  1.00  0.00     0.010 A 
ATOM     41  C   UNL A   1      39.171  28.129  28.840  1.00  0.00    -0.014 A 
BRANCH  41  42
ATOM     42  C   UNL A   1      40.502  27.530  28.820  1.00  0.00     0.031 A 
ATOM     43  C   UNL A   1      40.698  26.111  28.463  1.00  0.00     0.074 A 
ATOM     44  C   UNL A   1      41.574  28.310  29.082  1.00  0.00     0.049 A 
ATOM     45  N   UNL A   1      41.736  25.417  28.791  1.00  0.00    -0.248 NA
ATOM     46  C   UNL A   1      39.704  25.347  27.719  1.00  0.00     0.031 C 
ATOM     47  C   UNL A   1      42.984  27.984  28.894  1.00  0.00     0.029 A 
ATOM     48  N   UNL A   1      41.588  29.504  29.819  1.00  0.00    -0.354 N 
ATOM     49  C   UNL A   1      41.667  24.212  28.134  1.00  0.00     0.074 A 
ATOM     50  C   UNL A   1      40.365  24.205  27.502  1.00  0.00     0.031 C 
ATOM     51  C   UNL A   1      43.713  28.740  29.730  1.00  0.00     0.029 A 
ATOM     52  C   UNL A   1      42.783  29.472  30.573  1.00  0.00     0.049 A 
ATOM     53  H   UNL A   1      40.907  30.215  29.812  1.00  0.00     0.167 HD
ATOM     54  C   UNL A   1      42.755  23.389  28.110  1.00  0.00     0.037 A 
ATOM     55  C   UNL A   1      42.744  29.424  31.936  1.00  0.00     0.037 A 
ATOM     56  C   UNL A   1      43.853  23.916  28.912  1.00  0.00     0.049 A 
ATOM     57  C   UNL A   1      43.378  28.192  32.546  1.00  0.00     0.074 A 
ATOM     58  C   UNL A   1      44.981  24.668  28.628  1.00  0.00     0.029 A 
ATOM     59  N   UNL A   1      43.719  23.931  30.287  1.00  0.00    -0.354 N 
ATOM     60  N   UNL A   1      43.833  27.180  31.860  1.00  0.00    -0.248 NA
ATOM     61  C   UNL A   1      43.454  27.964  33.992  1.00  0.00     0.031 C 
ATOM     62  C   UNL A   1      45.496  25.176  29.853  1.00  0.00     0.029 A 
ATOM     63  C   UNL A   1      44.683  24.725  30.877  1.00  0.00     0.049 A 
ATOM     64  H   UNL A   1      43.025  23.440  30.783  1.00  0.00     0.167 HD
ATOM     65  C   UNL A   1      44.192  26.181  32.722  1.00  0.00     0.074 A 
ATOM     66  C   UNL A   1      43.949  26.717  34.046  1.00  0.00     0.031 C 
ATOM     67  C   UNL A   1      44.622  24.959  32.305  1.00  0.00     0.037 A 
BRANCH  54  68
ATOM     68  C   UNL A   1      42.889  22.213  27.177  1.00  0.00     0.057 A 
ATOM     69  C   UNL A   1      42.088  21.067  27.342  1.00  0.00     0.134 A 
ATOM     70  C   UNL A   1      43.815  22.133  26.125  1.00  0.00     0.134 A 
ATOM     71  F   UNL A   1      41.095  21.024  28.240  1.00  0.00    -0.206 F 
ATOM     72  C   UNL A   1      42.273  19.896  26.596  1.00  0.00     0.040 A 
ATOM     73  C   UNL A   1      44.053  20.950  25.411  1.00  0.00     0.040 A 
ATOM     74  F   UNL A   1      44.498  23.211  25.714  1.00  0.00    -0.206 F 
ATOM     75  C   UNL A   1      43.288  19.819  25.655  1.00  0.00     0.006 A 
ENDBRANCH  54  68
BRANCH  55  76
ATOM     76  C   UNL A   1      41.579  30.147  32.513  1.00  0.00     0.057 A 
ATOM     77  C   UNL A   1      41.604  31.553  32.551  1.00  0.00     0.134 A 
ATOM     78  C   UNL A   1      40.343  29.525  32.701  1.00  0.00     0.134 A 
ATOM     79  F   UNL A   1      42.760  32.214  32.376  1.00  0.00    -0.206 F 
ATOM     80  C   UNL A   1      40.434  32.308  32.653  1.00  0.00     0.040 A 
ATOM     81  C   UNL A   1      39.167  30.271  32.826  1.00  0.00     0.040 A 
ATOM     82  F   UNL A   1      40.235  28.190  32.659  1.00  0.00    -0.206 F 
ATOM     83  C   UNL A   1      39.206  31.664  32.762  1.00  0.00     0.006 A 
ENDBRANCH  55  76
BRANCH  67  84
ATOM     84  C   UNL A   1      45.029  23.886  33.258  1.00  0.00     0.057 A 
ATOM     85  C   UNL A   1      44.120  22.922  33.712  1.00  0.00     0.134 A 
ATOM     86  C   UNL A   1      46.307  23.869  33.841  1.00  0.00     0.134 A 
ATOM     87  F   UNL A   1      42.869  22.879  33.229  1.00  0.00    -0.206 F 
ATOM     88  C   UNL A   1      44.467  21.983  34.687  1.00  0.00     0.040 A 
ATOM     89  C   UNL A   1      46.654  22.961  34.842  1.00  0.00     0.040 A 
ATOM     90  F   UNL A   1      47.262  24.727  33.447  1.00  0.00    -0.206 F 
ATOM     91  C   UNL A   1      45.733  22.010  35.265  1.00  0.00     0.006 A 
ENDBRANCH  67  84
ENDBRANCH  41  42
ENDBRANCH  33  36
ENDBRANCH  31  32
ENDBRANCH  30  31
ENDBRANCH  29  30
ENDBRANCH   1  29
TORSDOF 16
ENDMDL
MODEL 2
REMARK VINA RESULT:     -12.9      1.456      1.989
REMARK SMILES Cc1c(NC(=O)c2ccc(Br)cc2N)cccc1C(=O)NCCCCCCNC(=O)c1ccc(-c2c3nc(c(-c4c(F)cccc4F)c4ccc([nH]4)c(-c4c(F)cccc4F)c4nc(c(-c5c(F)cccc5F)c5ccc2[nH]5)C=C4)C=C3)cc1
REMARK SMILES IDX 24 1 23 2 22 3 21 4 19 5 20 6 18 8 1 9 2 10 3 11 15 12 17 13
REMARK SMILES IDX 16 14 4 15 5 16 6 18 7 19 8 20 13 21 9 22 12 23 10 24 11 25
REMARK SMILES IDX 14 26 25 29 26 30 27 31 28 32 29 33 30 35 31 36 32 37 84 38
REMARK SMILES IDX 33 39 83 40 34 41 35 42 36 43 77 44 37 45 82 46 76 47 78 48
REMARK SMILES IDX 38 49 81 50 75 51 74 52 39 54 65 55 48 56 64 57 49 58 52 59
REMARK SMILES IDX 63 60 79 61 50 62 51 63 62 65 80 66 53 67 40 68 41 69 46 70
REMARK SMILES IDX 42 71 43 72 45 73 47 74 44 75 66 76 67 77 72 78 68 79 69 80
REMARK SMILES IDX 71 81 73 82 70 83 54 84 55 85 60 86 56 87 57 88 59 89 61 90
REMARK SMILES IDX 58 91
REMARK H PARENT 21 7 4 17 14 27 14 28 28 34 78 53 52 64
REMARK Flexibility Score: inf
ROOT
ATOM      1  C   UNL A   1      34.224  28.218  26.492  1.00  0.00     0.002 C 
ENDROOT
BRANCH   1   2
ATOM      2  C   UNL A   1      33.874  27.888  25.036  1.00  0.00     0.021 C 
BRANCH   2   3
ATOM      3  C   UNL A   1      33.669  29.099  24.109  1.00  0.00     0.116 C 
BRANCH   3   4
ATOM      4  N   UNL A   1      32.265  29.455  24.066  1.00  0.00    -0.352 N 
ATOM      5  C   UNL A   1      31.109  28.774  23.795  1.00  0.00     0.251 C 
ATOM      6  O   UNL A   1      30.070  29.439  23.817  1.00  0.00    -0.269 OA
ATOM      7  H   UNL A   1      32.106  30.403  24.280  1.00  0.00     0.163 HD
BRANCH   5   8
ATOM      8  C   UNL A   1      30.987  27.301  23.548  1.00  0.00     0.044 A 
ATOM      9  C   UNL A   1      30.512  26.559  25.950  1.00  0.00     0.047 C 
ATOM     10  C   UNL A   1      30.706  26.283  24.485  1.00  0.00    -0.015 A 
ATOM     11  C   UNL A   1      30.751  24.924  24.064  1.00  0.00     0.045 A 
ATOM     12  C   UNL A   1      31.147  24.584  22.768  1.00  0.00     0.026 A 
ATOM     13  C   UNL A   1      31.374  26.922  22.243  1.00  0.00     0.014 A 
ATOM     14  C   UNL A   1      31.467  25.584  21.860  1.00  0.00     0.003 A 
BRANCH  11  15
ATOM     15  N   UNL A   1      30.383  23.926  24.986  1.00  0.00    -0.322 N 
ATOM     16  C   UNL A   1      31.076  22.845  25.480  1.00  0.00     0.257 C 
ATOM     17  H   UNL A   1      29.468  24.018  25.339  1.00  0.00     0.170 HD
ATOM     18  O   UNL A   1      30.443  21.931  26.011  1.00  0.00    -0.269 OA
BRANCH  16  19
ATOM     19  C   UNL A   1      32.565  22.787  25.485  1.00  0.00     0.063 A 
ATOM     20  C   UNL A   1      33.215  23.894  26.061  1.00  0.00     0.017 A 
ATOM     21  C   UNL A   1      33.323  21.764  24.873  1.00  0.00     0.045 A 
ATOM     22  C   UNL A   1      34.607  23.980  26.063  1.00  0.00     0.016 A 
ATOM     23  C   UNL A   1      34.723  21.867  24.895  1.00  0.00     0.042 A 
ATOM     24  C   UNL A   1      35.355  22.960  25.488  1.00  0.00     0.020 A 
ATOM     25  Br  UNL A   1      37.241  23.074  25.463  1.00  0.00    -0.051 Br
BRANCH  21  26
ATOM     26  N   UNL A   1      32.776  20.756  24.084  1.00  0.00    -0.398 N 
ATOM     27  H   UNL A   1      32.675  20.889  23.114  1.00  0.00     0.156 HD
ATOM     28  H   UNL A   1      32.490  19.909  24.496  1.00  0.00     0.156 HD
ENDBRANCH  21  26
ENDBRANCH  16  19
ENDBRANCH  11  15
ENDBRANCH   5   8
ENDBRANCH   3   4
ENDBRANCH   2   3
ENDBRANCH   1   2
BRANCH   1  29
ATOM     29  C   UNL A   1      33.100  28.830  27.339  1.00  0.00     0.002 C 
BRANCH  29  30
ATOM     30  C   UNL A   1      33.189  30.339  27.579  1.00  0.00     0.021 C 
BRANCH  30  31
ATOM     31  C   UNL A   1      34.593  30.915  27.416  1.00  0.00     0.116 C 
BRANCH  31  32
ATOM     32  N   UNL A   1      35.101  31.567  28.618  1.00  0.00    -0.352 N 
ATOM     33  C   UNL A   1      36.097  31.167  29.483  1.00  0.00     0.251 C 
ATOM     34  H   UNL A   1      34.667  32.422  28.844  1.00  0.00     0.163 HD
ATOM     35  O   UNL A   1      36.362  31.857  30.468  1.00  0.00    -0.269 OA
BRANCH  33  36
ATOM     36  C   UNL A   1      36.931  29.985  29.167  1.00  0.00     0.039 A 
ATOM     37  C   UNL A   1      37.165  29.052  30.185  1.00  0.00     0.014 A 
ATOM     38  C   UNL A   1      37.605  29.872  27.952  1.00  0.00     0.014 A 
ATOM     39  C   UNL A   1      38.237  28.168  30.075  1.00  0.00     0.010 A 
ATOM     40  C   UNL A   1      38.716  29.053  27.872  1.00  0.00     0.010 A 
ATOM     41  C   UNL A   1      39.072  28.253  28.961  1.00  0.00    -0.014 A 
BRANCH  41  42
ATOM     42  C   UNL A   1      40.399  27.647  28.915  1.00  0.00     0.031 A 
ATOM     43  C   UNL A   1      40.579  26.226  28.555  1.00  0.00     0.074 A 
ATOM     44  C   UNL A   1      41.481  28.420  29.155  1.00  0.00     0.049 A 
ATOM     45  N   UNL A   1      41.619  25.526  28.864  1.00  0.00    -0.248 NA
ATOM     46  C   UNL A   1      39.565  25.468  27.833  1.00  0.00     0.031 C 
ATOM     47  C   UNL A   1      42.884  28.085  28.939  1.00  0.00     0.029 A 
ATOM     48  N   UNL A   1      41.516  29.615  29.890  1.00  0.00    -0.354 N 
ATOM     49  C   UNL A   1      41.529  24.321  28.210  1.00  0.00     0.074 A 
ATOM     50  C   UNL A   1      40.215  24.321  27.604  1.00  0.00     0.031 C 
ATOM     51  C   UNL A   1      43.634  28.838  29.759  1.00  0.00     0.029 A 
ATOM     52  C   UNL A   1      42.726  29.576  30.619  1.00  0.00     0.049 A 
ATOM     53  H   UNL A   1      40.840  30.330  29.895  1.00  0.00     0.167 HD
ATOM     54  C   UNL A   1      42.612  23.491  28.165  1.00  0.00     0.037 A 
ATOM     55  C   UNL A   1      42.714  29.530  31.983  1.00  0.00     0.037 A 
ATOM     56  C   UNL A   1      43.729  24.013  28.944  1.00  0.00     0.049 A 
ATOM     57  C   UNL A   1      43.352  28.295  32.582  1.00  0.00     0.074 A 
ATOM     58  C   UNL A   1      44.856  24.758  28.636  1.00  0.00     0.029 A 
ATOM     59  N   UNL A   1      43.623  24.030  30.321  1.00  0.00    -0.354 N 
ATOM     60  N   UNL A   1      43.788  27.279  31.888  1.00  0.00    -0.248 NA
ATOM     61  C   UNL A   1      43.457  28.068  34.026  1.00  0.00     0.031 C 
ATOM     62  C   UNL A   1      45.398  25.264  29.851  1.00  0.00     0.029 A 
ATOM     63  C   UNL A   1      44.603  24.818  30.891  1.00  0.00     0.049 A 
ATOM     64  H   UNL A   1      42.936  23.543  30.832  1.00  0.00     0.167 HD
ATOM     65  C   UNL A   1      44.158  26.279  32.744  1.00  0.00     0.074 A 
ATOM     66  C   UNL A   1      43.945  26.818  34.072  1.00  0.00     0.031 C 
ATOM     67  C   UNL A   1      44.573  25.055  32.320  1.00  0.00     0.037 A 
BRANCH  54  68
ATOM     68  C   UNL A   1      42.720  22.314  27.231  1.00  0.00     0.057 A 
ATOM     69  C   UNL A   1      41.917  21.172  27.414  1.00  0.00     0.134 A 
ATOM     70  C   UNL A   1      43.624  22.228  26.159  1.00  0.00     0.134 A 
ATOM     71  F   UNL A   1      40.943  21.136  28.333  1.00  0.00    -0.206 F 
ATOM     72  C   UNL A   1      42.080  20.000  26.666  1.00  0.00     0.040 A 
ATOM     73  C   UNL A   1      43.840  21.043  25.442  1.00  0.00     0.040 A 
ATOM     74  F   UNL A   1      44.303  23.302  25.732  1.00  0.00    -0.206 F 
ATOM     75  C   UNL A   1      43.075  19.916  25.704  1.00  0.00     0.006 A 
ENDBRANCH  54  68
BRANCH  55  76
ATOM     76  C   UNL A   1      41.565  30.261  32.583  1.00  0.00     0.057 A 
ATOM     77  C   UNL A   1      40.438  29.529  32.998  1.00  0.00     0.134 A 
ATOM     78  C   UNL A   1      41.688  31.568  33.058  1.00  0.00     0.134 A 
ATOM     79  F   UNL A   1      40.259  28.266  32.579  1.00  0.00    -0.206 F 
ATOM     80  C   UNL A   1      39.536  30.035  33.936  1.00  0.00     0.040 A 
ATOM     81  C   UNL A   1      40.779  32.093  33.982  1.00  0.00     0.040 A 
ATOM     82  F   UNL A   1      42.745  32.322  32.724  1.00  0.00    -0.206 F 
ATOM     83  C   UNL A   1      39.724  31.313  34.454  1.00  0.00     0.006 A 
ENDBRANCH  55  76
BRANCH  67  84
ATOM     84  C   UNL A   1      44.992  23.980  33.266  1.00  0.00     0.057 A 
ATOM     85  C   UNL A   1      44.095  23.002  33.712  1.00  0.00     0.134 A 
ATOM     86  C   UNL A   1      46.269  23.976  33.850  1.00  0.00     0.134 A 
ATOM     87  F   UNL A   1      42.845  22.946  33.227  1.00  0.00    -0.206 F 
ATOM     88  C   UNL A   1      44.453  22.061  34.681  1.00  0.00     0.040 A 
ATOM     89  C   UNL A   1      46.627  23.065  34.844  1.00  0.00     0.040 A 
ATOM     90  F   UNL A   1      47.214  24.848  33.463  1.00  0.00    -0.206 F 
ATOM     91  C   UNL A   1      45.718  22.099  35.261  1.00  0.00     0.006 A 
ENDBRANCH  67  84
ENDBRANCH  41  42
ENDBRANCH  33  36
ENDBRANCH  31  32
ENDBRANCH  30  31
ENDBRANCH  29  30
ENDBRANCH   1  29
TORSDOF 16
ENDMDL
MODEL 3
REMARK VINA RESULT:     -12.7      3.981      9.397
REMARK SMILES Cc1c(NC(=O)c2ccc(Br)cc2N)cccc1C(=O)NCCCCCCNC(=O)c1ccc(-c2c3nc(c(-c4c(F)cccc4F)c4ccc([nH]4)c(-c4c(F)cccc4F)c4nc(c(-c5c(F)cccc5F)c5ccc2[nH]5)C=C4)C=C3)cc1
REMARK SMILES IDX 24 1 23 2 22 3 21 4 19 5 20 6 18 8 1 9 2 10 3 11 15 12 17 13
REMARK SMILES IDX 16 14 4 15 5 16 6 18 7 19 8 20 13 21 9 22 12 23 10 24 11 25
REMARK SMILES IDX 14 26 25 29 26 30 27 31 28 32 29 33 30 35 31 36 32 37 84 38
REMARK SMILES IDX 33 39 83 40 34 41 35 42 36 43 77 44 37 45 82 46 76 47 78 48
REMARK SMILES IDX 38 49 81 50 75 51 74 52 39 54 65 55 48 56 64 57 49 58 52 59
REMARK SMILES IDX 63 60 79 61 50 62 51 63 62 65 80 66 53 67 40 68 41 69 46 70
REMARK SMILES IDX 42 71 43 72 45 73 47 74 44 75 66 76 67 77 72 78 68 79 69 80
REMARK SMILES IDX 71 81 73 82 70 83 54 84 55 85 60 86 56 87 57 88 59 89 61 90
REMARK SMILES IDX 58 91
REMARK H PARENT 21 7 4 17 14 27 14 28 28 34 78 53 52 64
REMARK Flexibility Score: inf
ROOT
ATOM      1  C   UNL A   1      36.073  23.595  25.329  1.00  0.00     0.002 C 
ENDROOT
BRANCH   1   2
ATOM      2  C   UNL A   1      35.658  22.133  25.124  1.00  0.00     0.021 C 
BRANCH   2   3
ATOM      3  C   UNL A   1      34.923  21.478  26.307  1.00  0.00     0.116 C 
BRANCH   3   4
ATOM      4  N   UNL A   1      33.955  20.518  25.816  1.00  0.00    -0.352 N 
ATOM      5  C   UNL A   1      32.691  20.607  25.299  1.00  0.00     0.251 C 
ATOM      6  O   UNL A   1      32.144  19.538  25.018  1.00  0.00    -0.269 OA
ATOM      7  H   UNL A   1      34.281  19.590  25.864  1.00  0.00     0.163 HD
BRANCH   5   8
ATOM      8  C   UNL A   1      31.951  21.871  24.984  1.00  0.00     0.044 A 
ATOM      9  C   UNL A   1      33.053  22.397  22.736  1.00  0.00     0.047 C 
ATOM     10  C   UNL A   1      32.077  22.690  23.841  1.00  0.00    -0.015 A 
ATOM     11  C   UNL A   1      31.362  23.920  23.789  1.00  0.00     0.045 A 
ATOM     12  C   UNL A   1      30.611  24.363  24.880  1.00  0.00     0.026 A 
ATOM     13  C   UNL A   1      31.175  22.346  26.065  1.00  0.00     0.014 A 
ATOM     14  C   UNL A   1      30.524  23.579  26.022  1.00  0.00     0.003 A 
BRANCH  11  15
ATOM     15  N   UNL A   1      31.427  24.682  22.607  1.00  0.00    -0.322 N 
ATOM     16  C   UNL A   1      31.532  26.039  22.406  1.00  0.00     0.257 C 
ATOM     17  H   UNL A   1      31.392  24.150  21.780  1.00  0.00     0.170 HD
ATOM     18  O   UNL A   1      31.236  26.496  21.301  1.00  0.00    -0.269 OA
BRANCH  16  19
ATOM     19  C   UNL A   1      32.085  26.958  23.440  1.00  0.00     0.063 A 
ATOM     20  C   UNL A   1      33.334  26.594  23.974  1.00  0.00     0.017 A 
ATOM     21  C   UNL A   1      31.395  28.076  23.961  1.00  0.00     0.045 A 
ATOM     22  C   UNL A   1      33.918  27.343  24.995  1.00  0.00     0.016 A 
ATOM     23  C   UNL A   1      32.005  28.821  24.982  1.00  0.00     0.042 A 
ATOM     24  C   UNL A   1      33.254  28.460  25.487  1.00  0.00     0.020 A 
ATOM     25  Br  UNL A   1      34.022  29.471  26.887  1.00  0.00    -0.051 Br
BRANCH  21  26
ATOM     26  N   UNL A   1      30.069  28.380  23.663  1.00  0.00    -0.398 N 
ATOM     27  H   UNL A   1      29.414  27.656  23.536  1.00  0.00     0.156 HD
ATOM     28  H   UNL A   1      29.786  29.319  23.580  1.00  0.00     0.156 HD
ENDBRANCH  21  26
ENDBRANCH  16  19
ENDBRANCH  11  15
ENDBRANCH   5   8
ENDBRANCH   3   4
ENDBRANCH   2   3
ENDBRANCH   1   2
BRANCH   1  29
ATOM     29  C   UNL A   1      37.397  23.827  26.070  1.00  0.00     0.002 C 
BRANCH  29  30
ATOM     30  C   UNL A   1      38.519  22.830  25.765  1.00  0.00     0.021 C 
BRANCH  30  31
ATOM     31  C   UNL A   1      39.550  22.690  26.880  1.00  0.00     0.116 C 
BRANCH  31  32
ATOM     32  N   UNL A   1      40.896  23.091  26.486  1.00  0.00    -0.352 N 
ATOM     33  C   UNL A   1      41.462  24.347  26.431  1.00  0.00     0.251 C 
ATOM     34  H   UNL A   1      41.490  22.352  26.219  1.00  0.00     0.163 HD
ATOM     35  O   UNL A   1      42.622  24.477  26.041  1.00  0.00    -0.269 OA
BRANCH  33  36
ATOM     36  C   UNL A   1      40.726  25.521  26.956  1.00  0.00     0.039 A 
ATOM     37  C   UNL A   1      40.801  26.721  26.238  1.00  0.00     0.014 A 
ATOM     38  C   UNL A   1      40.112  25.497  28.207  1.00  0.00     0.014 A 
ATOM     39  C   UNL A   1      40.485  27.922  26.869  1.00  0.00     0.010 A 
ATOM     40  C   UNL A   1      39.874  26.690  28.863  1.00  0.00     0.010 A 
ATOM     41  C   UNL A   1      40.128  27.903  28.218  1.00  0.00    -0.014 A 
BRANCH  41  42
ATOM     42  C   UNL A   1      40.132  29.097  29.057  1.00  0.00     0.031 A 
ATOM     43  C   UNL A   1      39.038  30.086  28.988  1.00  0.00     0.074 A 
ATOM     44  C   UNL A   1      41.133  29.265  29.949  1.00  0.00     0.049 A 
ATOM     45  N   UNL A   1      39.145  31.313  29.375  1.00  0.00    -0.248 NA
ATOM     46  C   UNL A   1      37.727  29.764  28.439  1.00  0.00     0.031 C 
ATOM     47  C   UNL A   1      41.213  30.245  31.028  1.00  0.00     0.029 A 
ATOM     48  N   UNL A   1      42.419  28.707  29.890  1.00  0.00    -0.354 N 
ATOM     49  C   UNL A   1      37.892  31.879  29.343  1.00  0.00     0.074 A 
ATOM     50  C   UNL A   1      37.047  30.881  28.723  1.00  0.00     0.031 C 
ATOM     51  C   UNL A   1      42.507  30.454  31.320  1.00  0.00     0.029 A 
ATOM     52  C   UNL A   1      43.294  29.718  30.347  1.00  0.00     0.049 A 
ATOM     53  H   UNL A   1      42.660  27.800  29.592  1.00  0.00     0.167 HD
ATOM     54  C   UNL A   1      37.679  33.090  29.934  1.00  0.00     0.037 A 
ATOM     55  C   UNL A   1      44.227  30.259  29.510  1.00  0.00     0.037 A 
ATOM     56  C   UNL A   1      38.914  33.664  30.456  1.00  0.00     0.049 A 
ATOM     57  C   UNL A   1      44.073  31.746  29.266  1.00  0.00     0.074 A 
ATOM     58  C   UNL A   1      39.523  33.672  31.700  1.00  0.00     0.029 A 
ATOM     59  N   UNL A   1      39.867  34.110  29.561  1.00  0.00    -0.354 N 
ATOM     60  N   UNL A   1      43.079  32.467  29.706  1.00  0.00    -0.248 NA
ATOM     61  C   UNL A   1      44.986  32.515  28.416  1.00  0.00     0.031 C 
ATOM     62  C   UNL A   1      40.874  34.085  31.530  1.00  0.00     0.029 A 
ATOM     63  C   UNL A   1      41.078  34.333  30.185  1.00  0.00     0.049 A 
ATOM     64  H   UNL A   1      39.703  34.251  28.600  1.00  0.00     0.167 HD
ATOM     65  C   UNL A   1      43.171  33.725  29.177  1.00  0.00     0.074 A 
ATOM     66  C   UNL A   1      44.384  33.715  28.385  1.00  0.00     0.031 C 
ATOM     67  C   UNL A   1      42.229  34.686  29.379  1.00  0.00     0.037 A 
BRANCH  54  68
ATOM     68  C   UNL A   1      36.309  33.646  30.225  1.00  0.00     0.057 A 
ATOM     69  C   UNL A   1      35.465  34.065  29.180  1.00  0.00     0.134 A 
ATOM     70  C   UNL A   1      35.782  33.829  31.514  1.00  0.00     0.134 A 
ATOM     71  F   UNL A   1      35.784  33.870  27.894  1.00  0.00    -0.206 F 
ATOM     72  C   UNL A   1      34.246  34.719  29.403  1.00  0.00     0.040 A 
ATOM     73  C   UNL A   1      34.595  34.535  31.754  1.00  0.00     0.040 A 
ATOM     74  F   UNL A   1      36.372  33.294  32.591  1.00  0.00    -0.206 F 
ATOM     75  C   UNL A   1      33.827  34.996  30.695  1.00  0.00     0.006 A 
ENDBRANCH  54  68
BRANCH  55  76
ATOM     76  C   UNL A   1      44.749  29.290  28.510  1.00  0.00     0.057 A 
ATOM     77  C   UNL A   1      45.723  28.359  28.912  1.00  0.00     0.134 A 
ATOM     78  C   UNL A   1      44.084  29.040  27.308  1.00  0.00     0.134 A 
ATOM     79  F   UNL A   1      46.399  28.538  30.059  1.00  0.00    -0.206 F 
ATOM     80  C   UNL A   1      45.943  27.173  28.209  1.00  0.00     0.040 A 
ATOM     81  C   UNL A   1      44.312  27.865  26.584  1.00  0.00     0.040 A 
ATOM     82  F   UNL A   1      43.128  29.870  26.868  1.00  0.00    -0.206 F 
ATOM     83  C   UNL A   1      45.212  26.910  27.054  1.00  0.00     0.006 A 
ENDBRANCH  55  76
BRANCH  67  84
ATOM     84  C   UNL A   1      42.354  36.059  28.812  1.00  0.00     0.057 A 
ATOM     85  C   UNL A   1      41.850  36.381  27.546  1.00  0.00     0.134 A 
ATOM     86  C   UNL A   1      43.091  37.059  29.468  1.00  0.00     0.134 A 
ATOM     87  F   UNL A   1      41.155  35.479  26.836  1.00  0.00    -0.206 F 
ATOM     88  C   UNL A   1      42.061  37.634  26.965  1.00  0.00     0.040 A 
ATOM     89  C   UNL A   1      43.340  38.302  28.883  1.00  0.00     0.040 A 
ATOM     90  F   UNL A   1      43.583  36.864  30.701  1.00  0.00    -0.206 F 
ATOM     91  C   UNL A   1      42.820  38.594  27.627  1.00  0.00     0.006 A 
ENDBRANCH  67  84
ENDBRANCH  41  42
ENDBRANCH  33  36
ENDBRANCH  31  32
ENDBRANCH  30  31
ENDBRANCH  29  30
ENDBRANCH   1  29
TORSDOF 16
ENDMDL
