MODEL 1
REMARK VINA RESULT:     -11.8      0.000      0.000
REMARK SMILES COc1cc(/C=C2/N=C(c3ccccc3)OC2=O)ccc1OCC(=O)NCCCCCCNC(=O)c1ccc(-c2c3nc(c(-c4c(F)cccc4F)c4ccc([nH]4)c(-c4c(F)cccc4F)c4nc(c(-c5c(F)cccc5F)c5ccc2[nH]5)C=C4)C=C3)cc1
REMARK SMILES IDX 28 1 27 2 26 3 24 4 25 5 23 7 22 8 21 9 3 10 4 11 5 12 20 13
REMARK SMILES IDX 19 14 2 15 1 16 6 17 7 18 8 19 17 20 9 21 16 22 18 23 10 24
REMARK SMILES IDX 11 25 15 26 12 27 14 28 13 29 29 30 30 31 31 32 32 33 33 34
REMARK SMILES IDX 34 35 35 37 36 38 37 39 89 40 38 41 88 42 39 43 40 44 41 45
REMARK SMILES IDX 82 46 42 47 87 48 81 49 83 50 43 51 86 52 80 53 79 54 44 56
REMARK SMILES IDX 70 57 53 58 69 59 54 60 57 61 68 62 84 63 55 64 56 65 67 67
REMARK SMILES IDX 85 68 58 69 45 70 46 71 51 72 47 73 48 74 50 75 52 76 49 77
REMARK SMILES IDX 71 78 72 79 77 80 73 81 74 82 76 83 78 84 75 85 59 86 60 87
REMARK SMILES IDX 65 88 61 89 62 90 64 91 66 92 63 93
REMARK H PARENT 26 6 33 36 83 55 57 66
REMARK Flexibility Score: inf
ROOT
ATOM      1  C   UNL A   1      35.782  23.040  24.782  1.00  0.00     0.021 C 
ENDROOT
BRANCH   1   2
ATOM      2  C   UNL A   1      34.465  22.491  24.233  1.00  0.00     0.116 C 
BRANCH   2   3
ATOM      3  N   UNL A   1      34.253  22.840  22.846  1.00  0.00    -0.353 N 
ATOM      4  C   UNL A   1      33.154  23.399  22.267  1.00  0.00     0.257 C 
ATOM      5  O   UNL A   1      33.278  23.847  21.124  1.00  0.00    -0.271 OA
ATOM      6  H   UNL A   1      35.004  22.649  22.239  1.00  0.00     0.163 HD
BRANCH   4   7
ATOM      7  C   UNL A   1      31.844  23.537  23.056  1.00  0.00     0.329 C 
BRANCH   7   8
ATOM      8  O   UNL A   1      31.419  24.835  23.417  1.00  0.00    -0.480 OA
BRANCH   8   9
ATOM      9  C   UNL A   1      32.127  25.597  24.299  1.00  0.00     0.161 A 
ATOM     10  C   UNL A   1      32.027  25.656  25.693  1.00  0.00     0.161 A 
ATOM     11  C   UNL A   1      32.797  26.586  26.415  1.00  0.00     0.058 A 
ATOM     12  C   UNL A   1      33.666  27.462  25.749  1.00  0.00    -0.019 A 
ATOM     13  C   UNL A   1      33.028  26.456  23.651  1.00  0.00     0.051 A 
ATOM     14  C   UNL A   1      33.796  27.376  24.364  1.00  0.00     0.012 A 
BRANCH  10  15
ATOM     15  O   UNL A   1      31.057  24.954  26.355  1.00  0.00    -0.493 OA
ATOM     16  C   UNL A   1      31.472  23.636  26.714  1.00  0.00     0.278 C 
ENDBRANCH  10  15
BRANCH  12  17
ATOM     17  C   UNL A   1      34.367  28.520  26.480  1.00  0.00     0.044 C 
ATOM     18  C   UNL A   1      33.856  29.732  26.744  1.00  0.00     0.153 C 
ATOM     19  N   UNL A   1      34.510  30.681  27.490  1.00  0.00    -0.205 NA
ATOM     20  C   UNL A   1      32.493  30.227  26.373  1.00  0.00     0.363 C 
ATOM     21  C   UNL A   1      33.601  31.590  27.647  1.00  0.00     0.231 C 
ATOM     22  O   UNL A   1      32.409  31.412  27.040  1.00  0.00    -0.402 OA
ATOM     23  O   UNL A   1      31.637  29.739  25.663  1.00  0.00    -0.244 OA
BRANCH  21  24
ATOM     24  C   UNL A   1      33.711  32.828  28.419  1.00  0.00     0.037 A 
ATOM     25  C   UNL A   1      33.001  33.959  28.008  1.00  0.00     0.014 A 
ATOM     26  C   UNL A   1      34.575  32.894  29.519  1.00  0.00     0.014 A 
ATOM     27  C   UNL A   1      33.156  35.160  28.703  1.00  0.00     0.001 A 
ATOM     28  C   UNL A   1      34.738  34.102  30.197  1.00  0.00     0.001 A 
ATOM     29  C   UNL A   1      34.031  35.233  29.788  1.00  0.00     0.000 A 
ENDBRANCH  21  24
ENDBRANCH  12  17
ENDBRANCH   8   9
ENDBRANCH   7   8
ENDBRANCH   4   7
ENDBRANCH   2   3
ENDBRANCH   1   2
BRANCH   1  30
ATOM     30  C   UNL A   1      36.961  22.059  24.764  1.00  0.00     0.002 C 
BRANCH  30  31
ATOM     31  C   UNL A   1      36.612  20.587  25.000  1.00  0.00     0.002 C 
BRANCH  31  32
ATOM     32  C   UNL A   1      37.798  19.622  25.009  1.00  0.00     0.021 C 
BRANCH  32  33
ATOM     33  C   UNL A   1      39.029  20.128  25.745  1.00  0.00     0.116 C 
BRANCH  33  34
ATOM     34  N   UNL A   1      40.070  19.118  25.837  1.00  0.00    -0.352 N 
ATOM     35  C   UNL A   1      41.418  19.285  26.034  1.00  0.00     0.251 C 
ATOM     36  H   UNL A   1      39.766  18.186  25.747  1.00  0.00     0.163 HD
ATOM     37  O   UNL A   1      42.187  18.338  25.898  1.00  0.00    -0.269 OA
BRANCH  35  38
ATOM     38  C   UNL A   1      41.945  20.621  26.383  1.00  0.00     0.039 A 
ATOM     39  C   UNL A   1      42.286  21.503  25.356  1.00  0.00     0.014 A 
ATOM     40  C   UNL A   1      42.092  21.006  27.719  1.00  0.00     0.014 A 
ATOM     41  C   UNL A   1      42.717  22.794  25.670  1.00  0.00     0.010 A 
ATOM     42  C   UNL A   1      42.440  22.317  28.027  1.00  0.00     0.010 A 
ATOM     43  C   UNL A   1      42.764  23.222  27.007  1.00  0.00    -0.014 A 
BRANCH  43  44
ATOM     44  C   UNL A   1      43.152  24.613  27.353  1.00  0.00     0.031 A 
ATOM     45  C   UNL A   1      44.591  25.042  27.266  1.00  0.00     0.074 A 
ATOM     46  C   UNL A   1      42.216  25.476  27.799  1.00  0.00     0.049 A 
ATOM     47  N   UNL A   1      45.130  26.194  27.575  1.00  0.00    -0.248 NA
ATOM     48  C   UNL A   1      45.555  24.036  26.796  1.00  0.00     0.031 C 
ATOM     49  C   UNL A   1      40.795  25.168  27.970  1.00  0.00     0.029 A 
ATOM     50  N   UNL A   1      42.321  26.785  28.196  1.00  0.00    -0.354 N 
ATOM     51  C   UNL A   1      46.492  26.046  27.345  1.00  0.00     0.074 A 
ATOM     52  C   UNL A   1      46.705  24.678  26.931  1.00  0.00     0.031 C 
ATOM     53  C   UNL A   1      40.158  26.265  28.410  1.00  0.00     0.029 A 
ATOM     54  C   UNL A   1      41.128  27.338  28.594  1.00  0.00     0.049 A 
ATOM     55  H   UNL A   1      43.172  27.282  28.195  1.00  0.00     0.167 HD
ATOM     56  C   UNL A   1      47.473  26.975  27.447  1.00  0.00     0.037 A 
ATOM     57  C   UNL A   1      40.850  28.568  29.065  1.00  0.00     0.037 A 
ATOM     58  C   UNL A   1      47.256  28.339  27.847  1.00  0.00     0.049 A 
ATOM     59  C   UNL A   1      41.962  29.574  29.193  1.00  0.00     0.074 A 
ATOM     60  C   UNL A   1      48.175  29.371  27.930  1.00  0.00     0.029 A 
ATOM     61  N   UNL A   1      46.032  28.863  28.240  1.00  0.00    -0.354 N 
ATOM     62  N   UNL A   1      43.235  29.441  28.903  1.00  0.00    -0.248 NA
ATOM     63  C   UNL A   1      41.599  30.901  29.706  1.00  0.00     0.031 C 
ATOM     64  C   UNL A   1      47.520  30.502  28.428  1.00  0.00     0.029 A 
ATOM     65  C   UNL A   1      46.180  30.194  28.594  1.00  0.00     0.049 A 
ATOM     66  H   UNL A   1      45.185  28.362  28.264  1.00  0.00     0.167 HD
ATOM     67  C   UNL A   1      43.816  30.675  29.169  1.00  0.00     0.074 A 
ATOM     68  C   UNL A   1      42.754  31.547  29.628  1.00  0.00     0.031 C 
ATOM     69  C   UNL A   1      45.112  31.053  29.043  1.00  0.00     0.037 A 
BRANCH  56  70
ATOM     70  C   UNL A   1      48.876  26.541  27.121  1.00  0.00     0.057 A 
ATOM     71  C   UNL A   1      49.720  25.975  28.086  1.00  0.00     0.134 A 
ATOM     72  C   UNL A   1      49.376  26.659  25.818  1.00  0.00     0.134 A 
ATOM     73  F   UNL A   1      49.308  25.843  29.356  1.00  0.00    -0.206 F 
ATOM     74  C   UNL A   1      51.019  25.570  27.775  1.00  0.00     0.040 A 
ATOM     75  C   UNL A   1      50.663  26.229  25.487  1.00  0.00     0.040 A 
ATOM     76  F   UNL A   1      48.621  27.184  24.842  1.00  0.00    -0.206 F 
ATOM     77  C   UNL A   1      51.491  25.690  26.470  1.00  0.00     0.006 A 
ENDBRANCH  56  70
BRANCH  57  78
ATOM     78  C   UNL A   1      39.458  28.927  29.436  1.00  0.00     0.057 A 
ATOM     79  C   UNL A   1      38.573  29.468  28.495  1.00  0.00     0.134 A 
ATOM     80  C   UNL A   1      38.981  28.754  30.742  1.00  0.00     0.134 A 
ATOM     81  F   UNL A   1      38.976  29.676  27.233  1.00  0.00    -0.206 F 
ATOM     82  C   UNL A   1      37.274  29.845  28.842  1.00  0.00     0.040 A 
ATOM     83  C   UNL A   1      37.675  29.098  31.095  1.00  0.00     0.040 A 
ATOM     84  F   UNL A   1      39.774  28.232  31.689  1.00  0.00    -0.206 F 
ATOM     85  C   UNL A   1      36.821  29.655  30.146  1.00  0.00     0.006 A 
ENDBRANCH  57  78
BRANCH  69  86
ATOM     86  C   UNL A   1      45.449  32.480  29.366  1.00  0.00     0.057 A 
ATOM     87  C   UNL A   1      45.896  32.871  30.635  1.00  0.00     0.134 A 
ATOM     88  C   UNL A   1      45.361  33.471  28.379  1.00  0.00     0.134 A 
ATOM     89  F   UNL A   1      45.992  31.975  31.628  1.00  0.00    -0.206 F 
ATOM     90  C   UNL A   1      46.217  34.200  30.918  1.00  0.00     0.040 A 
ATOM     91  C   UNL A   1      45.710  34.797  28.641  1.00  0.00     0.040 A 
ATOM     92  F   UNL A   1      44.950  33.166  27.140  1.00  0.00    -0.206 F 
ATOM     93  C   UNL A   1      46.131  35.165  29.917  1.00  0.00     0.006 A 
ENDBRANCH  69  86
ENDBRANCH  43  44
ENDBRANCH  35  38
ENDBRANCH  33  34
ENDBRANCH  32  33
ENDBRANCH  31  32
ENDBRANCH  30  31
ENDBRANCH   1  30
TORSDOF 18
ENDMDL
MODEL 2
REMARK VINA RESULT:     -11.7      0.430      5.923
REMARK SMILES COc1cc(/C=C2/N=C(c3ccccc3)OC2=O)ccc1OCC(=O)NCCCCCCNC(=O)c1ccc(-c2c3nc(c(-c4c(F)cccc4F)c4ccc([nH]4)c(-c4c(F)cccc4F)c4nc(c(-c5c(F)cccc5F)c5ccc2[nH]5)C=C4)C=C3)cc1
REMARK SMILES IDX 28 1 27 2 26 3 24 4 25 5 23 7 22 8 21 9 3 10 4 11 5 12 20 13
REMARK SMILES IDX 19 14 2 15 1 16 6 17 7 18 8 19 17 20 9 21 16 22 18 23 10 24
REMARK SMILES IDX 11 25 15 26 12 27 14 28 13 29 29 30 30 31 31 32 32 33 33 34
REMARK SMILES IDX 34 35 35 37 36 38 37 39 89 40 38 41 88 42 39 43 40 44 41 45
REMARK SMILES IDX 82 46 42 47 87 48 81 49 83 50 43 51 86 52 80 53 79 54 44 56
REMARK SMILES IDX 70 57 53 58 69 59 54 60 57 61 68 62 84 63 55 64 56 65 67 67
REMARK SMILES IDX 85 68 58 69 45 70 46 71 51 72 47 73 48 74 50 75 52 76 49 77
REMARK SMILES IDX 71 78 72 79 77 80 73 81 74 82 76 83 78 84 75 85 59 86 60 87
REMARK SMILES IDX 65 88 61 89 62 90 64 91 66 92 63 93
REMARK H PARENT 26 6 33 36 83 55 57 66
REMARK Flexibility Score: inf
ROOT
ATOM      1  C   UNL A   1      35.724  23.266  25.116  1.00  0.00     0.021 C 
ENDROOT
BRANCH   1   2
ATOM      2  C   UNL A   1      34.419  22.663  24.598  1.00  0.00     0.116 C 
BRANCH   2   3
ATOM      3  N   UNL A   1      34.286  22.777  23.163  1.00  0.00    -0.353 N 
ATOM      4  C   UNL A   1      33.227  23.238  22.439  1.00  0.00     0.257 C 
ATOM      5  O   UNL A   1      33.418  23.488  21.246  1.00  0.00    -0.271 OA
ATOM      6  H   UNL A   1      35.064  22.481  22.638  1.00  0.00     0.163 HD
BRANCH   4   7
ATOM      7  C   UNL A   1      31.880  23.514  23.122  1.00  0.00     0.329 C 
BRANCH   7   8
ATOM      8  O   UNL A   1      31.530  24.859  23.383  1.00  0.00    -0.480 OA
BRANCH   8   9
ATOM      9  C   UNL A   1      32.211  25.607  24.298  1.00  0.00     0.161 A 
ATOM     10  C   UNL A   1      32.051  25.661  25.686  1.00  0.00     0.161 A 
ATOM     11  C   UNL A   1      32.802  26.577  26.445  1.00  0.00     0.058 A 
ATOM     12  C   UNL A   1      33.711  27.443  25.822  1.00  0.00    -0.019 A 
ATOM     13  C   UNL A   1      33.149  26.456  23.693  1.00  0.00     0.051 A 
ATOM     14  C   UNL A   1      33.899  27.362  24.443  1.00  0.00     0.012 A 
BRANCH  10  15
ATOM     15  O   UNL A   1      31.045  24.969  26.303  1.00  0.00    -0.493 OA
ATOM     16  C   UNL A   1      29.763  25.568  26.116  1.00  0.00     0.278 C 
ENDBRANCH  10  15
BRANCH  12  17
ATOM     17  C   UNL A   1      34.394  28.488  26.587  1.00  0.00     0.044 C 
ATOM     18  C   UNL A   1      33.910  29.722  26.796  1.00  0.00     0.153 C 
ATOM     19  N   UNL A   1      34.541  30.660  27.575  1.00  0.00    -0.205 NA
ATOM     20  C   UNL A   1      32.595  30.257  26.320  1.00  0.00     0.363 C 
ATOM     21  C   UNL A   1      33.657  31.602  27.652  1.00  0.00     0.231 C 
ATOM     22  O   UNL A   1      32.506  31.455  26.962  1.00  0.00    -0.402 OA
ATOM     23  O   UNL A   1      31.776  29.788  25.555  1.00  0.00    -0.244 OA
BRANCH  21  24
ATOM     24  C   UNL A   1      33.754  32.848  28.413  1.00  0.00     0.037 A 
ATOM     25  C   UNL A   1      34.574  32.901  29.543  1.00  0.00     0.014 A 
ATOM     26  C   UNL A   1      32.980  33.956  28.046  1.00  0.00     0.014 A 
ATOM     27  C   UNL A   1      34.617  34.067  30.309  1.00  0.00     0.001 A 
ATOM     28  C   UNL A   1      33.014  35.111  28.827  1.00  0.00     0.001 A 
ATOM     29  C   UNL A   1      33.831  35.165  29.957  1.00  0.00     0.000 A 
ENDBRANCH  21  24
ENDBRANCH  12  17
ENDBRANCH   8   9
ENDBRANCH   7   8
ENDBRANCH   4   7
ENDBRANCH   2   3
ENDBRANCH   1   2
BRANCH   1  30
ATOM     30  C   UNL A   1      36.832  22.256  25.439  1.00  0.00     0.002 C 
BRANCH  30  31
ATOM     31  C   UNL A   1      36.568  20.810  25.006  1.00  0.00     0.002 C 
BRANCH  31  32
ATOM     32  C   UNL A   1      37.812  19.942  24.817  1.00  0.00     0.021 C 
BRANCH  32  33
ATOM     33  C   UNL A   1      38.988  20.306  25.710  1.00  0.00     0.116 C 
BRANCH  33  34
ATOM     34  N   UNL A   1      39.949  19.223  25.824  1.00  0.00    -0.352 N 
ATOM     35  C   UNL A   1      41.298  19.289  26.071  1.00  0.00     0.251 C 
ATOM     36  H   UNL A   1      39.583  18.317  25.710  1.00  0.00     0.163 HD
ATOM     37  O   UNL A   1      42.001  18.291  25.950  1.00  0.00    -0.269 OA
BRANCH  35  38
ATOM     38  C   UNL A   1      41.907  20.579  26.458  1.00  0.00     0.039 A 
ATOM     39  C   UNL A   1      42.272  21.482  25.458  1.00  0.00     0.014 A 
ATOM     40  C   UNL A   1      42.107  20.902  27.804  1.00  0.00     0.014 A 
ATOM     41  C   UNL A   1      42.782  22.733  25.810  1.00  0.00     0.010 A 
ATOM     42  C   UNL A   1      42.535  22.179  28.154  1.00  0.00     0.010 A 
ATOM     43  C   UNL A   1      42.884  23.105  27.161  1.00  0.00    -0.014 A 
BRANCH  43  44
ATOM     44  C   UNL A   1      43.357  24.458  27.551  1.00  0.00     0.031 A 
ATOM     45  C   UNL A   1      42.377  25.494  28.028  1.00  0.00     0.074 A 
ATOM     46  C   UNL A   1      44.662  24.771  27.421  1.00  0.00     0.049 A 
ATOM     47  N   UNL A   1      42.590  26.741  28.362  1.00  0.00    -0.248 NA
ATOM     48  C   UNL A   1      40.967  25.082  28.116  1.00  0.00     0.031 C 
ATOM     49  C   UNL A   1      45.704  23.869  26.928  1.00  0.00     0.029 A 
ATOM     50  N   UNL A   1      45.333  25.938  27.689  1.00  0.00    -0.354 N 
ATOM     51  C   UNL A   1      41.344  27.262  28.690  1.00  0.00     0.074 A 
ATOM     52  C   UNL A   1      40.374  26.216  28.456  1.00  0.00     0.031 C 
ATOM     53  C   UNL A   1      46.885  24.507  26.954  1.00  0.00     0.029 A 
ATOM     54  C   UNL A   1      46.679  25.873  27.423  1.00  0.00     0.049 A 
ATOM     55  H   UNL A   1      44.891  26.746  28.039  1.00  0.00     0.167 HD
ATOM     56  C   UNL A   1      41.040  28.493  29.166  1.00  0.00     0.037 A 
ATOM     57  C   UNL A   1      47.638  26.812  27.534  1.00  0.00     0.037 A 
ATOM     58  C   UNL A   1      42.010  29.527  29.410  1.00  0.00     0.049 A 
ATOM     59  C   UNL A   1      47.269  28.179  28.042  1.00  0.00     0.074 A 
ATOM     60  C   UNL A   1      41.810  30.789  29.941  1.00  0.00     0.029 A 
ATOM     61  N   UNL A   1      43.365  29.422  29.131  1.00  0.00    -0.354 N 
ATOM     62  N   UNL A   1      46.098  28.635  28.416  1.00  0.00    -0.248 NA
ATOM     63  C   UNL A   1      48.357  29.161  28.148  1.00  0.00     0.031 C 
ATOM     64  C   UNL A   1      43.032  31.469  29.929  1.00  0.00     0.029 A 
ATOM     65  C   UNL A   1      44.007  30.607  29.451  1.00  0.00     0.049 A 
ATOM     66  H   UNL A   1      43.806  28.623  28.760  1.00  0.00     0.167 HD
ATOM     67  C   UNL A   1      46.314  29.943  28.831  1.00  0.00     0.074 A 
ATOM     68  C   UNL A   1      47.731  30.203  28.677  1.00  0.00     0.031 C 
ATOM     69  C   UNL A   1      45.420  30.849  29.299  1.00  0.00     0.037 A 
BRANCH  56  70
ATOM     70  C   UNL A   1      39.594  28.788  29.452  1.00  0.00     0.057 A 
ATOM     71  C   UNL A   1      39.027  28.566  30.714  1.00  0.00     0.134 A 
ATOM     72  C   UNL A   1      38.766  29.334  28.463  1.00  0.00     0.134 A 
ATOM     73  F   UNL A   1      39.761  28.035  31.705  1.00  0.00    -0.206 F 
ATOM     74  C   UNL A   1      37.685  28.847  30.974  1.00  0.00     0.040 A 
ATOM     75  C   UNL A   1      37.430  29.649  28.719  1.00  0.00     0.040 A 
ATOM     76  F   UNL A   1      39.243  29.580  27.233  1.00  0.00    -0.206 F 
ATOM     77  C   UNL A   1      36.884  29.398  29.976  1.00  0.00     0.006 A 
ENDBRANCH  56  70
BRANCH  57  78
ATOM     78  C   UNL A   1      49.042  26.489  27.175  1.00  0.00     0.057 A 
ATOM     79  C   UNL A   1      49.534  26.727  25.886  1.00  0.00     0.134 A 
ATOM     80  C   UNL A   1      49.923  25.923  28.105  1.00  0.00     0.134 A 
ATOM     81  F   UNL A   1      48.734  27.251  24.946  1.00  0.00    -0.206 F 
ATOM     82  C   UNL A   1      50.842  26.393  25.527  1.00  0.00     0.040 A 
ATOM     83  C   UNL A   1      51.242  25.611  27.768  1.00  0.00     0.040 A 
ATOM     84  F   UNL A   1      49.519  25.677  29.360  1.00  0.00    -0.206 F 
ATOM     85  C   UNL A   1      51.701  25.838  26.473  1.00  0.00     0.006 A 
ENDBRANCH  57  78
BRANCH  69  86
ATOM     86  C   UNL A   1      45.951  32.190  29.718  1.00  0.00     0.057 A 
ATOM     87  C   UNL A   1      46.002  33.279  28.838  1.00  0.00     0.134 A 
ATOM     88  C   UNL A   1      46.381  32.403  31.035  1.00  0.00     0.134 A 
ATOM     89  F   UNL A   1      45.616  33.140  27.561  1.00  0.00    -0.206 F 
ATOM     90  C   UNL A   1      46.488  34.523  29.245  1.00  0.00     0.040 A 
ATOM     91  C   UNL A   1      46.838  33.651  31.461  1.00  0.00     0.040 A 
ATOM     92  F   UNL A   1      46.351  31.407  31.933  1.00  0.00    -0.206 F 
ATOM     93  C   UNL A   1      46.900  34.713  30.562  1.00  0.00     0.006 A 
ENDBRANCH  69  86
ENDBRANCH  43  44
ENDBRANCH  35  38
ENDBRANCH  33  34
ENDBRANCH  32  33
ENDBRANCH  31  32
ENDBRANCH  30  31
ENDBRANCH   1  30
TORSDOF 18
ENDMDL
MODEL 3
REMARK VINA RESULT:     -11.3      4.589      6.998
REMARK SMILES COc1cc(/C=C2/N=C(c3ccccc3)OC2=O)ccc1OCC(=O)NCCCCCCNC(=O)c1ccc(-c2c3nc(c(-c4c(F)cccc4F)c4ccc([nH]4)c(-c4c(F)cccc4F)c4nc(c(-c5c(F)cccc5F)c5ccc2[nH]5)C=C4)C=C3)cc1
REMARK SMILES IDX 28 1 27 2 26 3 24 4 25 5 23 7 22 8 21 9 3 10 4 11 5 12 20 13
REMARK SMILES IDX 19 14 2 15 1 16 6 17 7 18 8 19 17 20 9 21 16 22 18 23 10 24
REMARK SMILES IDX 11 25 15 26 12 27 14 28 13 29 29 30 30 31 31 32 32 33 33 34
REMARK SMILES IDX 34 35 35 37 36 38 37 39 89 40 38 41 88 42 39 43 40 44 41 45
REMARK SMILES IDX 82 46 42 47 87 48 81 49 83 50 43 51 86 52 80 53 79 54 44 56
REMARK SMILES IDX 70 57 53 58 69 59 54 60 57 61 68 62 84 63 55 64 56 65 67 67
REMARK SMILES IDX 85 68 58 69 45 70 46 71 51 72 47 73 48 74 50 75 52 76 49 77
REMARK SMILES IDX 71 78 72 79 77 80 73 81 74 82 76 83 78 84 75 85 59 86 60 87
REMARK SMILES IDX 65 88 61 89 62 90 64 91 66 92 63 93
REMARK H PARENT 26 6 33 36 83 55 57 66
REMARK Flexibility Score: inf
ROOT
ATOM      1  C   UNL A   1      35.958  21.928  24.322  1.00  0.00     0.021 C 
ENDROOT
BRANCH   1   2
ATOM      2  C   UNL A   1      35.339  20.996  25.364  1.00  0.00     0.116 C 
BRANCH   2   3
ATOM      3  N   UNL A   1      35.532  19.599  25.044  1.00  0.00    -0.353 N 
ATOM      4  C   UNL A   1      34.599  18.667  24.702  1.00  0.00     0.257 C 
ATOM      5  O   UNL A   1      35.004  17.605  24.223  1.00  0.00    -0.271 OA
ATOM      6  H   UNL A   1      36.462  19.279  25.077  1.00  0.00     0.163 HD
BRANCH   4   7
ATOM      7  C   UNL A   1      33.102  18.981  24.832  1.00  0.00     0.329 C 
BRANCH   7   8
ATOM      8  O   UNL A   1      32.503  19.789  23.839  1.00  0.00    -0.480 OA
BRANCH   8   9
ATOM      9  C   UNL A   1      32.100  21.065  24.106  1.00  0.00     0.161 A 
ATOM     10  C   UNL A   1      32.072  22.176  23.259  1.00  0.00     0.161 A 
ATOM     11  C   UNL A   1      31.703  23.436  23.763  1.00  0.00     0.058 A 
ATOM     12  C   UNL A   1      31.364  23.592  25.115  1.00  0.00    -0.019 A 
ATOM     13  C   UNL A   1      31.724  21.230  25.448  1.00  0.00     0.051 A 
ATOM     14  C   UNL A   1      31.353  22.476  25.950  1.00  0.00     0.012 A 
BRANCH  10  15
ATOM     15  O   UNL A   1      32.576  22.102  21.989  1.00  0.00    -0.493 OA
ATOM     16  C   UNL A   1      33.267  23.287  21.594  1.00  0.00     0.278 C 
ENDBRANCH  10  15
BRANCH  12  17
ATOM     17  C   UNL A   1      31.110  24.921  25.674  1.00  0.00     0.044 C 
ATOM     18  C   UNL A   1      32.064  25.797  26.024  1.00  0.00     0.153 C 
ATOM     19  N   UNL A   1      31.797  27.063  26.483  1.00  0.00    -0.205 NA
ATOM     20  C   UNL A   1      33.543  25.606  25.892  1.00  0.00     0.363 C 
ATOM     21  C   UNL A   1      32.971  27.605  26.512  1.00  0.00     0.231 C 
ATOM     22  O   UNL A   1      34.036  26.841  26.187  1.00  0.00    -0.402 OA
ATOM     23  O   UNL A   1      34.195  24.623  25.601  1.00  0.00    -0.244 OA
BRANCH  21  24
ATOM     24  C   UNL A   1      33.301  28.985  26.871  1.00  0.00     0.037 A 
ATOM     25  C   UNL A   1      34.588  29.289  27.322  1.00  0.00     0.014 A 
ATOM     26  C   UNL A   1      32.313  29.976  26.826  1.00  0.00     0.014 A 
ATOM     27  C   UNL A   1      34.887  30.590  27.729  1.00  0.00     0.001 A 
ATOM     28  C   UNL A   1      32.614  31.270  27.253  1.00  0.00     0.001 A 
ATOM     29  C   UNL A   1      33.898  31.575  27.704  1.00  0.00     0.000 A 
ENDBRANCH  21  24
ENDBRANCH  12  17
ENDBRANCH   8   9
ENDBRANCH   7   8
ENDBRANCH   4   7
ENDBRANCH   2   3
ENDBRANCH   1   2
BRANCH   1  30
ATOM     30  C   UNL A   1      37.440  22.262  24.537  1.00  0.00     0.002 C 
BRANCH  30  31
ATOM     31  C   UNL A   1      37.841  22.640  25.967  1.00  0.00     0.002 C 
BRANCH  31  32
ATOM     32  C   UNL A   1      39.286  22.323  26.351  1.00  0.00     0.021 C 
BRANCH  32  33
ATOM     33  C   UNL A   1      40.067  23.496  26.923  1.00  0.00     0.116 C 
BRANCH  33  34
ATOM     34  N   UNL A   1      41.023  24.038  25.972  1.00  0.00    -0.352 N 
ATOM     35  C   UNL A   1      41.509  25.317  25.870  1.00  0.00     0.251 C 
ATOM     36  H   UNL A   1      41.371  23.398  25.310  1.00  0.00     0.163 HD
ATOM     37  O   UNL A   1      42.169  25.655  24.893  1.00  0.00    -0.269 OA
BRANCH  35  38
ATOM     38  C   UNL A   1      41.209  26.298  26.935  1.00  0.00     0.039 A 
ATOM     39  C   UNL A   1      40.343  25.933  27.967  1.00  0.00     0.014 A 
ATOM     40  C   UNL A   1      41.789  27.570  26.920  1.00  0.00     0.014 A 
ATOM     41  C   UNL A   1      40.107  26.823  29.017  1.00  0.00     0.010 A 
ATOM     42  C   UNL A   1      41.620  28.421  28.008  1.00  0.00     0.010 A 
ATOM     43  C   UNL A   1      40.771  28.060  29.063  1.00  0.00    -0.014 A 
BRANCH  43  44
ATOM     44  C   UNL A   1      40.585  28.987  30.208  1.00  0.00     0.031 A 
ATOM     45  C   UNL A   1      41.444  28.855  31.436  1.00  0.00     0.074 A 
ATOM     46  C   UNL A   1      39.606  29.912  30.166  1.00  0.00     0.049 A 
ATOM     47  N   UNL A   1      41.398  29.534  32.554  1.00  0.00    -0.248 NA
ATOM     48  C   UNL A   1      42.473  27.804  31.415  1.00  0.00     0.031 C 
ATOM     49  C   UNL A   1      38.677  30.111  29.052  1.00  0.00     0.029 A 
ATOM     50  N   UNL A   1      39.224  30.856  31.087  1.00  0.00    -0.354 N 
ATOM     51  C   UNL A   1      42.382  28.988  33.368  1.00  0.00     0.074 A 
ATOM     52  C   UNL A   1      42.966  27.883  32.642  1.00  0.00     0.031 C 
ATOM     53  C   UNL A   1      37.852  31.130  29.343  1.00  0.00     0.029 A 
ATOM     54  C   UNL A   1      38.163  31.627  30.679  1.00  0.00     0.049 A 
ATOM     55  H   UNL A   1      39.669  30.968  31.959  1.00  0.00     0.167 HD
ATOM     56  C   UNL A   1      42.779  29.386  34.600  1.00  0.00     0.037 A 
ATOM     57  C   UNL A   1      37.508  32.617  31.314  1.00  0.00     0.037 A 
ATOM     58  C   UNL A   1      42.204  30.495  35.315  1.00  0.00     0.049 A 
ATOM     59  C   UNL A   1      37.952  33.024  32.693  1.00  0.00     0.074 A 
ATOM     60  C   UNL A   1      42.571  31.011  36.546  1.00  0.00     0.029 A 
ATOM     61  N   UNL A   1      41.133  31.255  34.867  1.00  0.00    -0.354 N 
ATOM     62  N   UNL A   1      38.931  32.545  33.422  1.00  0.00    -0.248 NA
ATOM     63  C   UNL A   1      37.204  34.114  33.334  1.00  0.00     0.031 C 
ATOM     64  C   UNL A   1      41.686  32.045  36.869  1.00  0.00     0.029 A 
ATOM     65  C   UNL A   1      40.808  32.215  35.810  1.00  0.00     0.049 A 
ATOM     66  H   UNL A   1      40.671  31.129  34.006  1.00  0.00     0.167 HD
ATOM     67  C   UNL A   1      38.937  33.294  34.592  1.00  0.00     0.074 A 
ATOM     68  C   UNL A   1      37.873  34.269  34.468  1.00  0.00     0.031 C 
ATOM     69  C   UNL A   1      39.750  33.186  35.671  1.00  0.00     0.037 A 
BRANCH  56  70
ATOM     70  C   UNL A   1      43.890  28.614  35.255  1.00  0.00     0.057 A 
ATOM     71  C   UNL A   1      43.637  27.556  36.138  1.00  0.00     0.134 A 
ATOM     72  C   UNL A   1      45.230  28.909  34.973  1.00  0.00     0.134 A 
ATOM     73  F   UNL A   1      42.377  27.227  36.462  1.00  0.00    -0.206 F 
ATOM     74  C   UNL A   1      44.674  26.839  36.739  1.00  0.00     0.040 A 
ATOM     75  C   UNL A   1      46.276  28.180  35.542  1.00  0.00     0.040 A 
ATOM     76  F   UNL A   1      45.546  29.904  34.130  1.00  0.00    -0.206 F 
ATOM     77  C   UNL A   1      45.998  27.147  36.435  1.00  0.00     0.006 A 
ENDBRANCH  56  70
BRANCH  57  78
ATOM     78  C   UNL A   1      36.372  33.306  30.650  1.00  0.00     0.057 A 
ATOM     79  C   UNL A   1      36.583  34.185  29.580  1.00  0.00     0.134 A 
ATOM     80  C   UNL A   1      35.051  33.116  31.075  1.00  0.00     0.134 A 
ATOM     81  F   UNL A   1      37.826  34.423  29.138  1.00  0.00    -0.206 F 
ATOM     82  C   UNL A   1      35.526  34.866  28.973  1.00  0.00     0.040 A 
ATOM     83  C   UNL A   1      33.983  33.768  30.458  1.00  0.00     0.040 A 
ATOM     84  F   UNL A   1      34.779  32.281  32.089  1.00  0.00    -0.206 F 
ATOM     85  C   UNL A   1      34.221  34.654  29.410  1.00  0.00     0.006 A 
ENDBRANCH  57  78
BRANCH  69  86
ATOM     86  C   UNL A   1      39.551  34.171  36.787  1.00  0.00     0.057 A 
ATOM     87  C   UNL A   1      38.855  33.840  37.957  1.00  0.00     0.134 A 
ATOM     88  C   UNL A   1      40.098  35.458  36.704  1.00  0.00     0.134 A 
ATOM     89  F   UNL A   1      38.297  32.628  38.097  1.00  0.00    -0.206 F 
ATOM     90  C   UNL A   1      38.688  34.762  38.992  1.00  0.00     0.040 A 
ATOM     91  C   UNL A   1      39.964  36.378  37.744  1.00  0.00     0.040 A 
ATOM     92  F   UNL A   1      40.784  35.839  35.616  1.00  0.00    -0.206 F 
ATOM     93  C   UNL A   1      39.250  36.033  38.890  1.00  0.00     0.006 A 
ENDBRANCH  69  86
ENDBRANCH  43  44
ENDBRANCH  35  38
ENDBRANCH  33  34
ENDBRANCH  32  33
ENDBRANCH  31  32
ENDBRANCH  30  31
ENDBRANCH   1  30
TORSDOF 18
ENDMDL
