MODEL 1
REMARK VINA RESULT:     -12.1      0.000      0.000
REMARK SMILES CC(C)c1cc(C2CC[NH+](Cc3c[nH]nc3C(=O)NCCCCCCNC(=O)c3ccc(-c4c5nc(c(-c6c(F)cccc6F)c6ccc([nH]6)c(-c6c(F)cccc6F)c6nc(c(-c7c(F)cccc7F)c7ccc4[nH]7)C=C6)C=C5)cc3)CC2)n[nH]1
REMARK SMILES IDX 21 1 20 2 19 3 17 4 18 5 16 7 12 8 13 9 14 10 15 11 11 13
REMARK SMILES IDX 10 14 7 15 8 16 84 17 9 18 83 19 6 21 4 22 5 23 86 24 85 25
REMARK SMILES IDX 2 27 1 28 3 29 22 30 23 31 24 32 25 33 26 34 27 35 28 37
REMARK SMILES IDX 29 38 30 39 82 40 31 41 81 42 32 43 33 44 34 45 75 46 35 47
REMARK SMILES IDX 80 48 74 49 76 50 36 51 79 52 73 53 72 54 37 56 63 57 46 58
REMARK SMILES IDX 62 59 47 60 50 61 61 62 77 63 48 64 49 65 60 67 78 68 51 69
REMARK SMILES IDX 38 70 39 71 44 72 40 73 41 74 43 75 45 76 42 77 64 78 65 79
REMARK SMILES IDX 70 80 66 81 67 82 69 83 71 84 68 85 52 86 53 87 58 88 54 89
REMARK SMILES IDX 55 90 57 91 59 92 56 93
REMARK H PARENT 19 6 14 12 10 20 86 26 26 36 76 55 50 66
REMARK Flexibility Score: inf
ROOT
ATOM      1  C   UNL A   1      34.142  20.456  24.651  1.00  0.00     0.021 C 
ENDROOT
BRANCH   1   2
ATOM      2  C   UNL A   1      32.857  20.596  25.451  1.00  0.00     0.116 C 
BRANCH   2   3
ATOM      3  N   UNL A   1      33.012  21.152  26.756  1.00  0.00    -0.351 N 
ATOM      4  C   UNL A   1      32.512  22.300  27.326  1.00  0.00     0.272 C 
ATOM      5  O   UNL A   1      32.859  22.431  28.509  1.00  0.00    -0.267 OA
ATOM      6  H   UNL A   1      33.578  20.617  27.357  1.00  0.00     0.163 HD
BRANCH   4   7
ATOM      7  C   UNL A   1      31.648  23.335  26.660  1.00  0.00     0.158 A 
ATOM      8  C   UNL A   1      31.735  24.249  25.525  1.00  0.00     0.057 A 
ATOM      9  C   UNL A   1      30.487  24.852  25.467  1.00  0.00     0.115 A 
ATOM     10  N   UNL A   1      29.772  24.382  26.510  1.00  0.00    -0.284 N 
ATOM     11  N   UNL A   1      30.428  23.488  27.234  1.00  0.00    -0.170 NA
ATOM     12  H   UNL A   1      28.854  24.674  26.713  1.00  0.00     0.189 HD
BRANCH   8  13
ATOM     13  C   UNL A   1      32.795  24.572  24.514  1.00  0.00     0.303 C 
BRANCH  13  14
ATOM     14  N   UNL A   1      33.495  25.871  24.728  1.00  0.00    -0.331 N 
ATOM     15  C   UNL A   1      33.640  28.842  24.946  1.00  0.00     0.051 C 
ATOM     16  C   UNL A   1      34.059  28.086  23.680  1.00  0.00     0.071 C 
ATOM     17  C   UNL A   1      33.894  27.936  26.146  1.00  0.00     0.071 C 
ATOM     18  C   UNL A   1      33.352  26.736  23.548  1.00  0.00     0.263 C 
ATOM     19  C   UNL A   1      33.250  26.553  26.010  1.00  0.00     0.263 C 
ATOM     20  H   UNL A   1      34.481  25.628  24.830  1.00  0.00     0.348 HD
BRANCH  15  21
ATOM     21  C   UNL A   1      32.234  29.378  24.832  1.00  0.00     0.066 A 
ATOM     22  C   UNL A   1      30.276  30.022  24.003  1.00  0.00     0.038 A 
ATOM     23  C   UNL A   1      31.221  29.030  23.911  1.00  0.00     0.049 A 
ATOM     24  N   UNL A   1      30.657  30.776  25.076  1.00  0.00    -0.282 N 
ATOM     25  N   UNL A   1      31.854  30.424  25.579  1.00  0.00    -0.180 NA
ATOM     26  H   UNL A   1      30.110  31.507  25.445  1.00  0.00     0.190 HD
BRANCH  22  27
ATOM     27  C   UNL A   1      29.138  30.334  23.087  1.00  0.00     0.031 C 
ATOM     28  C   UNL A   1      28.232  29.135  22.842  1.00  0.00     0.014 C 
ATOM     29  C   UNL A   1      28.354  31.535  23.621  1.00  0.00     0.014 C 
ENDBRANCH  22  27
ENDBRANCH  15  21
ENDBRANCH  13  14
ENDBRANCH   8  13
ENDBRANCH   4   7
ENDBRANCH   2   3
ENDBRANCH   1   2
BRANCH   1  30
ATOM     30  C   UNL A   1      35.410  20.871  25.387  1.00  0.00     0.002 C 
BRANCH  30  31
ATOM     31  C   UNL A   1      36.703  20.801  24.568  1.00  0.00     0.002 C 
BRANCH  31  32
ATOM     32  C   UNL A   1      37.751  19.790  25.044  1.00  0.00     0.021 C 
BRANCH  32  33
ATOM     33  C   UNL A   1      39.061  20.389  25.545  1.00  0.00     0.116 C 
BRANCH  33  34
ATOM     34  N   UNL A   1      40.088  19.384  25.753  1.00  0.00    -0.352 N 
ATOM     35  C   UNL A   1      41.390  19.529  26.169  1.00  0.00     0.251 C 
ATOM     36  H   UNL A   1      39.810  18.458  25.567  1.00  0.00     0.163 HD
ATOM     37  O   UNL A   1      42.165  18.585  26.122  1.00  0.00    -0.269 OA
BRANCH  35  38
ATOM     38  C   UNL A   1      41.855  20.844  26.654  1.00  0.00     0.039 A 
ATOM     39  C   UNL A   1      42.410  21.744  25.740  1.00  0.00     0.014 A 
ATOM     40  C   UNL A   1      41.737  21.189  28.002  1.00  0.00     0.014 A 
ATOM     41  C   UNL A   1      42.779  23.021  26.166  1.00  0.00     0.010 A 
ATOM     42  C   UNL A   1      42.036  22.484  28.409  1.00  0.00     0.010 A 
ATOM     43  C   UNL A   1      42.555  23.415  27.495  1.00  0.00    -0.014 A 
BRANCH  43  44
ATOM     44  C   UNL A   1      42.838  24.797  27.956  1.00  0.00     0.031 A 
ATOM     45  C   UNL A   1      44.226  25.173  28.392  1.00  0.00     0.074 A 
ATOM     46  C   UNL A   1      41.827  25.678  28.080  1.00  0.00     0.049 A 
ATOM     47  N   UNL A   1      44.645  26.277  28.956  1.00  0.00    -0.248 NA
ATOM     48  C   UNL A   1      45.275  24.161  28.194  1.00  0.00     0.031 C 
ATOM     49  C   UNL A   1      40.429  25.419  27.728  1.00  0.00     0.029 A 
ATOM     50  N   UNL A   1      41.815  26.964  28.561  1.00  0.00    -0.354 N 
ATOM     51  C   UNL A   1      45.998  26.084  29.202  1.00  0.00     0.074 A 
ATOM     52  C   UNL A   1      46.319  24.741  28.769  1.00  0.00     0.031 C 
ATOM     53  C   UNL A   1      39.698  26.512  27.998  1.00  0.00     0.029 A 
ATOM     54  C   UNL A   1      40.563  27.530  28.586  1.00  0.00     0.049 A 
ATOM     55  H   UNL A   1      42.626  27.435  28.860  1.00  0.00     0.167 HD
ATOM     56  C   UNL A   1      46.894  26.952  29.728  1.00  0.00     0.037 A 
ATOM     57  C   UNL A   1      40.154  28.726  29.050  1.00  0.00     0.037 A 
ATOM     58  C   UNL A   1      46.571  28.293  30.138  1.00  0.00     0.049 A 
ATOM     59  C   UNL A   1      41.164  29.669  29.642  1.00  0.00     0.074 A 
ATOM     60  C   UNL A   1      47.420  29.273  30.623  1.00  0.00     0.029 A 
ATOM     61  N   UNL A   1      45.297  28.841  30.119  1.00  0.00    -0.354 N 
ATOM     62  N   UNL A   1      42.453  29.500  29.810  1.00  0.00    -0.248 NA
ATOM     63  C   UNL A   1      40.666  30.972  30.105  1.00  0.00     0.031 C 
ATOM     64  C   UNL A   1      46.651  30.395  30.947  1.00  0.00     0.029 A 
ATOM     65  C   UNL A   1      45.332  30.137  30.609  1.00  0.00     0.049 A 
ATOM     66  H   UNL A   1      44.487  28.378  29.805  1.00  0.00     0.167 HD
ATOM     67  C   UNL A   1      42.925  30.682  30.366  1.00  0.00     0.074 A 
ATOM     68  C   UNL A   1      41.784  31.563  30.501  1.00  0.00     0.031 C 
ATOM     69  C   UNL A   1      44.190  31.008  30.725  1.00  0.00     0.037 A 
BRANCH  56  70
ATOM     70  C   UNL A   1      48.307  26.474  29.900  1.00  0.00     0.057 A 
ATOM     71  C   UNL A   1      49.287  26.687  28.921  1.00  0.00     0.134 A 
ATOM     72  C   UNL A   1      48.699  25.817  31.073  1.00  0.00     0.134 A 
ATOM     73  F   UNL A   1      48.977  27.299  27.769  1.00  0.00    -0.206 F 
ATOM     74  C   UNL A   1      50.598  26.236  29.091  1.00  0.00     0.040 A 
ATOM     75  C   UNL A   1      50.014  25.390  31.268  1.00  0.00     0.040 A 
ATOM     76  F   UNL A   1      47.814  25.588  32.055  1.00  0.00    -0.206 F 
ATOM     77  C   UNL A   1      50.966  25.593  30.270  1.00  0.00     0.006 A 
ENDBRANCH  56  70
BRANCH  57  78
ATOM     78  C   UNL A   1      38.720  29.101  28.965  1.00  0.00     0.057 A 
ATOM     79  C   UNL A   1      38.168  29.582  27.772  1.00  0.00     0.134 A 
ATOM     80  C   UNL A   1      37.866  28.987  30.069  1.00  0.00     0.134 A 
ATOM     81  F   UNL A   1      38.938  29.731  26.685  1.00  0.00    -0.206 F 
ATOM     82  C   UNL A   1      36.825  29.951  27.683  1.00  0.00     0.040 A 
ATOM     83  C   UNL A   1      36.515  29.328  29.988  1.00  0.00     0.040 A 
ATOM     84  F   UNL A   1      38.331  28.524  31.240  1.00  0.00    -0.206 F 
ATOM     85  C   UNL A   1      35.993  29.819  28.793  1.00  0.00     0.006 A 
ENDBRANCH  57  78
BRANCH  69  86
ATOM     86  C   UNL A   1      44.425  32.393  31.256  1.00  0.00     0.057 A 
ATOM     87  C   UNL A   1      44.710  33.473  30.413  1.00  0.00     0.134 A 
ATOM     88  C   UNL A   1      44.299  32.657  32.626  1.00  0.00     0.134 A 
ATOM     89  F   UNL A   1      44.857  33.287  29.092  1.00  0.00    -0.206 F 
ATOM     90  C   UNL A   1      44.878  34.765  30.916  1.00  0.00     0.040 A 
ATOM     91  C   UNL A   1      44.437  33.947  33.137  1.00  0.00     0.040 A 
ATOM     92  F   UNL A   1      44.017  31.667  33.488  1.00  0.00    -0.206 F 
ATOM     93  C   UNL A   1      44.732  35.006  32.281  1.00  0.00     0.006 A 
ENDBRANCH  69  86
ENDBRANCH  43  44
ENDBRANCH  35  38
ENDBRANCH  33  34
ENDBRANCH  32  33
ENDBRANCH  31  32
ENDBRANCH  30  31
ENDBRANCH   1  30
TORSDOF 17
ENDMDL
MODEL 2
REMARK VINA RESULT:     -12.1      1.732      6.315
REMARK SMILES CC(C)c1cc(C2CC[NH+](Cc3c[nH]nc3C(=O)NCCCCCCNC(=O)c3ccc(-c4c5nc(c(-c6c(F)cccc6F)c6ccc([nH]6)c(-c6c(F)cccc6F)c6nc(c(-c7c(F)cccc7F)c7ccc4[nH]7)C=C6)C=C5)cc3)CC2)n[nH]1
REMARK SMILES IDX 21 1 20 2 19 3 17 4 18 5 16 7 12 8 13 9 14 10 15 11 11 13
REMARK SMILES IDX 10 14 7 15 8 16 84 17 9 18 83 19 6 21 4 22 5 23 86 24 85 25
REMARK SMILES IDX 2 27 1 28 3 29 22 30 23 31 24 32 25 33 26 34 27 35 28 37
REMARK SMILES IDX 29 38 30 39 82 40 31 41 81 42 32 43 33 44 34 45 75 46 35 47
REMARK SMILES IDX 80 48 74 49 76 50 36 51 79 52 73 53 72 54 37 56 63 57 46 58
REMARK SMILES IDX 62 59 47 60 50 61 61 62 77 63 48 64 49 65 60 67 78 68 51 69
REMARK SMILES IDX 38 70 39 71 44 72 40 73 41 74 43 75 45 76 42 77 64 78 65 79
REMARK SMILES IDX 70 80 66 81 67 82 69 83 71 84 68 85 52 86 53 87 58 88 54 89
REMARK SMILES IDX 55 90 57 91 59 92 56 93
REMARK H PARENT 19 6 14 12 10 20 86 26 26 36 76 55 50 66
REMARK Flexibility Score: inf
ROOT
ATOM      1  C   UNL A   1      36.724  23.455  25.036  1.00  0.00     0.021 C 
ENDROOT
BRANCH   1   2
ATOM      2  C   UNL A   1      35.392  24.131  25.314  1.00  0.00     0.116 C 
BRANCH   2   3
ATOM      3  N   UNL A   1      34.569  23.478  26.280  1.00  0.00    -0.351 N 
ATOM      4  C   UNL A   1      33.478  22.652  26.143  1.00  0.00     0.272 C 
ATOM      5  O   UNL A   1      33.041  22.260  27.236  1.00  0.00    -0.267 OA
ATOM      6  H   UNL A   1      34.832  23.649  27.214  1.00  0.00     0.163 HD
BRANCH   4   7
ATOM      7  C   UNL A   1      32.821  22.233  24.858  1.00  0.00     0.158 A 
ATOM      8  C   UNL A   1      31.897  22.799  23.880  1.00  0.00     0.057 A 
ATOM      9  C   UNL A   1      31.810  21.836  22.885  1.00  0.00     0.115 A 
ATOM     10  N   UNL A   1      32.555  20.786  23.285  1.00  0.00    -0.284 N 
ATOM     11  N   UNL A   1      33.163  20.986  24.444  1.00  0.00    -0.170 NA
ATOM     12  H   UNL A   1      32.640  19.953  22.767  1.00  0.00     0.189 HD
BRANCH   8  13
ATOM     13  C   UNL A   1      31.158  24.099  23.761  1.00  0.00     0.303 C 
BRANCH  13  14
ATOM     14  N   UNL A   1      31.833  25.268  24.395  1.00  0.00    -0.331 N 
ATOM     15  C   UNL A   1      32.482  28.164  24.684  1.00  0.00     0.051 C 
ATOM     16  C   UNL A   1      33.425  27.173  23.993  1.00  0.00     0.071 C 
ATOM     17  C   UNL A   1      31.695  27.408  25.749  1.00  0.00     0.071 C 
ATOM     18  C   UNL A   1      32.680  25.968  23.417  1.00  0.00     0.263 C 
ATOM     19  C   UNL A   1      30.991  26.159  25.211  1.00  0.00     0.263 C 
ATOM     20  H   UNL A   1      32.437  24.869  25.113  1.00  0.00     0.348 HD
BRANCH  15  21
ATOM     21  C   UNL A   1      31.645  28.923  23.684  1.00  0.00     0.066 A 
ATOM     22  C   UNL A   1      29.922  29.650  22.484  1.00  0.00     0.038 A 
ATOM     23  C   UNL A   1      30.284  29.293  23.760  1.00  0.00     0.049 A 
ATOM     24  N   UNL A   1      31.091  29.669  21.776  1.00  0.00    -0.282 N 
ATOM     25  N   UNL A   1      32.145  29.207  22.473  1.00  0.00    -0.180 NA
ATOM     26  H   UNL A   1      31.155  29.990  20.847  1.00  0.00     0.190 HD
BRANCH  22  27
ATOM     27  C   UNL A   1      28.559  29.856  21.908  1.00  0.00     0.031 C 
ATOM     28  C   UNL A   1      27.455  29.737  22.949  1.00  0.00     0.014 C 
ATOM     29  C   UNL A   1      28.502  31.196  21.172  1.00  0.00     0.014 C 
ENDBRANCH  22  27
ENDBRANCH  15  21
ENDBRANCH  13  14
ENDBRANCH   8  13
ENDBRANCH   4   7
ENDBRANCH   2   3
ENDBRANCH   1   2
BRANCH   1  30
ATOM     30  C   UNL A   1      36.637  22.159  24.239  1.00  0.00     0.002 C 
BRANCH  30  31
ATOM     31  C   UNL A   1      36.713  20.869  25.063  1.00  0.00     0.002 C 
BRANCH  31  32
ATOM     32  C   UNL A   1      37.969  20.014  24.865  1.00  0.00     0.021 C 
BRANCH  32  33
ATOM     33  C   UNL A   1      39.116  20.301  25.828  1.00  0.00     0.116 C 
BRANCH  33  34
ATOM     34  N   UNL A   1      40.093  19.226  25.865  1.00  0.00    -0.352 N 
ATOM     35  C   UNL A   1      41.448  19.276  26.088  1.00  0.00     0.251 C 
ATOM     36  H   UNL A   1      39.728  18.325  25.707  1.00  0.00     0.163 HD
ATOM     37  O   UNL A   1      42.142  18.285  25.911  1.00  0.00    -0.269 OA
BRANCH  35  38
ATOM     38  C   UNL A   1      42.067  20.545  26.520  1.00  0.00     0.039 A 
ATOM     39  C   UNL A   1      42.664  21.367  25.561  1.00  0.00     0.014 A 
ATOM     40  C   UNL A   1      42.050  20.924  27.864  1.00  0.00     0.014 A 
ATOM     41  C   UNL A   1      43.180  22.608  25.941  1.00  0.00     0.010 A 
ATOM     42  C   UNL A   1      42.499  22.188  28.228  1.00  0.00     0.010 A 
ATOM     43  C   UNL A   1      43.063  23.045  27.270  1.00  0.00    -0.014 A 
BRANCH  43  44
ATOM     44  C   UNL A   1      43.507  24.399  27.686  1.00  0.00     0.031 A 
ATOM     45  C   UNL A   1      42.491  25.440  28.062  1.00  0.00     0.074 A 
ATOM     46  C   UNL A   1      44.814  24.719  27.625  1.00  0.00     0.049 A 
ATOM     47  N   UNL A   1      42.665  26.712  28.315  1.00  0.00    -0.248 NA
ATOM     48  C   UNL A   1      41.089  24.997  28.132  1.00  0.00     0.031 C 
ATOM     49  C   UNL A   1      45.892  23.808  27.236  1.00  0.00     0.029 A 
ATOM     50  N   UNL A   1      45.455  25.910  27.865  1.00  0.00    -0.354 N 
ATOM     51  C   UNL A   1      41.396  27.225  28.550  1.00  0.00     0.074 A 
ATOM     52  C   UNL A   1      40.458  26.139  28.365  1.00  0.00     0.031 C 
ATOM     53  C   UNL A   1      47.061  24.470  27.271  1.00  0.00     0.029 A 
ATOM     54  C   UNL A   1      46.810  25.860  27.636  1.00  0.00     0.049 A 
ATOM     55  H   UNL A   1      44.989  26.721  28.172  1.00  0.00     0.167 HD
ATOM     56  C   UNL A   1      41.046  28.485  28.903  1.00  0.00     0.037 A 
ATOM     57  C   UNL A   1      47.741  26.831  27.693  1.00  0.00     0.037 A 
ATOM     58  C   UNL A   1      41.986  29.556  29.106  1.00  0.00     0.049 A 
ATOM     59  C   UNL A   1      47.327  28.225  28.075  1.00  0.00     0.074 A 
ATOM     60  C   UNL A   1      41.738  30.851  29.528  1.00  0.00     0.029 A 
ATOM     61  N   UNL A   1      43.353  29.459  28.894  1.00  0.00    -0.354 N 
ATOM     62  N   UNL A   1      46.133  28.684  28.358  1.00  0.00    -0.248 NA
ATOM     63  C   UNL A   1      48.391  29.237  28.149  1.00  0.00     0.031 C 
ATOM     64  C   UNL A   1      42.947  31.551  29.519  1.00  0.00     0.029 A 
ATOM     65  C   UNL A   1      43.958  30.678  29.151  1.00  0.00     0.049 A 
ATOM     66  H   UNL A   1      43.823  28.644  28.605  1.00  0.00     0.167 HD
ATOM     67  C   UNL A   1      46.303  30.025  28.677  1.00  0.00     0.074 A 
ATOM     68  C   UNL A   1      47.719  30.305  28.556  1.00  0.00     0.031 C 
ATOM     69  C   UNL A   1      45.371  30.939  29.040  1.00  0.00     0.037 A 
BRANCH  56  70
ATOM     70  C   UNL A   1      39.583  28.775  29.082  1.00  0.00     0.057 A 
ATOM     71  C   UNL A   1      38.945  28.636  30.322  1.00  0.00     0.134 A 
ATOM     72  C   UNL A   1      38.809  29.228  28.007  1.00  0.00     0.134 A 
ATOM     73  F   UNL A   1      39.624  28.196  31.392  1.00  0.00    -0.206 F 
ATOM     74  C   UNL A   1      37.584  28.908  30.478  1.00  0.00     0.040 A 
ATOM     75  C   UNL A   1      37.455  29.533  28.156  1.00  0.00     0.040 A 
ATOM     76  F   UNL A   1      39.358  29.392  26.793  1.00  0.00    -0.206 F 
ATOM     77  C   UNL A   1      36.837  29.365  29.394  1.00  0.00     0.006 A 
ENDBRANCH  56  70
BRANCH  57  78
ATOM     78  C   UNL A   1      49.159  26.514  27.387  1.00  0.00     0.057 A 
ATOM     79  C   UNL A   1      50.052  26.148  28.401  1.00  0.00     0.134 A 
ATOM     80  C   UNL A   1      49.656  26.566  26.079  1.00  0.00     0.134 A 
ATOM     81  F   UNL A   1      49.641  26.096  29.676  1.00  0.00    -0.206 F 
ATOM     82  C   UNL A   1      51.391  25.861  28.129  1.00  0.00     0.040 A 
ATOM     83  C   UNL A   1      50.986  26.257  25.789  1.00  0.00     0.040 A 
ATOM     84  F   UNL A   1      48.849  26.902  25.061  1.00  0.00    -0.206 F 
ATOM     85  C   UNL A   1      51.859  25.910  26.817  1.00  0.00     0.006 A 
ENDBRANCH  57  78
BRANCH  69  86
ATOM     86  C   UNL A   1      45.852  32.319  29.385  1.00  0.00     0.057 A 
ATOM     87  C   UNL A   1      45.906  33.346  28.436  1.00  0.00     0.134 A 
ATOM     88  C   UNL A   1      46.205  32.636  30.703  1.00  0.00     0.134 A 
ATOM     89  F   UNL A   1      45.593  33.106  27.153  1.00  0.00    -0.206 F 
ATOM     90  C   UNL A   1      46.309  34.638  28.783  1.00  0.00     0.040 A 
ATOM     91  C   UNL A   1      46.583  33.929  31.067  1.00  0.00     0.040 A 
ATOM     92  F   UNL A   1      46.167  31.700  31.663  1.00  0.00    -0.206 F 
ATOM     93  C   UNL A   1      46.640  34.933  30.103  1.00  0.00     0.006 A 
ENDBRANCH  69  86
ENDBRANCH  43  44
ENDBRANCH  35  38
ENDBRANCH  33  34
ENDBRANCH  32  33
ENDBRANCH  31  32
ENDBRANCH  30  31
ENDBRANCH   1  30
TORSDOF 17
ENDMDL
MODEL 3
REMARK VINA RESULT:     -12.1      4.299      9.561
REMARK SMILES CC(C)c1cc(C2CC[NH+](Cc3c[nH]nc3C(=O)NCCCCCCNC(=O)c3ccc(-c4c5nc(c(-c6c(F)cccc6F)c6ccc([nH]6)c(-c6c(F)cccc6F)c6nc(c(-c7c(F)cccc7F)c7ccc4[nH]7)C=C6)C=C5)cc3)CC2)n[nH]1
REMARK SMILES IDX 21 1 20 2 19 3 17 4 18 5 16 7 12 8 13 9 14 10 15 11 11 13
REMARK SMILES IDX 10 14 7 15 8 16 84 17 9 18 83 19 6 21 4 22 5 23 86 24 85 25
REMARK SMILES IDX 2 27 1 28 3 29 22 30 23 31 24 32 25 33 26 34 27 35 28 37
REMARK SMILES IDX 29 38 30 39 82 40 31 41 81 42 32 43 33 44 34 45 75 46 35 47
REMARK SMILES IDX 80 48 74 49 76 50 36 51 79 52 73 53 72 54 37 56 63 57 46 58
REMARK SMILES IDX 62 59 47 60 50 61 61 62 77 63 48 64 49 65 60 67 78 68 51 69
REMARK SMILES IDX 38 70 39 71 44 72 40 73 41 74 43 75 45 76 42 77 64 78 65 79
REMARK SMILES IDX 70 80 66 81 67 82 69 83 71 84 68 85 52 86 53 87 58 88 54 89
REMARK SMILES IDX 55 90 57 91 59 92 56 93
REMARK H PARENT 19 6 14 12 10 20 86 26 26 36 76 55 50 66
REMARK Flexibility Score: inf
ROOT
ATOM      1  C   UNL A   1      33.533  28.966  27.172  1.00  0.00     0.021 C 
ENDROOT
BRANCH   1   2
ATOM      2  C   UNL A   1      33.828  27.947  26.083  1.00  0.00     0.116 C 
BRANCH   2   3
ATOM      3  N   UNL A   1      34.176  28.498  24.814  1.00  0.00    -0.351 N 
ATOM      4  C   UNL A   1      33.498  28.540  23.618  1.00  0.00     0.272 C 
ATOM      5  O   UNL A   1      34.132  29.135  22.735  1.00  0.00    -0.267 OA
ATOM      6  H   UNL A   1      35.062  28.927  24.790  1.00  0.00     0.163 HD
BRANCH   4   7
ATOM      7  C   UNL A   1      32.146  27.948  23.328  1.00  0.00     0.158 A 
ATOM      8  C   UNL A   1      31.555  26.621  23.180  1.00  0.00     0.057 A 
ATOM      9  C   UNL A   1      30.201  26.862  22.995  1.00  0.00     0.115 A 
ATOM     10  N   UNL A   1      30.038  28.200  22.970  1.00  0.00    -0.284 N 
ATOM     11  N   UNL A   1      31.165  28.870  23.161  1.00  0.00    -0.170 NA
ATOM     12  H   UNL A   1      29.167  28.637  22.824  1.00  0.00     0.189 HD
BRANCH   8  13
ATOM     13  C   UNL A   1      32.089  25.221  23.231  1.00  0.00     0.303 C 
BRANCH  13  14
ATOM     14  N   UNL A   1      32.839  24.878  24.474  1.00  0.00    -0.331 N 
ATOM     15  C   UNL A   1      34.339  23.048  26.289  1.00  0.00     0.051 C 
ATOM     16  C   UNL A   1      32.861  23.394  26.504  1.00  0.00     0.071 C 
ATOM     17  C   UNL A   1      35.012  24.238  25.615  1.00  0.00     0.071 C 
ATOM     18  C   UNL A   1      32.164  23.794  25.203  1.00  0.00     0.263 C 
ATOM     19  C   UNL A   1      34.296  24.701  24.344  1.00  0.00     0.263 C 
ATOM     20  H   UNL A   1      32.803  25.721  25.048  1.00  0.00     0.348 HD
BRANCH  15  21
ATOM     21  C   UNL A   1      34.502  21.728  25.576  1.00  0.00     0.066 A 
ATOM     22  C   UNL A   1      34.119  19.683  24.795  1.00  0.00     0.038 A 
ATOM     23  C   UNL A   1      33.512  20.897  25.005  1.00  0.00     0.049 A 
ATOM     24  N   UNL A   1      35.443  19.900  25.052  1.00  0.00    -0.282 N 
ATOM     25  N   UNL A   1      35.697  21.122  25.553  1.00  0.00    -0.180 NA
ATOM     26  H   UNL A   1      36.143  19.227  24.888  1.00  0.00     0.190 HD
BRANCH  22  27
ATOM     27  C   UNL A   1      33.505  18.358  24.482  1.00  0.00     0.031 C 
ATOM     28  C   UNL A   1      34.526  17.333  24.007  1.00  0.00     0.014 C 
ATOM     29  C   UNL A   1      32.713  17.852  25.689  1.00  0.00     0.014 C 
ENDBRANCH  22  27
ENDBRANCH  15  21
ENDBRANCH  13  14
ENDBRANCH   8  13
ENDBRANCH   4   7
ENDBRANCH   2   3
ENDBRANCH   1   2
BRANCH   1  30
ATOM     30  C   UNL A   1      32.109  29.504  27.185  1.00  0.00     0.002 C 
BRANCH  30  31
ATOM     31  C   UNL A   1      31.809  30.609  26.166  1.00  0.00     0.002 C 
BRANCH  31  32
ATOM     32  C   UNL A   1      31.508  31.996  26.741  1.00  0.00     0.021 C 
BRANCH  32  33
ATOM     33  C   UNL A   1      32.709  32.747  27.306  1.00  0.00     0.116 C 
BRANCH  33  34
ATOM     34  N   UNL A   1      32.400  34.129  27.626  1.00  0.00    -0.352 N 
ATOM     35  C   UNL A   1      32.960  34.961  28.565  1.00  0.00     0.251 C 
ATOM     36  H   UNL A   1      31.680  34.532  27.088  1.00  0.00     0.163 HD
ATOM     37  O   UNL A   1      32.455  36.047  28.813  1.00  0.00    -0.269 OA
BRANCH  35  38
ATOM     38  C   UNL A   1      34.168  34.525  29.295  1.00  0.00     0.039 A 
ATOM     39  C   UNL A   1      34.029  34.012  30.587  1.00  0.00     0.014 A 
ATOM     40  C   UNL A   1      35.429  34.614  28.702  1.00  0.00     0.014 A 
ATOM     41  C   UNL A   1      35.150  33.519  31.258  1.00  0.00     0.010 A 
ATOM     42  C   UNL A   1      36.531  34.058  29.341  1.00  0.00     0.010 A 
ATOM     43  C   UNL A   1      36.402  33.499  30.623  1.00  0.00    -0.014 A 
BRANCH  43  44
ATOM     44  C   UNL A   1      37.592  32.888  31.266  1.00  0.00     0.031 A 
ATOM     45  C   UNL A   1      38.244  31.685  30.647  1.00  0.00     0.074 A 
ATOM     46  C   UNL A   1      38.017  33.353  32.456  1.00  0.00     0.049 A 
ATOM     47  N   UNL A   1      39.198  30.925  31.123  1.00  0.00    -0.248 NA
ATOM     48  C   UNL A   1      37.735  31.262  29.333  1.00  0.00     0.031 C 
ATOM     49  C   UNL A   1      37.441  34.490  33.177  1.00  0.00     0.029 A 
ATOM     50  N   UNL A   1      39.020  32.910  33.283  1.00  0.00    -0.354 N 
ATOM     51  C   UNL A   1      39.386  29.923  30.180  1.00  0.00     0.074 A 
ATOM     52  C   UNL A   1      38.418  30.144  29.128  1.00  0.00     0.031 C 
ATOM     53  C   UNL A   1      38.104  34.658  34.333  1.00  0.00     0.029 A 
ATOM     54  C   UNL A   1      39.117  33.615  34.458  1.00  0.00     0.049 A 
ATOM     55  H   UNL A   1      39.614  32.158  33.055  1.00  0.00     0.167 HD
ATOM     56  C   UNL A   1      40.294  28.918  30.185  1.00  0.00     0.037 A 
ATOM     57  C   UNL A   1      39.915  33.429  35.526  1.00  0.00     0.037 A 
ATOM     58  C   UNL A   1      41.267  28.715  31.225  1.00  0.00     0.049 A 
ATOM     59  C   UNL A   1      40.907  32.299  35.514  1.00  0.00     0.074 A 
ATOM     60  C   UNL A   1      42.272  27.766  31.291  1.00  0.00     0.029 A 
ATOM     61  N   UNL A   1      41.353  29.470  32.385  1.00  0.00    -0.354 N 
ATOM     62  N   UNL A   1      41.120  31.397  34.587  1.00  0.00    -0.248 NA
ATOM     63  C   UNL A   1      41.773  32.163  36.693  1.00  0.00     0.031 C 
ATOM     64  C   UNL A   1      42.931  27.912  32.515  1.00  0.00     0.029 A 
ATOM     65  C   UNL A   1      42.377  28.991  33.186  1.00  0.00     0.049 A 
ATOM     66  H   UNL A   1      40.772  30.233  32.607  1.00  0.00     0.167 HD
ATOM     67  C   UNL A   1      42.163  30.607  35.054  1.00  0.00     0.074 A 
ATOM     68  C   UNL A   1      42.544  31.142  36.346  1.00  0.00     0.031 C 
ATOM     69  C   UNL A   1      42.754  29.541  34.463  1.00  0.00     0.037 A 
BRANCH  56  70
ATOM     70  C   UNL A   1      40.268  27.954  29.033  1.00  0.00     0.057 A 
ATOM     71  C   UNL A   1      41.015  28.170  27.868  1.00  0.00     0.134 A 
ATOM     72  C   UNL A   1      39.509  26.779  29.104  1.00  0.00     0.134 A 
ATOM     73  F   UNL A   1      41.756  29.280  27.729  1.00  0.00    -0.206 F 
ATOM     74  C   UNL A   1      40.984  27.267  26.802  1.00  0.00     0.040 A 
ATOM     75  C   UNL A   1      39.494  25.854  28.058  1.00  0.00     0.040 A 
ATOM     76  F   UNL A   1      38.776  26.505  30.194  1.00  0.00    -0.206 F 
ATOM     77  C   UNL A   1      40.227  26.102  26.899  1.00  0.00     0.006 A 
ENDBRANCH  56  70
BRANCH  57  78
ATOM     78  C   UNL A   1      39.815  34.342  36.692  1.00  0.00     0.057 A 
ATOM     79  C   UNL A   1      39.056  33.997  37.817  1.00  0.00     0.134 A 
ATOM     80  C   UNL A   1      40.474  35.577  36.715  1.00  0.00     0.134 A 
ATOM     81  F   UNL A   1      38.387  32.835  37.848  1.00  0.00    -0.206 F 
ATOM     82  C   UNL A   1      38.942  34.852  38.914  1.00  0.00     0.040 A 
ATOM     83  C   UNL A   1      40.390  36.431  37.816  1.00  0.00     0.040 A 
ATOM     84  F   UNL A   1      41.225  35.964  35.673  1.00  0.00    -0.206 F 
ATOM     85  C   UNL A   1      39.616  36.072  38.918  1.00  0.00     0.006 A 
ENDBRANCH  57  78
BRANCH  69  86
ATOM     86  C   UNL A   1      43.910  28.904  35.180  1.00  0.00     0.057 A 
ATOM     87  C   UNL A   1      45.232  29.309  34.964  1.00  0.00     0.134 A 
ATOM     88  C   UNL A   1      43.685  27.915  36.146  1.00  0.00     0.134 A 
ATOM     89  F   UNL A   1      45.517  30.244  34.044  1.00  0.00    -0.206 F 
ATOM     90  C   UNL A   1      46.293  28.742  35.674  1.00  0.00     0.040 A 
ATOM     91  C   UNL A   1      44.734  27.360  36.880  1.00  0.00     0.040 A 
ATOM     92  F   UNL A   1      42.440  27.487  36.407  1.00  0.00    -0.206 F 
ATOM     93  C   UNL A   1      46.043  27.771  36.641  1.00  0.00     0.006 A 
ENDBRANCH  69  86
ENDBRANCH  43  44
ENDBRANCH  35  38
ENDBRANCH  33  34
ENDBRANCH  32  33
ENDBRANCH  31  32
ENDBRANCH  30  31
ENDBRANCH   1  30
TORSDOF 17
ENDMDL
