MODEL 1
REMARK VINA RESULT:     -11.7      0.000      0.000
REMARK SMILES CC[C@@H](C(=O)Nc1ccc(OC(C)=O)cc1C(=O)NCCCCCCNC(=O)c1ccc(-c2c3nc(c(-c4c(F)cccc4F)c4ccc([nH]4)c(-c4c(F)cccc4F)c4nc(c(-c5c(F)cccc5F)c5ccc2[nH]5)C=C4)C=C3)cc1)c1ccccc1
REMARK SMILES IDX 22 1 21 2 20 3 19 4 17 5 18 6 16 8 7 9 8 10 9 11 15 12 10 13
REMARK SMILES IDX 6 14 4 15 5 16 3 18 2 19 1 20 83 21 84 22 88 23 85 24 87 25
REMARK SMILES IDX 86 26 11 27 12 28 13 29 14 30 23 31 24 32 25 33 26 34 27 35
REMARK SMILES IDX 28 37 29 38 30 39 82 40 31 41 81 42 32 43 33 44 34 45 75 46
REMARK SMILES IDX 35 47 80 48 74 49 76 50 36 51 79 52 73 53 72 54 37 56 63 57
REMARK SMILES IDX 46 58 62 59 47 60 50 61 61 62 77 63 48 64 49 65 60 67 78 68
REMARK SMILES IDX 51 69 38 70 39 71 44 72 40 73 41 74 43 75 45 76 42 77 64 78
REMARK SMILES IDX 65 79 70 80 66 81 67 82 69 83 71 84 68 85 52 86 53 87 58 88
REMARK SMILES IDX 54 89 55 90 57 91 59 92 56 93
REMARK H PARENT 19 7 6 17 26 36 76 55 50 66
REMARK Flexibility Score: inf
ROOT
ATOM      1  C   UNL A   1      36.997  21.927  24.406  1.00  0.00     0.002 C 
ENDROOT
BRANCH   1   2
ATOM      2  C   UNL A   1      37.127  23.086  25.405  1.00  0.00     0.021 C 
BRANCH   2   3
ATOM      3  C   UNL A   1      35.903  23.990  25.492  1.00  0.00     0.116 C 
BRANCH   3   4
ATOM      4  N   UNL A   1      34.927  23.564  26.466  1.00  0.00    -0.352 N 
ATOM      5  C   UNL A   1      33.809  22.783  26.345  1.00  0.00     0.253 C 
ATOM      6  O   UNL A   1      33.161  22.593  27.380  1.00  0.00    -0.269 OA
ATOM      7  H   UNL A   1      35.095  23.893  27.379  1.00  0.00     0.163 HD
BRANCH   5   8
ATOM      8  C   UNL A   1      33.300  22.170  25.075  1.00  0.00     0.067 A 
ATOM      9  C   UNL A   1      32.991  22.777  23.844  1.00  0.00     0.054 A 
ATOM     10  C   UNL A   1      32.302  22.025  22.862  1.00  0.00     0.031 A 
ATOM     11  C   UNL A   1      32.153  20.646  22.975  1.00  0.00     0.049 A 
ATOM     12  C   UNL A   1      33.120  20.766  25.177  1.00  0.00     0.063 A 
ATOM     13  C   UNL A   1      32.647  20.016  24.105  1.00  0.00     0.131 A 
BRANCH   9  14
ATOM     14  N   UNL A   1      33.263  24.077  23.411  1.00  0.00    -0.325 N 
ATOM     15  C   UNL A   1      32.886  25.337  23.748  1.00  0.00     0.231 C 
ATOM     16  O   UNL A   1      33.451  26.185  23.029  1.00  0.00    -0.274 OA
ATOM     17  H   UNL A   1      33.900  24.080  22.660  1.00  0.00     0.169 HD
BRANCH  15  18
ATOM     18  C   UNL A   1      32.024  25.820  24.950  1.00  0.00     0.108 C 
BRANCH  18  19
ATOM     19  C   UNL A   1      30.496  25.746  24.919  1.00  0.00     0.015 C 
ATOM     20  C   UNL A   1      29.894  25.449  23.560  1.00  0.00     0.005 C 
ENDBRANCH  18  19
BRANCH  18  21
ATOM     21  C   UNL A   1      32.472  27.232  25.405  1.00  0.00    -0.036 A 
ATOM     22  C   UNL A   1      33.647  27.373  26.164  1.00  0.00     0.004 A 
ATOM     23  C   UNL A   1      31.749  28.400  25.097  1.00  0.00     0.004 A 
ATOM     24  C   UNL A   1      34.075  28.625  26.610  1.00  0.00     0.000 A 
ATOM     25  C   UNL A   1      32.166  29.651  25.563  1.00  0.00     0.000 A 
ATOM     26  C   UNL A   1      33.327  29.763  26.321  1.00  0.00     0.000 A 
ENDBRANCH  18  21
ENDBRANCH  15  18
ENDBRANCH   9  14
BRANCH  13  27
ATOM     27  O   UNL A   1      32.583  18.612  24.143  1.00  0.00    -0.427 OA
BRANCH  27  28
ATOM     28  C   UNL A   1      33.511  17.794  23.489  1.00  0.00     0.308 C 
ATOM     29  C   UNL A   1      34.756  17.441  24.249  1.00  0.00     0.139 C 
ATOM     30  O   UNL A   1      33.271  17.323  22.381  1.00  0.00    -0.252 OA
ENDBRANCH  27  28
ENDBRANCH  13  27
ENDBRANCH   5   8
ENDBRANCH   3   4
ENDBRANCH   2   3
ENDBRANCH   1   2
BRANCH   1  31
ATOM     31  C   UNL A   1      36.744  20.535  24.998  1.00  0.00     0.002 C 
BRANCH  31  32
ATOM     32  C   UNL A   1      37.904  19.542  24.985  1.00  0.00     0.021 C 
BRANCH  32  33
ATOM     33  C   UNL A   1      39.139  19.981  25.749  1.00  0.00     0.116 C 
BRANCH  33  34
ATOM     34  N   UNL A   1      40.185  18.974  25.778  1.00  0.00    -0.352 N 
ATOM     35  C   UNL A   1      41.528  19.130  26.027  1.00  0.00     0.251 C 
ATOM     36  H   UNL A   1      39.892  18.052  25.595  1.00  0.00     0.163 HD
ATOM     37  O   UNL A   1      42.296  18.187  25.918  1.00  0.00    -0.269 OA
BRANCH  35  38
ATOM     38  C   UNL A   1      42.039  20.468  26.393  1.00  0.00     0.039 A 
ATOM     39  C   UNL A   1      42.454  21.328  25.374  1.00  0.00     0.014 A 
ATOM     40  C   UNL A   1      42.078  20.883  27.727  1.00  0.00     0.014 A 
ATOM     41  C   UNL A   1      42.851  22.627  25.690  1.00  0.00     0.010 A 
ATOM     42  C   UNL A   1      42.386  22.204  28.030  1.00  0.00     0.010 A 
ATOM     43  C   UNL A   1      42.786  23.086  27.016  1.00  0.00    -0.014 A 
BRANCH  43  44
ATOM     44  C   UNL A   1      43.150  24.481  27.363  1.00  0.00     0.031 A 
ATOM     45  C   UNL A   1      44.591  24.907  27.342  1.00  0.00     0.074 A 
ATOM     46  C   UNL A   1      42.191  25.343  27.753  1.00  0.00     0.049 A 
ATOM     47  N   UNL A   1      45.118  26.061  27.666  1.00  0.00    -0.248 NA
ATOM     48  C   UNL A   1      45.577  23.895  26.927  1.00  0.00     0.031 C 
ATOM     49  C   UNL A   1      40.765  25.030  27.866  1.00  0.00     0.029 A 
ATOM     50  N   UNL A   1      42.273  26.658  28.136  1.00  0.00    -0.354 N 
ATOM     51  C   UNL A   1      46.489  25.906  27.510  1.00  0.00     0.074 A 
ATOM     52  C   UNL A   1      46.720  24.532  27.123  1.00  0.00     0.031 C 
ATOM     53  C   UNL A   1      40.103  26.129  28.261  1.00  0.00     0.029 A 
ATOM     54  C   UNL A   1      41.060  27.211  28.470  1.00  0.00     0.049 A 
ATOM     55  H   UNL A   1      43.120  27.158  28.168  1.00  0.00     0.167 HD
ATOM     56  C   UNL A   1      47.466  26.833  27.650  1.00  0.00     0.037 A 
ATOM     57  C   UNL A   1      40.757  28.449  28.903  1.00  0.00     0.037 A 
ATOM     58  C   UNL A   1      47.226  28.205  28.011  1.00  0.00     0.049 A 
ATOM     59  C   UNL A   1      41.861  29.459  29.058  1.00  0.00     0.074 A 
ATOM     60  C   UNL A   1      48.139  29.239  28.121  1.00  0.00     0.029 A 
ATOM     61  N   UNL A   1      45.982  28.731  28.327  1.00  0.00    -0.354 N 
ATOM     62  N   UNL A   1      43.146  29.319  28.836  1.00  0.00    -0.248 NA
ATOM     63  C   UNL A   1      41.473  30.799  29.517  1.00  0.00     0.031 C 
ATOM     64  C   UNL A   1      47.454  30.378  28.554  1.00  0.00     0.029 A 
ATOM     65  C   UNL A   1      46.106  30.070  28.658  1.00  0.00     0.049 A 
ATOM     66  H   UNL A   1      45.136  28.228  28.318  1.00  0.00     0.167 HD
ATOM     67  C   UNL A   1      43.714  30.559  29.098  1.00  0.00     0.074 A 
ATOM     68  C   UNL A   1      42.632  31.441  29.481  1.00  0.00     0.031 C 
ATOM     69  C   UNL A   1      45.015  30.935  29.029  1.00  0.00     0.037 A 
BRANCH  56  70
ATOM     70  C   UNL A   1      48.881  26.391  27.409  1.00  0.00     0.057 A 
ATOM     71  C   UNL A   1      49.453  26.399  26.130  1.00  0.00     0.134 A 
ATOM     72  C   UNL A   1      49.693  25.983  28.475  1.00  0.00     0.134 A 
ATOM     73  F   UNL A   1      48.728  26.767  25.063  1.00  0.00    -0.206 F 
ATOM     74  C   UNL A   1      50.770  25.990  25.915  1.00  0.00     0.040 A 
ATOM     75  C   UNL A   1      51.022  25.602  28.278  1.00  0.00     0.040 A 
ATOM     76  F   UNL A   1      49.212  25.956  29.728  1.00  0.00    -0.206 F 
ATOM     77  C   UNL A   1      51.561  25.597  26.993  1.00  0.00     0.006 A 
ENDBRANCH  56  70
BRANCH  57  78
ATOM     78  C   UNL A   1      39.347  28.811  29.202  1.00  0.00     0.057 A 
ATOM     79  C   UNL A   1      38.518  29.369  28.221  1.00  0.00     0.134 A 
ATOM     80  C   UNL A   1      38.798  28.620  30.476  1.00  0.00     0.134 A 
ATOM     81  F   UNL A   1      38.991  29.592  26.986  1.00  0.00    -0.206 F 
ATOM     82  C   UNL A   1      37.203  29.745  28.501  1.00  0.00     0.040 A 
ATOM     83  C   UNL A   1      37.476  28.966  30.762  1.00  0.00     0.040 A 
ATOM     84  F   UNL A   1      39.536  28.083  31.459  1.00  0.00    -0.206 F 
ATOM     85  C   UNL A   1      36.678  29.539  29.774  1.00  0.00     0.006 A 
ENDBRANCH  57  78
BRANCH  69  86
ATOM     86  C   UNL A   1      45.334  32.369  29.337  1.00  0.00     0.057 A 
ATOM     87  C   UNL A   1      45.293  33.367  28.356  1.00  0.00     0.134 A 
ATOM     88  C   UNL A   1      45.649  32.761  30.646  1.00  0.00     0.134 A 
ATOM     89  F   UNL A   1      45.010  33.056  27.081  1.00  0.00    -0.206 F 
ATOM     90  C   UNL A   1      45.575  34.700  28.659  1.00  0.00     0.040 A 
ATOM     91  C   UNL A   1      45.903  34.094  30.967  1.00  0.00     0.040 A 
ATOM     92  F   UNL A   1      45.696  31.857  31.636  1.00  0.00    -0.206 F 
ATOM     93  C   UNL A   1      45.874  35.067  29.970  1.00  0.00     0.006 A 
ENDBRANCH  69  86
ENDBRANCH  43  44
ENDBRANCH  35  38
ENDBRANCH  33  34
ENDBRANCH  32  33
ENDBRANCH  31  32
ENDBRANCH   1  31
TORSDOF 19
ENDMDL
MODEL 2
REMARK VINA RESULT:     -11.1      4.326      9.594
REMARK SMILES CC[C@@H](C(=O)Nc1ccc(OC(C)=O)cc1C(=O)NCCCCCCNC(=O)c1ccc(-c2c3nc(c(-c4c(F)cccc4F)c4ccc([nH]4)c(-c4c(F)cccc4F)c4nc(c(-c5c(F)cccc5F)c5ccc2[nH]5)C=C4)C=C3)cc1)c1ccccc1
REMARK SMILES IDX 22 1 21 2 20 3 19 4 17 5 18 6 16 8 7 9 8 10 9 11 15 12 10 13
REMARK SMILES IDX 6 14 4 15 5 16 3 18 2 19 1 20 83 21 84 22 88 23 85 24 87 25
REMARK SMILES IDX 86 26 11 27 12 28 13 29 14 30 23 31 24 32 25 33 26 34 27 35
REMARK SMILES IDX 28 37 29 38 30 39 82 40 31 41 81 42 32 43 33 44 34 45 75 46
REMARK SMILES IDX 35 47 80 48 74 49 76 50 36 51 79 52 73 53 72 54 37 56 63 57
REMARK SMILES IDX 46 58 62 59 47 60 50 61 61 62 77 63 48 64 49 65 60 67 78 68
REMARK SMILES IDX 51 69 38 70 39 71 44 72 40 73 41 74 43 75 45 76 42 77 64 78
REMARK SMILES IDX 65 79 70 80 66 81 67 82 69 83 71 84 68 85 52 86 53 87 58 88
REMARK SMILES IDX 54 89 55 90 57 91 59 92 56 93
REMARK H PARENT 19 7 6 17 26 36 76 55 50 66
REMARK Flexibility Score: inf
ROOT
ATOM      1  C   UNL A   1      34.756  29.627  27.656  1.00  0.00     0.002 C 
ENDROOT
BRANCH   1   2
ATOM      2  C   UNL A   1      33.343  29.038  27.541  1.00  0.00     0.021 C 
BRANCH   2   3
ATOM      3  C   UNL A   1      33.197  27.931  26.504  1.00  0.00     0.116 C 
BRANCH   3   4
ATOM      4  N   UNL A   1      33.546  28.333  25.164  1.00  0.00    -0.352 N 
ATOM      5  C   UNL A   1      32.793  28.439  24.026  1.00  0.00     0.253 C 
ATOM      6  O   UNL A   1      33.386  28.818  23.010  1.00  0.00    -0.269 OA
ATOM      7  H   UNL A   1      34.494  28.574  25.046  1.00  0.00     0.163 HD
BRANCH   5   8
ATOM      8  C   UNL A   1      31.334  28.116  23.906  1.00  0.00     0.067 A 
ATOM      9  C   UNL A   1      30.663  26.896  24.105  1.00  0.00     0.054 A 
ATOM     10  C   UNL A   1      29.311  26.782  23.704  1.00  0.00     0.031 A 
ATOM     11  C   UNL A   1      28.557  27.901  23.364  1.00  0.00     0.049 A 
ATOM     12  C   UNL A   1      30.550  29.241  23.538  1.00  0.00     0.063 A 
ATOM     13  C   UNL A   1      29.173  29.141  23.369  1.00  0.00     0.131 A 
BRANCH   9  14
ATOM     14  N   UNL A   1      31.146  25.707  24.659  1.00  0.00    -0.325 N 
ATOM     15  C   UNL A   1      32.157  24.833  24.415  1.00  0.00     0.231 C 
ATOM     16  O   UNL A   1      32.159  23.903  25.244  1.00  0.00    -0.274 OA
ATOM     17  H   UNL A   1      30.608  25.428  25.435  1.00  0.00     0.169 HD
BRANCH  15  18
ATOM     18  C   UNL A   1      33.329  24.943  23.398  1.00  0.00     0.108 C 
BRANCH  18  19
ATOM     19  C   UNL A   1      33.133  24.628  21.913  1.00  0.00     0.015 C 
ATOM     20  C   UNL A   1      32.569  25.765  21.085  1.00  0.00     0.005 C 
ENDBRANCH  18  19
BRANCH  18  21
ATOM     21  C   UNL A   1      34.580  24.198  23.931  1.00  0.00    -0.036 A 
ATOM     22  C   UNL A   1      35.194  24.642  25.116  1.00  0.00     0.004 A 
ATOM     23  C   UNL A   1      35.143  23.086  23.279  1.00  0.00     0.004 A 
ATOM     24  C   UNL A   1      36.334  24.011  25.619  1.00  0.00     0.000 A 
ATOM     25  C   UNL A   1      36.298  22.468  23.772  1.00  0.00     0.000 A 
ATOM     26  C   UNL A   1      36.893  22.932  24.940  1.00  0.00     0.000 A 
ENDBRANCH  18  21
ENDBRANCH  15  18
ENDBRANCH   9  14
BRANCH  13  27
ATOM     27  O   UNL A   1      28.363  30.267  23.131  1.00  0.00    -0.427 OA
BRANCH  27  28
ATOM     28  C   UNL A   1      28.259  30.871  21.873  1.00  0.00     0.308 C 
ATOM     29  C   UNL A   1      28.436  32.361  21.822  1.00  0.00     0.139 C 
ATOM     30  O   UNL A   1      28.115  30.199  20.856  1.00  0.00    -0.252 OA
ENDBRANCH  27  28
ENDBRANCH  13  27
ENDBRANCH   5   8
ENDBRANCH   3   4
ENDBRANCH   2   3
ENDBRANCH   1   2
BRANCH   1  31
ATOM     31  C   UNL A   1      34.864  31.156  27.672  1.00  0.00     0.002 C 
BRANCH  31  32
ATOM     32  C   UNL A   1      33.570  31.952  27.821  1.00  0.00     0.021 C 
BRANCH  32  33
ATOM     33  C   UNL A   1      33.694  33.442  27.559  1.00  0.00     0.116 C 
BRANCH  33  34
ATOM     34  N   UNL A   1      33.128  34.260  28.617  1.00  0.00    -0.352 N 
ATOM     35  C   UNL A   1      33.578  34.440  29.904  1.00  0.00     0.251 C 
ATOM     36  H   UNL A   1      32.310  34.754  28.381  1.00  0.00     0.163 HD
ATOM     37  O   UNL A   1      32.927  35.091  30.707  1.00  0.00    -0.269 OA
BRANCH  35  38
ATOM     38  C   UNL A   1      34.845  33.800  30.318  1.00  0.00     0.039 A 
ATOM     39  C   UNL A   1      34.796  32.757  31.245  1.00  0.00     0.014 A 
ATOM     40  C   UNL A   1      36.066  34.203  29.772  1.00  0.00     0.014 A 
ATOM     41  C   UNL A   1      35.968  32.078  31.578  1.00  0.00     0.010 A 
ATOM     42  C   UNL A   1      37.215  33.468  30.035  1.00  0.00     0.010 A 
ATOM     43  C   UNL A   1      37.180  32.405  30.949  1.00  0.00    -0.014 A 
BRANCH  43  44
ATOM     44  C   UNL A   1      38.425  31.657  31.248  1.00  0.00     0.031 A 
ATOM     45  C   UNL A   1      39.322  32.111  32.365  1.00  0.00     0.074 A 
ATOM     46  C   UNL A   1      38.775  30.609  30.478  1.00  0.00     0.049 A 
ATOM     47  N   UNL A   1      40.478  31.629  32.746  1.00  0.00    -0.248 NA
ATOM     48  C   UNL A   1      38.877  33.280  33.141  1.00  0.00     0.031 C 
ATOM     49  C   UNL A   1      38.013  30.108  29.331  1.00  0.00     0.029 A 
ATOM     50  N   UNL A   1      39.867  29.780  30.537  1.00  0.00    -0.354 N 
ATOM     51  C   UNL A   1      40.900  32.443  33.790  1.00  0.00     0.074 A 
ATOM     52  C   UNL A   1      39.910  33.486  33.942  1.00  0.00     0.031 C 
ATOM     53  C   UNL A   1      38.645  29.042  28.815  1.00  0.00     0.029 A 
ATOM     54  C   UNL A   1      39.876  28.810  29.564  1.00  0.00     0.049 A 
ATOM     55  H   UNL A   1      40.576  29.872  31.214  1.00  0.00     0.167 HD
ATOM     56  C   UNL A   1      42.000  32.316  34.569  1.00  0.00     0.037 A 
ATOM     57  C   UNL A   1      40.780  27.847  29.303  1.00  0.00     0.037 A 
ATOM     58  C   UNL A   1      42.968  31.261  34.428  1.00  0.00     0.049 A 
ATOM     59  C   UNL A   1      41.998  27.732  30.179  1.00  0.00     0.074 A 
ATOM     60  C   UNL A   1      44.085  31.007  35.204  1.00  0.00     0.029 A 
ATOM     61  N   UNL A   1      42.935  30.288  33.440  1.00  0.00    -0.354 N 
ATOM     62  N   UNL A   1      42.347  28.464  31.209  1.00  0.00    -0.248 NA
ATOM     63  C   UNL A   1      42.943  26.654  29.859  1.00  0.00     0.031 C 
ATOM     64  C   UNL A   1      44.756  29.912  34.653  1.00  0.00     0.029 A 
ATOM     65  C   UNL A   1      44.027  29.446  33.570  1.00  0.00     0.049 A 
ATOM     66  H   UNL A   1      42.238  30.207  32.748  1.00  0.00     0.167 HD
ATOM     67  C   UNL A   1      43.534  27.917  31.679  1.00  0.00     0.074 A 
ATOM     68  C   UNL A   1      43.836  26.784  30.830  1.00  0.00     0.031 C 
ATOM     69  C   UNL A   1      44.306  28.317  32.719  1.00  0.00     0.037 A 
BRANCH  56  70
ATOM     70  C   UNL A   1      42.211  33.344  35.644  1.00  0.00     0.057 A 
ATOM     71  C   UNL A   1      41.591  33.245  36.897  1.00  0.00     0.134 A 
ATOM     72  C   UNL A   1      43.070  34.430  35.434  1.00  0.00     0.134 A 
ATOM     73  F   UNL A   1      40.747  32.236  37.160  1.00  0.00    -0.206 F 
ATOM     74  C   UNL A   1      41.795  34.202  37.891  1.00  0.00     0.040 A 
ATOM     75  C   UNL A   1      43.306  35.378  36.432  1.00  0.00     0.040 A 
ATOM     76  F   UNL A   1      43.700  34.585  34.260  1.00  0.00    -0.206 F 
ATOM     77  C   UNL A   1      42.661  35.269  37.663  1.00  0.00     0.006 A 
ENDBRANCH  56  70
BRANCH  57  78
ATOM     78  C   UNL A   1      40.561  26.903  28.176  1.00  0.00     0.057 A 
ATOM     79  C   UNL A   1      39.689  25.815  28.302  1.00  0.00     0.134 A 
ATOM     80  C   UNL A   1      41.224  27.058  26.953  1.00  0.00     0.134 A 
ATOM     81  F   UNL A   1      39.036  25.603  29.454  1.00  0.00    -0.206 F 
ATOM     82  C   UNL A   1      39.502  24.903  27.262  1.00  0.00     0.040 A 
ATOM     83  C   UNL A   1      41.026  26.170  25.895  1.00  0.00     0.040 A 
ATOM     84  F   UNL A   1      42.067  28.084  26.764  1.00  0.00    -0.206 F 
ATOM     85  C   UNL A   1      40.169  25.082  26.052  1.00  0.00     0.006 A 
ENDBRANCH  57  78
BRANCH  69  86
ATOM     86  C   UNL A   1      45.530  27.502  33.021  1.00  0.00     0.057 A 
ATOM     87  C   UNL A   1      46.786  27.824  32.493  1.00  0.00     0.134 A 
ATOM     88  C   UNL A   1      45.454  26.402  33.887  1.00  0.00     0.134 A 
ATOM     89  F   UNL A   1      46.925  28.858  31.649  1.00  0.00    -0.206 F 
ATOM     90  C   UNL A   1      47.920  27.067  32.796  1.00  0.00     0.040 A 
ATOM     91  C   UNL A   1      46.585  25.657  34.221  1.00  0.00     0.040 A 
ATOM     92  F   UNL A   1      44.283  26.045  34.435  1.00  0.00    -0.206 F 
ATOM     93  C   UNL A   1      47.822  25.985  33.669  1.00  0.00     0.006 A 
ENDBRANCH  69  86
ENDBRANCH  43  44
ENDBRANCH  35  38
ENDBRANCH  33  34
ENDBRANCH  32  33
ENDBRANCH  31  32
ENDBRANCH   1  31
TORSDOF 19
ENDMDL
MODEL 3
REMARK VINA RESULT:     -11.0      5.708     10.821
REMARK SMILES CC[C@@H](C(=O)Nc1ccc(OC(C)=O)cc1C(=O)NCCCCCCNC(=O)c1ccc(-c2c3nc(c(-c4c(F)cccc4F)c4ccc([nH]4)c(-c4c(F)cccc4F)c4nc(c(-c5c(F)cccc5F)c5ccc2[nH]5)C=C4)C=C3)cc1)c1ccccc1
REMARK SMILES IDX 22 1 21 2 20 3 19 4 17 5 18 6 16 8 7 9 8 10 9 11 15 12 10 13
REMARK SMILES IDX 6 14 4 15 5 16 3 18 2 19 1 20 83 21 84 22 88 23 85 24 87 25
REMARK SMILES IDX 86 26 11 27 12 28 13 29 14 30 23 31 24 32 25 33 26 34 27 35
REMARK SMILES IDX 28 37 29 38 30 39 82 40 31 41 81 42 32 43 33 44 34 45 75 46
REMARK SMILES IDX 35 47 80 48 74 49 76 50 36 51 79 52 73 53 72 54 37 56 63 57
REMARK SMILES IDX 46 58 62 59 47 60 50 61 61 62 77 63 48 64 49 65 60 67 78 68
REMARK SMILES IDX 51 69 38 70 39 71 44 72 40 73 41 74 43 75 45 76 42 77 64 78
REMARK SMILES IDX 65 79 70 80 66 81 67 82 69 83 71 84 68 85 52 86 53 87 58 88
REMARK SMILES IDX 54 89 55 90 57 91 59 92 56 93
REMARK H PARENT 19 7 6 17 26 36 76 55 50 66
REMARK Flexibility Score: inf
ROOT
ATOM      1  C   UNL A   1      35.590  32.796  27.883  1.00  0.00     0.002 C 
ENDROOT
BRANCH   1   2
ATOM      2  C   UNL A   1      35.097  31.410  28.325  1.00  0.00     0.021 C 
BRANCH   2   3
ATOM      3  C   UNL A   1      34.236  30.684  27.299  1.00  0.00     0.116 C 
BRANCH   3   4
ATOM      4  N   UNL A   1      33.425  29.628  27.854  1.00  0.00    -0.352 N 
ATOM      5  C   UNL A   1      32.653  28.670  27.255  1.00  0.00     0.253 C 
ATOM      6  O   UNL A   1      32.064  27.890  28.011  1.00  0.00    -0.269 OA
ATOM      7  H   UNL A   1      33.426  29.591  28.838  1.00  0.00     0.163 HD
BRANCH   5   8
ATOM      8  C   UNL A   1      32.446  28.505  25.779  1.00  0.00     0.067 A 
ATOM      9  C   UNL A   1      33.118  27.675  24.864  1.00  0.00     0.054 A 
ATOM     10  C   UNL A   1      32.901  27.865  23.478  1.00  0.00     0.031 A 
ATOM     11  C   UNL A   1      31.863  28.663  23.007  1.00  0.00     0.049 A 
ATOM     12  C   UNL A   1      31.405  29.327  25.275  1.00  0.00     0.063 A 
ATOM     13  C   UNL A   1      31.066  29.323  23.926  1.00  0.00     0.131 A 
BRANCH   9  14
ATOM     14  N   UNL A   1      34.020  26.638  25.115  1.00  0.00    -0.325 N 
ATOM     15  C   UNL A   1      33.982  25.395  25.660  1.00  0.00     0.231 C 
ATOM     16  O   UNL A   1      35.105  24.856  25.633  1.00  0.00    -0.274 OA
ATOM     17  H   UNL A   1      34.929  26.872  24.815  1.00  0.00     0.169 HD
BRANCH  15  18
ATOM     18  C   UNL A   1      32.754  24.562  26.126  1.00  0.00     0.108 C 
BRANCH  18  19
ATOM     19  C   UNL A   1      32.839  23.045  26.310  1.00  0.00     0.015 C 
ATOM     20  C   UNL A   1      33.430  22.591  27.630  1.00  0.00     0.005 C 
ENDBRANCH  18  19
BRANCH  18  21
ATOM     21  C   UNL A   1      31.506  24.918  25.278  1.00  0.00    -0.036 A 
ATOM     22  C   UNL A   1      31.445  24.508  23.934  1.00  0.00     0.004 A 
ATOM     23  C   UNL A   1      30.415  25.644  25.790  1.00  0.00     0.004 A 
ATOM     24  C   UNL A   1      30.347  24.826  23.130  1.00  0.00     0.000 A 
ATOM     25  C   UNL A   1      29.327  25.981  24.978  1.00  0.00     0.000 A 
ATOM     26  C   UNL A   1      29.294  25.573  23.649  1.00  0.00     0.000 A 
ENDBRANCH  18  21
ENDBRANCH  15  18
ENDBRANCH   9  14
BRANCH  13  27
ATOM     27  O   UNL A   1      29.957  30.031  23.429  1.00  0.00    -0.427 OA
BRANCH  27  28
ATOM     28  C   UNL A   1      29.109  29.517  22.442  1.00  0.00     0.308 C 
ATOM     29  C   UNL A   1      27.881  28.794  22.914  1.00  0.00     0.139 C 
ATOM     30  O   UNL A   1      29.323  29.726  21.252  1.00  0.00    -0.252 OA
ENDBRANCH  27  28
ENDBRANCH  13  27
ENDBRANCH   5   8
ENDBRANCH   3   4
ENDBRANCH   2   3
ENDBRANCH   1   2
BRANCH   1  31
ATOM     31  C   UNL A   1      35.540  33.910  28.935  1.00  0.00     0.002 C 
BRANCH  31  32
ATOM     32  C   UNL A   1      34.467  34.984  28.774  1.00  0.00     0.021 C 
BRANCH  32  33
ATOM     33  C   UNL A   1      33.082  34.590  29.251  1.00  0.00     0.116 C 
BRANCH  33  34
ATOM     34  N   UNL A   1      32.527  35.510  30.228  1.00  0.00    -0.352 N 
ATOM     35  C   UNL A   1      32.903  35.710  31.535  1.00  0.00     0.251 C 
ATOM     36  H   UNL A   1      31.779  36.066  29.912  1.00  0.00     0.163 HD
ATOM     37  O   UNL A   1      32.265  36.459  32.260  1.00  0.00    -0.269 OA
BRANCH  35  38
ATOM     38  C   UNL A   1      34.070  34.976  32.068  1.00  0.00     0.039 A 
ATOM     39  C   UNL A   1      33.911  33.636  32.425  1.00  0.00     0.014 A 
ATOM     40  C   UNL A   1      35.318  35.595  32.182  1.00  0.00     0.014 A 
ATOM     41  C   UNL A   1      35.020  32.899  32.841  1.00  0.00     0.010 A 
ATOM     42  C   UNL A   1      36.436  34.837  32.508  1.00  0.00     0.010 A 
ATOM     43  C   UNL A   1      36.297  33.484  32.851  1.00  0.00    -0.014 A 
BRANCH  43  44
ATOM     44  C   UNL A   1      37.496  32.701  33.235  1.00  0.00     0.031 A 
ATOM     45  C   UNL A   1      38.224  33.022  34.511  1.00  0.00     0.074 A 
ATOM     46  C   UNL A   1      37.962  31.744  32.409  1.00  0.00     0.049 A 
ATOM     47  N   UNL A   1      39.321  32.494  34.993  1.00  0.00    -0.248 NA
ATOM     48  C   UNL A   1      37.662  34.099  35.343  1.00  0.00     0.031 C 
ATOM     49  C   UNL A   1      37.372  31.380  31.118  1.00  0.00     0.029 A 
ATOM     50  N   UNL A   1      39.044  30.909  32.527  1.00  0.00    -0.354 N 
ATOM     51  C   UNL A   1      39.584  33.183  36.170  1.00  0.00     0.074 A 
ATOM     52  C   UNL A   1      38.571  34.207  36.299  1.00  0.00     0.031 C 
ATOM     53  C   UNL A   1      38.081  30.376  30.579  1.00  0.00     0.029 A 
ATOM     54  C   UNL A   1      39.198  30.054  31.462  1.00  0.00     0.049 A 
ATOM     55  H   UNL A   1      39.650  30.920  33.302  1.00  0.00     0.167 HD
ATOM     56  C   UNL A   1      40.566  32.964  37.076  1.00  0.00     0.037 A 
ATOM     57  C   UNL A   1      40.140  29.123  31.223  1.00  0.00     0.037 A 
ATOM     58  C   UNL A   1      41.555  31.927  36.954  1.00  0.00     0.049 A 
ATOM     59  C   UNL A   1      41.225  28.903  32.242  1.00  0.00     0.074 A 
ATOM     60  C   UNL A   1      42.556  31.581  37.845  1.00  0.00     0.029 A 
ATOM     61  N   UNL A   1      41.671  31.071  35.868  1.00  0.00    -0.354 N 
ATOM     62  N   UNL A   1      41.420  29.513  33.387  1.00  0.00    -0.248 NA
ATOM     63  C   UNL A   1      42.217  27.863  31.939  1.00  0.00     0.031 C 
ATOM     64  C   UNL A   1      43.309  30.551  37.274  1.00  0.00     0.029 A 
ATOM     65  C   UNL A   1      42.743  30.214  36.054  1.00  0.00     0.049 A 
ATOM     66  H   UNL A   1      41.079  31.072  35.081  1.00  0.00     0.167 HD
ATOM     67  C   UNL A   1      42.536  28.911  33.954  1.00  0.00     0.074 A 
ATOM     68  C   UNL A   1      42.965  27.878  33.033  1.00  0.00     0.031 C 
ATOM     69  C   UNL A   1      43.151  29.187  35.130  1.00  0.00     0.037 A 
BRANCH  56  70
ATOM     70  C   UNL A   1      40.614  33.863  38.279  1.00  0.00     0.057 A 
ATOM     71  C   UNL A   1      41.407  35.016  38.312  1.00  0.00     0.134 A 
ATOM     72  C   UNL A   1      39.830  33.587  39.407  1.00  0.00     0.134 A 
ATOM     73  F   UNL A   1      42.192  35.333  37.270  1.00  0.00    -0.206 F 
ATOM     74  C   UNL A   1      41.443  35.848  39.432  1.00  0.00     0.040 A 
ATOM     75  C   UNL A   1      39.833  34.428  40.521  1.00  0.00     0.040 A 
ATOM     76  F   UNL A   1      39.042  32.502  39.442  1.00  0.00    -0.206 F 
ATOM     77  C   UNL A   1      40.647  35.559  40.539  1.00  0.00     0.006 A 
ENDBRANCH  56  70
BRANCH  57  78
ATOM     78  C   UNL A   1      40.091  28.313  29.978  1.00  0.00     0.057 A 
ATOM     79  C   UNL A   1      39.302  27.159  29.896  1.00  0.00     0.134 A 
ATOM     80  C   UNL A   1      40.836  28.665  28.847  1.00  0.00     0.134 A 
ATOM     81  F   UNL A   1      38.578  26.760  30.952  1.00  0.00    -0.206 F 
ATOM     82  C   UNL A   1      39.275  26.372  28.743  1.00  0.00     0.040 A 
ATOM     83  C   UNL A   1      40.797  27.903  27.679  1.00  0.00     0.040 A 
ATOM     84  F   UNL A   1      41.606  29.763  28.857  1.00  0.00    -0.206 F 
ATOM     85  C   UNL A   1      40.021  26.746  27.628  1.00  0.00     0.006 A 
ENDBRANCH  57  78
BRANCH  69  86
ATOM     86  C   UNL A   1      44.329  28.337  35.506  1.00  0.00     0.057 A 
ATOM     87  C   UNL A   1      44.186  27.151  36.237  1.00  0.00     0.134 A 
ATOM     88  C   UNL A   1      45.621  28.692  35.094  1.00  0.00     0.134 A 
ATOM     89  F   UNL A   1      42.978  26.761  36.671  1.00  0.00    -0.206 F 
ATOM     90  C   UNL A   1      45.289  26.360  36.566  1.00  0.00     0.040 A 
ATOM     91  C   UNL A   1      46.726  27.894  35.391  1.00  0.00     0.040 A 
ATOM     92  F   UNL A   1      45.827  29.810  34.382  1.00  0.00    -0.206 F 
ATOM     93  C   UNL A   1      46.563  26.728  36.135  1.00  0.00     0.006 A 
ENDBRANCH  69  86
ENDBRANCH  43  44
ENDBRANCH  35  38
ENDBRANCH  33  34
ENDBRANCH  32  33
ENDBRANCH  31  32
ENDBRANCH   1  31
TORSDOF 19
ENDMDL
