MODEL 1
REMARK VINA RESULT:     -11.2      0.000      0.000
REMARK SMILES CC[C@@](C)(NC(=O)Nc1c(C)cccc1Cl)C(=O)NCCCCCCNC(=O)c1ccc(-c2c3nc(c(-c4c(F)cccc4F)c4ccc([nH]4)c(-c4c(F)cccc4F)c4nc(c(-c5c(F)cccc5F)c5ccc2[nH]5)C=C4)C=C3)cc1
REMARK SMILES IDX 22 1 21 2 20 3 19 4 17 5 18 6 3 8 4 9 2 10 1 11 5 12 6 13
REMARK SMILES IDX 7 15 8 16 9 18 10 19 15 20 11 21 12 22 14 23 16 24 13 25
REMARK SMILES IDX 23 26 24 27 25 28 26 29 27 30 28 32 29 33 30 34 82 35 31 36
REMARK SMILES IDX 81 37 32 38 33 39 34 40 75 41 35 42 80 43 74 44 76 45 36 46
REMARK SMILES IDX 79 47 73 48 72 49 37 51 63 52 46 53 62 54 47 55 50 56 61 57
REMARK SMILES IDX 77 58 48 59 49 60 60 62 78 63 51 64 38 65 39 66 44 67 40 68
REMARK SMILES IDX 41 69 43 70 45 71 42 72 64 73 65 74 70 75 66 76 67 77 69 78
REMARK SMILES IDX 71 79 68 80 52 81 53 82 58 83 54 84 55 85 57 86 59 87 56 88
REMARK H PARENT 19 7 5 14 8 17 26 31 76 50 50 61
REMARK Flexibility Score: inf
ROOT
ATOM      1  C   UNL A   1      32.021  29.593  27.175  1.00  0.00     0.002 C 
ENDROOT
BRANCH   1   2
ATOM      2  C   UNL A   1      33.516  29.324  27.429  1.00  0.00     0.021 C 
BRANCH   2   3
ATOM      3  C   UNL A   1      34.364  28.475  26.461  1.00  0.00     0.116 C 
BRANCH   3   4
ATOM      4  N   UNL A   1      34.143  28.694  25.042  1.00  0.00    -0.354 N 
ATOM      5  C   UNL A   1      33.227  28.213  24.106  1.00  0.00     0.245 C 
ATOM      6  O   UNL A   1      32.674  28.982  23.317  1.00  0.00    -0.272 OA
ATOM      7  H   UNL A   1      34.787  29.328  24.652  1.00  0.00     0.163 HD
BRANCH   5   8
ATOM      8  C   UNL A   1      32.828  26.738  24.142  1.00  0.00     0.117 C 
ATOM      9  C   UNL A   1      33.504  26.173  22.869  1.00  0.00     0.045 C 
BRANCH   8  10
ATOM     10  C   UNL A   1      33.190  25.798  25.325  1.00  0.00     0.035 C 
ATOM     11  C   UNL A   1      34.407  24.904  25.220  1.00  0.00     0.007 C 
ENDBRANCH   8  10
BRANCH   8  12
ATOM     12  N   UNL A   1      31.380  26.799  24.074  1.00  0.00    -0.324 N 
ATOM     13  C   UNL A   1      30.458  25.846  23.940  1.00  0.00     0.320 C 
ATOM     14  H   UNL A   1      31.012  27.710  24.139  1.00  0.00     0.166 HD
ATOM     15  O   UNL A   1      29.310  26.289  23.756  1.00  0.00    -0.248 OA
ATOM     16  N   UNL A   1      30.547  24.509  23.908  1.00  0.00    -0.306 N 
ATOM     17  H   UNL A   1      29.609  24.218  23.852  1.00  0.00     0.171 HD
BRANCH  16  18
ATOM     18  C   UNL A   1      31.285  23.270  23.912  1.00  0.00     0.064 A 
ATOM     19  C   UNL A   1      32.093  22.524  23.000  1.00  0.00    -0.026 A 
ATOM     20  C   UNL A   1      31.254  22.705  25.230  1.00  0.00     0.064 A 
ATOM     21  C   UNL A   1      33.101  22.998  21.962  1.00  0.00     0.046 C 
ATOM     22  C   UNL A   1      32.427  21.169  23.301  1.00  0.00     0.005 A 
ATOM     23  C   UNL A   1      31.741  21.435  25.552  1.00  0.00     0.023 A 
ATOM     24  Cl  UNL A   1      30.604  23.605  26.583  1.00  0.00    -0.082 Cl
ATOM     25  C   UNL A   1      32.267  20.635  24.564  1.00  0.00     0.002 A 
ENDBRANCH  16  18
ENDBRANCH   8  12
ENDBRANCH   5   8
ENDBRANCH   3   4
ENDBRANCH   2   3
ENDBRANCH   1   2
BRANCH   1  26
ATOM     26  C   UNL A   1      31.601  30.709  26.218  1.00  0.00     0.002 C 
BRANCH  26  27
ATOM     27  C   UNL A   1      31.340  32.077  26.816  1.00  0.00     0.021 C 
BRANCH  27  28
ATOM     28  C   UNL A   1      32.509  33.039  26.741  1.00  0.00     0.116 C 
BRANCH  28  29
ATOM     29  N   UNL A   1      32.335  34.224  27.567  1.00  0.00    -0.352 N 
ATOM     30  C   UNL A   1      33.076  34.631  28.659  1.00  0.00     0.251 C 
ATOM     31  H   UNL A   1      31.590  34.814  27.312  1.00  0.00     0.163 HD
ATOM     32  O   UNL A   1      32.738  35.589  29.323  1.00  0.00    -0.269 OA
BRANCH  30  33
ATOM     33  C   UNL A   1      34.273  33.842  29.037  1.00  0.00     0.039 A 
ATOM     34  C   UNL A   1      35.537  34.390  28.817  1.00  0.00     0.014 A 
ATOM     35  C   UNL A   1      34.139  32.605  29.673  1.00  0.00     0.014 A 
ATOM     36  C   UNL A   1      36.665  33.739  29.322  1.00  0.00     0.010 A 
ATOM     37  C   UNL A   1      35.251  32.009  30.257  1.00  0.00     0.010 A 
ATOM     38  C   UNL A   1      36.525  32.572  30.091  1.00  0.00    -0.014 A 
BRANCH  38  39
ATOM     39  C   UNL A   1      37.695  31.938  30.749  1.00  0.00     0.031 A 
ATOM     40  C   UNL A   1      38.466  30.860  30.043  1.00  0.00     0.074 A 
ATOM     41  C   UNL A   1      38.015  32.279  32.013  1.00  0.00     0.049 A 
ATOM     42  N   UNL A   1      39.471  30.142  30.477  1.00  0.00    -0.248 NA
ATOM     43  C   UNL A   1      38.033  30.525  28.677  1.00  0.00     0.031 C 
ATOM     44  C   UNL A   1      37.305  33.267  32.827  1.00  0.00     0.029 A 
ATOM     45  N   UNL A   1      39.008  31.819  32.840  1.00  0.00    -0.354 N 
ATOM     46  C   UNL A   1      39.784  29.270  29.442  1.00  0.00     0.074 A 
ATOM     47  C   UNL A   1      38.822  29.502  28.388  1.00  0.00     0.031 C 
ATOM     48  C   UNL A   1      37.896  33.351  34.029  1.00  0.00     0.029 A 
ATOM     49  C   UNL A   1      38.996  32.394  34.087  1.00  0.00     0.049 A 
ATOM     50  H   UNL A   1      39.667  31.141  32.565  1.00  0.00     0.167 HD
ATOM     51  C   UNL A   1      40.798  28.376  29.367  1.00  0.00     0.037 A 
ATOM     52  C   UNL A   1      39.773  32.165  35.164  1.00  0.00     0.037 A 
ATOM     53  C   UNL A   1      41.754  28.149  30.420  1.00  0.00     0.049 A 
ATOM     54  C   UNL A   1      40.878  31.151  35.069  1.00  0.00     0.074 A 
ATOM     55  C   UNL A   1      42.852  27.306  30.422  1.00  0.00     0.029 A 
ATOM     56  N   UNL A   1      41.719  28.762  31.665  1.00  0.00    -0.354 N 
ATOM     57  N   UNL A   1      41.215  30.390  34.055  1.00  0.00    -0.248 NA
ATOM     58  C   UNL A   1      41.713  30.966  36.263  1.00  0.00     0.031 C 
ATOM     59  C   UNL A   1      43.445  27.365  31.688  1.00  0.00     0.029 A 
ATOM     60  C   UNL A   1      42.754  28.290  32.455  1.00  0.00     0.049 A 
ATOM     61  H   UNL A   1      41.056  29.433  31.945  1.00  0.00     0.167 HD
ATOM     62  C   UNL A   1      42.311  29.650  34.482  1.00  0.00     0.074 A 
ATOM     63  C   UNL A   1      42.593  30.068  35.840  1.00  0.00     0.031 C 
ATOM     64  C   UNL A   1      43.018  28.709  33.809  1.00  0.00     0.037 A 
BRANCH  51  65
ATOM     65  C   UNL A   1      40.914  27.573  28.102  1.00  0.00     0.057 A 
ATOM     66  C   UNL A   1      41.648  28.031  26.999  1.00  0.00     0.134 A 
ATOM     67  C   UNL A   1      40.290  26.325  27.986  1.00  0.00     0.134 A 
ATOM     68  F   UNL A   1      42.262  29.224  27.038  1.00  0.00    -0.206 F 
ATOM     69  C   UNL A   1      41.723  27.298  25.814  1.00  0.00     0.040 A 
ATOM     70  C   UNL A   1      40.386  25.567  26.817  1.00  0.00     0.040 A 
ATOM     71  F   UNL A   1      39.577  25.820  29.004  1.00  0.00    -0.206 F 
ATOM     72  C   UNL A   1      41.095  26.058  25.723  1.00  0.00     0.006 A 
ENDBRANCH  51  65
BRANCH  52  73
ATOM     73  C   UNL A   1      39.528  32.919  36.420  1.00  0.00     0.057 A 
ATOM     74  C   UNL A   1      40.202  34.114  36.694  1.00  0.00     0.134 A 
ATOM     75  C   UNL A   1      38.602  32.469  37.369  1.00  0.00     0.134 A 
ATOM     76  F   UNL A   1      41.114  34.588  35.833  1.00  0.00    -0.206 F 
ATOM     77  C   UNL A   1      39.972  34.828  37.871  1.00  0.00     0.040 A 
ATOM     78  C   UNL A   1      38.343  33.186  38.538  1.00  0.00     0.040 A 
ATOM     79  F   UNL A   1      37.916  31.334  37.161  1.00  0.00    -0.206 F 
ATOM     80  C   UNL A   1      39.034  34.368  38.794  1.00  0.00     0.006 A 
ENDBRANCH  52  73
BRANCH  64  81
ATOM     81  C   UNL A   1      44.176  28.076  34.526  1.00  0.00     0.057 A 
ATOM     82  C   UNL A   1      45.458  28.644  34.506  1.00  0.00     0.134 A 
ATOM     83  C   UNL A   1      43.998  26.910  35.282  1.00  0.00     0.134 A 
ATOM     84  F   UNL A   1      45.699  29.752  33.791  1.00  0.00    -0.206 F 
ATOM     85  C   UNL A   1      46.522  28.064  35.197  1.00  0.00     0.040 A 
ATOM     86  C   UNL A   1      45.048  26.337  36.000  1.00  0.00     0.040 A 
ATOM     87  F   UNL A   1      42.796  26.320  35.350  1.00  0.00    -0.206 F 
ATOM     88  C   UNL A   1      46.317  26.911  35.953  1.00  0.00     0.006 A 
ENDBRANCH  64  81
ENDBRANCH  38  39
ENDBRANCH  30  33
ENDBRANCH  28  29
ENDBRANCH  27  28
ENDBRANCH  26  27
ENDBRANCH   1  26
TORSDOF 16
ENDMDL
MODEL 2
REMARK VINA RESULT:     -11.2      0.483      6.076
REMARK SMILES CC[C@@](C)(NC(=O)Nc1c(C)cccc1Cl)C(=O)NCCCCCCNC(=O)c1ccc(-c2c3nc(c(-c4c(F)cccc4F)c4ccc([nH]4)c(-c4c(F)cccc4F)c4nc(c(-c5c(F)cccc5F)c5ccc2[nH]5)C=C4)C=C3)cc1
REMARK SMILES IDX 22 1 21 2 20 3 19 4 17 5 18 6 3 8 4 9 2 10 1 11 5 12 6 13
REMARK SMILES IDX 7 15 8 16 9 18 10 19 15 20 11 21 12 22 14 23 16 24 13 25
REMARK SMILES IDX 23 26 24 27 25 28 26 29 27 30 28 32 29 33 30 34 82 35 31 36
REMARK SMILES IDX 81 37 32 38 33 39 34 40 75 41 35 42 80 43 74 44 76 45 36 46
REMARK SMILES IDX 79 47 73 48 72 49 37 51 63 52 46 53 62 54 47 55 50 56 61 57
REMARK SMILES IDX 77 58 48 59 49 60 60 62 78 63 51 64 38 65 39 66 44 67 40 68
REMARK SMILES IDX 41 69 43 70 45 71 42 72 64 73 65 74 70 75 66 76 67 77 69 78
REMARK SMILES IDX 71 79 68 80 52 81 53 82 58 83 54 84 55 85 57 86 59 87 56 88
REMARK H PARENT 19 7 5 14 8 17 26 31 76 50 50 61
REMARK Flexibility Score: inf
ROOT
ATOM      1  C   UNL A   1      31.906  29.664  26.947  1.00  0.00     0.002 C 
ENDROOT
BRANCH   1   2
ATOM      2  C   UNL A   1      33.409  29.519  27.248  1.00  0.00     0.021 C 
BRANCH   2   3
ATOM      3  C   UNL A   1      34.356  28.752  26.304  1.00  0.00     0.116 C 
BRANCH   3   4
ATOM      4  N   UNL A   1      34.084  28.864  24.882  1.00  0.00    -0.354 N 
ATOM      5  C   UNL A   1      33.141  28.309  24.016  1.00  0.00     0.245 C 
ATOM      6  O   UNL A   1      32.555  29.014  23.192  1.00  0.00    -0.272 OA
ATOM      7  H   UNL A   1      34.709  29.471  24.423  1.00  0.00     0.163 HD
BRANCH   5   8
ATOM      8  C   UNL A   1      32.757  26.839  24.175  1.00  0.00     0.117 C 
ATOM      9  C   UNL A   1      33.429  26.178  22.948  1.00  0.00     0.045 C 
BRANCH   8  10
ATOM     10  C   UNL A   1      33.135  26.001  25.428  1.00  0.00     0.035 C 
ATOM     11  C   UNL A   1      34.286  25.021  25.347  1.00  0.00     0.007 C 
ENDBRANCH   8  10
BRANCH   8  12
ATOM     12  N   UNL A   1      31.308  26.881  24.113  1.00  0.00    -0.324 N 
ATOM     13  C   UNL A   1      30.397  25.917  23.981  1.00  0.00     0.320 C 
ATOM     14  H   UNL A   1      30.928  27.787  24.181  1.00  0.00     0.166 HD
ATOM     15  O   UNL A   1      29.243  26.344  23.803  1.00  0.00    -0.248 OA
ATOM     16  N   UNL A   1      30.504  24.581  23.946  1.00  0.00    -0.306 N 
ATOM     17  H   UNL A   1      29.570  24.278  23.893  1.00  0.00     0.171 HD
BRANCH  16  18
ATOM     18  C   UNL A   1      31.258  23.351  23.944  1.00  0.00     0.064 A 
ATOM     19  C   UNL A   1      32.060  22.610  23.023  1.00  0.00    -0.026 A 
ATOM     20  C   UNL A   1      31.255  22.793  25.265  1.00  0.00     0.064 A 
ATOM     21  C   UNL A   1      33.045  23.092  21.966  1.00  0.00     0.046 C 
ATOM     22  C   UNL A   1      32.416  21.262  23.325  1.00  0.00     0.005 A 
ATOM     23  C   UNL A   1      31.765  21.531  25.586  1.00  0.00     0.023 A 
ATOM     24  Cl  UNL A   1      30.616  23.692  26.624  1.00  0.00    -0.082 Cl
ATOM     25  C   UNL A   1      32.284  20.733  24.594  1.00  0.00     0.002 A 
ENDBRANCH  16  18
ENDBRANCH   8  12
ENDBRANCH   5   8
ENDBRANCH   3   4
ENDBRANCH   2   3
ENDBRANCH   1   2
BRANCH   1  26
ATOM     26  C   UNL A   1      31.403  30.865  26.146  1.00  0.00     0.002 C 
BRANCH  26  27
ATOM     27  C   UNL A   1      31.316  32.196  26.867  1.00  0.00     0.021 C 
BRANCH  27  28
ATOM     28  C   UNL A   1      32.557  33.059  26.761  1.00  0.00     0.116 C 
BRANCH  28  29
ATOM     29  N   UNL A   1      32.506  34.248  27.598  1.00  0.00    -0.352 N 
ATOM     30  C   UNL A   1      33.320  34.592  28.660  1.00  0.00     0.251 C 
ATOM     31  H   UNL A   1      31.795  34.893  27.378  1.00  0.00     0.163 HD
ATOM     32  O   UNL A   1      33.082  35.567  29.342  1.00  0.00    -0.269 OA
BRANCH  30  33
ATOM     33  C   UNL A   1      34.470  33.715  28.983  1.00  0.00     0.039 A 
ATOM     34  C   UNL A   1      35.763  34.221  28.840  1.00  0.00     0.014 A 
ATOM     35  C   UNL A   1      34.266  32.431  29.495  1.00  0.00     0.014 A 
ATOM     36  C   UNL A   1      36.849  33.472  29.301  1.00  0.00     0.010 A 
ATOM     37  C   UNL A   1      35.336  31.730  30.040  1.00  0.00     0.010 A 
ATOM     38  C   UNL A   1      36.638  32.246  29.952  1.00  0.00    -0.014 A 
BRANCH  38  39
ATOM     39  C   UNL A   1      37.763  31.498  30.568  1.00  0.00     0.031 A 
ATOM     40  C   UNL A   1      38.180  31.789  31.981  1.00  0.00     0.074 A 
ATOM     41  C   UNL A   1      38.457  30.611  29.829  1.00  0.00     0.049 A 
ATOM     42  N   UNL A   1      39.176  31.292  32.669  1.00  0.00    -0.248 NA
ATOM     43  C   UNL A   1      37.389  32.794  32.709  1.00  0.00     0.031 C 
ATOM     44  C   UNL A   1      38.189  30.285  28.427  1.00  0.00     0.029 A 
ATOM     45  N   UNL A   1      39.542  29.834  30.149  1.00  0.00    -0.354 N 
ATOM     46  C   UNL A   1      39.135  31.925  33.904  1.00  0.00     0.074 A 
ATOM     47  C   UNL A   1      38.059  32.890  33.847  1.00  0.00     0.031 C 
ATOM     48  C   UNL A   1      39.074  29.364  28.013  1.00  0.00     0.029 A 
ATOM     49  C   UNL A   1      39.997  29.067  29.104  1.00  0.00     0.049 A 
ATOM     50  H   UNL A   1      39.955  29.826  31.042  1.00  0.00     0.167 HD
ATOM     51  C   UNL A   1      39.905  31.705  34.995  1.00  0.00     0.037 A 
ATOM     52  C   UNL A   1      41.049  28.230  29.026  1.00  0.00     0.037 A 
ATOM     53  C   UNL A   1      40.975  30.742  35.046  1.00  0.00     0.049 A 
ATOM     54  C   UNL A   1      41.908  28.016  30.241  1.00  0.00     0.074 A 
ATOM     55  C   UNL A   1      41.779  30.403  36.119  1.00  0.00     0.029 A 
ATOM     56  N   UNL A   1      41.397  29.972  33.971  1.00  0.00    -0.354 N 
ATOM     57  N   UNL A   1      41.807  28.562  31.429  1.00  0.00    -0.248 NA
ATOM     58  C   UNL A   1      43.023  27.069  30.107  1.00  0.00     0.031 C 
ATOM     59  C   UNL A   1      42.726  29.471  35.678  1.00  0.00     0.029 A 
ATOM     60  C   UNL A   1      42.473  29.184  34.346  1.00  0.00     0.049 A 
ATOM     61  H   UNL A   1      40.992  29.984  33.074  1.00  0.00     0.167 HD
ATOM     62  C   UNL A   1      42.833  28.012  32.189  1.00  0.00     0.074 A 
ATOM     63  C   UNL A   1      43.530  27.076  31.332  1.00  0.00     0.031 C 
ATOM     64  C   UNL A   1      43.164  28.262  33.480  1.00  0.00     0.037 A 
BRANCH  51  65
ATOM     65  C   UNL A   1      39.617  32.530  36.217  1.00  0.00     0.057 A 
ATOM     66  C   UNL A   1      40.309  33.719  36.488  1.00  0.00     0.134 A 
ATOM     67  C   UNL A   1      38.633  32.135  37.132  1.00  0.00     0.134 A 
ATOM     68  F   UNL A   1      41.272  34.150  35.659  1.00  0.00    -0.206 F 
ATOM     69  C   UNL A   1      40.061  34.462  37.643  1.00  0.00     0.040 A 
ATOM     70  C   UNL A   1      38.354  32.888  38.274  1.00  0.00     0.040 A 
ATOM     71  F   UNL A   1      37.927  31.012  36.933  1.00  0.00    -0.206 F 
ATOM     72  C   UNL A   1      39.077  34.050  38.538  1.00  0.00     0.006 A 
ENDBRANCH  51  65
BRANCH  52  73
ATOM     73  C   UNL A   1      41.340  27.531  27.748  1.00  0.00     0.057 A 
ATOM     74  C   UNL A   1      42.125  28.129  26.755  1.00  0.00     0.134 A 
ATOM     75  C   UNL A   1      40.853  26.243  27.496  1.00  0.00     0.134 A 
ATOM     76  F   UNL A   1      42.606  29.368  26.929  1.00  0.00    -0.206 F 
ATOM     77  C   UNL A   1      42.406  27.475  25.554  1.00  0.00     0.040 A 
ATOM     78  C   UNL A   1      41.148  25.567  26.311  1.00  0.00     0.040 A 
ATOM     79  F   UNL A   1      40.102  25.612  28.411  1.00  0.00    -0.206 F 
ATOM     80  C   UNL A   1      41.923  26.186  25.333  1.00  0.00     0.006 A 
ENDBRANCH  52  73
BRANCH  64  81
ATOM     81  C   UNL A   1      44.326  27.501  34.051  1.00  0.00     0.057 A 
ATOM     82  C   UNL A   1      45.627  28.022  34.045  1.00  0.00     0.134 A 
ATOM     83  C   UNL A   1      44.133  26.252  34.656  1.00  0.00     0.134 A 
ATOM     84  F   UNL A   1      45.883  29.206  33.470  1.00  0.00    -0.206 F 
ATOM     85  C   UNL A   1      46.696  27.319  34.603  1.00  0.00     0.040 A 
ATOM     86  C   UNL A   1      45.189  25.553  35.242  1.00  0.00     0.040 A 
ATOM     87  F   UNL A   1      42.912  25.699  34.703  1.00  0.00    -0.206 F 
ATOM     88  C   UNL A   1      46.476  26.084  35.211  1.00  0.00     0.006 A 
ENDBRANCH  64  81
ENDBRANCH  38  39
ENDBRANCH  30  33
ENDBRANCH  28  29
ENDBRANCH  27  28
ENDBRANCH  26  27
ENDBRANCH   1  26
TORSDOF 16
ENDMDL
MODEL 3
REMARK VINA RESULT:     -11.2      4.360      9.185
REMARK SMILES CC[C@@](C)(NC(=O)Nc1c(C)cccc1Cl)C(=O)NCCCCCCNC(=O)c1ccc(-c2c3nc(c(-c4c(F)cccc4F)c4ccc([nH]4)c(-c4c(F)cccc4F)c4nc(c(-c5c(F)cccc5F)c5ccc2[nH]5)C=C4)C=C3)cc1
REMARK SMILES IDX 22 1 21 2 20 3 19 4 17 5 18 6 3 8 4 9 2 10 1 11 5 12 6 13
REMARK SMILES IDX 7 15 8 16 9 18 10 19 15 20 11 21 12 22 14 23 16 24 13 25
REMARK SMILES IDX 23 26 24 27 25 28 26 29 27 30 28 32 29 33 30 34 82 35 31 36
REMARK SMILES IDX 81 37 32 38 33 39 34 40 75 41 35 42 80 43 74 44 76 45 36 46
REMARK SMILES IDX 79 47 73 48 72 49 37 51 63 52 46 53 62 54 47 55 50 56 61 57
REMARK SMILES IDX 77 58 48 59 49 60 60 62 78 63 51 64 38 65 39 66 44 67 40 68
REMARK SMILES IDX 41 69 43 70 45 71 42 72 64 73 65 74 70 75 66 76 67 77 69 78
REMARK SMILES IDX 71 79 68 80 52 81 53 82 58 83 54 84 55 85 57 86 59 87 56 88
REMARK H PARENT 19 7 5 14 8 17 26 31 76 50 50 61
REMARK Flexibility Score: inf
ROOT
ATOM      1  C   UNL A   1      35.510  19.801  24.991  1.00  0.00     0.002 C 
ENDROOT
BRANCH   1   2
ATOM      2  C   UNL A   1      34.024  19.718  24.597  1.00  0.00     0.021 C 
BRANCH   2   3
ATOM      3  C   UNL A   1      32.900  20.088  25.586  1.00  0.00     0.116 C 
BRANCH   3   4
ATOM      4  N   UNL A   1      33.241  21.040  26.628  1.00  0.00    -0.354 N 
ATOM      5  C   UNL A   1      32.807  22.324  26.966  1.00  0.00     0.245 C 
ATOM      6  O   UNL A   1      32.556  22.612  28.137  1.00  0.00    -0.272 OA
ATOM      7  H   UNL A   1      33.938  20.704  27.236  1.00  0.00     0.163 HD
BRANCH   5   8
ATOM      8  C   UNL A   1      32.537  23.336  25.854  1.00  0.00     0.117 C 
ATOM      9  C   UNL A   1      33.719  24.324  26.001  1.00  0.00     0.045 C 
BRANCH   8  10
ATOM     10  C   UNL A   1      32.442  22.935  24.355  1.00  0.00     0.035 C 
ATOM     11  C   UNL A   1      33.613  23.210  23.436  1.00  0.00     0.007 C 
ENDBRANCH   8  10
BRANCH   8  12
ATOM     12  N   UNL A   1      31.248  23.884  26.230  1.00  0.00    -0.324 N 
ATOM     13  C   UNL A   1      30.660  25.045  25.943  1.00  0.00     0.320 C 
ATOM     14  H   UNL A   1      30.709  23.290  26.802  1.00  0.00     0.166 HD
ATOM     15  O   UNL A   1      29.609  25.241  26.579  1.00  0.00    -0.248 OA
ATOM     16  N   UNL A   1      31.020  26.060  25.144  1.00  0.00    -0.306 N 
ATOM     17  H   UNL A   1      30.255  26.676  25.198  1.00  0.00     0.171 HD
BRANCH  16  18
ATOM     18  C   UNL A   1      31.930  26.729  24.248  1.00  0.00     0.064 A 
ATOM     19  C   UNL A   1      32.428  26.542  22.922  1.00  0.00    -0.026 A 
ATOM     20  C   UNL A   1      32.366  27.957  24.845  1.00  0.00     0.064 A 
ATOM     21  C   UNL A   1      31.723  26.045  21.667  1.00  0.00     0.046 C 
ATOM     22  C   UNL A   1      33.560  27.291  22.482  1.00  0.00     0.005 A 
ATOM     23  C   UNL A   1      33.365  28.779  24.314  1.00  0.00     0.023 A 
ATOM     24  Cl  UNL A   1      31.635  28.553  26.321  1.00  0.00    -0.082 Cl
ATOM     25  C   UNL A   1      34.015  28.404  23.161  1.00  0.00     0.002 A 
ENDBRANCH  16  18
ENDBRANCH   8  12
ENDBRANCH   5   8
ENDBRANCH   3   4
ENDBRANCH   2   3
ENDBRANCH   1   2
BRANCH   1  26
ATOM     26  C   UNL A   1      36.213  21.159  25.024  1.00  0.00     0.002 C 
BRANCH  26  27
ATOM     27  C   UNL A   1      37.676  21.195  24.628  1.00  0.00     0.021 C 
BRANCH  27  28
ATOM     28  C   UNL A   1      38.651  21.094  25.783  1.00  0.00     0.116 C 
BRANCH  28  29
ATOM     29  N   UNL A   1      39.536  19.944  25.691  1.00  0.00    -0.352 N 
ATOM     30  C   UNL A   1      40.881  19.862  25.999  1.00  0.00     0.251 C 
ATOM     31  H   UNL A   1      39.121  19.112  25.368  1.00  0.00     0.163 HD
ATOM     32  O   UNL A   1      41.519  18.858  25.759  1.00  0.00    -0.269 OA
BRANCH  30  33
ATOM     33  C   UNL A   1      41.546  21.050  26.585  1.00  0.00     0.039 A 
ATOM     34  C   UNL A   1      42.116  21.993  25.727  1.00  0.00     0.014 A 
ATOM     35  C   UNL A   1      41.537  21.264  27.965  1.00  0.00     0.014 A 
ATOM     36  C   UNL A   1      42.593  23.197  26.250  1.00  0.00     0.010 A 
ATOM     37  C   UNL A   1      41.923  22.501  28.471  1.00  0.00     0.010 A 
ATOM     38  C   UNL A   1      42.451  23.481  27.618  1.00  0.00    -0.014 A 
BRANCH  38  39
ATOM     39  C   UNL A   1      42.827  24.806  28.173  1.00  0.00     0.031 A 
ATOM     40  C   UNL A   1      41.781  25.864  28.376  1.00  0.00     0.074 A 
ATOM     41  C   UNL A   1      44.122  25.080  28.422  1.00  0.00     0.049 A 
ATOM     42  N   UNL A   1      41.923  27.100  28.783  1.00  0.00    -0.248 NA
ATOM     43  C   UNL A   1      40.395  25.494  28.050  1.00  0.00     0.031 C 
ATOM     44  C   UNL A   1      45.238  24.157  28.208  1.00  0.00     0.029 A 
ATOM     45  N   UNL A   1      44.721  26.222  28.892  1.00  0.00    -0.354 N 
ATOM     46  C   UNL A   1      40.650  27.653  28.758  1.00  0.00     0.074 A 
ATOM     47  C   UNL A   1      39.760  26.642  28.232  1.00  0.00     0.031 C 
ATOM     48  C   UNL A   1      46.383  24.763  28.561  1.00  0.00     0.029 A 
ATOM     49  C   UNL A   1      46.088  26.129  28.984  1.00  0.00     0.049 A 
ATOM     50  H   UNL A   1      44.218  27.031  29.140  1.00  0.00     0.167 HD
ATOM     51  C   UNL A   1      40.253  28.883  29.161  1.00  0.00     0.037 A 
ATOM     52  C   UNL A   1      47.005  27.044  29.353  1.00  0.00     0.037 A 
ATOM     53  C   UNL A   1      41.143  29.887  29.686  1.00  0.00     0.049 A 
ATOM     54  C   UNL A   1      46.547  28.412  29.775  1.00  0.00     0.074 A 
ATOM     55  C   UNL A   1      40.833  31.144  30.174  1.00  0.00     0.029 A 
ATOM     56  N   UNL A   1      42.521  29.750  29.779  1.00  0.00    -0.354 N 
ATOM     57  N   UNL A   1      45.329  28.896  29.824  1.00  0.00    -0.248 NA
ATOM     58  C   UNL A   1      47.588  29.359  30.196  1.00  0.00     0.031 C 
ATOM     59  C   UNL A   1      42.029  31.789  30.507  1.00  0.00     0.029 A 
ATOM     60  C   UNL A   1      43.079  30.912  30.283  1.00  0.00     0.049 A 
ATOM     61  H   UNL A   1      43.027  28.945  29.523  1.00  0.00     0.167 HD
ATOM     62  C   UNL A   1      45.455  30.197  30.297  1.00  0.00     0.074 A 
ATOM     63  C   UNL A   1      46.866  30.417  30.539  1.00  0.00     0.031 C 
ATOM     64  C   UNL A   1      44.488  31.122  30.511  1.00  0.00     0.037 A 
BRANCH  51  65
ATOM     65  C   UNL A   1      38.790  29.207  29.041  1.00  0.00     0.057 A 
ATOM     66  C   UNL A   1      37.923  29.132  30.140  1.00  0.00     0.134 A 
ATOM     67  C   UNL A   1      38.243  29.604  27.816  1.00  0.00     0.134 A 
ATOM     68  F   UNL A   1      38.379  28.748  31.342  1.00  0.00    -0.206 F 
ATOM     69  C   UNL A   1      36.559  29.401  30.015  1.00  0.00     0.040 A 
ATOM     70  C   UNL A   1      36.886  29.906  27.685  1.00  0.00     0.040 A 
ATOM     71  F   UNL A   1      39.015  29.704  26.723  1.00  0.00    -0.206 F 
ATOM     72  C   UNL A   1      36.037  29.794  28.785  1.00  0.00     0.006 A 
ENDBRANCH  51  65
BRANCH  52  73
ATOM     73  C   UNL A   1      48.447  26.687  29.341  1.00  0.00     0.057 A 
ATOM     74  C   UNL A   1      49.256  26.971  28.235  1.00  0.00     0.134 A 
ATOM     75  C   UNL A   1      49.052  26.068  30.441  1.00  0.00     0.134 A 
ATOM     76  F   UNL A   1      48.732  27.546  27.144  1.00  0.00    -0.206 F 
ATOM     77  C   UNL A   1      50.613  26.641  28.220  1.00  0.00     0.040 A 
ATOM     78  C   UNL A   1      50.413  25.757  30.451  1.00  0.00     0.040 A 
ATOM     79  F   UNL A   1      48.332  25.778  31.536  1.00  0.00    -0.206 F 
ATOM     80  C   UNL A   1      51.196  26.040  29.334  1.00  0.00     0.006 A 
ENDBRANCH  52  73
BRANCH  64  81
ATOM     81  C   UNL A   1      44.920  32.457  31.048  1.00  0.00     0.057 A 
ATOM     82  C   UNL A   1      45.036  32.698  32.424  1.00  0.00     0.134 A 
ATOM     83  C   UNL A   1      45.268  33.498  30.178  1.00  0.00     0.134 A 
ATOM     84  F   UNL A   1      44.706  31.748  33.311  1.00  0.00    -0.206 F 
ATOM     85  C   UNL A   1      45.464  33.932  32.914  1.00  0.00     0.040 A 
ATOM     86  C   UNL A   1      45.725  34.727  30.655  1.00  0.00     0.040 A 
ATOM     87  F   UNL A   1      45.187  33.332  28.850  1.00  0.00    -0.206 F 
ATOM     88  C   UNL A   1      45.818  34.949  32.028  1.00  0.00     0.006 A 
ENDBRANCH  64  81
ENDBRANCH  38  39
ENDBRANCH  30  33
ENDBRANCH  28  29
ENDBRANCH  27  28
ENDBRANCH  26  27
ENDBRANCH   1  26
TORSDOF 16
ENDMDL
