MODEL 1
REMARK VINA RESULT:     -11.7      0.000      0.000
REMARK SMILES CC[C@H](NC(=O)c1nn(C)cc1C(=O)NCCCCCCNC(=O)c1ccc(-c2c3nc(c(-c4c(F)cccc4F)c4ccc([nH]4)c(-c4c(F)cccc4F)c4nc(c(-c5c(F)cccc5F)c5ccc2[nH]5)C=C4)C=C3)cc1)c1ccccc1
REMARK SMILES IDX 18 1 17 2 16 3 15 4 13 5 14 6 12 8 7 9 8 10 9 11 11 12 10 13
REMARK SMILES IDX 5 14 4 15 6 17 3 18 2 19 1 20 79 21 80 22 84 23 81 24 83 25
REMARK SMILES IDX 82 26 19 27 20 28 21 29 22 30 23 31 24 33 25 34 26 35 78 36
REMARK SMILES IDX 27 37 77 38 28 39 29 40 30 41 71 42 31 43 76 44 70 45 72 46
REMARK SMILES IDX 32 47 75 48 69 49 68 50 33 52 59 53 42 54 58 55 43 56 46 57
REMARK SMILES IDX 57 58 73 59 44 60 45 61 56 63 74 64 47 65 34 66 35 67 40 68
REMARK SMILES IDX 36 69 37 70 39 71 41 72 38 73 60 74 61 75 66 76 62 77 63 78
REMARK SMILES IDX 65 79 67 80 64 81 48 82 49 83 54 84 50 85 51 86 53 87 55 88
REMARK SMILES IDX 52 89
REMARK H PARENT 15 7 4 16 22 32 72 51 46 62
REMARK Flexibility Score: inf
ROOT
ATOM      1  C   UNL A   1      36.980  22.078  24.355  1.00  0.00     0.002 C 
ENDROOT
BRANCH   1   2
ATOM      2  C   UNL A   1      37.066  23.264  25.315  1.00  0.00     0.021 C 
BRANCH   2   3
ATOM      3  C   UNL A   1      35.749  23.847  25.825  1.00  0.00     0.116 C 
BRANCH   3   4
ATOM      4  N   UNL A   1      35.127  23.058  26.871  1.00  0.00    -0.352 N 
ATOM      5  C   UNL A   1      33.945  22.355  26.906  1.00  0.00     0.255 C 
ATOM      6  O   UNL A   1      33.639  21.820  27.968  1.00  0.00    -0.269 OA
ATOM      7  H   UNL A   1      35.644  23.020  27.707  1.00  0.00     0.163 HD
BRANCH   5   8
ATOM      8  C   UNL A   1      33.085  22.288  25.744  1.00  0.00     0.090 A 
ATOM      9  C   UNL A   1      31.783  22.865  25.598  1.00  0.00     0.162 A 
ATOM     10  N   UNL A   1      31.243  22.552  24.401  1.00  0.00    -0.167 NA
ATOM     11  N   UNL A   1      32.191  21.836  23.788  1.00  0.00    -0.274 N 
ATOM     12  C   UNL A   1      33.271  21.578  24.573  1.00  0.00     0.123 A 
ATOM     13  C   UNL A   1      31.988  21.391  22.431  1.00  0.00     0.173 C 
BRANCH   9  14
ATOM     14  C   UNL A   1      30.995  23.605  26.586  1.00  0.00     0.273 C 
ATOM     15  N   UNL A   1      30.621  24.910  26.369  1.00  0.00    -0.344 N 
ATOM     16  H   UNL A   1      29.884  25.199  26.954  1.00  0.00     0.164 HD
ATOM     17  O   UNL A   1      30.556  23.058  27.602  1.00  0.00    -0.267 OA
BRANCH  15  18
ATOM     18  C   UNL A   1      31.071  25.966  25.463  1.00  0.00     0.112 C 
BRANCH  18  19
ATOM     19  C   UNL A   1      29.931  26.423  24.518  1.00  0.00     0.026 C 
ATOM     20  C   UNL A   1      30.205  27.650  23.664  1.00  0.00     0.006 C 
ENDBRANCH  18  19
BRANCH  18  21
ATOM     21  C   UNL A   1      31.971  27.027  26.067  1.00  0.00    -0.026 A 
ATOM     22  C   UNL A   1      33.303  27.126  25.627  1.00  0.00     0.006 A 
ATOM     23  C   UNL A   1      31.541  27.933  27.042  1.00  0.00     0.006 A 
ATOM     24  C   UNL A   1      34.180  28.065  26.176  1.00  0.00     0.000 A 
ATOM     25  C   UNL A   1      32.419  28.865  27.605  1.00  0.00     0.000 A 
ATOM     26  C   UNL A   1      33.741  28.927  27.176  1.00  0.00     0.000 A 
ENDBRANCH  18  21
ENDBRANCH  15  18
ENDBRANCH   9  14
ENDBRANCH   5   8
ENDBRANCH   3   4
ENDBRANCH   2   3
ENDBRANCH   1   2
BRANCH   1  27
ATOM     27  C   UNL A   1      36.806  20.699  24.991  1.00  0.00     0.002 C 
BRANCH  27  28
ATOM     28  C   UNL A   1      38.017  19.766  24.926  1.00  0.00     0.021 C 
BRANCH  28  29
ATOM     29  C   UNL A   1      39.205  20.157  25.800  1.00  0.00     0.116 C 
BRANCH  29  30
ATOM     30  N   UNL A   1      40.221  19.122  25.869  1.00  0.00    -0.352 N 
ATOM     31  C   UNL A   1      41.564  19.221  26.140  1.00  0.00     0.251 C 
ATOM     32  H   UNL A   1      39.898  18.208  25.695  1.00  0.00     0.163 HD
ATOM     33  O   UNL A   1      42.291  18.240  26.007  1.00  0.00    -0.269 OA
BRANCH  31  34
ATOM     34  C   UNL A   1      42.155  20.513  26.560  1.00  0.00     0.039 A 
ATOM     35  C   UNL A   1      42.766  21.315  25.592  1.00  0.00     0.014 A 
ATOM     36  C   UNL A   1      42.122  20.931  27.893  1.00  0.00     0.014 A 
ATOM     37  C   UNL A   1      43.270  22.570  25.945  1.00  0.00     0.010 A 
ATOM     38  C   UNL A   1      42.567  22.209  28.232  1.00  0.00     0.010 A 
ATOM     39  C   UNL A   1      43.135  23.045  27.259  1.00  0.00    -0.014 A 
BRANCH  39  40
ATOM     40  C   UNL A   1      43.544  24.427  27.621  1.00  0.00     0.031 A 
ATOM     41  C   UNL A   1      42.516  25.463  27.979  1.00  0.00     0.074 A 
ATOM     42  C   UNL A   1      44.845  24.769  27.555  1.00  0.00     0.049 A 
ATOM     43  N   UNL A   1      42.682  26.735  28.243  1.00  0.00    -0.248 NA
ATOM     44  C   UNL A   1      41.116  25.017  28.024  1.00  0.00     0.031 C 
ATOM     45  C   UNL A   1      45.938  23.871  27.179  1.00  0.00     0.029 A 
ATOM     46  N   UNL A   1      45.469  25.970  27.790  1.00  0.00    -0.354 N 
ATOM     47  C   UNL A   1      41.411  27.242  28.479  1.00  0.00     0.074 A 
ATOM     48  C   UNL A   1      40.480  26.151  28.281  1.00  0.00     0.031 C 
ATOM     49  C   UNL A   1      47.097  24.547  27.218  1.00  0.00     0.029 A 
ATOM     50  C   UNL A   1      46.828  25.933  27.588  1.00  0.00     0.049 A 
ATOM     51  H   UNL A   1      44.988  26.780  28.076  1.00  0.00     0.167 HD
ATOM     52  C   UNL A   1      41.054  28.496  28.846  1.00  0.00     0.037 A 
ATOM     53  C   UNL A   1      47.753  26.907  27.678  1.00  0.00     0.037 A 
ATOM     54  C   UNL A   1      41.980  29.577  29.060  1.00  0.00     0.049 A 
ATOM     55  C   UNL A   1      47.330  28.294  28.071  1.00  0.00     0.074 A 
ATOM     56  C   UNL A   1      41.718  30.865  29.493  1.00  0.00     0.029 A 
ATOM     57  N   UNL A   1      43.350  29.498  28.852  1.00  0.00    -0.354 N 
ATOM     58  N   UNL A   1      46.131  28.743  28.350  1.00  0.00    -0.248 NA
ATOM     59  C   UNL A   1      48.389  29.309  28.162  1.00  0.00     0.031 C 
ATOM     60  C   UNL A   1      42.923  31.578  29.509  1.00  0.00     0.029 A 
ATOM     61  C   UNL A   1      43.941  30.722  29.124  1.00  0.00     0.049 A 
ATOM     62  H   UNL A   1      43.830  28.692  28.556  1.00  0.00     0.167 HD
ATOM     63  C   UNL A   1      46.291  30.086  28.663  1.00  0.00     0.074 A 
ATOM     64  C   UNL A   1      47.707  30.375  28.557  1.00  0.00     0.031 C 
ATOM     65  C   UNL A   1      45.349  30.999  29.005  1.00  0.00     0.037 A 
BRANCH  52  66
ATOM     66  C   UNL A   1      39.592  28.766  29.045  1.00  0.00     0.057 A 
ATOM     67  C   UNL A   1      38.978  28.602  30.293  1.00  0.00     0.134 A 
ATOM     68  C   UNL A   1      38.797  29.228  27.988  1.00  0.00     0.134 A 
ATOM     69  F   UNL A   1      39.681  28.151  31.344  1.00  0.00    -0.206 F 
ATOM     70  C   UNL A   1      37.619  28.864  30.478  1.00  0.00     0.040 A 
ATOM     71  C   UNL A   1      37.443  29.517  28.167  1.00  0.00     0.040 A 
ATOM     72  F   UNL A   1      39.324  29.414  26.769  1.00  0.00    -0.206 F 
ATOM     73  C   UNL A   1      36.849  29.329  29.414  1.00  0.00     0.006 A 
ENDBRANCH  52  66
BRANCH  53  74
ATOM     74  C   UNL A   1      49.176  26.600  27.395  1.00  0.00     0.057 A 
ATOM     75  C   UNL A   1      49.714  26.790  26.117  1.00  0.00     0.134 A 
ATOM     76  C   UNL A   1      50.030  26.115  28.392  1.00  0.00     0.134 A 
ATOM     77  F   UNL A   1      48.938  27.234  25.119  1.00  0.00    -0.206 F 
ATOM     78  C   UNL A   1      51.050  26.499  25.837  1.00  0.00     0.040 A 
ATOM     79  C   UNL A   1      51.373  25.839  28.130  1.00  0.00     0.040 A 
ATOM     80  F   UNL A   1      49.575  25.917  29.638  1.00  0.00    -0.206 F 
ATOM     81  C   UNL A   1      51.885  26.026  26.848  1.00  0.00     0.006 A 
ENDBRANCH  53  74
BRANCH  65  82
ATOM     82  C   UNL A   1      45.821  32.391  29.297  1.00  0.00     0.057 A 
ATOM     83  C   UNL A   1      46.218  32.775  30.585  1.00  0.00     0.134 A 
ATOM     84  C   UNL A   1      45.911  33.347  28.279  1.00  0.00     0.134 A 
ATOM     85  F   UNL A   1      46.141  31.910  31.608  1.00  0.00    -0.206 F 
ATOM     86  C   UNL A   1      46.673  34.068  30.851  1.00  0.00     0.040 A 
ATOM     87  C   UNL A   1      46.385  34.636  28.527  1.00  0.00     0.040 A 
ATOM     88  F   UNL A   1      45.551  33.040  27.023  1.00  0.00    -0.206 F 
ATOM     89  C   UNL A   1      46.764  35.000  29.818  1.00  0.00     0.006 A 
ENDBRANCH  65  82
ENDBRANCH  39  40
ENDBRANCH  31  34
ENDBRANCH  29  30
ENDBRANCH  28  29
ENDBRANCH  27  28
ENDBRANCH   1  27
TORSDOF 17
ENDMDL
MODEL 2
REMARK VINA RESULT:     -11.6      5.137      9.545
REMARK SMILES CC[C@H](NC(=O)c1nn(C)cc1C(=O)NCCCCCCNC(=O)c1ccc(-c2c3nc(c(-c4c(F)cccc4F)c4ccc([nH]4)c(-c4c(F)cccc4F)c4nc(c(-c5c(F)cccc5F)c5ccc2[nH]5)C=C4)C=C3)cc1)c1ccccc1
REMARK SMILES IDX 18 1 17 2 16 3 15 4 13 5 14 6 12 8 7 9 8 10 9 11 11 12 10 13
REMARK SMILES IDX 5 14 4 15 6 17 3 18 2 19 1 20 79 21 80 22 84 23 81 24 83 25
REMARK SMILES IDX 82 26 19 27 20 28 21 29 22 30 23 31 24 33 25 34 26 35 78 36
REMARK SMILES IDX 27 37 77 38 28 39 29 40 30 41 71 42 31 43 76 44 70 45 72 46
REMARK SMILES IDX 32 47 75 48 69 49 68 50 33 52 59 53 42 54 58 55 43 56 46 57
REMARK SMILES IDX 57 58 73 59 44 60 45 61 56 63 74 64 47 65 34 66 35 67 40 68
REMARK SMILES IDX 36 69 37 70 39 71 41 72 38 73 60 74 61 75 66 76 62 77 63 78
REMARK SMILES IDX 65 79 67 80 64 81 48 82 49 83 54 84 50 85 51 86 53 87 55 88
REMARK SMILES IDX 52 89
REMARK H PARENT 15 7 4 16 22 32 72 51 46 62
REMARK Flexibility Score: inf
ROOT
ATOM      1  C   UNL A   1      32.332  29.834  27.235  1.00  0.00     0.002 C 
ENDROOT
BRANCH   1   2
ATOM      2  C   UNL A   1      33.694  29.313  26.775  1.00  0.00     0.021 C 
BRANCH   2   3
ATOM      3  C   UNL A   1      33.697  28.157  25.776  1.00  0.00     0.116 C 
BRANCH   3   4
ATOM      4  N   UNL A   1      34.364  28.466  24.525  1.00  0.00    -0.352 N 
ATOM      5  C   UNL A   1      33.912  28.476  23.226  1.00  0.00     0.255 C 
ATOM      6  O   UNL A   1      34.732  28.725  22.346  1.00  0.00    -0.269 OA
ATOM      7  H   UNL A   1      35.311  28.714  24.625  1.00  0.00     0.163 HD
BRANCH   5   8
ATOM      8  C   UNL A   1      32.533  28.163  22.916  1.00  0.00     0.090 A 
ATOM      9  C   UNL A   1      32.043  27.010  22.225  1.00  0.00     0.162 A 
ATOM     10  N   UNL A   1      30.705  27.075  22.057  1.00  0.00    -0.167 NA
ATOM     11  N   UNL A   1      30.351  28.214  22.662  1.00  0.00    -0.274 N 
ATOM     12  C   UNL A   1      31.408  28.941  23.114  1.00  0.00     0.123 A 
ATOM     13  C   UNL A   1      28.958  28.575  22.750  1.00  0.00     0.173 C 
BRANCH   9  14
ATOM     14  C   UNL A   1      32.803  25.909  21.629  1.00  0.00     0.273 C 
ATOM     15  N   UNL A   1      33.245  24.853  22.390  1.00  0.00    -0.344 N 
ATOM     16  H   UNL A   1      33.491  24.068  21.848  1.00  0.00     0.164 HD
ATOM     17  O   UNL A   1      32.991  25.840  20.412  1.00  0.00    -0.267 OA
BRANCH  15  18
ATOM     18  C   UNL A   1      33.434  24.632  23.824  1.00  0.00     0.112 C 
BRANCH  18  19
ATOM     19  C   UNL A   1      32.146  24.078  24.483  1.00  0.00     0.026 C 
ATOM     20  C   UNL A   1      31.118  23.456  23.552  1.00  0.00     0.006 C 
ENDBRANCH  18  19
BRANCH  18  21
ATOM     21  C   UNL A   1      34.765  24.038  24.240  1.00  0.00    -0.026 A 
ATOM     22  C   UNL A   1      35.342  23.029  23.447  1.00  0.00     0.006 A 
ATOM     23  C   UNL A   1      35.468  24.450  25.377  1.00  0.00     0.006 A 
ATOM     24  C   UNL A   1      36.551  22.428  23.807  1.00  0.00     0.000 A 
ATOM     25  C   UNL A   1      36.671  23.841  25.748  1.00  0.00     0.000 A 
ATOM     26  C   UNL A   1      37.209  22.824  24.966  1.00  0.00     0.000 A 
ENDBRANCH  18  21
ENDBRANCH  15  18
ENDBRANCH   9  14
ENDBRANCH   5   8
ENDBRANCH   3   4
ENDBRANCH   2   3
ENDBRANCH   1   2
BRANCH   1  27
ATOM     27  C   UNL A   1      31.568  30.711  26.243  1.00  0.00     0.002 C 
BRANCH  27  28
ATOM     28  C   UNL A   1      31.398  32.181  26.632  1.00  0.00     0.021 C 
BRANCH  28  29
ATOM     29  C   UNL A   1      32.654  32.885  27.137  1.00  0.00     0.116 C 
BRANCH  29  30
ATOM     30  N   UNL A   1      32.391  34.225  27.632  1.00  0.00    -0.352 N 
ATOM     31  C   UNL A   1      32.996  34.925  28.647  1.00  0.00     0.251 C 
ATOM     32  H   UNL A   1      31.667  34.706  27.168  1.00  0.00     0.163 HD
ATOM     33  O   UNL A   1      32.531  36.000  29.013  1.00  0.00    -0.269 OA
BRANCH  31  34
ATOM     34  C   UNL A   1      34.192  34.378  29.330  1.00  0.00     0.039 A 
ATOM     35  C   UNL A   1      34.024  33.740  30.562  1.00  0.00     0.014 A 
ATOM     36  C   UNL A   1      35.469  34.500  28.776  1.00  0.00     0.014 A 
ATOM     37  C   UNL A   1      35.122  33.153  31.198  1.00  0.00     0.010 A 
ATOM     38  C   UNL A   1      36.552  33.860  29.378  1.00  0.00     0.010 A 
ATOM     39  C   UNL A   1      36.387  33.170  30.589  1.00  0.00    -0.014 A 
BRANCH  39  40
ATOM     40  C   UNL A   1      37.535  32.438  31.184  1.00  0.00     0.031 A 
ATOM     41  C   UNL A   1      38.178  32.923  32.453  1.00  0.00     0.074 A 
ATOM     42  C   UNL A   1      38.046  31.373  30.538  1.00  0.00     0.049 A 
ATOM     43  N   UNL A   1      39.235  32.459  33.072  1.00  0.00    -0.248 NA
ATOM     44  C   UNL A   1      37.568  34.093  33.099  1.00  0.00     0.031 C 
ATOM     45  C   UNL A   1      37.543  30.828  29.275  1.00  0.00     0.029 A 
ATOM     46  N   UNL A   1      39.114  30.566  30.846  1.00  0.00    -0.354 N 
ATOM     47  C   UNL A   1      39.420  33.284  34.174  1.00  0.00     0.074 A 
ATOM     48  C   UNL A   1      38.395  34.304  34.114  1.00  0.00     0.031 C 
ATOM     49  C   UNL A   1      38.292  29.772  28.923  1.00  0.00     0.029 A 
ATOM     50  C   UNL A   1      39.348  29.585  29.912  1.00  0.00     0.049 A 
ATOM     51  H   UNL A   1      39.658  30.679  31.658  1.00  0.00     0.167 HD
ATOM     52  C   UNL A   1      40.348  33.188  35.157  1.00  0.00     0.037 A 
ATOM     53  C   UNL A   1      40.313  28.648  29.852  1.00  0.00     0.037 A 
ATOM     54  C   UNL A   1      41.357  32.163  35.229  1.00  0.00     0.049 A 
ATOM     55  C   UNL A   1      41.340  28.572  30.946  1.00  0.00     0.074 A 
ATOM     56  C   UNL A   1      42.300  31.949  36.219  1.00  0.00     0.029 A 
ATOM     57  N   UNL A   1      41.557  31.183  34.268  1.00  0.00    -0.354 N 
ATOM     58  N   UNL A   1      41.465  29.322  32.013  1.00  0.00    -0.248 NA
ATOM     59  C   UNL A   1      42.359  27.520  30.827  1.00  0.00     0.031 C 
ATOM     60  C   UNL A   1      43.097  30.864  35.838  1.00  0.00     0.029 A 
ATOM     61  C   UNL A   1      42.626  30.378  34.630  1.00  0.00     0.049 A 
ATOM     62  H   UNL A   1      41.021  31.076  33.450  1.00  0.00     0.167 HD
ATOM     63  C   UNL A   1      42.565  28.825  32.699  1.00  0.00     0.074 A 
ATOM     64  C   UNL A   1      43.061  27.698  31.937  1.00  0.00     0.031 C 
ATOM     65  C   UNL A   1      43.116  29.266  33.857  1.00  0.00     0.037 A 
BRANCH  52  66
ATOM     66  C   UNL A   1      40.309  34.221  36.244  1.00  0.00     0.057 A 
ATOM     67  C   UNL A   1      41.048  35.408  36.158  1.00  0.00     0.134 A 
ATOM     68  C   UNL A   1      39.496  34.046  37.372  1.00  0.00     0.134 A 
ATOM     69  F   UNL A   1      41.854  35.632  35.108  1.00  0.00    -0.206 F 
ATOM     70  C   UNL A   1      41.001  36.373  37.166  1.00  0.00     0.040 A 
ATOM     71  C   UNL A   1      39.422  35.014  38.375  1.00  0.00     0.040 A 
ATOM     72  F   UNL A   1      38.757  32.936  37.513  1.00  0.00    -0.206 F 
ATOM     73  C   UNL A   1      40.181  36.179  38.276  1.00  0.00     0.006 A 
ENDBRANCH  52  66
BRANCH  53  74
ATOM     74  C   UNL A   1      40.348  27.698  28.713  1.00  0.00     0.057 A 
ATOM     75  C   UNL A   1      41.102  27.975  27.566  1.00  0.00     0.134 A 
ATOM     76  C   UNL A   1      39.635  26.495  28.743  1.00  0.00     0.134 A 
ATOM     77  F   UNL A   1      41.789  29.122  27.473  1.00  0.00    -0.206 F 
ATOM     78  C   UNL A   1      41.137  27.094  26.485  1.00  0.00     0.040 A 
ATOM     79  C   UNL A   1      39.678  25.594  27.678  1.00  0.00     0.040 A 
ATOM     80  F   UNL A   1      38.899  26.170  29.817  1.00  0.00    -0.206 F 
ATOM     81  C   UNL A   1      40.426  25.896  26.542  1.00  0.00     0.006 A 
ENDBRANCH  53  74
BRANCH  65  82
ATOM     82  C   UNL A   1      44.310  28.522  34.372  1.00  0.00     0.057 A 
ATOM     83  C   UNL A   1      45.615  28.920  34.054  1.00  0.00     0.134 A 
ATOM     84  C   UNL A   1      44.158  27.417  35.219  1.00  0.00     0.134 A 
ATOM     85  F   UNL A   1      45.828  29.962  33.235  1.00  0.00    -0.206 F 
ATOM     86  C   UNL A   1      46.727  28.235  34.549  1.00  0.00     0.040 A 
ATOM     87  C   UNL A   1      45.261  26.738  35.737  1.00  0.00     0.040 A 
ATOM     88  F   UNL A   1      42.935  26.989  35.565  1.00  0.00    -0.206 F 
ATOM     89  C   UNL A   1      46.551  27.144  35.399  1.00  0.00     0.006 A 
ENDBRANCH  65  82
ENDBRANCH  39  40
ENDBRANCH  31  34
ENDBRANCH  29  30
ENDBRANCH  28  29
ENDBRANCH  27  28
ENDBRANCH   1  27
TORSDOF 17
ENDMDL
MODEL 3
REMARK VINA RESULT:     -11.6      0.298      6.184
REMARK SMILES CC[C@H](NC(=O)c1nn(C)cc1C(=O)NCCCCCCNC(=O)c1ccc(-c2c3nc(c(-c4c(F)cccc4F)c4ccc([nH]4)c(-c4c(F)cccc4F)c4nc(c(-c5c(F)cccc5F)c5ccc2[nH]5)C=C4)C=C3)cc1)c1ccccc1
REMARK SMILES IDX 18 1 17 2 16 3 15 4 13 5 14 6 12 8 7 9 8 10 9 11 11 12 10 13
REMARK SMILES IDX 5 14 4 15 6 17 3 18 2 19 1 20 79 21 80 22 84 23 81 24 83 25
REMARK SMILES IDX 82 26 19 27 20 28 21 29 22 30 23 31 24 33 25 34 26 35 78 36
REMARK SMILES IDX 27 37 77 38 28 39 29 40 30 41 71 42 31 43 76 44 70 45 72 46
REMARK SMILES IDX 32 47 75 48 69 49 68 50 33 52 59 53 42 54 58 55 43 56 46 57
REMARK SMILES IDX 57 58 73 59 44 60 45 61 56 63 74 64 47 65 34 66 35 67 40 68
REMARK SMILES IDX 36 69 37 70 39 71 41 72 38 73 60 74 61 75 66 76 62 77 63 78
REMARK SMILES IDX 65 79 67 80 64 81 48 82 49 83 54 84 50 85 51 86 53 87 55 88
REMARK SMILES IDX 52 89
REMARK H PARENT 15 7 4 16 22 32 72 51 46 62
REMARK Flexibility Score: inf
ROOT
ATOM      1  C   UNL A   1      37.009  21.887  24.481  1.00  0.00     0.002 C 
ENDROOT
BRANCH   1   2
ATOM      2  C   UNL A   1      37.099  22.987  25.538  1.00  0.00     0.021 C 
BRANCH   2   3
ATOM      3  C   UNL A   1      35.794  23.663  25.956  1.00  0.00     0.116 C 
BRANCH   3   4
ATOM      4  N   UNL A   1      35.072  22.948  26.991  1.00  0.00    -0.352 N 
ATOM      5  C   UNL A   1      33.846  22.324  26.986  1.00  0.00     0.255 C 
ATOM      6  O   UNL A   1      33.455  21.842  28.046  1.00  0.00    -0.269 OA
ATOM      7  H   UNL A   1      35.544  22.902  27.853  1.00  0.00     0.163 HD
BRANCH   5   8
ATOM      8  C   UNL A   1      33.040  22.278  25.785  1.00  0.00     0.090 A 
ATOM      9  C   UNL A   1      31.734  22.832  25.598  1.00  0.00     0.162 A 
ATOM     10  N   UNL A   1      31.255  22.547  24.368  1.00  0.00    -0.167 NA
ATOM     11  N   UNL A   1      32.244  21.870  23.777  1.00  0.00    -0.274 N 
ATOM     12  C   UNL A   1      33.293  21.609  24.602  1.00  0.00     0.123 A 
ATOM     13  C   UNL A   1      32.111  21.465  22.400  1.00  0.00     0.173 C 
BRANCH   9  14
ATOM     14  C   UNL A   1      30.887  23.525  26.572  1.00  0.00     0.273 C 
ATOM     15  N   UNL A   1      30.443  24.806  26.348  1.00  0.00    -0.344 N 
ATOM     16  H   UNL A   1      29.680  25.052  26.921  1.00  0.00     0.164 HD
ATOM     17  O   UNL A   1      30.462  22.953  27.580  1.00  0.00    -0.267 OA
BRANCH  15  18
ATOM     18  C   UNL A   1      30.848  25.888  25.451  1.00  0.00     0.112 C 
BRANCH  18  19
ATOM     19  C   UNL A   1      29.654  26.394  24.602  1.00  0.00     0.026 C 
ATOM     20  C   UNL A   1      29.995  27.140  23.323  1.00  0.00     0.006 C 
ENDBRANCH  18  19
BRANCH  18  21
ATOM     21  C   UNL A   1      31.803  26.914  26.028  1.00  0.00    -0.026 A 
ATOM     22  C   UNL A   1      33.165  26.854  25.677  1.00  0.00     0.006 A 
ATOM     23  C   UNL A   1      31.400  27.938  26.892  1.00  0.00     0.006 A 
ATOM     24  C   UNL A   1      34.090  27.757  26.209  1.00  0.00     0.000 A 
ATOM     25  C   UNL A   1      32.326  28.834  27.437  1.00  0.00     0.000 A 
ATOM     26  C   UNL A   1      33.672  28.739  27.101  1.00  0.00     0.000 A 
ENDBRANCH  18  21
ENDBRANCH  15  18
ENDBRANCH   9  14
ENDBRANCH   5   8
ENDBRANCH   3   4
ENDBRANCH   2   3
ENDBRANCH   1   2
BRANCH   1  27
ATOM     27  C   UNL A   1      36.764  20.468  24.994  1.00  0.00     0.002 C 
BRANCH  27  28
ATOM     28  C   UNL A   1      37.976  19.533  24.999  1.00  0.00     0.021 C 
BRANCH  28  29
ATOM     29  C   UNL A   1      39.197  20.030  25.766  1.00  0.00     0.116 C 
BRANCH  29  30
ATOM     30  N   UNL A   1      40.262  19.045  25.832  1.00  0.00    -0.352 N 
ATOM     31  C   UNL A   1      41.608  19.214  26.047  1.00  0.00     0.251 C 
ATOM     32  H   UNL A   1      39.975  18.112  25.705  1.00  0.00     0.163 HD
ATOM     33  O   UNL A   1      42.374  18.263  25.922  1.00  0.00    -0.269 OA
BRANCH  31  34
ATOM     34  C   UNL A   1      42.153  20.547  26.396  1.00  0.00     0.039 A 
ATOM     35  C   UNL A   1      42.578  21.388  25.363  1.00  0.00     0.014 A 
ATOM     36  C   UNL A   1      42.260  20.967  27.725  1.00  0.00     0.014 A 
ATOM     37  C   UNL A   1      43.032  22.677  25.656  1.00  0.00     0.010 A 
ATOM     38  C   UNL A   1      42.652  22.274  28.012  1.00  0.00     0.010 A 
ATOM     39  C   UNL A   1      43.030  23.146  26.979  1.00  0.00    -0.014 A 
BRANCH  39  40
ATOM     40  C   UNL A   1      43.382  24.555  27.294  1.00  0.00     0.031 A 
ATOM     41  C   UNL A   1      44.815  25.008  27.285  1.00  0.00     0.074 A 
ATOM     42  C   UNL A   1      42.411  25.413  27.661  1.00  0.00     0.049 A 
ATOM     43  N   UNL A   1      45.314  26.174  27.611  1.00  0.00    -0.248 NA
ATOM     44  C   UNL A   1      45.820  24.015  26.880  1.00  0.00     0.031 C 
ATOM     45  C   UNL A   1      40.986  25.088  27.753  1.00  0.00     0.029 A 
ATOM     46  N   UNL A   1      42.475  26.731  28.040  1.00  0.00    -0.354 N 
ATOM     47  C   UNL A   1      46.689  26.053  27.456  1.00  0.00     0.074 A 
ATOM     48  C   UNL A   1      46.949  24.688  27.053  1.00  0.00     0.031 C 
ATOM     49  C   UNL A   1      40.311  26.177  28.150  1.00  0.00     0.029 A 
ATOM     50  C   UNL A   1      41.255  27.267  28.375  1.00  0.00     0.049 A 
ATOM     51  H   UNL A   1      43.315  27.243  28.068  1.00  0.00     0.167 HD
ATOM     52  C   UNL A   1      47.646  26.999  27.617  1.00  0.00     0.037 A 
ATOM     53  C   UNL A   1      40.933  28.495  28.825  1.00  0.00     0.037 A 
ATOM     54  C   UNL A   1      47.387  28.363  28.001  1.00  0.00     0.049 A 
ATOM     55  C   UNL A   1      42.013  29.522  29.010  1.00  0.00     0.074 A 
ATOM     56  C   UNL A   1      48.285  29.408  28.128  1.00  0.00     0.029 A 
ATOM     57  N   UNL A   1      46.137  28.869  28.324  1.00  0.00    -0.354 N 
ATOM     58  N   UNL A   1      43.302  29.410  28.801  1.00  0.00    -0.248 NA
ATOM     59  C   UNL A   1      41.594  30.845  29.493  1.00  0.00     0.031 C 
ATOM     60  C   UNL A   1      47.585  30.538  28.568  1.00  0.00     0.029 A 
ATOM     61  C   UNL A   1      46.245  30.205  28.676  1.00  0.00     0.049 A 
ATOM     62  H   UNL A   1      45.298  28.356  28.307  1.00  0.00     0.167 HD
ATOM     63  C   UNL A   1      43.846  30.648  29.113  1.00  0.00     0.074 A 
ATOM     64  C   UNL A   1      42.745  31.503  29.508  1.00  0.00     0.031 C 
ATOM     65  C   UNL A   1      45.143  31.042  29.077  1.00  0.00     0.037 A 
BRANCH  52  66
ATOM     66  C   UNL A   1      49.068  26.590  27.370  1.00  0.00     0.057 A 
ATOM     67  C   UNL A   1      49.632  26.629  26.089  1.00  0.00     0.134 A 
ATOM     68  C   UNL A   1      49.892  26.187  28.429  1.00  0.00     0.134 A 
ATOM     69  F   UNL A   1      48.893  26.996  25.031  1.00  0.00    -0.206 F 
ATOM     70  C   UNL A   1      50.959  26.258  25.864  1.00  0.00     0.040 A 
ATOM     71  C   UNL A   1      51.227  25.837  28.220  1.00  0.00     0.040 A 
ATOM     72  F   UNL A   1      49.416  26.134  29.681  1.00  0.00    -0.206 F 
ATOM     73  C   UNL A   1      51.762  25.866  26.933  1.00  0.00     0.006 A 
ENDBRANCH  52  66
BRANCH  53  74
ATOM     74  C   UNL A   1      39.517  28.821  29.126  1.00  0.00     0.057 A 
ATOM     75  C   UNL A   1      38.996  28.649  30.413  1.00  0.00     0.134 A 
ATOM     76  C   UNL A   1      38.656  29.314  28.139  1.00  0.00     0.134 A 
ATOM     77  F   UNL A   1      39.769  28.161  31.393  1.00  0.00    -0.206 F 
ATOM     78  C   UNL A   1      37.664  28.945  30.707  1.00  0.00     0.040 A 
ATOM     79  C   UNL A   1      37.328  29.635  28.424  1.00  0.00     0.040 A 
ATOM     80  F   UNL A   1      39.099  29.507  26.887  1.00  0.00    -0.206 F 
ATOM     81  C   UNL A   1      36.827  29.445  29.710  1.00  0.00     0.006 A 
ENDBRANCH  53  74
BRANCH  65  82
ATOM     82  C   UNL A   1      45.438  32.458  29.466  1.00  0.00     0.057 A 
ATOM     83  C   UNL A   1      45.387  33.501  28.532  1.00  0.00     0.134 A 
ATOM     84  C   UNL A   1      45.744  32.790  30.792  1.00  0.00     0.134 A 
ATOM     85  F   UNL A   1      45.115  33.248  27.243  1.00  0.00    -0.206 F 
ATOM     86  C   UNL A   1      45.646  34.823  28.902  1.00  0.00     0.040 A 
ATOM     87  C   UNL A   1      45.983  34.109  31.178  1.00  0.00     0.040 A 
ATOM     88  F   UNL A   1      45.803  31.837  31.735  1.00  0.00    -0.206 F 
ATOM     89  C   UNL A   1      45.938  35.130  30.230  1.00  0.00     0.006 A 
ENDBRANCH  65  82
ENDBRANCH  39  40
ENDBRANCH  31  34
ENDBRANCH  29  30
ENDBRANCH  28  29
ENDBRANCH  27  28
ENDBRANCH   1  27
TORSDOF 17
ENDMDL
