MODEL 1
REMARK VINA RESULT:     -12.8      0.000      0.000
REMARK SMILES O=C(NCCCCCCNC(=O)[C@@H]1CCCN(c2ccc3cc(S(=O)(=O)N4CCCCC4)ccc3n2)C1)c1ccc(-c2c3nc(c(-c4c(F)cccc4F)c4ccc([nH]4)c(-c4c(F)cccc4F)c4nc(c(-c5c(F)cccc5F)c5ccc2[nH]5)C=C4)C=C3)cc1
REMARK SMILES IDX 7 1 6 2 5 3 4 4 3 5 1 6 2 7 38 9 39 10 91 11 40 12 90 13
REMARK SMILES IDX 41 14 42 15 43 16 84 17 44 18 89 19 83 20 85 21 45 22 88 23
REMARK SMILES IDX 82 24 81 25 46 27 72 28 55 29 71 30 56 31 59 32 70 33 86 34
REMARK SMILES IDX 57 35 58 36 69 38 87 39 60 40 47 41 48 42 53 43 49 44 50 45
REMARK SMILES IDX 52 46 54 47 51 48 73 49 74 50 79 51 75 52 76 53 78 54 80 55
REMARK SMILES IDX 77 56 61 57 62 58 67 59 63 60 64 61 66 62 68 63 65 64 8 65
REMARK SMILES IDX 9 66 10 67 11 68 12 70 13 71 14 72 37 73 15 74 17 75 16 76
REMARK SMILES IDX 18 77 19 78 36 79 20 80 35 81 21 82 34 83 22 84 33 85 23 86
REMARK SMILES IDX 24 87 25 88 26 89 27 90 28 91 32 92 29 93 31 94 30 95
REMARK H PARENT 3 8 85 26 59 37 10 69
REMARK Flexibility Score: inf
ROOT
ATOM      1  C   UNL A   1      32.242  29.627  26.602  1.00  0.00     0.002 C 
ENDROOT
BRANCH   1   2
ATOM      2  C   UNL A   1      31.454  30.672  25.807  1.00  0.00     0.002 C 
BRANCH   2   3
ATOM      3  C   UNL A   1      31.308  32.026  26.503  1.00  0.00     0.021 C 
BRANCH   3   4
ATOM      4  C   UNL A   1      32.572  32.510  27.202  1.00  0.00     0.116 C 
BRANCH   4   5
ATOM      5  N   UNL A   1      32.463  33.895  27.628  1.00  0.00    -0.352 N 
ATOM      6  O   UNL A   1      32.832  35.673  28.970  1.00  0.00    -0.269 OA
ATOM      7  C   UNL A   1      33.177  34.559  28.592  1.00  0.00     0.251 C 
ATOM      8  H   UNL A   1      31.781  34.431  27.160  1.00  0.00     0.163 HD
BRANCH   7   9
ATOM      9  C   UNL A   1      34.363  33.909  29.186  1.00  0.00     0.039 A 
ATOM     10  C   UNL A   1      34.217  32.907  30.150  1.00  0.00     0.014 A 
ATOM     11  C   UNL A   1      35.632  34.303  28.758  1.00  0.00     0.014 A 
ATOM     12  C   UNL A   1      35.343  32.371  30.764  1.00  0.00     0.010 A 
ATOM     13  C   UNL A   1      36.761  33.714  29.324  1.00  0.00     0.010 A 
ATOM     14  C   UNL A   1      36.624  32.756  30.344  1.00  0.00    -0.014 A 
BRANCH  14  15
ATOM     15  C   UNL A   1      37.824  32.104  30.920  1.00  0.00     0.031 A 
ATOM     16  C   UNL A   1      38.535  31.013  30.179  1.00  0.00     0.074 A 
ATOM     17  C   UNL A   1      38.234  32.475  32.147  1.00  0.00     0.049 A 
ATOM     18  N   UNL A   1      39.535  30.266  30.572  1.00  0.00    -0.248 NA
ATOM     19  C   UNL A   1      38.055  30.713  28.823  1.00  0.00     0.031 C 
ATOM     20  C   UNL A   1      37.610  33.517  32.964  1.00  0.00     0.029 A 
ATOM     21  N   UNL A   1      39.258  32.005  32.928  1.00  0.00    -0.354 N 
ATOM     22  C   UNL A   1      39.789  29.390  29.525  1.00  0.00     0.074 A 
ATOM     23  C   UNL A   1      38.823  29.685  28.487  1.00  0.00     0.031 C 
ATOM     24  C   UNL A   1      38.262  33.608  34.131  1.00  0.00     0.029 A 
ATOM     25  C   UNL A   1      39.307  32.592  34.169  1.00  0.00     0.049 A 
ATOM     26  H   UNL A   1      39.895  31.317  32.630  1.00  0.00     0.167 HD
ATOM     27  C   UNL A   1      40.741  28.430  29.442  1.00  0.00     0.037 A 
ATOM     28  C   UNL A   1      40.078  32.316  35.236  1.00  0.00     0.037 A 
ATOM     29  C   UNL A   1      41.697  28.149  30.482  1.00  0.00     0.049 A 
ATOM     30  C   UNL A   1      41.102  31.225  35.136  1.00  0.00     0.074 A 
ATOM     31  C   UNL A   1      42.735  27.234  30.476  1.00  0.00     0.029 A 
ATOM     32  N   UNL A   1      41.719  28.770  31.724  1.00  0.00    -0.354 N 
ATOM     33  N   UNL A   1      41.367  30.437  34.123  1.00  0.00    -0.248 NA
ATOM     34  C   UNL A   1      41.933  30.983  36.323  1.00  0.00     0.031 C 
ATOM     35  C   UNL A   1      43.349  27.262  31.733  1.00  0.00     0.029 A 
ATOM     36  C   UNL A   1      42.732  28.234  32.503  1.00  0.00     0.049 A 
ATOM     37  H   UNL A   1      41.105  29.484  32.009  1.00  0.00     0.167 HD
ATOM     38  C   UNL A   1      42.409  29.620  34.538  1.00  0.00     0.074 A 
ATOM     39  C   UNL A   1      42.730  30.012  35.896  1.00  0.00     0.031 C 
ATOM     40  C   UNL A   1      43.043  28.638  33.852  1.00  0.00     0.037 A 
BRANCH  27  41
ATOM     41  C   UNL A   1      40.770  27.591  28.196  1.00  0.00     0.057 A 
ATOM     42  C   UNL A   1      40.045  26.399  28.082  1.00  0.00     0.134 A 
ATOM     43  C   UNL A   1      41.527  27.993  27.087  1.00  0.00     0.134 A 
ATOM     44  F   UNL A   1      39.306  25.951  29.108  1.00  0.00    -0.206 F 
ATOM     45  C   UNL A   1      40.100  25.617  26.925  1.00  0.00     0.040 A 
ATOM     46  C   UNL A   1      41.568  27.235  25.915  1.00  0.00     0.040 A 
ATOM     47  F   UNL A   1      42.239  29.130  27.123  1.00  0.00    -0.206 F 
ATOM     48  C   UNL A   1      40.861  26.038  25.836  1.00  0.00     0.006 A 
ENDBRANCH  27  41
BRANCH  28  49
ATOM     49  C   UNL A   1      39.880  33.087  36.486  1.00  0.00     0.057 A 
ATOM     50  C   UNL A   1      40.640  34.228  36.763  1.00  0.00     0.134 A 
ATOM     51  C   UNL A   1      38.878  32.738  37.401  1.00  0.00     0.134 A 
ATOM     52  F   UNL A   1      41.619  34.605  35.928  1.00  0.00    -0.206 F 
ATOM     53  C   UNL A   1      40.411  34.995  37.906  1.00  0.00     0.040 A 
ATOM     54  C   UNL A   1      38.623  33.509  38.535  1.00  0.00     0.040 A 
ATOM     55  F   UNL A   1      38.107  31.662  37.183  1.00  0.00    -0.206 F 
ATOM     56  C   UNL A   1      39.392  34.642  38.790  1.00  0.00     0.006 A 
ENDBRANCH  28  49
BRANCH  40  57
ATOM     57  C   UNL A   1      44.177  27.938  34.540  1.00  0.00     0.057 A 
ATOM     58  C   UNL A   1      45.483  28.442  34.512  1.00  0.00     0.134 A 
ATOM     59  C   UNL A   1      43.943  26.785  35.299  1.00  0.00     0.134 A 
ATOM     60  F   UNL A   1      45.776  29.535  33.791  1.00  0.00    -0.206 F 
ATOM     61  C   UNL A   1      46.518  27.819  35.211  1.00  0.00     0.040 A 
ATOM     62  C   UNL A   1      44.964  26.167  36.022  1.00  0.00     0.040 A 
ATOM     63  F   UNL A   1      42.712  26.255  35.371  1.00  0.00    -0.206 F 
ATOM     64  C   UNL A   1      46.256  26.684  35.978  1.00  0.00     0.006 A 
ENDBRANCH  40  57
ENDBRANCH  14  15
ENDBRANCH   7   9
ENDBRANCH   4   5
ENDBRANCH   3   4
ENDBRANCH   2   3
ENDBRANCH   1   2
BRANCH   1  65
ATOM     65  C   UNL A   1      31.821  28.172  26.352  1.00  0.00     0.021 C 
BRANCH  65  66
ATOM     66  C   UNL A   1      32.929  27.300  25.769  1.00  0.00     0.116 C 
BRANCH  66  67
ATOM     67  N   UNL A   1      32.975  26.026  26.460  1.00  0.00    -0.356 N 
ATOM     68  C   UNL A   1      32.599  24.785  26.042  1.00  0.00     0.224 C 
ATOM     69  H   UNL A   1      33.335  26.063  27.376  1.00  0.00     0.163 HD
ATOM     70  O   UNL A   1      32.517  23.904  26.897  1.00  0.00    -0.275 OA
BRANCH  68  71
ATOM     71  C   UNL A   1      32.325  24.550  24.564  1.00  0.00     0.098 C 
ATOM     72  C   UNL A   1      31.318  23.410  24.326  1.00  0.00     0.017 C 
ATOM     73  C   UNL A   1      33.640  24.274  23.828  1.00  0.00     0.131 C 
ATOM     74  C   UNL A   1      31.914  22.009  24.524  1.00  0.00     0.022 C 
ATOM     75  N   UNL A   1      34.109  22.931  24.123  1.00  0.00    -0.356 N 
ATOM     76  C   UNL A   1      33.237  21.823  23.775  1.00  0.00     0.118 C 
BRANCH  75  77
ATOM     77  C   UNL A   1      35.367  22.687  24.618  1.00  0.00     0.129 A 
ATOM     78  C   UNL A   1      36.119  23.710  25.190  1.00  0.00     0.047 A 
ATOM     79  N   UNL A   1      35.852  21.431  24.550  1.00  0.00    -0.231 NA
ATOM     80  C   UNL A   1      37.388  23.454  25.695  1.00  0.00     0.014 A 
ATOM     81  C   UNL A   1      37.092  21.183  25.000  1.00  0.00     0.073 A 
ATOM     82  C   UNL A   1      37.906  22.169  25.592  1.00  0.00     0.002 A 
ATOM     83  C   UNL A   1      37.615  19.907  24.870  1.00  0.00     0.030 A 
ATOM     84  C   UNL A   1      39.196  21.862  26.050  1.00  0.00     0.032 A 
ATOM     85  C   UNL A   1      38.907  19.591  25.305  1.00  0.00     0.024 A 
ATOM     86  C   UNL A   1      39.700  20.568  25.902  1.00  0.00     0.083 A 
BRANCH  86  87
ATOM     87  S   UNL A   1      41.365  20.295  26.480  1.00  0.00     0.243 S 
ATOM     88  O   UNL A   1      41.234  19.751  27.816  1.00  0.00    -0.207 OA
ATOM     89  O   UNL A   1      42.034  19.554  25.431  1.00  0.00    -0.207 OA
BRANCH  87  90
ATOM     90  N   UNL A   1      42.124  21.816  26.616  1.00  0.00    -0.198 NA
ATOM     91  C   UNL A   1      42.447  22.265  27.992  1.00  0.00     0.102 C 
ATOM     92  C   UNL A   1      43.056  22.179  25.522  1.00  0.00     0.102 C 
ATOM     93  C   UNL A   1      42.931  23.708  28.025  1.00  0.00     0.017 C 
ATOM     94  C   UNL A   1      43.516  23.626  25.619  1.00  0.00     0.017 C 
ATOM     95  C   UNL A   1      44.039  23.945  27.011  1.00  0.00     0.003 C 
ENDBRANCH  87  90
ENDBRANCH  86  87
ENDBRANCH  75  77
ENDBRANCH  68  71
ENDBRANCH  66  67
ENDBRANCH  65  66
ENDBRANCH   1  65
TORSDOF 16
ENDMDL
MODEL 2
REMARK VINA RESULT:     -12.8      3.976     10.691
REMARK SMILES O=C(NCCCCCCNC(=O)[C@@H]1CCCN(c2ccc3cc(S(=O)(=O)N4CCCCC4)ccc3n2)C1)c1ccc(-c2c3nc(c(-c4c(F)cccc4F)c4ccc([nH]4)c(-c4c(F)cccc4F)c4nc(c(-c5c(F)cccc5F)c5ccc2[nH]5)C=C4)C=C3)cc1
REMARK SMILES IDX 7 1 6 2 5 3 4 4 3 5 1 6 2 7 38 9 39 10 91 11 40 12 90 13
REMARK SMILES IDX 41 14 42 15 43 16 84 17 44 18 89 19 83 20 85 21 45 22 88 23
REMARK SMILES IDX 82 24 81 25 46 27 72 28 55 29 71 30 56 31 59 32 70 33 86 34
REMARK SMILES IDX 57 35 58 36 69 38 87 39 60 40 47 41 48 42 53 43 49 44 50 45
REMARK SMILES IDX 52 46 54 47 51 48 73 49 74 50 79 51 75 52 76 53 78 54 80 55
REMARK SMILES IDX 77 56 61 57 62 58 67 59 63 60 64 61 66 62 68 63 65 64 8 65
REMARK SMILES IDX 9 66 10 67 11 68 12 70 13 71 14 72 37 73 15 74 17 75 16 76
REMARK SMILES IDX 18 77 19 78 36 79 20 80 35 81 21 82 34 83 22 84 33 85 23 86
REMARK SMILES IDX 24 87 25 88 26 89 27 90 28 91 32 92 29 93 31 94 30 95
REMARK H PARENT 3 8 85 26 59 37 10 69
REMARK Flexibility Score: inf
ROOT
ATOM      1  C   UNL A   1      35.779  20.926  24.993  1.00  0.00     0.002 C 
ENDROOT
BRANCH   1   2
ATOM      2  C   UNL A   1      37.262  21.019  24.624  1.00  0.00     0.002 C 
BRANCH   2   3
ATOM      3  C   UNL A   1      38.082  19.773  24.959  1.00  0.00     0.021 C 
BRANCH   3   4
ATOM      4  C   UNL A   1      39.082  19.967  26.093  1.00  0.00     0.116 C 
BRANCH   4   5
ATOM      5  N   UNL A   1      40.212  19.060  25.984  1.00  0.00    -0.352 N 
ATOM      6  O   UNL A   1      42.383  18.496  25.736  1.00  0.00    -0.269 OA
ATOM      7  C   UNL A   1      41.552  19.343  26.040  1.00  0.00     0.251 C 
ATOM      8  H   UNL A   1      39.984  18.111  25.851  1.00  0.00     0.163 HD
BRANCH   7   9
ATOM      9  C   UNL A   1      41.987  20.691  26.459  1.00  0.00     0.039 A 
ATOM     10  C   UNL A   1      42.216  21.692  25.510  1.00  0.00     0.014 A 
ATOM     11  C   UNL A   1      42.153  20.954  27.820  1.00  0.00     0.014 A 
ATOM     12  C   UNL A   1      42.712  22.926  25.913  1.00  0.00     0.010 A 
ATOM     13  C   UNL A   1      42.584  22.215  28.229  1.00  0.00     0.010 A 
ATOM     14  C   UNL A   1      42.883  23.204  27.277  1.00  0.00    -0.014 A 
BRANCH  14  15
ATOM     15  C   UNL A   1      43.306  24.555  27.713  1.00  0.00     0.031 A 
ATOM     16  C   UNL A   1      42.294  25.579  28.132  1.00  0.00     0.074 A 
ATOM     17  C   UNL A   1      44.615  24.866  27.678  1.00  0.00     0.049 A 
ATOM     18  N   UNL A   1      42.474  26.836  28.446  1.00  0.00    -0.248 NA
ATOM     19  C   UNL A   1      40.893  25.136  28.195  1.00  0.00     0.031 C 
ATOM     20  C   UNL A   1      45.685  23.952  27.278  1.00  0.00     0.029 A 
ATOM     21  N   UNL A   1      45.264  26.038  27.965  1.00  0.00    -0.354 N 
ATOM     22  C   UNL A   1      41.211  27.344  28.719  1.00  0.00     0.074 A 
ATOM     23  C   UNL A   1      40.270  26.263  28.514  1.00  0.00     0.031 C 
ATOM     24  C   UNL A   1      46.858  24.596  27.342  1.00  0.00     0.029 A 
ATOM     25  C   UNL A   1      46.616  25.982  27.728  1.00  0.00     0.049 A 
ATOM     26  H   UNL A   1      44.809  26.840  28.308  1.00  0.00     0.167 HD
ATOM     27  C   UNL A   1      40.873  28.597  29.107  1.00  0.00     0.037 A 
ATOM     28  C   UNL A   1      47.552  26.945  27.775  1.00  0.00     0.037 A 
ATOM     29  C   UNL A   1      41.821  29.663  29.310  1.00  0.00     0.049 A 
ATOM     30  C   UNL A   1      47.151  28.336  28.170  1.00  0.00     0.074 A 
ATOM     31  C   UNL A   1      41.587  30.952  29.753  1.00  0.00     0.029 A 
ATOM     32  N   UNL A   1      43.184  29.565  29.066  1.00  0.00    -0.354 N 
ATOM     33  N   UNL A   1      45.961  28.792  28.477  1.00  0.00    -0.248 NA
ATOM     34  C   UNL A   1      48.218  29.343  28.229  1.00  0.00     0.031 C 
ATOM     35  C   UNL A   1      42.799  31.651  29.723  1.00  0.00     0.029 A 
ATOM     36  C   UNL A   1      43.798  30.781  29.317  1.00  0.00     0.049 A 
ATOM     37  H   UNL A   1      43.646  28.752  28.758  1.00  0.00     0.167 HD
ATOM     38  C   UNL A   1      46.136  30.134  28.785  1.00  0.00     0.074 A 
ATOM     39  C   UNL A   1      47.550  30.416  28.633  1.00  0.00     0.031 C 
ATOM     40  C   UNL A   1      45.208  31.046  29.165  1.00  0.00     0.037 A 
BRANCH  27  41
ATOM     41  C   UNL A   1      39.412  28.890  29.302  1.00  0.00     0.057 A 
ATOM     42  C   UNL A   1      38.781  28.747  30.544  1.00  0.00     0.134 A 
ATOM     43  C   UNL A   1      38.628  29.334  28.229  1.00  0.00     0.134 A 
ATOM     44  F   UNL A   1      39.470  28.317  31.612  1.00  0.00    -0.206 F 
ATOM     45  C   UNL A   1      37.417  29.001  30.704  1.00  0.00     0.040 A 
ATOM     46  C   UNL A   1      37.270  29.619  28.382  1.00  0.00     0.040 A 
ATOM     47  F   UNL A   1      39.170  29.502  27.012  1.00  0.00    -0.206 F 
ATOM     48  C   UNL A   1      36.659  29.442  29.622  1.00  0.00     0.006 A 
ENDBRANCH  27  41
BRANCH  28  49
ATOM     49  C   UNL A   1      48.950  26.611  27.414  1.00  0.00     0.057 A 
ATOM     50  C   UNL A   1      49.832  26.070  28.355  1.00  0.00     0.134 A 
ATOM     51  C   UNL A   1      49.415  26.759  26.101  1.00  0.00     0.134 A 
ATOM     52  F   UNL A   1      49.446  25.914  29.630  1.00  0.00    -0.206 F 
ATOM     53  C   UNL A   1      51.128  25.690  28.004  1.00  0.00     0.040 A 
ATOM     54  C   UNL A   1      50.699  26.361  25.731  1.00  0.00     0.040 A 
ATOM     55  F   UNL A   1      48.610  27.259  25.151  1.00  0.00    -0.206 F 
ATOM     56  C   UNL A   1      51.561  25.826  26.686  1.00  0.00     0.006 A 
ENDBRANCH  28  49
BRANCH  40  57
ATOM     57  C   UNL A   1      45.691  32.430  29.482  1.00  0.00     0.057 A 
ATOM     58  C   UNL A   1      46.159  32.777  30.755  1.00  0.00     0.134 A 
ATOM     59  C   UNL A   1      45.754  33.405  28.479  1.00  0.00     0.134 A 
ATOM     60  F   UNL A   1      46.111  31.892  31.762  1.00  0.00    -0.206 F 
ATOM     61  C   UNL A   1      46.668  34.049  31.021  1.00  0.00     0.040 A 
ATOM     62  C   UNL A   1      46.282  34.673  28.726  1.00  0.00     0.040 A 
ATOM     63  F   UNL A   1      45.326  33.134  27.237  1.00  0.00    -0.206 F 
ATOM     64  C   UNL A   1      46.741  34.997  30.001  1.00  0.00     0.006 A 
ENDBRANCH  40  57
ENDBRANCH  14  15
ENDBRANCH   7   9
ENDBRANCH   4   5
ENDBRANCH   3   4
ENDBRANCH   2   3
ENDBRANCH   1   2
BRANCH   1  65
ATOM     65  C   UNL A   1      34.901  22.052  24.429  1.00  0.00     0.021 C 
BRANCH  65  66
ATOM     66  C   UNL A   1      34.862  23.302  25.304  1.00  0.00     0.116 C 
BRANCH  66  67
ATOM     67  N   UNL A   1      34.736  24.486  24.475  1.00  0.00    -0.356 N 
ATOM     68  C   UNL A   1      33.628  25.066  23.934  1.00  0.00     0.224 C 
ATOM     69  H   UNL A   1      35.584  24.941  24.272  1.00  0.00     0.163 HD
ATOM     70  O   UNL A   1      33.808  25.928  23.075  1.00  0.00    -0.275 OA
BRANCH  68  71
ATOM     71  C   UNL A   1      32.252  24.643  24.426  1.00  0.00     0.098 C 
ATOM     72  C   UNL A   1      31.168  24.800  23.344  1.00  0.00     0.017 C 
ATOM     73  C   UNL A   1      31.883  25.436  25.683  1.00  0.00     0.131 C 
ATOM     74  C   UNL A   1      30.731  26.254  23.115  1.00  0.00     0.022 C 
ATOM     75  N   UNL A   1      31.519  26.798  25.331  1.00  0.00    -0.356 N 
ATOM     76  C   UNL A   1      30.402  26.981  24.422  1.00  0.00     0.118 C 
BRANCH  75  77
ATOM     77  C   UNL A   1      32.128  27.889  25.901  1.00  0.00     0.129 A 
ATOM     78  C   UNL A   1      33.377  27.774  26.504  1.00  0.00     0.047 A 
ATOM     79  N   UNL A   1      31.494  29.077  25.852  1.00  0.00    -0.231 NA
ATOM     80  C   UNL A   1      33.990  28.883  27.074  1.00  0.00     0.014 A 
ATOM     81  C   UNL A   1      32.061  30.147  26.433  1.00  0.00     0.073 A 
ATOM     82  C   UNL A   1      33.323  30.102  27.058  1.00  0.00     0.002 A 
ATOM     83  C   UNL A   1      31.380  31.352  26.438  1.00  0.00     0.030 A 
ATOM     84  C   UNL A   1      33.876  31.247  27.651  1.00  0.00     0.032 A 
ATOM     85  C   UNL A   1      31.911  32.498  27.043  1.00  0.00     0.024 A 
ATOM     86  C   UNL A   1      33.165  32.449  27.647  1.00  0.00     0.083 A 
BRANCH  86  87
ATOM     87  S   UNL A   1      33.942  33.832  28.463  1.00  0.00     0.243 S 
ATOM     88  O   UNL A   1      34.643  34.559  27.425  1.00  0.00    -0.207 OA
ATOM     89  O   UNL A   1      32.903  34.462  29.250  1.00  0.00    -0.207 OA
BRANCH  87  90
ATOM     90  N   UNL A   1      35.112  33.211  29.537  1.00  0.00    -0.198 NA
ATOM     91  C   UNL A   1      36.506  33.668  29.320  1.00  0.00     0.102 C 
ATOM     92  C   UNL A   1      34.659  32.975  30.928  1.00  0.00     0.102 C 
ATOM     93  C   UNL A   1      37.500  32.910  30.189  1.00  0.00     0.017 C 
ATOM     94  C   UNL A   1      35.700  32.228  31.749  1.00  0.00     0.017 C 
ATOM     95  C   UNL A   1      37.063  32.894  31.646  1.00  0.00     0.003 C 
ENDBRANCH  87  90
ENDBRANCH  86  87
ENDBRANCH  75  77
ENDBRANCH  68  71
ENDBRANCH  66  67
ENDBRANCH  65  66
ENDBRANCH   1  65
TORSDOF 16
ENDMDL
MODEL 3
REMARK VINA RESULT:     -11.9      6.651     12.039
REMARK SMILES O=C(NCCCCCCNC(=O)[C@@H]1CCCN(c2ccc3cc(S(=O)(=O)N4CCCCC4)ccc3n2)C1)c1ccc(-c2c3nc(c(-c4c(F)cccc4F)c4ccc([nH]4)c(-c4c(F)cccc4F)c4nc(c(-c5c(F)cccc5F)c5ccc2[nH]5)C=C4)C=C3)cc1
REMARK SMILES IDX 7 1 6 2 5 3 4 4 3 5 1 6 2 7 38 9 39 10 91 11 40 12 90 13
REMARK SMILES IDX 41 14 42 15 43 16 84 17 44 18 89 19 83 20 85 21 45 22 88 23
REMARK SMILES IDX 82 24 81 25 46 27 72 28 55 29 71 30 56 31 59 32 70 33 86 34
REMARK SMILES IDX 57 35 58 36 69 38 87 39 60 40 47 41 48 42 53 43 49 44 50 45
REMARK SMILES IDX 52 46 54 47 51 48 73 49 74 50 79 51 75 52 76 53 78 54 80 55
REMARK SMILES IDX 77 56 61 57 62 58 67 59 63 60 64 61 66 62 68 63 65 64 8 65
REMARK SMILES IDX 9 66 10 67 11 68 12 70 13 71 14 72 37 73 15 74 17 75 16 76
REMARK SMILES IDX 18 77 19 78 36 79 20 80 35 81 21 82 34 83 22 84 33 85 23 86
REMARK SMILES IDX 24 87 25 88 26 89 27 90 28 91 32 92 29 93 31 94 30 95
REMARK H PARENT 3 8 85 26 59 37 10 69
REMARK Flexibility Score: inf
ROOT
ATOM      1  C   UNL A   1      40.341  28.016  27.295  1.00  0.00     0.002 C 
ENDROOT
BRANCH   1   2
ATOM      2  C   UNL A   1      40.443  26.912  28.352  1.00  0.00     0.002 C 
BRANCH   2   3
ATOM      3  C   UNL A   1      39.794  25.586  27.953  1.00  0.00     0.021 C 
BRANCH   3   4
ATOM      4  C   UNL A   1      40.013  25.194  26.497  1.00  0.00     0.116 C 
BRANCH   4   5
ATOM      5  N   UNL A   1      40.639  23.889  26.372  1.00  0.00    -0.352 N 
ATOM      6  O   UNL A   1      42.303  22.441  25.893  1.00  0.00    -0.269 OA
ATOM      7  C   UNL A   1      41.961  23.584  26.173  1.00  0.00     0.251 C 
ATOM      8  H   UNL A   1      40.030  23.117  26.439  1.00  0.00     0.163 HD
BRANCH   7   9
ATOM      9  C   UNL A   1      42.972  24.655  26.285  1.00  0.00     0.039 A 
ATOM     10  C   UNL A   1      43.531  24.979  27.525  1.00  0.00     0.014 A 
ATOM     11  C   UNL A   1      43.372  25.328  25.130  1.00  0.00     0.014 A 
ATOM     12  C   UNL A   1      44.413  26.048  27.627  1.00  0.00     0.010 A 
ATOM     13  C   UNL A   1      44.310  26.355  25.223  1.00  0.00     0.010 A 
ATOM     14  C   UNL A   1      44.824  26.733  26.475  1.00  0.00    -0.014 A 
BRANCH  14  15
ATOM     15  C   UNL A   1      45.848  27.800  26.569  1.00  0.00     0.031 A 
ATOM     16  C   UNL A   1      45.448  29.238  26.701  1.00  0.00     0.074 A 
ATOM     17  C   UNL A   1      47.147  27.459  26.483  1.00  0.00     0.049 A 
ATOM     18  N   UNL A   1      46.203  30.308  26.696  1.00  0.00    -0.248 NA
ATOM     19  C   UNL A   1      44.012  29.515  26.846  1.00  0.00     0.031 C 
ATOM     20  C   UNL A   1      47.650  26.091  26.343  1.00  0.00     0.029 A 
ATOM     21  N   UNL A   1      48.278  28.234  26.482  1.00  0.00    -0.354 N 
ATOM     22  C   UNL A   1      45.335  31.385  26.810  1.00  0.00     0.074 A 
ATOM     23  C   UNL A   1      43.994  30.841  26.863  1.00  0.00     0.031 C 
ATOM     24  C   UNL A   1      48.987  26.122  26.267  1.00  0.00     0.029 A 
ATOM     25  C   UNL A   1      49.430  27.512  26.292  1.00  0.00     0.049 A 
ATOM     26  H   UNL A   1      48.266  29.210  26.606  1.00  0.00     0.167 HD
ATOM     27  C   UNL A   1      45.633  32.705  26.868  1.00  0.00     0.037 A 
ATOM     28  C   UNL A   1      50.698  27.921  26.115  1.00  0.00     0.037 A 
ATOM     29  C   UNL A   1      46.973  33.233  26.817  1.00  0.00     0.049 A 
ATOM     30  C   UNL A   1      51.004  29.389  26.145  1.00  0.00     0.074 A 
ATOM     31  C   UNL A   1      47.386  34.549  26.921  1.00  0.00     0.029 A 
ATOM     32  N   UNL A   1      48.117  32.467  26.631  1.00  0.00    -0.354 N 
ATOM     33  N   UNL A   1      50.181  30.397  26.305  1.00  0.00    -0.248 NA
ATOM     34  C   UNL A   1      52.410  29.779  25.971  1.00  0.00     0.031 C 
ATOM     35  C   UNL A   1      48.774  34.586  26.741  1.00  0.00     0.029 A 
ATOM     36  C   UNL A   1      49.232  33.289  26.583  1.00  0.00     0.049 A 
ATOM     37  H   UNL A   1      48.133  31.487  26.544  1.00  0.00     0.167 HD
ATOM     38  C   UNL A   1      50.968  31.539  26.274  1.00  0.00     0.074 A 
ATOM     39  C   UNL A   1      52.335  31.099  26.083  1.00  0.00     0.031 C 
ATOM     40  C   UNL A   1      50.589  32.835  26.397  1.00  0.00     0.037 A 
BRANCH  27  41
ATOM     41  C   UNL A   1      44.485  33.670  26.956  1.00  0.00     0.057 A 
ATOM     42  C   UNL A   1      43.958  34.093  28.182  1.00  0.00     0.134 A 
ATOM     43  C   UNL A   1      43.908  34.194  25.791  1.00  0.00     0.134 A 
ATOM     44  F   UNL A   1      44.457  33.624  29.335  1.00  0.00    -0.206 F 
ATOM     45  C   UNL A   1      42.875  34.974  28.248  1.00  0.00     0.040 A 
ATOM     46  C   UNL A   1      42.844  35.097  25.844  1.00  0.00     0.040 A 
ATOM     47  F   UNL A   1      44.370  33.840  24.582  1.00  0.00    -0.206 F 
ATOM     48  C   UNL A   1      42.318  35.481  27.076  1.00  0.00     0.006 A 
ENDBRANCH  27  41
BRANCH  28  49
ATOM     49  C   UNL A   1      51.756  26.910  25.876  1.00  0.00     0.057 A 
ATOM     50  C   UNL A   1      52.436  26.307  26.938  1.00  0.00     0.134 A 
ATOM     51  C   UNL A   1      52.061  26.474  24.580  1.00  0.00     0.134 A 
ATOM     52  F   UNL A   1      52.192  26.690  28.200  1.00  0.00    -0.206 F 
ATOM     53  C   UNL A   1      53.384  25.306  26.721  1.00  0.00     0.040 A 
ATOM     54  C   UNL A   1      52.988  25.458  24.350  1.00  0.00     0.040 A 
ATOM     55  F   UNL A   1      51.431  27.005  23.521  1.00  0.00    -0.206 F 
ATOM     56  C   UNL A   1      53.654  24.872  25.424  1.00  0.00     0.006 A 
ENDBRANCH  28  49
BRANCH  40  57
ATOM     57  C   UNL A   1      51.668  33.875  26.369  1.00  0.00     0.057 A 
ATOM     58  C   UNL A   1      52.091  34.471  25.175  1.00  0.00     0.134 A 
ATOM     59  C   UNL A   1      52.240  34.336  27.562  1.00  0.00     0.134 A 
ATOM     60  F   UNL A   1      51.593  34.063  23.997  1.00  0.00    -0.206 F 
ATOM     61  C   UNL A   1      53.049  35.486  25.168  1.00  0.00     0.040 A 
ATOM     62  C   UNL A   1      53.181  35.366  27.570  1.00  0.00     0.040 A 
ATOM     63  F   UNL A   1      51.874  33.810  28.740  1.00  0.00    -0.206 F 
ATOM     64  C   UNL A   1      53.588  35.943  26.369  1.00  0.00     0.006 A 
ENDBRANCH  40  57
ENDBRANCH  14  15
ENDBRANCH   7   9
ENDBRANCH   4   5
ENDBRANCH   3   4
ENDBRANCH   2   3
ENDBRANCH   1   2
BRANCH   1  65
ATOM     65  C   UNL A   1      39.381  29.161  27.647  1.00  0.00     0.021 C 
BRANCH  65  66
ATOM     66  C   UNL A   1      39.397  29.547  29.124  1.00  0.00     0.116 C 
BRANCH  66  67
ATOM     67  N   UNL A   1      38.121  29.227  29.736  1.00  0.00    -0.356 N 
ATOM     68  C   UNL A   1      37.121  30.047  30.163  1.00  0.00     0.224 C 
ATOM     69  H   UNL A   1      37.952  28.265  29.861  1.00  0.00     0.163 HD
ATOM     70  O   UNL A   1      36.242  29.544  30.861  1.00  0.00    -0.275 OA
BRANCH  68  71
ATOM     71  C   UNL A   1      37.129  31.510  29.745  1.00  0.00     0.098 C 
ATOM     72  C   UNL A   1      36.355  32.407  30.729  1.00  0.00     0.017 C 
ATOM     73  C   UNL A   1      36.566  31.649  28.327  1.00  0.00     0.131 C 
ATOM     74  C   UNL A   1      34.829  32.291  30.600  1.00  0.00     0.022 C 
ATOM     75  N   UNL A   1      35.122  31.491  28.341  1.00  0.00    -0.356 N 
ATOM     76  C   UNL A   1      34.353  32.419  29.150  1.00  0.00     0.118 C 
BRANCH  75  77
ATOM     77  C   UNL A   1      34.479  30.571  27.549  1.00  0.00     0.129 A 
ATOM     78  C   UNL A   1      35.010  29.299  27.358  1.00  0.00     0.047 A 
ATOM     79  N   UNL A   1      33.313  30.925  26.971  1.00  0.00    -0.231 NA
ATOM     80  C   UNL A   1      34.351  28.372  26.560  1.00  0.00     0.014 A 
ATOM     81  C   UNL A   1      32.689  30.048  26.168  1.00  0.00     0.073 A 
ATOM     82  C   UNL A   1      33.169  28.745  25.933  1.00  0.00     0.002 A 
ATOM     83  C   UNL A   1      31.525  30.435  25.523  1.00  0.00     0.030 A 
ATOM     84  C   UNL A   1      32.480  27.863  25.086  1.00  0.00     0.032 A 
ATOM     85  C   UNL A   1      30.838  29.573  24.661  1.00  0.00     0.024 A 
ATOM     86  C   UNL A   1      31.312  28.281  24.444  1.00  0.00     0.083 A 
BRANCH  86  87
ATOM     87  S   UNL A   1      30.537  27.096  23.359  1.00  0.00     0.243 S 
ATOM     88  O   UNL A   1      29.244  26.811  23.945  1.00  0.00    -0.207 OA
ATOM     89  O   UNL A   1      30.652  27.646  22.024  1.00  0.00    -0.207 OA
BRANCH  87  90
ATOM     90  N   UNL A   1      31.456  25.661  23.416  1.00  0.00    -0.198 NA
ATOM     91  C   UNL A   1      30.848  24.524  24.149  1.00  0.00     0.102 C 
ATOM     92  C   UNL A   1      32.278  25.365  22.218  1.00  0.00     0.102 C 
ATOM     93  C   UNL A   1      31.821  23.365  24.319  1.00  0.00     0.017 C 
ATOM     94  C   UNL A   1      33.216  24.189  22.445  1.00  0.00     0.017 C 
ATOM     95  C   UNL A   1      32.467  22.986  22.996  1.00  0.00     0.003 C 
ENDBRANCH  87  90
ENDBRANCH  86  87
ENDBRANCH  75  77
ENDBRANCH  68  71
ENDBRANCH  66  67
ENDBRANCH  65  66
ENDBRANCH   1  65
TORSDOF 16
ENDMDL
