MODEL 1
REMARK VINA RESULT:     -11.5      0.000      0.000
REMARK SMILES CC(=O)c1nnn(-c2ccc(C(=O)NCCCCCCNC(=O)c3ccc(-c4c5nc(c(-c6c(F)cccc6F)c6ccc([nH]6)c(-c6c(F)cccc6F)c6nc(c(-c7c(F)cccc7F)c7ccc4[nH]7)C=C6)C=C5)cc3)cc2)c1C
REMARK SMILES IDX 17 1 16 2 15 3 14 4 12 5 13 6 11 8 8 9 9 10 79 11 10 12
REMARK SMILES IDX 78 13 7 14 4 15 5 16 80 17 6 18 81 19 2 20 1 21 3 22 18 23
REMARK SMILES IDX 19 24 20 25 21 26 22 27 23 29 24 30 25 31 77 32 26 33 76 34
REMARK SMILES IDX 27 35 28 36 29 37 70 38 30 39 75 40 69 41 71 42 31 43 74 44
REMARK SMILES IDX 68 45 67 46 32 48 58 49 41 50 57 51 42 52 45 53 56 54 72 55
REMARK SMILES IDX 43 56 44 57 55 59 73 60 46 61 33 62 34 63 39 64 35 65 36 66
REMARK SMILES IDX 38 67 40 68 37 69 59 70 60 71 65 72 61 73 62 74 64 75 66 76
REMARK SMILES IDX 63 77 47 78 48 79 53 80 49 81 50 82 52 83 54 84 51 85
REMARK H PARENT 14 7 21 28 71 47 45 58
REMARK Flexibility Score: inf
ROOT
ATOM      1  C   UNL A   1      39.681  21.766  26.304  1.00  0.00     0.002 C 
ENDROOT
BRANCH   1   2
ATOM      2  C   UNL A   1      38.742  20.993  25.366  1.00  0.00     0.021 C 
BRANCH   2   3
ATOM      3  C   UNL A   1      37.275  21.408  25.503  1.00  0.00     0.116 C 
BRANCH   3   4
ATOM      4  N   UNL A   1      36.408  20.325  25.077  1.00  0.00    -0.352 N 
ATOM      5  C   UNL A   1      35.046  20.165  25.053  1.00  0.00     0.251 C 
ATOM      6  O   UNL A   1      34.604  19.098  24.631  1.00  0.00    -0.269 OA
ATOM      7  H   UNL A   1      36.898  19.543  24.732  1.00  0.00     0.163 HD
BRANCH   5   8
ATOM      8  C   UNL A   1      34.092  21.249  25.420  1.00  0.00     0.039 A 
ATOM      9  C   UNL A   1      32.554  23.532  25.862  1.00  0.00     0.067 A 
ATOM     10  C   UNL A   1      32.525  22.933  24.604  1.00  0.00     0.029 A 
ATOM     11  C   UNL A   1      33.224  22.927  26.928  1.00  0.00     0.029 A 
ATOM     12  C   UNL A   1      33.327  21.811  24.381  1.00  0.00     0.016 A 
ATOM     13  C   UNL A   1      33.940  21.751  26.714  1.00  0.00     0.016 A 
BRANCH   9  14
ATOM     14  N   UNL A   1      31.958  24.790  26.054  1.00  0.00    -0.217 N 
ATOM     15  C   UNL A   1      31.585  26.906  26.378  1.00  0.00     0.151 A 
ATOM     16  N   UNL A   1      30.463  26.192  26.717  1.00  0.00    -0.126 NA
ATOM     17  C   UNL A   1      32.548  26.033  25.897  1.00  0.00     0.073 A 
ATOM     18  N   UNL A   1      30.668  24.919  26.410  1.00  0.00    -0.061 NA
ATOM     19  C   UNL A   1      33.881  26.226  25.276  1.00  0.00     0.069 C 
BRANCH  15  20
ATOM     20  C   UNL A   1      31.633  28.355  26.505  1.00  0.00     0.181 C 
ATOM     21  C   UNL A   1      31.522  29.182  25.250  1.00  0.00     0.095 C 
ATOM     22  O   UNL A   1      31.749  28.900  27.603  1.00  0.00    -0.293 OA
ENDBRANCH  15  20
ENDBRANCH   9  14
ENDBRANCH   5   8
ENDBRANCH   3   4
ENDBRANCH   2   3
ENDBRANCH   1   2
BRANCH   1  23
ATOM     23  C   UNL A   1      40.777  20.928  26.988  1.00  0.00     0.002 C 
BRANCH  23  24
ATOM     24  C   UNL A   1      41.466  19.859  26.124  1.00  0.00     0.021 C 
BRANCH  24  25
ATOM     25  C   UNL A   1      42.798  19.390  26.682  1.00  0.00     0.116 C 
BRANCH  25  26
ATOM     26  N   UNL A   1      43.890  19.472  25.698  1.00  0.00    -0.352 N 
ATOM     27  C   UNL A   1      44.317  20.553  24.947  1.00  0.00     0.251 C 
ATOM     28  H   UNL A   1      44.390  18.637  25.553  1.00  0.00     0.163 HD
ATOM     29  O   UNL A   1      44.974  20.390  23.913  1.00  0.00    -0.269 OA
BRANCH  27  30
ATOM     30  C   UNL A   1      43.995  21.912  25.407  1.00  0.00     0.039 A 
ATOM     31  C   UNL A   1      43.068  22.760  24.795  1.00  0.00     0.014 A 
ATOM     32  C   UNL A   1      44.646  22.314  26.558  1.00  0.00     0.014 A 
ATOM     33  C   UNL A   1      42.832  24.003  25.382  1.00  0.00     0.010 A 
ATOM     34  C   UNL A   1      44.077  23.277  27.319  1.00  0.00     0.010 A 
ATOM     35  C   UNL A   1      43.376  24.252  26.650  1.00  0.00    -0.014 A 
BRANCH  35  36
ATOM     36  C   UNL A   1      43.233  25.493  27.385  1.00  0.00     0.031 A 
ATOM     37  C   UNL A   1      44.239  26.506  27.020  1.00  0.00     0.074 A 
ATOM     38  C   UNL A   1      42.113  25.790  28.087  1.00  0.00     0.049 A 
ATOM     39  N   UNL A   1      45.246  26.898  27.721  1.00  0.00    -0.248 NA
ATOM     40  C   UNL A   1      44.237  27.006  25.635  1.00  0.00     0.031 C 
ATOM     41  C   UNL A   1      40.866  25.020  28.225  1.00  0.00     0.029 A 
ATOM     42  N   UNL A   1      41.826  26.928  28.772  1.00  0.00    -0.354 N 
ATOM     43  C   UNL A   1      45.867  27.876  26.955  1.00  0.00     0.074 A 
ATOM     44  C   UNL A   1      45.362  27.720  25.617  1.00  0.00     0.031 C 
ATOM     45  C   UNL A   1      39.900  25.800  28.763  1.00  0.00     0.029 A 
ATOM     46  C   UNL A   1      40.494  27.061  29.160  1.00  0.00     0.049 A 
ATOM     47  H   UNL A   1      42.508  27.607  28.980  1.00  0.00     0.167 HD
ATOM     48  C   UNL A   1      46.520  28.912  27.547  1.00  0.00     0.037 A 
ATOM     49  C   UNL A   1      39.940  28.158  29.738  1.00  0.00     0.037 A 
ATOM     50  C   UNL A   1      46.749  28.643  28.948  1.00  0.00     0.049 A 
ATOM     51  C   UNL A   1      41.061  28.963  30.294  1.00  0.00     0.074 A 
ATOM     52  C   UNL A   1      47.410  27.653  29.650  1.00  0.00     0.029 A 
ATOM     53  N   UNL A   1      45.900  29.234  29.855  1.00  0.00    -0.354 N 
ATOM     54  N   UNL A   1      41.814  28.562  31.282  1.00  0.00    -0.248 NA
ATOM     55  C   UNL A   1      41.655  29.968  29.424  1.00  0.00     0.031 C 
ATOM     56  C   UNL A   1      46.572  27.375  30.772  1.00  0.00     0.029 A 
ATOM     57  C   UNL A   1      45.496  28.264  30.737  1.00  0.00     0.049 A 
ATOM     58  H   UNL A   1      45.630  30.181  29.869  1.00  0.00     0.167 HD
ATOM     59  C   UNL A   1      43.103  28.932  30.921  1.00  0.00     0.074 A 
ATOM     60  C   UNL A   1      42.933  29.849  29.794  1.00  0.00     0.031 C 
ATOM     61  C   UNL A   1      44.192  28.235  31.363  1.00  0.00     0.037 A 
BRANCH  48  62
ATOM     62  C   UNL A   1      46.592  30.307  26.978  1.00  0.00     0.057 A 
ATOM     63  C   UNL A   1      47.832  30.969  26.966  1.00  0.00     0.134 A 
ATOM     64  C   UNL A   1      45.476  31.126  26.704  1.00  0.00     0.134 A 
ATOM     65  F   UNL A   1      48.969  30.303  27.219  1.00  0.00    -0.206 F 
ATOM     66  C   UNL A   1      47.944  32.352  26.780  1.00  0.00     0.040 A 
ATOM     67  C   UNL A   1      45.582  32.498  26.463  1.00  0.00     0.040 A 
ATOM     68  F   UNL A   1      44.217  30.677  26.753  1.00  0.00    -0.206 F 
ATOM     69  C   UNL A   1      46.815  33.122  26.536  1.00  0.00     0.006 A 
ENDBRANCH  48  62
BRANCH  49  70
ATOM     70  C   UNL A   1      38.582  28.720  29.534  1.00  0.00     0.057 A 
ATOM     71  C   UNL A   1      37.692  28.892  30.604  1.00  0.00     0.134 A 
ATOM     72  C   UNL A   1      38.232  29.366  28.334  1.00  0.00     0.134 A 
ATOM     73  F   UNL A   1      37.958  28.353  31.802  1.00  0.00    -0.206 F 
ATOM     74  C   UNL A   1      36.534  29.678  30.495  1.00  0.00     0.040 A 
ATOM     75  C   UNL A   1      37.079  30.150  28.210  1.00  0.00     0.040 A 
ATOM     76  F   UNL A   1      39.045  29.333  27.267  1.00  0.00    -0.206 F 
ATOM     77  C   UNL A   1      36.231  30.320  29.297  1.00  0.00     0.006 A 
ENDBRANCH  49  70
BRANCH  61  78
ATOM     78  C   UNL A   1      43.977  27.184  32.424  1.00  0.00     0.057 A 
ATOM     79  C   UNL A   1      43.926  25.804  32.169  1.00  0.00     0.134 A 
ATOM     80  C   UNL A   1      43.994  27.572  33.767  1.00  0.00     0.134 A 
ATOM     81  F   UNL A   1      44.000  25.326  30.923  1.00  0.00    -0.206 F 
ATOM     82  C   UNL A   1      43.861  24.860  33.200  1.00  0.00     0.040 A 
ATOM     83  C   UNL A   1      43.961  26.639  34.807  1.00  0.00     0.040 A 
ATOM     84  F   UNL A   1      44.100  28.869  34.092  1.00  0.00    -0.206 F 
ATOM     85  C   UNL A   1      43.886  25.278  34.526  1.00  0.00     0.006 A 
ENDBRANCH  61  78
ENDBRANCH  35  36
ENDBRANCH  27  30
ENDBRANCH  25  26
ENDBRANCH  24  25
ENDBRANCH  23  24
ENDBRANCH   1  23
TORSDOF 15
ENDMDL
MODEL 2
REMARK VINA RESULT:     -11.2      4.391      9.997
REMARK SMILES CC(=O)c1nnn(-c2ccc(C(=O)NCCCCCCNC(=O)c3ccc(-c4c5nc(c(-c6c(F)cccc6F)c6ccc([nH]6)c(-c6c(F)cccc6F)c6nc(c(-c7c(F)cccc7F)c7ccc4[nH]7)C=C6)C=C5)cc3)cc2)c1C
REMARK SMILES IDX 17 1 16 2 15 3 14 4 12 5 13 6 11 8 8 9 9 10 79 11 10 12
REMARK SMILES IDX 78 13 7 14 4 15 5 16 80 17 6 18 81 19 2 20 1 21 3 22 18 23
REMARK SMILES IDX 19 24 20 25 21 26 22 27 23 29 24 30 25 31 77 32 26 33 76 34
REMARK SMILES IDX 27 35 28 36 29 37 70 38 30 39 75 40 69 41 71 42 31 43 74 44
REMARK SMILES IDX 68 45 67 46 32 48 58 49 41 50 57 51 42 52 45 53 56 54 72 55
REMARK SMILES IDX 43 56 44 57 55 59 73 60 46 61 33 62 34 63 39 64 35 65 36 66
REMARK SMILES IDX 38 67 40 68 37 69 59 70 60 71 65 72 61 73 62 74 64 75 66 76
REMARK SMILES IDX 63 77 47 78 48 79 53 80 49 81 50 82 52 83 54 84 51 85
REMARK H PARENT 14 7 21 28 71 47 45 58
REMARK Flexibility Score: inf
ROOT
ATOM      1  C   UNL A   1      34.248  33.996  28.148  1.00  0.00     0.002 C 
ENDROOT
BRANCH   1   2
ATOM      2  C   UNL A   1      33.068  34.655  28.875  1.00  0.00     0.021 C 
BRANCH   2   3
ATOM      3  C   UNL A   1      33.347  36.101  29.293  1.00  0.00     0.116 C 
BRANCH   3   4
ATOM      4  N   UNL A   1      32.536  36.453  30.444  1.00  0.00    -0.352 N 
ATOM      5  C   UNL A   1      32.608  36.135  31.777  1.00  0.00     0.251 C 
ATOM      6  O   UNL A   1      31.742  36.594  32.521  1.00  0.00    -0.269 OA
ATOM      7  H   UNL A   1      31.778  37.041  30.224  1.00  0.00     0.163 HD
BRANCH   5   8
ATOM      8  C   UNL A   1      33.727  35.350  32.368  1.00  0.00     0.039 A 
ATOM      9  C   UNL A   1      35.610  33.920  33.845  1.00  0.00     0.067 A 
ATOM     10  C   UNL A   1      34.366  33.341  33.599  1.00  0.00     0.029 A 
ATOM     11  C   UNL A   1      35.969  35.130  33.247  1.00  0.00     0.029 A 
ATOM     12  C   UNL A   1      33.417  34.080  32.889  1.00  0.00     0.016 A 
ATOM     13  C   UNL A   1      35.043  35.810  32.459  1.00  0.00     0.016 A 
BRANCH   9  14
ATOM     14  N   UNL A   1      36.496  33.317  34.753  1.00  0.00    -0.217 N 
ATOM     15  C   UNL A   1      37.997  32.061  35.699  1.00  0.00     0.151 A 
ATOM     16  N   UNL A   1      37.204  32.626  36.668  1.00  0.00    -0.126 NA
ATOM     17  C   UNL A   1      37.598  32.530  34.458  1.00  0.00     0.073 A 
ATOM     18  N   UNL A   1      36.367  33.472  36.083  1.00  0.00    -0.061 NA
ATOM     19  C   UNL A   1      38.143  32.380  33.087  1.00  0.00     0.069 C 
BRANCH  15  20
ATOM     20  C   UNL A   1      39.085  31.156  36.039  1.00  0.00     0.181 C 
ATOM     21  C   UNL A   1      40.484  31.715  36.085  1.00  0.00     0.095 C 
ATOM     22  O   UNL A   1      38.879  29.969  36.294  1.00  0.00    -0.293 OA
ENDBRANCH  15  20
ENDBRANCH   9  14
ENDBRANCH   5   8
ENDBRANCH   3   4
ENDBRANCH   2   3
ENDBRANCH   1   2
BRANCH   1  23
ATOM     23  C   UNL A   1      35.564  33.920  28.945  1.00  0.00     0.002 C 
BRANCH  23  24
ATOM     24  C   UNL A   1      35.594  32.939  30.129  1.00  0.00     0.021 C 
BRANCH  24  25
ATOM     25  C   UNL A   1      36.452  31.710  29.880  1.00  0.00     0.116 C 
BRANCH  25  26
ATOM     26  N   UNL A   1      35.753  30.674  29.101  1.00  0.00    -0.352 N 
ATOM     27  C   UNL A   1      36.277  29.647  28.337  1.00  0.00     0.251 C 
ATOM     28  H   UNL A   1      34.770  30.720  29.128  1.00  0.00     0.163 HD
ATOM     29  O   UNL A   1      35.602  29.102  27.456  1.00  0.00    -0.269 OA
BRANCH  27  30
ATOM     30  C   UNL A   1      37.649  29.191  28.600  1.00  0.00     0.039 A 
ATOM     31  C   UNL A   1      38.018  28.343  29.648  1.00  0.00     0.014 A 
ATOM     32  C   UNL A   1      38.597  29.618  27.690  1.00  0.00     0.014 A 
ATOM     33  C   UNL A   1      39.355  27.954  29.736  1.00  0.00     0.010 A 
ATOM     34  C   UNL A   1      39.724  28.886  27.538  1.00  0.00     0.010 A 
ATOM     35  C   UNL A   1      40.206  28.264  28.666  1.00  0.00    -0.014 A 
BRANCH  35  36
ATOM     36  C   UNL A   1      41.618  27.943  28.611  1.00  0.00     0.031 A 
ATOM     37  C   UNL A   1      41.908  26.717  27.845  1.00  0.00     0.074 A 
ATOM     38  C   UNL A   1      42.576  28.839  28.951  1.00  0.00     0.049 A 
ATOM     39  N   UNL A   1      42.272  25.571  28.309  1.00  0.00    -0.248 NA
ATOM     40  C   UNL A   1      41.568  26.707  26.413  1.00  0.00     0.031 C 
ATOM     41  C   UNL A   1      42.433  30.241  29.376  1.00  0.00     0.029 A 
ATOM     42  N   UNL A   1      43.926  28.691  28.896  1.00  0.00    -0.354 N 
ATOM     43  C   UNL A   1      42.442  24.762  27.193  1.00  0.00     0.074 A 
ATOM     44  C   UNL A   1      41.768  25.424  26.110  1.00  0.00     0.031 C 
ATOM     45  C   UNL A   1      43.636  30.860  29.332  1.00  0.00     0.029 A 
ATOM     46  C   UNL A   1      44.654  29.869  29.042  1.00  0.00     0.049 A 
ATOM     47  H   UNL A   1      44.357  27.815  28.764  1.00  0.00     0.167 HD
ATOM     48  C   UNL A   1      43.368  23.765  27.192  1.00  0.00     0.037 A 
ATOM     49  C   UNL A   1      45.998  29.997  28.898  1.00  0.00     0.037 A 
ATOM     50  C   UNL A   1      43.827  23.487  28.534  1.00  0.00     0.049 A 
ATOM     51  C   UNL A   1      46.576  28.632  29.028  1.00  0.00     0.074 A 
ATOM     52  C   UNL A   1      43.212  23.095  29.707  1.00  0.00     0.029 A 
ATOM     53  N   UNL A   1      45.040  24.016  28.912  1.00  0.00    -0.354 N 
ATOM     54  N   UNL A   1      46.548  27.941  30.136  1.00  0.00    -0.248 NA
ATOM     55  C   UNL A   1      46.719  27.851  27.808  1.00  0.00     0.031 C 
ATOM     56  C   UNL A   1      43.851  23.858  30.731  1.00  0.00     0.029 A 
ATOM     57  C   UNL A   1      44.870  24.606  30.139  1.00  0.00     0.049 A 
ATOM     58  H   UNL A   1      45.877  23.979  28.396  1.00  0.00     0.167 HD
ATOM     59  C   UNL A   1      46.244  26.645  29.740  1.00  0.00     0.074 A 
ATOM     60  C   UNL A   1      46.422  26.640  28.288  1.00  0.00     0.031 C 
ATOM     61  C   UNL A   1      45.587  25.784  30.574  1.00  0.00     0.037 A 
BRANCH  48  62
ATOM     62  C   UNL A   1      44.142  23.326  25.974  1.00  0.00     0.057 A 
ATOM     63  C   UNL A   1      44.177  21.958  25.652  1.00  0.00     0.134 A 
ATOM     64  C   UNL A   1      45.070  24.127  25.276  1.00  0.00     0.134 A 
ATOM     65  F   UNL A   1      43.350  21.090  26.253  1.00  0.00    -0.206 F 
ATOM     66  C   UNL A   1      45.118  21.419  24.768  1.00  0.00     0.040 A 
ATOM     67  C   UNL A   1      45.977  23.607  24.350  1.00  0.00     0.040 A 
ATOM     68  F   UNL A   1      45.227  25.434  25.517  1.00  0.00    -0.206 F 
ATOM     69  C   UNL A   1      46.027  22.243  24.119  1.00  0.00     0.006 A 
ENDBRANCH  48  62
BRANCH  49  70
ATOM     70  C   UNL A   1      46.759  31.130  28.314  1.00  0.00     0.057 A 
ATOM     71  C   UNL A   1      46.510  31.585  27.011  1.00  0.00     0.134 A 
ATOM     72  C   UNL A   1      47.547  31.972  29.119  1.00  0.00     0.134 A 
ATOM     73  F   UNL A   1      45.733  30.876  26.180  1.00  0.00    -0.206 F 
ATOM     74  C   UNL A   1      46.995  32.817  26.544  1.00  0.00     0.040 A 
ATOM     75  C   UNL A   1      48.041  33.200  28.665  1.00  0.00     0.040 A 
ATOM     76  F   UNL A   1      47.788  31.674  30.404  1.00  0.00    -0.206 F 
ATOM     77  C   UNL A   1      47.754  33.634  27.376  1.00  0.00     0.006 A 
ENDBRANCH  49  70
BRANCH  61  78
ATOM     78  C   UNL A   1      45.390  26.202  32.010  1.00  0.00     0.057 A 
ATOM     79  C   UNL A   1      44.231  26.828  32.498  1.00  0.00     0.134 A 
ATOM     80  C   UNL A   1      46.333  25.803  32.962  1.00  0.00     0.134 A 
ATOM     81  F   UNL A   1      43.228  27.162  31.680  1.00  0.00    -0.206 F 
ATOM     82  C   UNL A   1      44.037  27.073  33.862  1.00  0.00     0.040 A 
ATOM     83  C   UNL A   1      46.139  26.014  34.329  1.00  0.00     0.040 A 
ATOM     84  F   UNL A   1      47.440  25.148  32.580  1.00  0.00    -0.206 F 
ATOM     85  C   UNL A   1      44.991  26.658  34.784  1.00  0.00     0.006 A 
ENDBRANCH  61  78
ENDBRANCH  35  36
ENDBRANCH  27  30
ENDBRANCH  25  26
ENDBRANCH  24  25
ENDBRANCH  23  24
ENDBRANCH   1  23
TORSDOF 15
ENDMDL
MODEL 3
REMARK VINA RESULT:     -11.2      2.645      8.375
REMARK SMILES CC(=O)c1nnn(-c2ccc(C(=O)NCCCCCCNC(=O)c3ccc(-c4c5nc(c(-c6c(F)cccc6F)c6ccc([nH]6)c(-c6c(F)cccc6F)c6nc(c(-c7c(F)cccc7F)c7ccc4[nH]7)C=C6)C=C5)cc3)cc2)c1C
REMARK SMILES IDX 17 1 16 2 15 3 14 4 12 5 13 6 11 8 8 9 9 10 79 11 10 12
REMARK SMILES IDX 78 13 7 14 4 15 5 16 80 17 6 18 81 19 2 20 1 21 3 22 18 23
REMARK SMILES IDX 19 24 20 25 21 26 22 27 23 29 24 30 25 31 77 32 26 33 76 34
REMARK SMILES IDX 27 35 28 36 29 37 70 38 30 39 75 40 69 41 71 42 31 43 74 44
REMARK SMILES IDX 68 45 67 46 32 48 58 49 41 50 57 51 42 52 45 53 56 54 72 55
REMARK SMILES IDX 43 56 44 57 55 59 73 60 46 61 33 62 34 63 39 64 35 65 36 66
REMARK SMILES IDX 38 67 40 68 37 69 59 70 60 71 65 72 61 73 62 74 64 75 66 76
REMARK SMILES IDX 63 77 47 78 48 79 53 80 49 81 50 82 52 83 54 84 51 85
REMARK H PARENT 14 7 21 28 71 47 45 58
REMARK Flexibility Score: inf
ROOT
ATOM      1  C   UNL A   1      33.442  28.703  26.140  1.00  0.00     0.002 C 
ENDROOT
BRANCH   1   2
ATOM      2  C   UNL A   1      32.836  29.411  24.921  1.00  0.00     0.021 C 
BRANCH   2   3
ATOM      3  C   UNL A   1      31.340  29.696  25.068  1.00  0.00     0.116 C 
BRANCH   3   4
ATOM      4  N   UNL A   1      30.722  29.809  23.759  1.00  0.00    -0.352 N 
ATOM      5  C   UNL A   1      30.541  28.925  22.726  1.00  0.00     0.251 C 
ATOM      6  O   UNL A   1      29.974  29.336  21.715  1.00  0.00    -0.269 OA
ATOM      7  H   UNL A   1      30.356  30.704  23.575  1.00  0.00     0.163 HD
BRANCH   5   8
ATOM      8  C   UNL A   1      30.911  27.484  22.812  1.00  0.00     0.039 A 
ATOM      9  C   UNL A   1      31.661  24.863  23.394  1.00  0.00     0.067 A 
ATOM     10  C   UNL A   1      30.423  25.323  23.838  1.00  0.00     0.029 A 
ATOM     11  C   UNL A   1      32.457  25.643  22.552  1.00  0.00     0.029 A 
ATOM     12  C   UNL A   1      30.071  26.649  23.572  1.00  0.00     0.016 A 
ATOM     13  C   UNL A   1      32.046  26.931  22.214  1.00  0.00     0.016 A 
BRANCH   9  14
ATOM     14  N   UNL A   1      32.152  23.626  23.845  1.00  0.00    -0.217 N 
ATOM     15  C   UNL A   1      33.290  22.049  24.815  1.00  0.00     0.151 A 
ATOM     16  N   UNL A   1      32.599  21.520  23.753  1.00  0.00    -0.126 NA
ATOM     17  C   UNL A   1      32.980  23.395  24.932  1.00  0.00     0.073 A 
ATOM     18  N   UNL A   1      31.827  22.469  23.242  1.00  0.00    -0.061 NA
ATOM     19  C   UNL A   1      33.308  24.434  25.937  1.00  0.00     0.069 C 
BRANCH  15  20
ATOM     20  C   UNL A   1      34.154  21.225  25.647  1.00  0.00     0.181 C 
ATOM     21  C   UNL A   1      35.395  20.642  25.022  1.00  0.00     0.095 C 
ATOM     22  O   UNL A   1      33.895  21.014  26.833  1.00  0.00    -0.293 OA
ENDBRANCH  15  20
ENDBRANCH   9  14
ENDBRANCH   5   8
ENDBRANCH   3   4
ENDBRANCH   2   3
ENDBRANCH   1   2
BRANCH   1  23
ATOM     23  C   UNL A   1      34.422  29.543  26.980  1.00  0.00     0.002 C 
BRANCH  23  24
ATOM     24  C   UNL A   1      33.886  30.871  27.538  1.00  0.00     0.021 C 
BRANCH  24  25
ATOM     25  C   UNL A   1      34.968  31.905  27.796  1.00  0.00     0.116 C 
BRANCH  25  26
ATOM     26  N   UNL A   1      34.868  32.516  29.131  1.00  0.00    -0.352 N 
ATOM     27  C   UNL A   1      35.364  32.067  30.342  1.00  0.00     0.251 C 
ATOM     28  H   UNL A   1      34.378  33.369  29.168  1.00  0.00     0.163 HD
ATOM     29  O   UNL A   1      34.893  32.470  31.412  1.00  0.00    -0.269 OA
BRANCH  27  30
ATOM     30  C   UNL A   1      36.481  31.111  30.345  1.00  0.00     0.039 A 
ATOM     31  C   UNL A   1      36.340  29.723  30.252  1.00  0.00     0.014 A 
ATOM     32  C   UNL A   1      37.740  31.677  30.396  1.00  0.00     0.014 A 
ATOM     33  C   UNL A   1      37.501  28.950  30.213  1.00  0.00     0.010 A 
ATOM     34  C   UNL A   1      38.786  30.971  29.907  1.00  0.00     0.010 A 
ATOM     35  C   UNL A   1      38.730  29.606  30.065  1.00  0.00    -0.014 A 
BRANCH  35  36
ATOM     36  C   UNL A   1      40.021  28.949  30.020  1.00  0.00     0.031 A 
ATOM     37  C   UNL A   1      40.645  28.797  31.347  1.00  0.00     0.074 A 
ATOM     38  C   UNL A   1      40.448  28.273  28.927  1.00  0.00     0.049 A 
ATOM     39  N   UNL A   1      41.655  29.445  31.817  1.00  0.00    -0.248 NA
ATOM     40  C   UNL A   1      39.947  27.965  32.341  1.00  0.00     0.031 C 
ATOM     41  C   UNL A   1      39.753  28.022  27.653  1.00  0.00     0.029 A 
ATOM     42  N   UNL A   1      41.602  27.571  28.768  1.00  0.00    -0.354 N 
ATOM     43  C   UNL A   1      41.868  28.922  33.085  1.00  0.00     0.074 A 
ATOM     44  C   UNL A   1      40.665  28.216  33.436  1.00  0.00     0.031 C 
ATOM     45  C   UNL A   1      40.405  27.065  26.953  1.00  0.00     0.029 A 
ATOM     46  C   UNL A   1      41.642  26.753  27.641  1.00  0.00     0.049 A 
ATOM     47  H   UNL A   1      42.353  27.638  29.401  1.00  0.00     0.167 HD
ATOM     48  C   UNL A   1      43.120  28.869  33.614  1.00  0.00     0.037 A 
ATOM     49  C   UNL A   1      42.625  25.868  27.336  1.00  0.00     0.037 A 
ATOM     50  C   UNL A   1      44.032  29.701  32.863  1.00  0.00     0.049 A 
ATOM     51  C   UNL A   1      43.820  26.261  28.131  1.00  0.00     0.074 A 
ATOM     52  C   UNL A   1      44.080  31.045  32.545  1.00  0.00     0.029 A 
ATOM     53  N   UNL A   1      44.862  29.079  31.960  1.00  0.00    -0.354 N 
ATOM     54  N   UNL A   1      44.475  27.375  27.944  1.00  0.00    -0.248 NA
ATOM     55  C   UNL A   1      43.966  25.665  29.451  1.00  0.00     0.031 C 
ATOM     56  C   UNL A   1      44.519  31.087  31.188  1.00  0.00     0.029 A 
ATOM     57  C   UNL A   1      44.793  29.780  30.783  1.00  0.00     0.049 A 
ATOM     58  H   UNL A   1      45.407  28.276  32.127  1.00  0.00     0.167 HD
ATOM     59  C   UNL A   1      44.763  27.839  29.221  1.00  0.00     0.074 A 
ATOM     60  C   UNL A   1      44.477  26.711  30.107  1.00  0.00     0.031 C 
ATOM     61  C   UNL A   1      44.912  29.174  29.474  1.00  0.00     0.037 A 
BRANCH  48  62
ATOM     62  C   UNL A   1      43.607  27.780  34.538  1.00  0.00     0.057 A 
ATOM     63  C   UNL A   1      44.172  28.144  35.773  1.00  0.00     0.134 A 
ATOM     64  C   UNL A   1      43.802  26.434  34.166  1.00  0.00     0.134 A 
ATOM     65  F   UNL A   1      44.061  29.399  36.236  1.00  0.00    -0.206 F 
ATOM     66  C   UNL A   1      44.943  27.260  36.535  1.00  0.00     0.040 A 
ATOM     67  C   UNL A   1      44.524  25.528  34.947  1.00  0.00     0.040 A 
ATOM     68  F   UNL A   1      43.402  25.940  32.989  1.00  0.00    -0.206 F 
ATOM     69  C   UNL A   1      45.128  25.948  36.119  1.00  0.00     0.006 A 
ENDBRANCH  48  62
BRANCH  49  70
ATOM     70  C   UNL A   1      42.499  24.533  26.700  1.00  0.00     0.057 A 
ATOM     71  C   UNL A   1      43.124  24.241  25.479  1.00  0.00     0.134 A 
ATOM     72  C   UNL A   1      41.999  23.429  27.413  1.00  0.00     0.134 A 
ATOM     73  F   UNL A   1      43.672  25.221  24.745  1.00  0.00    -0.206 F 
ATOM     74  C   UNL A   1      43.266  22.927  25.006  1.00  0.00     0.040 A 
ATOM     75  C   UNL A   1      42.130  22.113  26.952  1.00  0.00     0.040 A 
ATOM     76  F   UNL A   1      41.448  23.580  28.627  1.00  0.00    -0.206 F 
ATOM     77  C   UNL A   1      42.778  21.857  25.750  1.00  0.00     0.006 A 
ENDBRANCH  49  70
BRANCH  61  78
ATOM     78  C   UNL A   1      44.968  30.116  28.297  1.00  0.00     0.057 A 
ATOM     79  C   UNL A   1      43.852  30.778  27.762  1.00  0.00     0.134 A 
ATOM     80  C   UNL A   1      46.219  30.496  27.801  1.00  0.00     0.134 A 
ATOM     81  F   UNL A   1      42.622  30.556  28.235  1.00  0.00    -0.206 F 
ATOM     82  C   UNL A   1      43.973  31.746  26.758  1.00  0.00     0.040 A 
ATOM     83  C   UNL A   1      46.357  31.482  26.821  1.00  0.00     0.040 A 
ATOM     84  F   UNL A   1      47.337  29.950  28.303  1.00  0.00    -0.206 F 
ATOM     85  C   UNL A   1      45.232  32.106  26.290  1.00  0.00     0.006 A 
ENDBRANCH  61  78
ENDBRANCH  35  36
ENDBRANCH  27  30
ENDBRANCH  25  26
ENDBRANCH  24  25
ENDBRANCH  23  24
ENDBRANCH   1  23
TORSDOF 15
ENDMDL
