MODEL 1
REMARK VINA RESULT:     -11.0      0.000      0.000
REMARK SMILES N#Cc1cc2c(nc1N(CC(=O)NCCCCCCNC(=O)c1ccc(-c3c4nc(c(-c5c(F)cccc5F)c5ccc([nH]5)c(-c5c(F)cccc5F)c5nc(c(-c6c(F)cccc6F)c6ccc3[nH]6)C=C5)C=C4)cc1)CC(F)(F)F)CCC2
REMARK SMILES IDX 16 1 15 2 14 3 13 4 11 5 12 6 10 8 9 9 8 10 3 11 4 12 5 13
REMARK SMILES IDX 7 14 6 15 84 16 82 17 83 18 2 19 1 20 77 21 78 22 79 23
REMARK SMILES IDX 80 24 81 25 17 26 18 27 19 28 20 29 21 30 22 32 23 33 24 34
REMARK SMILES IDX 76 35 25 36 75 37 26 38 27 39 28 40 69 41 29 42 74 43 68 44
REMARK SMILES IDX 70 45 30 46 73 47 67 48 66 49 31 51 57 52 40 53 56 54 41 55
REMARK SMILES IDX 44 56 55 57 71 58 42 59 43 60 54 62 72 63 45 64 32 65 33 66
REMARK SMILES IDX 38 67 34 68 35 69 37 70 39 71 36 72 58 73 59 74 64 75 60 76
REMARK SMILES IDX 61 77 63 78 65 79 62 80 46 81 47 82 52 83 48 84 49 85 51 86
REMARK SMILES IDX 53 87 50 88
REMARK H PARENT 13 7 20 31 70 50 44 61
REMARK Flexibility Score: inf
ROOT
ATOM      1  C   UNL A   1      31.683  29.758  26.857  1.00  0.00     0.002 C 
ENDROOT
BRANCH   1   2
ATOM      2  C   UNL A   1      33.115  29.213  26.876  1.00  0.00     0.021 C 
BRANCH   2   3
ATOM      3  C   UNL A   1      33.185  27.689  26.815  1.00  0.00     0.116 C 
BRANCH   3   4
ATOM      4  N   UNL A   1      31.872  27.097  26.964  1.00  0.00    -0.355 N 
ATOM      5  C   UNL A   1      31.273  26.156  26.179  1.00  0.00     0.239 C 
ATOM      6  O   UNL A   1      30.098  25.859  26.407  1.00  0.00    -0.273 OA
ATOM      7  H   UNL A   1      31.343  27.415  27.731  1.00  0.00     0.163 HD
BRANCH   5   8
ATOM      8  C   UNL A   1      32.054  25.482  25.044  1.00  0.00     0.218 C 
BRANCH   8   9
ATOM      9  N   UNL A   1      31.468  25.737  23.699  1.00  0.00    -0.337 N 
BRANCH   9  10
ATOM     10  C   UNL A   1      30.970  27.006  23.438  1.00  0.00     0.147 A 
ATOM     11  C   UNL A   1      31.713  28.167  23.116  1.00  0.00     0.095 A 
ATOM     12  C   UNL A   1      31.058  29.358  22.730  1.00  0.00     0.029 A 
ATOM     13  C   UNL A   1      29.685  29.394  22.741  1.00  0.00    -0.025 A 
ATOM     14  N   UNL A   1      29.608  27.105  23.472  1.00  0.00    -0.234 NA
ATOM     15  C   UNL A   1      29.013  28.263  23.144  1.00  0.00     0.046 A 
ATOM     16  C   UNL A   1      28.743  30.479  22.350  1.00  0.00     0.038 C 
ATOM     17  C   UNL A   1      27.525  28.477  23.108  1.00  0.00     0.057 C 
ATOM     18  C   UNL A   1      27.454  30.011  23.043  1.00  0.00     0.011 C 
BRANCH  11  19
ATOM     19  C   UNL A   1      33.139  28.260  23.193  1.00  0.00     0.103 C 
ATOM     20  N   UNL A   1      34.293  28.316  23.269  1.00  0.00    -0.192 NA
ENDBRANCH  11  19
ENDBRANCH   9  10
BRANCH   9  21
ATOM     21  C   UNL A   1      31.596  24.610  22.730  1.00  0.00     0.234 C 
BRANCH  21  22
ATOM     22  C   UNL A   1      32.873  24.571  21.869  1.00  0.00     0.405 C 
ATOM     23  F   UNL A   1      33.170  23.325  21.434  1.00  0.00    -0.169 F 
ATOM     24  F   UNL A   1      32.736  25.357  20.776  1.00  0.00    -0.169 F 
ATOM     25  F   UNL A   1      33.952  25.026  22.547  1.00  0.00    -0.169 F 
ENDBRANCH  21  22
ENDBRANCH   9  21
ENDBRANCH   8   9
ENDBRANCH   5   8
ENDBRANCH   3   4
ENDBRANCH   2   3
ENDBRANCH   1   2
BRANCH   1  26
ATOM     26  C   UNL A   1      31.483  30.954  25.923  1.00  0.00     0.002 C 
BRANCH  26  27
ATOM     27  C   UNL A   1      31.282  32.289  26.642  1.00  0.00     0.021 C 
BRANCH  27  28
ATOM     28  C   UNL A   1      32.567  32.877  27.215  1.00  0.00     0.116 C 
BRANCH  28  29
ATOM     29  N   UNL A   1      32.377  34.252  27.648  1.00  0.00    -0.352 N 
ATOM     30  C   UNL A   1      33.022  34.934  28.648  1.00  0.00     0.251 C 
ATOM     31  H   UNL A   1      31.693  34.763  27.158  1.00  0.00     0.163 HD
ATOM     32  O   UNL A   1      32.588  36.004  29.061  1.00  0.00    -0.269 OA
BRANCH  30  33
ATOM     33  C   UNL A   1      34.244  34.353  29.236  1.00  0.00     0.039 A 
ATOM     34  C   UNL A   1      34.145  33.607  30.412  1.00  0.00     0.014 A 
ATOM     35  C   UNL A   1      35.483  34.537  28.612  1.00  0.00     0.014 A 
ATOM     36  C   UNL A   1      35.286  33.001  30.935  1.00  0.00     0.010 A 
ATOM     37  C   UNL A   1      36.601  33.865  29.090  1.00  0.00     0.010 A 
ATOM     38  C   UNL A   1      36.516  33.101  30.263  1.00  0.00    -0.014 A 
BRANCH  38  39
ATOM     39  C   UNL A   1      37.731  32.434  30.792  1.00  0.00     0.031 A 
ATOM     40  C   UNL A   1      38.405  32.972  32.022  1.00  0.00     0.074 A 
ATOM     41  C   UNL A   1      38.240  31.366  30.148  1.00  0.00     0.049 A 
ATOM     42  N   UNL A   1      39.487  32.545  32.622  1.00  0.00    -0.248 NA
ATOM     43  C   UNL A   1      37.797  34.155  32.653  1.00  0.00     0.031 C 
ATOM     44  C   UNL A   1      37.690  30.773  28.927  1.00  0.00     0.029 A 
ATOM     45  N   UNL A   1      39.333  30.586  30.432  1.00  0.00    -0.354 N 
ATOM     46  C   UNL A   1      39.684  33.404  33.696  1.00  0.00     0.074 A 
ATOM     47  C   UNL A   1      38.654  34.416  33.627  1.00  0.00     0.031 C 
ATOM     48  C   UNL A   1      38.426  29.702  28.590  1.00  0.00     0.029 A 
ATOM     49  C   UNL A   1      39.524  29.558  29.541  1.00  0.00     0.049 A 
ATOM     50  H   UNL A   1      39.925  30.750  31.201  1.00  0.00     0.167 HD
ATOM     51  C   UNL A   1      40.622  33.335  34.669  1.00  0.00     0.037 A 
ATOM     52  C   UNL A   1      40.476  28.606  29.497  1.00  0.00     0.037 A 
ATOM     53  C   UNL A   1      41.634  32.316  34.741  1.00  0.00     0.049 A 
ATOM     54  C   UNL A   1      41.532  28.578  30.567  1.00  0.00     0.074 A 
ATOM     55  C   UNL A   1      42.604  32.137  35.710  1.00  0.00     0.029 A 
ATOM     56  N   UNL A   1      41.806  31.304  33.809  1.00  0.00    -0.354 N 
ATOM     57  N   UNL A   1      41.675  29.363  31.609  1.00  0.00    -0.248 NA
ATOM     58  C   UNL A   1      42.561  27.534  30.460  1.00  0.00     0.031 C 
ATOM     59  C   UNL A   1      43.401  31.053  35.335  1.00  0.00     0.029 A 
ATOM     60  C   UNL A   1      42.889  30.517  34.164  1.00  0.00     0.049 A 
ATOM     61  H   UNL A   1      41.244  31.166  33.012  1.00  0.00     0.167 HD
ATOM     62  C   UNL A   1      42.789  28.892  32.292  1.00  0.00     0.074 A 
ATOM     63  C   UNL A   1      43.275  27.744  31.557  1.00  0.00     0.031 C 
ATOM     64  C   UNL A   1      43.359  29.372  33.425  1.00  0.00     0.037 A 
BRANCH  51  65
ATOM     65  C   UNL A   1      40.592  34.381  35.745  1.00  0.00     0.057 A 
ATOM     66  C   UNL A   1      41.284  35.592  35.613  1.00  0.00     0.134 A 
ATOM     67  C   UNL A   1      39.808  34.207  36.892  1.00  0.00     0.134 A 
ATOM     68  F   UNL A   1      42.064  35.818  34.545  1.00  0.00    -0.206 F 
ATOM     69  C   UNL A   1      41.207  36.587  36.589  1.00  0.00     0.040 A 
ATOM     70  C   UNL A   1      39.700  35.206  37.861  1.00  0.00     0.040 A 
ATOM     71  F   UNL A   1      39.117  33.073  37.080  1.00  0.00    -0.206 F 
ATOM     72  C   UNL A   1      40.404  36.399  37.711  1.00  0.00     0.006 A 
ENDBRANCH  51  65
BRANCH  52  73
ATOM     73  C   UNL A   1      40.453  27.586  28.417  1.00  0.00     0.057 A 
ATOM     74  C   UNL A   1      39.721  26.401  28.560  1.00  0.00     0.134 A 
ATOM     75  C   UNL A   1      41.147  27.773  27.215  1.00  0.00     0.134 A 
ATOM     76  F   UNL A   1      39.050  26.155  29.694  1.00  0.00    -0.206 F 
ATOM     77  C   UNL A   1      39.689  25.435  27.553  1.00  0.00     0.040 A 
ATOM     78  C   UNL A   1      41.100  26.828  26.188  1.00  0.00     0.040 A 
ATOM     79  F   UNL A   1      41.862  28.889  27.012  1.00  0.00    -0.206 F 
ATOM     80  C   UNL A   1      40.374  25.652  26.359  1.00  0.00     0.006 A 
ENDBRANCH  52  73
BRANCH  64  81
ATOM     81  C   UNL A   1      44.565  28.654  33.957  1.00  0.00     0.057 A 
ATOM     82  C   UNL A   1      45.866  29.062  33.639  1.00  0.00     0.134 A 
ATOM     83  C   UNL A   1      44.424  27.598  34.868  1.00  0.00     0.134 A 
ATOM     84  F   UNL A   1      46.071  30.061  32.766  1.00  0.00    -0.206 F 
ATOM     85  C   UNL A   1      46.983  28.437  34.196  1.00  0.00     0.040 A 
ATOM     86  C   UNL A   1      45.532  26.988  35.456  1.00  0.00     0.040 A 
ATOM     87  F   UNL A   1      43.205  27.166  35.226  1.00  0.00    -0.206 F 
ATOM     88  C   UNL A   1      46.817  27.406  35.118  1.00  0.00     0.006 A 
ENDBRANCH  64  81
ENDBRANCH  38  39
ENDBRANCH  30  33
ENDBRANCH  28  29
ENDBRANCH  27  28
ENDBRANCH  26  27
ENDBRANCH   1  26
TORSDOF 18
ENDMDL
MODEL 2
REMARK VINA RESULT:     -11.0      6.022     12.328
REMARK SMILES N#Cc1cc2c(nc1N(CC(=O)NCCCCCCNC(=O)c1ccc(-c3c4nc(c(-c5c(F)cccc5F)c5ccc([nH]5)c(-c5c(F)cccc5F)c5nc(c(-c6c(F)cccc6F)c6ccc3[nH]6)C=C5)C=C4)cc1)CC(F)(F)F)CCC2
REMARK SMILES IDX 16 1 15 2 14 3 13 4 11 5 12 6 10 8 9 9 8 10 3 11 4 12 5 13
REMARK SMILES IDX 7 14 6 15 84 16 82 17 83 18 2 19 1 20 77 21 78 22 79 23
REMARK SMILES IDX 80 24 81 25 17 26 18 27 19 28 20 29 21 30 22 32 23 33 24 34
REMARK SMILES IDX 76 35 25 36 75 37 26 38 27 39 28 40 69 41 29 42 74 43 68 44
REMARK SMILES IDX 70 45 30 46 73 47 67 48 66 49 31 51 57 52 40 53 56 54 41 55
REMARK SMILES IDX 44 56 55 57 71 58 42 59 43 60 54 62 72 63 45 64 32 65 33 66
REMARK SMILES IDX 38 67 34 68 35 69 37 70 39 71 36 72 58 73 59 74 64 75 60 76
REMARK SMILES IDX 61 77 63 78 65 79 62 80 46 81 47 82 52 83 48 84 49 85 51 86
REMARK SMILES IDX 53 87 50 88
REMARK H PARENT 13 7 20 31 70 50 44 61
REMARK Flexibility Score: inf
ROOT
ATOM      1  C   UNL A   1      45.596  21.548  24.450  1.00  0.00     0.002 C 
ENDROOT
BRANCH   1   2
ATOM      2  C   UNL A   1      45.931  22.461  25.635  1.00  0.00     0.021 C 
BRANCH   2   3
ATOM      3  C   UNL A   1      46.367  23.863  25.214  1.00  0.00     0.116 C 
BRANCH   3   4
ATOM      4  N   UNL A   1      45.225  24.705  24.927  1.00  0.00    -0.355 N 
ATOM      5  C   UNL A   1      44.979  25.975  25.358  1.00  0.00     0.239 C 
ATOM      6  O   UNL A   1      43.888  26.486  25.094  1.00  0.00    -0.273 OA
ATOM      7  H   UNL A   1      44.537  24.309  24.345  1.00  0.00     0.163 HD
BRANCH   5   8
ATOM      8  C   UNL A   1      46.045  26.745  26.149  1.00  0.00     0.218 C 
BRANCH   8   9
ATOM      9  N   UNL A   1      46.501  27.985  25.462  1.00  0.00    -0.337 N 
BRANCH   9  10
ATOM     10  C   UNL A   1      46.601  29.146  26.217  1.00  0.00     0.147 A 
ATOM     11  C   UNL A   1      45.546  29.854  26.840  1.00  0.00     0.095 A 
ATOM     12  C   UNL A   1      45.818  30.942  27.701  1.00  0.00     0.029 A 
ATOM     13  C   UNL A   1      47.120  31.347  27.867  1.00  0.00    -0.025 A 
ATOM     14  N   UNL A   1      47.873  29.613  26.383  1.00  0.00    -0.234 NA
ATOM     15  C   UNL A   1      48.098  30.676  27.171  1.00  0.00     0.046 A 
ATOM     16  C   UNL A   1      47.698  32.415  28.729  1.00  0.00     0.038 C 
ATOM     17  C   UNL A   1      49.457  31.252  27.458  1.00  0.00     0.057 C 
ATOM     18  C   UNL A   1      49.074  32.607  28.074  1.00  0.00     0.011 C 
BRANCH  11  19
ATOM     19  C   UNL A   1      44.157  29.583  26.632  1.00  0.00     0.103 C 
ATOM     20  N   UNL A   1      43.034  29.343  26.479  1.00  0.00    -0.192 NA
ENDBRANCH  11  19
ENDBRANCH   9  10
BRANCH   9  21
ATOM     21  C   UNL A   1      46.920  27.802  24.043  1.00  0.00     0.234 C 
BRANCH  21  22
ATOM     22  C   UNL A   1      48.299  27.159  23.799  1.00  0.00     0.405 C 
ATOM     23  F   UNL A   1      49.091  27.193  24.894  1.00  0.00    -0.169 F 
ATOM     24  F   UNL A   1      48.163  25.861  23.441  1.00  0.00    -0.169 F 
ATOM     25  F   UNL A   1      48.972  27.773  22.799  1.00  0.00    -0.169 F 
ENDBRANCH  21  22
ENDBRANCH   9  21
ENDBRANCH   8   9
ENDBRANCH   5   8
ENDBRANCH   3   4
ENDBRANCH   2   3
ENDBRANCH   1   2
BRANCH   1  26
ATOM     26  C   UNL A   1      46.125  20.118  24.596  1.00  0.00     0.002 C 
BRANCH  26  27
ATOM     27  C   UNL A   1      45.037  19.045  24.642  1.00  0.00     0.021 C 
BRANCH  27  28
ATOM     28  C   UNL A   1      44.144  19.130  25.874  1.00  0.00     0.116 C 
BRANCH  28  29
ATOM     29  N   UNL A   1      42.751  18.872  25.543  1.00  0.00    -0.352 N 
ATOM     30  C   UNL A   1      41.635  19.578  25.912  1.00  0.00     0.251 C 
ATOM     31  H   UNL A   1      42.587  18.083  24.977  1.00  0.00     0.163 HD
ATOM     32  O   UNL A   1      40.514  19.105  25.764  1.00  0.00    -0.269 OA
BRANCH  30  33
ATOM     33  C   UNL A   1      41.802  20.917  26.507  1.00  0.00     0.039 A 
ATOM     34  C   UNL A   1      41.681  21.066  27.890  1.00  0.00     0.014 A 
ATOM     35  C   UNL A   1      42.092  22.019  25.696  1.00  0.00     0.014 A 
ATOM     36  C   UNL A   1      41.903  22.317  28.465  1.00  0.00     0.010 A 
ATOM     37  C   UNL A   1      42.392  23.245  26.279  1.00  0.00     0.010 A 
ATOM     38  C   UNL A   1      42.288  23.407  27.668  1.00  0.00    -0.014 A 
BRANCH  38  39
ATOM     39  C   UNL A   1      42.559  24.735  28.271  1.00  0.00     0.031 A 
ATOM     40  C   UNL A   1      43.937  25.065  28.770  1.00  0.00     0.074 A 
ATOM     41  C   UNL A   1      41.558  25.628  28.394  1.00  0.00     0.049 A 
ATOM     42  N   UNL A   1      44.364  26.159  29.348  1.00  0.00    -0.248 NA
ATOM     43  C   UNL A   1      44.968  24.026  28.617  1.00  0.00     0.031 C 
ATOM     44  C   UNL A   1      40.172  25.409  27.975  1.00  0.00     0.029 A 
ATOM     45  N   UNL A   1      41.552  26.902  28.906  1.00  0.00    -0.354 N 
ATOM     46  C   UNL A   1      45.708  25.937  29.624  1.00  0.00     0.074 A 
ATOM     47  C   UNL A   1      46.010  24.585  29.214  1.00  0.00     0.031 C 
ATOM     48  C   UNL A   1      39.461  26.523  28.212  1.00  0.00     0.029 A 
ATOM     49  C   UNL A   1      40.326  27.518  28.839  1.00  0.00     0.049 A 
ATOM     50  H   UNL A   1      42.351  27.333  29.287  1.00  0.00     0.167 HD
ATOM     51  C   UNL A   1      46.614  26.797  30.142  1.00  0.00     0.037 A 
ATOM     52  C   UNL A   1      39.943  28.746  29.239  1.00  0.00     0.037 A 
ATOM     53  C   UNL A   1      46.312  28.148  30.532  1.00  0.00     0.049 A 
ATOM     54  C   UNL A   1      40.961  29.667  29.852  1.00  0.00     0.074 A 
ATOM     55  C   UNL A   1      47.171  29.110  31.030  1.00  0.00     0.029 A 
ATOM     56  N   UNL A   1      45.054  28.728  30.467  1.00  0.00    -0.354 N 
ATOM     57  N   UNL A   1      42.241  29.466  30.056  1.00  0.00    -0.248 NA
ATOM     58  C   UNL A   1      40.486  30.986  30.291  1.00  0.00     0.031 C 
ATOM     59  C   UNL A   1      46.424  30.254  31.323  1.00  0.00     0.029 A 
ATOM     60  C   UNL A   1      45.109  30.025  30.949  1.00  0.00     0.049 A 
ATOM     61  H   UNL A   1      44.242  28.283  30.131  1.00  0.00     0.167 HD
ATOM     62  C   UNL A   1      42.727  30.637  30.620  1.00  0.00     0.074 A 
ATOM     63  C   UNL A   1      41.609  31.552  30.712  1.00  0.00     0.031 C 
ATOM     64  C   UNL A   1      43.987  30.927  31.029  1.00  0.00     0.037 A 
BRANCH  51  65
ATOM     65  C   UNL A   1      48.025  26.312  30.306  1.00  0.00     0.057 A 
ATOM     66  C   UNL A   1      48.984  26.483  29.297  1.00  0.00     0.134 A 
ATOM     67  C   UNL A   1      48.450  25.735  31.509  1.00  0.00     0.134 A 
ATOM     68  F   UNL A   1      48.640  27.018  28.116  1.00  0.00    -0.206 F 
ATOM     69  C   UNL A   1      50.309  26.084  29.475  1.00  0.00     0.040 A 
ATOM     70  C   UNL A   1      49.779  25.359  31.709  1.00  0.00     0.040 A 
ATOM     71  F   UNL A   1      47.586  25.546  32.517  1.00  0.00    -0.206 F 
ATOM     72  C   UNL A   1      50.712  25.532  30.689  1.00  0.00     0.006 A 
ENDBRANCH  51  65
BRANCH  52  73
ATOM     73  C   UNL A   1      38.536  29.183  29.042  1.00  0.00     0.057 A 
ATOM     74  C   UNL A   1      38.092  29.647  27.797  1.00  0.00     0.134 A 
ATOM     75  C   UNL A   1      37.600  29.136  30.082  1.00  0.00     0.134 A 
ATOM     76  F   UNL A   1      38.945  29.733  26.766  1.00  0.00    -0.206 F 
ATOM     77  C   UNL A   1      36.773  30.058  27.598  1.00  0.00     0.040 A 
ATOM     78  C   UNL A   1      36.271  29.517  29.888  1.00  0.00     0.040 A 
ATOM     79  F   UNL A   1      37.958  28.695  31.297  1.00  0.00    -0.206 F 
ATOM     80  C   UNL A   1      35.856  29.986  28.644  1.00  0.00     0.006 A 
ENDBRANCH  52  73
BRANCH  64  81
ATOM     81  C   UNL A   1      44.239  32.292  31.601  1.00  0.00     0.057 A 
ATOM     82  C   UNL A   1      44.459  33.406  30.781  1.00  0.00     0.134 A 
ATOM     83  C   UNL A   1      44.173  32.511  32.984  1.00  0.00     0.134 A 
ATOM     84  F   UNL A   1      44.542  33.263  29.449  1.00  0.00    -0.206 F 
ATOM     85  C   UNL A   1      44.618  34.685  31.316  1.00  0.00     0.040 A 
ATOM     86  C   UNL A   1      44.298  33.790  33.527  1.00  0.00     0.040 A 
ATOM     87  F   UNL A   1      43.951  31.490  33.826  1.00  0.00    -0.206 F 
ATOM     88  C   UNL A   1      44.524  34.881  32.692  1.00  0.00     0.006 A 
ENDBRANCH  64  81
ENDBRANCH  38  39
ENDBRANCH  30  33
ENDBRANCH  28  29
ENDBRANCH  27  28
ENDBRANCH  26  27
ENDBRANCH   1  26
TORSDOF 18
ENDMDL
MODEL 3
REMARK VINA RESULT:     -11.0      2.989      5.305
REMARK SMILES N#Cc1cc2c(nc1N(CC(=O)NCCCCCCNC(=O)c1ccc(-c3c4nc(c(-c5c(F)cccc5F)c5ccc([nH]5)c(-c5c(F)cccc5F)c5nc(c(-c6c(F)cccc6F)c6ccc3[nH]6)C=C5)C=C4)cc1)CC(F)(F)F)CCC2
REMARK SMILES IDX 16 1 15 2 14 3 13 4 11 5 12 6 10 8 9 9 8 10 3 11 4 12 5 13
REMARK SMILES IDX 7 14 6 15 84 16 82 17 83 18 2 19 1 20 77 21 78 22 79 23
REMARK SMILES IDX 80 24 81 25 17 26 18 27 19 28 20 29 21 30 22 32 23 33 24 34
REMARK SMILES IDX 76 35 25 36 75 37 26 38 27 39 28 40 69 41 29 42 74 43 68 44
REMARK SMILES IDX 70 45 30 46 73 47 67 48 66 49 31 51 57 52 40 53 56 54 41 55
REMARK SMILES IDX 44 56 55 57 71 58 42 59 43 60 54 62 72 63 45 64 32 65 33 66
REMARK SMILES IDX 38 67 34 68 35 69 37 70 39 71 36 72 58 73 59 74 64 75 60 76
REMARK SMILES IDX 61 77 63 78 65 79 62 80 46 81 47 82 52 83 48 84 49 85 51 86
REMARK SMILES IDX 53 87 50 88
REMARK H PARENT 13 7 20 31 70 50 44 61
REMARK Flexibility Score: inf
ROOT
ATOM      1  C   UNL A   1      31.381  27.395  24.813  1.00  0.00     0.002 C 
ENDROOT
BRANCH   1   2
ATOM      2  C   UNL A   1      30.184  26.456  24.996  1.00  0.00     0.021 C 
BRANCH   2   3
ATOM      3  C   UNL A   1      30.071  25.887  26.408  1.00  0.00     0.116 C 
BRANCH   3   4
ATOM      4  N   UNL A   1      29.790  24.467  26.382  1.00  0.00    -0.355 N 
ATOM      5  C   UNL A   1      30.674  23.429  26.351  1.00  0.00     0.239 C 
ATOM      6  O   UNL A   1      30.235  22.284  26.218  1.00  0.00    -0.273 OA
ATOM      7  H   UNL A   1      28.838  24.219  26.388  1.00  0.00     0.163 HD
BRANCH   5   8
ATOM      8  C   UNL A   1      32.181  23.690  26.484  1.00  0.00     0.218 C 
BRANCH   8   9
ATOM      9  N   UNL A   1      32.935  23.412  25.231  1.00  0.00    -0.337 N 
BRANCH   9  10
ATOM     10  C   UNL A   1      34.129  22.710  25.334  1.00  0.00     0.147 A 
ATOM     11  C   UNL A   1      34.316  21.316  25.182  1.00  0.00     0.095 A 
ATOM     12  C   UNL A   1      35.616  20.760  25.169  1.00  0.00     0.029 A 
ATOM     13  C   UNL A   1      36.692  21.587  25.378  1.00  0.00    -0.025 A 
ATOM     14  N   UNL A   1      35.228  23.482  25.578  1.00  0.00    -0.234 NA
ATOM     15  C   UNL A   1      36.447  22.921  25.604  1.00  0.00     0.046 A 
ATOM     16  C   UNL A   1      38.152  21.292  25.375  1.00  0.00     0.038 C 
ATOM     17  C   UNL A   1      37.729  23.676  25.825  1.00  0.00     0.057 C 
ATOM     18  C   UNL A   1      38.700  22.521  26.117  1.00  0.00     0.011 C 
BRANCH  11  19
ATOM     19  C   UNL A   1      33.253  20.364  25.079  1.00  0.00     0.103 C 
ATOM     20  N   UNL A   1      32.375  19.612  24.998  1.00  0.00    -0.192 NA
ENDBRANCH  11  19
ENDBRANCH   9  10
BRANCH   9  21
ATOM     21  C   UNL A   1      32.246  23.825  23.974  1.00  0.00     0.234 C 
BRANCH  21  22
ATOM     22  C   UNL A   1      33.130  24.393  22.847  1.00  0.00     0.405 C 
ATOM     23  F   UNL A   1      32.406  24.911  21.828  1.00  0.00    -0.169 F 
ATOM     24  F   UNL A   1      33.926  25.381  23.318  1.00  0.00    -0.169 F 
ATOM     25  F   UNL A   1      33.944  23.449  22.321  1.00  0.00    -0.169 F 
ENDBRANCH  21  22
ENDBRANCH   9  21
ENDBRANCH   8   9
ENDBRANCH   5   8
ENDBRANCH   3   4
ENDBRANCH   2   3
ENDBRANCH   1   2
BRANCH   1  26
ATOM     26  C   UNL A   1      31.797  28.131  26.090  1.00  0.00     0.002 C 
BRANCH  26  27
ATOM     27  C   UNL A   1      33.198  27.778  26.592  1.00  0.00     0.021 C 
BRANCH  27  28
ATOM     28  C   UNL A   1      34.273  28.765  26.153  1.00  0.00     0.116 C 
BRANCH  28  29
ATOM     29  N   UNL A   1      33.969  30.117  26.594  1.00  0.00    -0.352 N 
ATOM     30  C   UNL A   1      34.561  30.849  27.591  1.00  0.00     0.251 C 
ATOM     31  H   UNL A   1      33.239  30.568  26.111  1.00  0.00     0.163 HD
ATOM     32  O   UNL A   1      34.039  31.876  28.012  1.00  0.00    -0.269 OA
BRANCH  30  33
ATOM     33  C   UNL A   1      35.833  30.375  28.167  1.00  0.00     0.039 A 
ATOM     34  C   UNL A   1      35.811  29.639  29.353  1.00  0.00     0.014 A 
ATOM     35  C   UNL A   1      37.044  30.648  27.522  1.00  0.00     0.014 A 
ATOM     36  C   UNL A   1      37.004  29.132  29.865  1.00  0.00     0.010 A 
ATOM     37  C   UNL A   1      38.220  30.073  27.990  1.00  0.00     0.010 A 
ATOM     38  C   UNL A   1      38.212  29.320  29.173  1.00  0.00    -0.014 A 
BRANCH  38  39
ATOM     39  C   UNL A   1      39.483  28.758  29.691  1.00  0.00     0.031 A 
ATOM     40  C   UNL A   1      40.139  29.374  30.895  1.00  0.00     0.074 A 
ATOM     41  C   UNL A   1      40.059  27.717  29.060  1.00  0.00     0.049 A 
ATOM     42  N   UNL A   1      41.261  29.043  31.481  1.00  0.00    -0.248 NA
ATOM     43  C   UNL A   1      39.456  30.522  31.512  1.00  0.00     0.031 C 
ATOM     44  C   UNL A   1      39.532  27.056  27.865  1.00  0.00     0.029 A 
ATOM     45  N   UNL A   1      41.213  27.028  29.338  1.00  0.00    -0.354 N 
ATOM     46  C   UNL A   1      41.414  29.939  32.532  1.00  0.00     0.074 A 
ATOM     47  C   UNL A   1      40.309  30.869  32.463  1.00  0.00     0.031 C 
ATOM     48  C   UNL A   1      40.340  26.036  27.535  1.00  0.00     0.029 A 
ATOM     49  C   UNL A   1      41.464  25.997  28.466  1.00  0.00     0.049 A 
ATOM     50  H   UNL A   1      41.806  27.253  30.091  1.00  0.00     0.167 HD
ATOM     51  C   UNL A   1      42.372  29.963  33.486  1.00  0.00     0.037 A 
ATOM     52  C   UNL A   1      42.484  25.118  28.423  1.00  0.00     0.037 A 
ATOM     53  C   UNL A   1      43.459  29.025  33.560  1.00  0.00     0.049 A 
ATOM     54  C   UNL A   1      43.560  25.194  29.471  1.00  0.00     0.074 A 
ATOM     55  C   UNL A   1      44.459  28.942  34.512  1.00  0.00     0.029 A 
ATOM     56  N   UNL A   1      43.689  28.007  32.646  1.00  0.00    -0.354 N 
ATOM     57  N   UNL A   1      43.663  26.011  30.492  1.00  0.00    -0.248 NA
ATOM     58  C   UNL A   1      44.661  24.227  29.365  1.00  0.00     0.031 C 
ATOM     59  C   UNL A   1      45.328  27.911  34.144  1.00  0.00     0.029 A 
ATOM     60  C   UNL A   1      44.835  27.312  32.996  1.00  0.00     0.049 A 
ATOM     61  H   UNL A   1      43.124  27.809  31.865  1.00  0.00     0.167 HD
ATOM     62  C   UNL A   1      44.821  25.641  31.162  1.00  0.00     0.074 A 
ATOM     63  C   UNL A   1      45.379  24.515  30.442  1.00  0.00     0.031 C 
ATOM     64  C   UNL A   1      45.376  26.188  32.272  1.00  0.00     0.037 A 
BRANCH  51  65
ATOM     65  C   UNL A   1      42.284  31.028  34.540  1.00  0.00     0.057 A 
ATOM     66  C   UNL A   1      41.565  30.831  35.727  1.00  0.00     0.134 A 
ATOM     67  C   UNL A   1      42.983  32.234  34.402  1.00  0.00     0.134 A 
ATOM     68  F   UNL A   1      40.863  29.703  35.919  1.00  0.00    -0.206 F 
ATOM     69  C   UNL A   1      41.534  31.800  36.731  1.00  0.00     0.040 A 
ATOM     70  C   UNL A   1      42.983  33.198  35.411  1.00  0.00     0.040 A 
ATOM     71  F   UNL A   1      43.694  32.486  33.293  1.00  0.00    -0.206 F 
ATOM     72  C   UNL A   1      42.254  32.982  36.579  1.00  0.00     0.006 A 
ENDBRANCH  51  65
BRANCH  52  73
ATOM     73  C   UNL A   1      42.517  24.074  27.366  1.00  0.00     0.057 A 
ATOM     74  C   UNL A   1      43.027  24.353  26.093  1.00  0.00     0.134 A 
ATOM     75  C   UNL A   1      42.055  22.773  27.604  1.00  0.00     0.134 A 
ATOM     76  F   UNL A   1      43.468  25.584  25.797  1.00  0.00    -0.206 F 
ATOM     77  C   UNL A   1      43.066  23.381  25.091  1.00  0.00     0.040 A 
ATOM     78  C   UNL A   1      42.115  21.784  26.620  1.00  0.00     0.040 A 
ATOM     79  F   UNL A   1      41.561  22.438  28.804  1.00  0.00    -0.206 F 
ATOM     80  C   UNL A   1      42.616  22.089  25.357  1.00  0.00     0.006 A 
ENDBRANCH  52  73
BRANCH  64  81
ATOM     81  C   UNL A   1      46.643  25.575  32.794  1.00  0.00     0.057 A 
ATOM     82  C   UNL A   1      47.903  25.996  32.352  1.00  0.00     0.134 A 
ATOM     83  C   UNL A   1      46.603  24.615  33.815  1.00  0.00     0.134 A 
ATOM     84  F   UNL A   1      48.010  26.906  31.371  1.00  0.00    -0.206 F 
ATOM     85  C   UNL A   1      49.077  25.475  32.896  1.00  0.00     0.040 A 
ATOM     86  C   UNL A   1      47.771  24.111  34.389  1.00  0.00     0.040 A 
ATOM     87  F   UNL A   1      45.429  24.178  34.294  1.00  0.00    -0.206 F 
ATOM     88  C   UNL A   1      49.013  24.539  33.927  1.00  0.00     0.006 A 
ENDBRANCH  64  81
ENDBRANCH  38  39
ENDBRANCH  30  33
ENDBRANCH  28  29
ENDBRANCH  27  28
ENDBRANCH  26  27
ENDBRANCH   1  26
TORSDOF 18
ENDMDL
