MODEL 1
REMARK VINA RESULT:     -12.1      0.000      0.000
REMARK SMILES C#Cc1ccc2c(c1)C=C(C(=O)NCCCCCCNC(=O)c1ccc(-c3c4nc(c(-c5c(F)cccc5F)c5ccc([nH]5)c(-c5c(F)cccc5F)c5nc(c(-c6c(F)cccc6F)c6ccc3[nH]6)C=C5)C=C4)cc1)[C@@H](C(F)(F)F)O2
REMARK SMILES IDX 17 1 16 2 15 3 14 4 13 5 11 6 12 7 10 9 3 10 4 11 8 12 5 13
REMARK SMILES IDX 7 14 6 15 9 16 82 17 77 18 2 19 1 20 78 21 79 22 80 23 81 24
REMARK SMILES IDX 18 25 19 26 20 27 21 28 22 30 23 31 24 32 76 33 25 34 75 35
REMARK SMILES IDX 26 36 27 37 28 38 69 39 29 40 74 41 68 42 70 43 30 44 73 45
REMARK SMILES IDX 67 46 66 47 31 49 57 50 40 51 56 52 41 53 44 54 55 55 71 56
REMARK SMILES IDX 42 57 43 58 54 60 72 61 45 62 32 63 33 64 38 65 34 66 35 67
REMARK SMILES IDX 37 68 39 69 36 70 58 71 59 72 64 73 60 74 61 75 63 76 65 77
REMARK SMILES IDX 62 78 46 79 47 80 52 81 48 82 49 83 51 84 53 85 50 86
REMARK H PARENT 13 8 20 29 70 48 44 59
REMARK Flexibility Score: inf
ROOT
ATOM      1  C   UNL A   1      31.833  30.451  26.088  1.00  0.00     0.002 C 
ENDROOT
BRANCH   1   2
ATOM      2  C   UNL A   1      32.983  29.692  26.765  1.00  0.00     0.002 C 
BRANCH   2   3
ATOM      3  C   UNL A   1      33.849  28.870  25.811  1.00  0.00     0.021 C 
BRANCH   3   4
ATOM      4  C   UNL A   1      33.823  27.379  26.120  1.00  0.00     0.116 C 
BRANCH   4   5
ATOM      5  N   UNL A   1      33.851  26.577  24.911  1.00  0.00    -0.352 N 
ATOM      6  C   UNL A   1      33.003  26.284  23.897  1.00  0.00     0.251 C 
ATOM      7  O   UNL A   1      33.459  25.550  23.017  1.00  0.00    -0.270 OA
ATOM      8  H   UNL A   1      34.719  26.126  24.797  1.00  0.00     0.163 HD
BRANCH   6   9
ATOM      9  C   UNL A   1      31.597  26.779  23.793  1.00  0.00     0.067 C 
ATOM     10  C   UNL A   1      28.528  30.272  22.466  1.00  0.00     0.025 A 
ATOM     11  C   UNL A   1      27.450  29.432  22.751  1.00  0.00     0.021 A 
ATOM     12  C   UNL A   1      29.842  29.817  22.633  1.00  0.00     0.029 A 
ATOM     13  C   UNL A   1      27.681  28.140  23.208  1.00  0.00     0.048 A 
ATOM     14  C   UNL A   1      30.077  28.518  23.093  1.00  0.00     0.018 A 
ATOM     15  C   UNL A   1      28.987  27.696  23.384  1.00  0.00     0.128 A 
ATOM     16  C   UNL A   1      31.429  27.988  23.228  1.00  0.00     0.025 C 
ATOM     17  O   UNL A   1      29.114  26.412  23.814  1.00  0.00    -0.475 OA
ATOM     18  C   UNL A   1      30.413  26.011  24.307  1.00  0.00     0.314 C 
BRANCH  10  19
ATOM     19  C   UNL A   1      28.275  31.595  21.990  1.00  0.00    -0.070 C 
ATOM     20  C   UNL A   1      28.029  32.703  21.595  1.00  0.00     0.010 C 
ENDBRANCH  10  19
BRANCH  18  21
ATOM     21  C   UNL A   1      30.365  25.957  25.846  1.00  0.00     0.429 C 
ATOM     22  F   UNL A   1      31.280  25.072  26.316  1.00  0.00    -0.167 F 
ATOM     23  F   UNL A   1      30.656  27.144  26.427  1.00  0.00    -0.167 F 
ATOM     24  F   UNL A   1      29.155  25.578  26.314  1.00  0.00    -0.167 F 
ENDBRANCH  18  21
ENDBRANCH   6   9
ENDBRANCH   4   5
ENDBRANCH   3   4
ENDBRANCH   2   3
ENDBRANCH   1   2
BRANCH   1  25
ATOM     25  C   UNL A   1      31.519  31.818  26.701  1.00  0.00     0.021 C 
BRANCH  25  26
ATOM     26  C   UNL A   1      32.738  32.530  27.269  1.00  0.00     0.116 C 
BRANCH  26  27
ATOM     27  N   UNL A   1      32.469  33.932  27.551  1.00  0.00    -0.352 N 
ATOM     28  C   UNL A   1      33.018  34.748  28.509  1.00  0.00     0.251 C 
ATOM     29  H   UNL A   1      31.796  34.357  26.972  1.00  0.00     0.163 HD
ATOM     30  O   UNL A   1      32.530  35.846  28.749  1.00  0.00    -0.269 OA
BRANCH  28  31
ATOM     31  C   UNL A   1      34.186  34.265  29.273  1.00  0.00     0.039 A 
ATOM     32  C   UNL A   1      35.476  34.459  28.777  1.00  0.00     0.014 A 
ATOM     33  C   UNL A   1      33.981  33.555  30.456  1.00  0.00     0.014 A 
ATOM     34  C   UNL A   1      36.537  33.773  29.348  1.00  0.00     0.010 A 
ATOM     35  C   UNL A   1      35.070  32.956  31.093  1.00  0.00     0.010 A 
ATOM     36  C   UNL A   1      36.347  33.006  30.508  1.00  0.00    -0.014 A 
BRANCH  36  37
ATOM     37  C   UNL A   1      37.483  32.236  31.074  1.00  0.00     0.031 A 
ATOM     38  C   UNL A   1      38.002  32.544  32.455  1.00  0.00     0.074 A 
ATOM     39  C   UNL A   1      38.021  31.226  30.364  1.00  0.00     0.049 A 
ATOM     40  N   UNL A   1      39.008  32.009  33.099  1.00  0.00    -0.248 NA
ATOM     41  C   UNL A   1      37.301  33.596  33.210  1.00  0.00     0.031 C 
ATOM     42  C   UNL A   1      37.587  30.804  29.030  1.00  0.00     0.029 A 
ATOM     43  N   UNL A   1      39.042  30.364  30.668  1.00  0.00    -0.354 N 
ATOM     44  C   UNL A   1      39.073  32.667  34.322  1.00  0.00     0.074 A 
ATOM     45  C   UNL A   1      38.030  33.670  34.313  1.00  0.00     0.031 C 
ATOM     46  C   UNL A   1      38.311  29.742  28.647  1.00  0.00     0.029 A 
ATOM     47  C   UNL A   1      39.312  29.461  29.669  1.00  0.00     0.049 A 
ATOM     48  H   UNL A   1      39.534  30.389  31.520  1.00  0.00     0.167 HD
ATOM     49  C   UNL A   1      39.916  32.449  35.360  1.00  0.00     0.037 A 
ATOM     50  C   UNL A   1      40.281  28.532  29.571  1.00  0.00     0.037 A 
ATOM     51  C   UNL A   1      40.953  31.450  35.364  1.00  0.00     0.049 A 
ATOM     52  C   UNL A   1      41.267  28.386  30.697  1.00  0.00     0.074 A 
ATOM     53  C   UNL A   1      41.854  31.146  36.371  1.00  0.00     0.029 A 
ATOM     54  N   UNL A   1      41.236  30.599  34.306  1.00  0.00    -0.354 N 
ATOM     55  N   UNL A   1      41.308  29.007  31.851  1.00  0.00    -0.248 NA
ATOM     56  C   UNL A   1      42.344  27.407  30.502  1.00  0.00     0.031 C 
ATOM     57  C   UNL A   1      42.724  30.160  35.895  1.00  0.00     0.029 A 
ATOM     58  C   UNL A   1      42.317  29.793  34.623  1.00  0.00     0.049 A 
ATOM     59  H   UNL A   1      40.741  30.572  33.455  1.00  0.00     0.167 HD
ATOM     60  C   UNL A   1      42.394  28.469  32.532  1.00  0.00     0.074 A 
ATOM     61  C   UNL A   1      42.966  27.457  31.669  1.00  0.00     0.031 C 
ATOM     62  C   UNL A   1      42.874  28.783  33.760  1.00  0.00     0.037 A 
BRANCH  49  63
ATOM     63  C   UNL A   1      39.771  33.331  36.569  1.00  0.00     0.057 A 
ATOM     64  C   UNL A   1      38.865  33.002  37.587  1.00  0.00     0.134 A 
ATOM     65  C   UNL A   1      40.500  34.520  36.718  1.00  0.00     0.134 A 
ATOM     66  F   UNL A   1      38.125  31.887  37.505  1.00  0.00    -0.206 F 
ATOM     67  C   UNL A   1      38.692  33.817  38.706  1.00  0.00     0.040 A 
ATOM     68  C   UNL A   1      40.361  35.326  37.851  1.00  0.00     0.040 A 
ATOM     69  F   UNL A   1      41.390  34.893  35.787  1.00  0.00    -0.206 F 
ATOM     70  C   UNL A   1      39.450  34.978  38.846  1.00  0.00     0.006 A 
ENDBRANCH  49  63
BRANCH  50  71
ATOM     71  C   UNL A   1      40.402  27.694  28.351  1.00  0.00     0.057 A 
ATOM     72  C   UNL A   1      41.152  28.116  27.245  1.00  0.00     0.134 A 
ATOM     73  C   UNL A   1      39.824  26.420  28.286  1.00  0.00     0.134 A 
ATOM     74  F   UNL A   1      41.725  29.328  27.236  1.00  0.00    -0.206 F 
ATOM     75  C   UNL A   1      41.328  27.301  26.126  1.00  0.00     0.040 A 
ATOM     76  C   UNL A   1      40.025  25.581  27.191  1.00  0.00     0.040 A 
ATOM     77  F   UNL A   1      39.107  25.953  29.319  1.00  0.00    -0.206 F 
ATOM     78  C   UNL A   1      40.778  26.022  26.106  1.00  0.00     0.006 A 
ENDBRANCH  50  71
BRANCH  62  79
ATOM     79  C   UNL A   1      44.040  27.981  34.265  1.00  0.00     0.057 A 
ATOM     80  C   UNL A   1      43.830  26.763  34.925  1.00  0.00     0.134 A 
ATOM     81  C   UNL A   1      45.365  28.410  34.113  1.00  0.00     0.134 A 
ATOM     82  F   UNL A   1      42.586  26.296  35.117  1.00  0.00    -0.206 F 
ATOM     83  C   UNL A   1      44.893  25.999  35.409  1.00  0.00     0.040 A 
ATOM     84  C   UNL A   1      46.439  27.636  34.559  1.00  0.00     0.040 A 
ATOM     85  F   UNL A   1      45.641  29.562  33.482  1.00  0.00    -0.206 F 
ATOM     86  C   UNL A   1      46.203  26.430  35.215  1.00  0.00     0.006 A 
ENDBRANCH  62  79
ENDBRANCH  36  37
ENDBRANCH  28  31
ENDBRANCH  26  27
ENDBRANCH  25  26
ENDBRANCH   1  25
TORSDOF 15
ENDMDL
MODEL 2
REMARK VINA RESULT:     -12.0      5.691     10.577
REMARK SMILES C#Cc1ccc2c(c1)C=C(C(=O)NCCCCCCNC(=O)c1ccc(-c3c4nc(c(-c5c(F)cccc5F)c5ccc([nH]5)c(-c5c(F)cccc5F)c5nc(c(-c6c(F)cccc6F)c6ccc3[nH]6)C=C5)C=C4)cc1)[C@@H](C(F)(F)F)O2
REMARK SMILES IDX 17 1 16 2 15 3 14 4 13 5 11 6 12 7 10 9 3 10 4 11 8 12 5 13
REMARK SMILES IDX 7 14 6 15 9 16 82 17 77 18 2 19 1 20 78 21 79 22 80 23 81 24
REMARK SMILES IDX 18 25 19 26 20 27 21 28 22 30 23 31 24 32 76 33 25 34 75 35
REMARK SMILES IDX 26 36 27 37 28 38 69 39 29 40 74 41 68 42 70 43 30 44 73 45
REMARK SMILES IDX 67 46 66 47 31 49 57 50 40 51 56 52 41 53 44 54 55 55 71 56
REMARK SMILES IDX 42 57 43 58 54 60 72 61 45 62 32 63 33 64 38 65 34 66 35 67
REMARK SMILES IDX 37 68 39 69 36 70 58 71 59 72 64 73 60 74 61 75 63 76 65 77
REMARK SMILES IDX 62 78 46 79 47 80 52 81 48 82 49 83 51 84 53 85 50 86
REMARK H PARENT 13 8 20 29 70 48 44 59
REMARK Flexibility Score: inf
ROOT
ATOM      1  C   UNL A   1      36.601  20.979  25.156  1.00  0.00     0.002 C 
ENDROOT
BRANCH   1   2
ATOM      2  C   UNL A   1      37.008  22.459  25.194  1.00  0.00     0.002 C 
BRANCH   2   3
ATOM      3  C   UNL A   1      36.153  23.329  26.115  1.00  0.00     0.021 C 
BRANCH   3   4
ATOM      4  C   UNL A   1      35.439  24.453  25.376  1.00  0.00     0.116 C 
BRANCH   4   5
ATOM      5  N   UNL A   1      34.052  24.572  25.786  1.00  0.00    -0.352 N 
ATOM      6  C   UNL A   1      32.897  23.894  25.582  1.00  0.00     0.251 C 
ATOM      7  O   UNL A   1      31.908  24.342  26.168  1.00  0.00    -0.270 OA
ATOM      8  H   UNL A   1      33.913  25.353  26.369  1.00  0.00     0.163 HD
BRANCH   6   9
ATOM      9  C   UNL A   1      32.761  22.685  24.716  1.00  0.00     0.067 C 
ATOM     10  C   UNL A   1      33.147  17.891  24.214  1.00  0.00     0.025 A 
ATOM     11  C   UNL A   1      32.556  17.977  22.951  1.00  0.00     0.021 A 
ATOM     12  C   UNL A   1      33.330  19.044  24.987  1.00  0.00     0.029 A 
ATOM     13  C   UNL A   1      32.153  19.212  22.457  1.00  0.00     0.048 A 
ATOM     14  C   UNL A   1      32.925  20.288  24.493  1.00  0.00     0.018 A 
ATOM     15  C   UNL A   1      32.348  20.356  23.225  1.00  0.00     0.128 A 
ATOM     16  C   UNL A   1      33.049  21.504  25.290  1.00  0.00     0.025 C 
ATOM     17  O   UNL A   1      31.903  21.514  22.669  1.00  0.00    -0.475 OA
ATOM     18  C   UNL A   1      32.357  22.748  23.271  1.00  0.00     0.314 C 
BRANCH  10  19
ATOM     19  C   UNL A   1      33.548  16.614  24.710  1.00  0.00    -0.070 C 
ATOM     20  C   UNL A   1      33.911  15.539  25.106  1.00  0.00     0.010 C 
ENDBRANCH  10  19
BRANCH  18  21
ATOM     21  C   UNL A   1      33.451  23.364  22.376  1.00  0.00     0.429 C 
ATOM     22  F   UNL A   1      34.668  22.868  22.711  1.00  0.00    -0.167 F 
ATOM     23  F   UNL A   1      33.279  23.088  21.063  1.00  0.00    -0.167 F 
ATOM     24  F   UNL A   1      33.514  24.710  22.488  1.00  0.00    -0.167 F 
ENDBRANCH  18  21
ENDBRANCH   6   9
ENDBRANCH   4   5
ENDBRANCH   3   4
ENDBRANCH   2   3
ENDBRANCH   1   2
BRANCH   1  25
ATOM     25  C   UNL A   1      37.759  20.002  24.942  1.00  0.00     0.021 C 
BRANCH  25  26
ATOM     26  C   UNL A   1      39.004  20.339  25.749  1.00  0.00     0.116 C 
BRANCH  26  27
ATOM     27  N   UNL A   1      39.918  19.209  25.840  1.00  0.00    -0.352 N 
ATOM     28  C   UNL A   1      41.277  19.203  26.030  1.00  0.00     0.251 C 
ATOM     29  H   UNL A   1      39.500  18.322  25.754  1.00  0.00     0.163 HD
ATOM     30  O   UNL A   1      41.925  18.175  25.874  1.00  0.00    -0.269 OA
BRANCH  28  31
ATOM     31  C   UNL A   1      41.953  20.466  26.389  1.00  0.00     0.039 A 
ATOM     32  C   UNL A   1      42.033  20.861  27.725  1.00  0.00     0.014 A 
ATOM     33  C   UNL A   1      42.448  21.287  25.376  1.00  0.00     0.014 A 
ATOM     34  C   UNL A   1      42.416  22.159  28.031  1.00  0.00     0.010 A 
ATOM     35  C   UNL A   1      42.937  22.554  25.699  1.00  0.00     0.010 A 
ATOM     36  C   UNL A   1      42.865  23.024  27.022  1.00  0.00    -0.014 A 
BRANCH  36  37
ATOM     37  C   UNL A   1      43.220  24.426  27.360  1.00  0.00     0.031 A 
ATOM     38  C   UNL A   1      44.652  24.889  27.290  1.00  0.00     0.074 A 
ATOM     39  C   UNL A   1      42.247  25.297  27.687  1.00  0.00     0.049 A 
ATOM     40  N   UNL A   1      45.159  26.059  27.586  1.00  0.00    -0.248 NA
ATOM     41  C   UNL A   1      45.648  23.907  26.829  1.00  0.00     0.031 C 
ATOM     42  C   UNL A   1      40.818  24.984  27.757  1.00  0.00     0.029 A 
ATOM     43  N   UNL A   1      42.311  26.627  28.011  1.00  0.00    -0.354 N 
ATOM     44  C   UNL A   1      46.528  25.950  27.368  1.00  0.00     0.074 A 
ATOM     45  C   UNL A   1      46.778  24.587  26.953  1.00  0.00     0.031 C 
ATOM     46  C   UNL A   1      40.138  26.097  28.068  1.00  0.00     0.029 A 
ATOM     47  C   UNL A   1      41.086  27.180  28.297  1.00  0.00     0.049 A 
ATOM     48  H   UNL A   1      43.152  27.138  28.037  1.00  0.00     0.167 HD
ATOM     49  C   UNL A   1      47.486  26.900  27.490  1.00  0.00     0.037 A 
ATOM     50  C   UNL A   1      40.765  28.413  28.731  1.00  0.00     0.037 A 
ATOM     51  C   UNL A   1      47.232  28.257  27.905  1.00  0.00     0.049 A 
ATOM     52  C   UNL A   1      41.864  29.415  28.958  1.00  0.00     0.074 A 
ATOM     53  C   UNL A   1      48.134  29.296  28.052  1.00  0.00     0.029 A 
ATOM     54  N   UNL A   1      45.986  28.758  28.248  1.00  0.00    -0.354 N 
ATOM     55  N   UNL A   1      43.151  29.301  28.737  1.00  0.00    -0.248 NA
ATOM     56  C   UNL A   1      41.461  30.718  29.501  1.00  0.00     0.031 C 
ATOM     57  C   UNL A   1      47.445  30.405  28.551  1.00  0.00     0.029 A 
ATOM     58  C   UNL A   1      46.101  30.083  28.638  1.00  0.00     0.049 A 
ATOM     59  H   UNL A   1      45.144  28.249  28.218  1.00  0.00     0.167 HD
ATOM     60  C   UNL A   1      43.705  30.528  29.079  1.00  0.00     0.074 A 
ATOM     61  C   UNL A   1      42.610  31.376  29.501  1.00  0.00     0.031 C 
ATOM     62  C   UNL A   1      45.002  30.920  29.048  1.00  0.00     0.037 A 
BRANCH  49  63
ATOM     63  C   UNL A   1      48.905  26.496  27.203  1.00  0.00     0.057 A 
ATOM     64  C   UNL A   1      49.724  25.995  28.223  1.00  0.00     0.134 A 
ATOM     65  C   UNL A   1      49.476  26.628  25.929  1.00  0.00     0.134 A 
ATOM     66  F   UNL A   1      49.250  25.853  29.470  1.00  0.00    -0.206 F 
ATOM     67  C   UNL A   1      51.053  25.638  27.989  1.00  0.00     0.040 A 
ATOM     68  C   UNL A   1      50.794  26.242  25.673  1.00  0.00     0.040 A 
ATOM     69  F   UNL A   1      48.748  27.094  24.903  1.00  0.00    -0.206 F 
ATOM     70  C   UNL A   1      51.588  25.751  26.707  1.00  0.00     0.006 A 
ENDBRANCH  49  63
BRANCH  50  71
ATOM     71  C   UNL A   1      39.352  28.767  29.023  1.00  0.00     0.057 A 
ATOM     72  C   UNL A   1      38.792  28.556  30.290  1.00  0.00     0.134 A 
ATOM     73  C   UNL A   1      38.547  29.385  28.059  1.00  0.00     0.134 A 
ATOM     74  F   UNL A   1      39.505  27.959  31.256  1.00  0.00    -0.206 F 
ATOM     75  C   UNL A   1      37.489  28.953  30.589  1.00  0.00     0.040 A 
ATOM     76  C   UNL A   1      37.256  29.822  28.357  1.00  0.00     0.040 A 
ATOM     77  F   UNL A   1      39.031  29.629  26.832  1.00  0.00    -0.206 F 
ATOM     78  C   UNL A   1      36.723  29.605  29.625  1.00  0.00     0.006 A 
ENDBRANCH  50  71
BRANCH  62  79
ATOM     79  C   UNL A   1      45.297  32.345  29.424  1.00  0.00     0.057 A 
ATOM     80  C   UNL A   1      45.242  33.359  28.459  1.00  0.00     0.134 A 
ATOM     81  C   UNL A   1      45.645  32.718  30.730  1.00  0.00     0.134 A 
ATOM     82  F   UNL A   1      44.928  33.073  27.186  1.00  0.00    -0.206 F 
ATOM     83  C   UNL A   1      45.516  34.689  28.777  1.00  0.00     0.040 A 
ATOM     84  C   UNL A   1      45.882  34.052  31.069  1.00  0.00     0.040 A 
ATOM     85  F   UNL A   1      45.705  31.800  31.707  1.00  0.00    -0.206 F 
ATOM     86  C   UNL A   1      45.825  35.040  30.089  1.00  0.00     0.006 A 
ENDBRANCH  62  79
ENDBRANCH  36  37
ENDBRANCH  28  31
ENDBRANCH  26  27
ENDBRANCH  25  26
ENDBRANCH   1  25
TORSDOF 15
ENDMDL
MODEL 3
REMARK VINA RESULT:     -12.0      5.241      9.567
REMARK SMILES C#Cc1ccc2c(c1)C=C(C(=O)NCCCCCCNC(=O)c1ccc(-c3c4nc(c(-c5c(F)cccc5F)c5ccc([nH]5)c(-c5c(F)cccc5F)c5nc(c(-c6c(F)cccc6F)c6ccc3[nH]6)C=C5)C=C4)cc1)[C@@H](C(F)(F)F)O2
REMARK SMILES IDX 17 1 16 2 15 3 14 4 13 5 11 6 12 7 10 9 3 10 4 11 8 12 5 13
REMARK SMILES IDX 7 14 6 15 9 16 82 17 77 18 2 19 1 20 78 21 79 22 80 23 81 24
REMARK SMILES IDX 18 25 19 26 20 27 21 28 22 30 23 31 24 32 76 33 25 34 75 35
REMARK SMILES IDX 26 36 27 37 28 38 69 39 29 40 74 41 68 42 70 43 30 44 73 45
REMARK SMILES IDX 67 46 66 47 31 49 57 50 40 51 56 52 41 53 44 54 55 55 71 56
REMARK SMILES IDX 42 57 43 58 54 60 72 61 45 62 32 63 33 64 38 65 34 66 35 67
REMARK SMILES IDX 37 68 39 69 36 70 58 71 59 72 64 73 60 74 61 75 63 76 65 77
REMARK SMILES IDX 62 78 46 79 47 80 52 81 48 82 49 83 51 84 53 85 50 86
REMARK H PARENT 13 8 20 29 70 48 44 59
REMARK Flexibility Score: inf
ROOT
ATOM      1  C   UNL A   1      36.846  21.966  24.206  1.00  0.00     0.002 C 
ENDROOT
BRANCH   1   2
ATOM      2  C   UNL A   1      37.004  23.311  24.928  1.00  0.00     0.002 C 
BRANCH   2   3
ATOM      3  C   UNL A   1      35.796  23.729  25.765  1.00  0.00     0.021 C 
BRANCH   3   4
ATOM      4  C   UNL A   1      34.898  24.731  25.053  1.00  0.00     0.116 C 
BRANCH   4   5
ATOM      5  N   UNL A   1      33.521  24.635  25.502  1.00  0.00    -0.352 N 
ATOM      6  C   UNL A   1      32.492  23.765  25.365  1.00  0.00     0.251 C 
ATOM      7  O   UNL A   1      31.456  24.067  25.963  1.00  0.00    -0.270 OA
ATOM      8  H   UNL A   1      33.267  25.409  26.055  1.00  0.00     0.163 HD
BRANCH   6   9
ATOM      9  C   UNL A   1      32.541  22.510  24.556  1.00  0.00     0.067 C 
ATOM     10  C   UNL A   1      33.750  17.839  24.236  1.00  0.00     0.025 A 
ATOM     11  C   UNL A   1      33.109  17.759  22.998  1.00  0.00     0.021 A 
ATOM     12  C   UNL A   1      33.754  19.042  24.953  1.00  0.00     0.029 A 
ATOM     13  C   UNL A   1      32.476  18.879  22.472  1.00  0.00     0.048 A 
ATOM     14  C   UNL A   1      33.119  20.170  24.426  1.00  0.00     0.018 A 
ATOM     15  C   UNL A   1      32.493  20.075  23.182  1.00  0.00     0.128 A 
ATOM     16  C   UNL A   1      33.054  21.426  25.165  1.00  0.00     0.025 C 
ATOM     17  O   UNL A   1      31.831  21.109  22.598  1.00  0.00    -0.475 OA
ATOM     18  C   UNL A   1      32.081  22.431  23.129  1.00  0.00     0.314 C 
BRANCH  10  19
ATOM     19  C   UNL A   1      34.388  16.677  24.767  1.00  0.00    -0.070 C 
ATOM     20  C   UNL A   1      34.932  15.689  25.183  1.00  0.00     0.010 C 
ENDBRANCH  10  19
BRANCH  18  21
ATOM     21  C   UNL A   1      33.016  23.185  22.163  1.00  0.00     0.429 C 
ATOM     22  F   UNL A   1      34.312  22.985  22.508  1.00  0.00    -0.167 F 
ATOM     23  F   UNL A   1      32.899  22.770  20.880  1.00  0.00    -0.167 F 
ATOM     24  F   UNL A   1      32.796  24.519  22.164  1.00  0.00    -0.167 F 
ENDBRANCH  18  21
ENDBRANCH   6   9
ENDBRANCH   4   5
ENDBRANCH   3   4
ENDBRANCH   2   3
ENDBRANCH   1   2
BRANCH   1  25
ATOM     25  C   UNL A   1      37.427  20.764  24.954  1.00  0.00     0.021 C 
BRANCH  25  26
ATOM     26  C   UNL A   1      38.740  21.060  25.665  1.00  0.00     0.116 C 
BRANCH  26  27
ATOM     27  N   UNL A   1      39.610  19.895  25.709  1.00  0.00    -0.352 N 
ATOM     28  C   UNL A   1      40.948  19.819  26.006  1.00  0.00     0.251 C 
ATOM     29  H   UNL A   1      39.177  19.037  25.496  1.00  0.00     0.163 HD
ATOM     30  O   UNL A   1      41.578  18.790  25.795  1.00  0.00    -0.269 OA
BRANCH  28  31
ATOM     31  C   UNL A   1      41.627  21.013  26.550  1.00  0.00     0.039 A 
ATOM     32  C   UNL A   1      41.624  21.253  27.925  1.00  0.00     0.014 A 
ATOM     33  C   UNL A   1      42.208  21.928  25.672  1.00  0.00     0.014 A 
ATOM     34  C   UNL A   1      42.015  22.496  28.401  1.00  0.00     0.010 A 
ATOM     35  C   UNL A   1      42.702  23.134  26.168  1.00  0.00     0.010 A 
ATOM     36  C   UNL A   1      42.551  23.455  27.529  1.00  0.00    -0.014 A 
BRANCH  36  37
ATOM     37  C   UNL A   1      42.914  24.799  28.047  1.00  0.00     0.031 A 
ATOM     38  C   UNL A   1      41.848  25.834  28.296  1.00  0.00     0.074 A 
ATOM     39  C   UNL A   1      44.199  25.075  28.336  1.00  0.00     0.049 A 
ATOM     40  N   UNL A   1      41.975  27.071  28.706  1.00  0.00    -0.248 NA
ATOM     41  C   UNL A   1      40.454  25.428  28.050  1.00  0.00     0.031 C 
ATOM     42  C   UNL A   1      45.322  24.148  28.173  1.00  0.00     0.029 A 
ATOM     43  N   UNL A   1      44.778  26.210  28.840  1.00  0.00    -0.354 N 
ATOM     44  C   UNL A   1      40.688  27.595  28.749  1.00  0.00     0.074 A 
ATOM     45  C   UNL A   1      39.797  26.555  28.283  1.00  0.00     0.031 C 
ATOM     46  C   UNL A   1      46.447  24.738  28.602  1.00  0.00     0.029 A 
ATOM     47  C   UNL A   1      46.140  26.109  28.992  1.00  0.00     0.049 A 
ATOM     48  H   UNL A   1      44.269  27.020  29.070  1.00  0.00     0.167 HD
ATOM     49  C   UNL A   1      40.284  28.825  29.149  1.00  0.00     0.037 A 
ATOM     50  C   UNL A   1      47.046  27.029  29.370  1.00  0.00     0.037 A 
ATOM     51  C   UNL A   1      41.175  29.858  29.611  1.00  0.00     0.049 A 
ATOM     52  C   UNL A   1      46.577  28.418  29.708  1.00  0.00     0.074 A 
ATOM     53  C   UNL A   1      40.863  31.135  30.046  1.00  0.00     0.029 A 
ATOM     54  N   UNL A   1      42.555  29.737  29.688  1.00  0.00    -0.354 N 
ATOM     55  N   UNL A   1      45.357  28.895  29.754  1.00  0.00    -0.248 NA
ATOM     56  C   UNL A   1      47.619  29.398  30.043  1.00  0.00     0.031 C 
ATOM     57  C   UNL A   1      42.058  31.808  30.319  1.00  0.00     0.029 A 
ATOM     58  C   UNL A   1      43.110  30.926  30.132  1.00  0.00     0.049 A 
ATOM     59  H   UNL A   1      43.064  28.926  29.461  1.00  0.00     0.167 HD
ATOM     60  C   UNL A   1      45.483  30.219  30.157  1.00  0.00     0.074 A 
ATOM     61  C   UNL A   1      46.896  30.459  30.363  1.00  0.00     0.031 C 
ATOM     62  C   UNL A   1      44.518  31.152  30.341  1.00  0.00     0.037 A 
BRANCH  49  63
ATOM     63  C   UNL A   1      38.815  29.132  29.074  1.00  0.00     0.057 A 
ATOM     64  C   UNL A   1      38.235  29.552  27.869  1.00  0.00     0.134 A 
ATOM     65  C   UNL A   1      37.975  29.043  30.193  1.00  0.00     0.134 A 
ATOM     66  F   UNL A   1      38.980  29.673  26.760  1.00  0.00    -0.206 F 
ATOM     67  C   UNL A   1      36.879  29.869  27.779  1.00  0.00     0.040 A 
ATOM     68  C   UNL A   1      36.609  29.323  30.108  1.00  0.00     0.040 A 
ATOM     69  F   UNL A   1      38.460  28.639  31.377  1.00  0.00    -0.206 F 
ATOM     70  C   UNL A   1      36.059  29.744  28.899  1.00  0.00     0.006 A 
ENDBRANCH  49  63
BRANCH  50  71
ATOM     71  C   UNL A   1      48.492  26.692  29.413  1.00  0.00     0.057 A 
ATOM     72  C   UNL A   1      49.327  26.911  28.309  1.00  0.00     0.134 A 
ATOM     73  C   UNL A   1      49.088  26.203  30.581  1.00  0.00     0.134 A 
ATOM     74  F   UNL A   1      48.820  27.368  27.154  1.00  0.00    -0.206 F 
ATOM     75  C   UNL A   1      50.698  26.663  28.368  1.00  0.00     0.040 A 
ATOM     76  C   UNL A   1      50.464  25.988  30.666  1.00  0.00     0.040 A 
ATOM     77  F   UNL A   1      48.345  25.987  31.677  1.00  0.00    -0.206 F 
ATOM     78  C   UNL A   1      51.273  26.217  29.556  1.00  0.00     0.006 A 
ENDBRANCH  50  71
BRANCH  62  79
ATOM     79  C   UNL A   1      44.953  32.499  30.845  1.00  0.00     0.057 A 
ATOM     80  C   UNL A   1      45.051  32.743  32.221  1.00  0.00     0.134 A 
ATOM     81  C   UNL A   1      45.266  33.556  29.980  1.00  0.00     0.134 A 
ATOM     82  F   UNL A   1      44.755  31.781  33.108  1.00  0.00    -0.206 F 
ATOM     83  C   UNL A   1      45.448  33.985  32.718  1.00  0.00     0.040 A 
ATOM     84  C   UNL A   1      45.702  34.792  30.465  1.00  0.00     0.040 A 
ATOM     85  F   UNL A   1      45.205  33.389  28.650  1.00  0.00    -0.206 F 
ATOM     86  C   UNL A   1      45.787  35.010  31.838  1.00  0.00     0.006 A 
ENDBRANCH  62  79
ENDBRANCH  36  37
ENDBRANCH  28  31
ENDBRANCH  26  27
ENDBRANCH  25  26
ENDBRANCH   1  25
TORSDOF 15
ENDMDL
