MODEL 1
REMARK VINA RESULT:     -11.8      0.000      0.000
REMARK SMILES Cc1cccc2nc([C@@H]3CCCC[C@@H]3C(=O)NCCCCCCNC(=O)c3ccc(-c4c5nc(c(-c6c(F)cccc6F)c6ccc([nH]6)c(-c6c(F)cccc6F)c6nc(c(-c7c(F)cccc7F)c7ccc4[nH]7)C=C6)C=C5)cc3)oc12
REMARK SMILES IDX 21 1 20 2 19 3 18 4 17 5 15 6 16 7 14 9 9 10 10 11 11 12
REMARK SMILES IDX 13 13 12 14 8 15 1 16 2 17 3 18 82 19 4 20 6 21 81 22 5 23
REMARK SMILES IDX 7 24 22 25 23 26 24 27 25 28 26 30 27 31 28 32 80 33 29 34
REMARK SMILES IDX 79 35 30 36 31 37 32 38 73 39 33 40 78 41 72 42 74 43 34 44
REMARK SMILES IDX 77 45 71 46 70 47 35 49 61 50 44 51 60 52 45 53 48 54 59 55
REMARK SMILES IDX 75 56 46 57 47 58 58 60 76 61 49 62 36 63 37 64 42 65 38 66
REMARK SMILES IDX 39 67 41 68 43 69 40 70 62 71 63 72 68 73 64 74 65 75 67 76
REMARK SMILES IDX 69 77 66 78 50 79 51 80 56 81 52 82 53 83 55 84 57 85 54 86
REMARK H PARENT 17 8 24 29 74 48 48 59
REMARK Flexibility Score: inf
ROOT
ATOM      1  C   UNL A   1      33.414  28.982  26.228  1.00  0.00     0.002 C 
ENDROOT
BRANCH   1   2
ATOM      2  C   UNL A   1      32.810  29.086  24.823  1.00  0.00     0.002 C 
BRANCH   2   3
ATOM      3  C   UNL A   1      33.675  28.559  23.673  1.00  0.00     0.021 C 
BRANCH   3   4
ATOM      4  C   UNL A   1      33.111  27.318  22.976  1.00  0.00     0.116 C 
BRANCH   4   5
ATOM      5  N   UNL A   1      33.701  26.085  23.497  1.00  0.00    -0.356 N 
ATOM      6  C   UNL A   1      32.943  25.126  24.108  1.00  0.00     0.223 C 
ATOM      7  O   UNL A   1      32.495  24.217  23.402  1.00  0.00    -0.275 OA
ATOM      8  H   UNL A   1      34.671  25.941  23.405  1.00  0.00     0.163 HD
BRANCH   6   9
ATOM      9  C   UNL A   1      32.927  24.985  25.645  1.00  0.00     0.091 C 
ATOM     10  C   UNL A   1      32.934  23.612  26.343  1.00  0.00     0.088 C 
ATOM     11  C   UNL A   1      31.643  22.820  26.101  1.00  0.00     0.014 C 
ATOM     12  C   UNL A   1      30.405  23.630  26.504  1.00  0.00     0.001 C 
ATOM     13  C   UNL A   1      31.717  25.779  26.182  1.00  0.00     0.014 C 
ATOM     14  C   UNL A   1      30.396  25.049  25.936  1.00  0.00     0.001 C 
BRANCH  10  15
ATOM     15  C   UNL A   1      34.198  22.851  26.111  1.00  0.00     0.199 A 
ATOM     16  C   UNL A   1      38.457  24.037  26.288  1.00  0.00     0.048 C 
ATOM     17  C   UNL A   1      37.738  22.775  25.938  1.00  0.00    -0.006 A 
ATOM     18  C   UNL A   1      38.460  21.642  25.504  1.00  0.00     0.007 A 
ATOM     19  C   UNL A   1      36.349  22.622  25.932  1.00  0.00     0.157 A 
ATOM     20  C   UNL A   1      37.826  20.472  25.069  1.00  0.00     0.003 A 
ATOM     21  C   UNL A   1      35.693  21.488  25.482  1.00  0.00     0.110 A 
ATOM     22  O   UNL A   1      35.386  23.514  26.335  1.00  0.00    -0.440 OA
ATOM     23  C   UNL A   1      36.432  20.396  25.018  1.00  0.00     0.032 A 
ATOM     24  N   UNL A   1      34.342  21.652  25.590  1.00  0.00    -0.213 NA
ENDBRANCH  10  15
ENDBRANCH   6   9
ENDBRANCH   4   5
ENDBRANCH   3   4
ENDBRANCH   2   3
ENDBRANCH   1   2
BRANCH   1  25
ATOM     25  C   UNL A   1      33.277  30.234  27.099  1.00  0.00     0.021 C 
BRANCH  25  26
ATOM     26  C   UNL A   1      34.588  30.825  27.587  1.00  0.00     0.116 C 
BRANCH  26  27
ATOM     27  N   UNL A   1      34.406  31.804  28.654  1.00  0.00    -0.352 N 
ATOM     28  C   UNL A   1      35.073  31.898  29.859  1.00  0.00     0.251 C 
ATOM     29  H   UNL A   1      33.715  32.488  28.494  1.00  0.00     0.163 HD
ATOM     30  O   UNL A   1      34.624  32.576  30.773  1.00  0.00    -0.269 OA
BRANCH  28  31
ATOM     31  C   UNL A   1      36.329  31.147  30.040  1.00  0.00     0.039 A 
ATOM     32  C   UNL A   1      36.311  29.812  30.458  1.00  0.00     0.014 A 
ATOM     33  C   UNL A   1      37.536  31.780  29.765  1.00  0.00     0.014 A 
ATOM     34  C   UNL A   1      37.512  29.105  30.525  1.00  0.00     0.010 A 
ATOM     35  C   UNL A   1      38.693  31.041  29.675  1.00  0.00     0.010 A 
ATOM     36  C   UNL A   1      38.705  29.721  30.118  1.00  0.00    -0.014 A 
BRANCH  36  37
ATOM     37  C   UNL A   1      39.973  28.995  30.157  1.00  0.00     0.031 A 
ATOM     38  C   UNL A   1      40.643  28.860  31.478  1.00  0.00     0.074 A 
ATOM     39  C   UNL A   1      40.450  28.292  29.106  1.00  0.00     0.049 A 
ATOM     40  N   UNL A   1      41.788  29.339  31.838  1.00  0.00    -0.248 NA
ATOM     41  C   UNL A   1      39.940  28.128  32.540  1.00  0.00     0.031 C 
ATOM     42  C   UNL A   1      39.778  28.019  27.828  1.00  0.00     0.029 A 
ATOM     43  N   UNL A   1      41.608  27.574  29.004  1.00  0.00    -0.354 N 
ATOM     44  C   UNL A   1      42.046  28.816  33.105  1.00  0.00     0.074 A 
ATOM     45  C   UNL A   1      40.823  28.192  33.540  1.00  0.00     0.031 C 
ATOM     46  C   UNL A   1      40.420  27.024  27.186  1.00  0.00     0.029 A 
ATOM     47  C   UNL A   1      41.649  26.738  27.900  1.00  0.00     0.049 A 
ATOM     48  H   UNL A   1      42.344  27.644  29.654  1.00  0.00     0.167 HD
ATOM     49  C   UNL A   1      43.314  28.741  33.594  1.00  0.00     0.037 A 
ATOM     50  C   UNL A   1      42.624  25.873  27.552  1.00  0.00     0.037 A 
ATOM     51  C   UNL A   1      44.231  29.518  32.799  1.00  0.00     0.049 A 
ATOM     52  C   UNL A   1      43.880  26.304  28.196  1.00  0.00     0.074 A 
ATOM     53  C   UNL A   1      44.481  30.852  32.570  1.00  0.00     0.029 A 
ATOM     54  N   UNL A   1      44.892  28.811  31.832  1.00  0.00    -0.354 N 
ATOM     55  N   UNL A   1      44.506  27.410  27.902  1.00  0.00    -0.248 NA
ATOM     56  C   UNL A   1      44.330  25.641  29.413  1.00  0.00     0.031 C 
ATOM     57  C   UNL A   1      45.073  30.919  31.272  1.00  0.00     0.029 A 
ATOM     58  C   UNL A   1      45.162  29.623  30.763  1.00  0.00     0.049 A 
ATOM     59  H   UNL A   1      45.136  27.858  31.894  1.00  0.00     0.167 HD
ATOM     60  C   UNL A   1      45.106  27.793  29.087  1.00  0.00     0.074 A 
ATOM     61  C   UNL A   1      45.130  26.591  29.906  1.00  0.00     0.031 C 
ATOM     62  C   UNL A   1      45.234  29.111  29.413  1.00  0.00     0.037 A 
BRANCH  49  63
ATOM     63  C   UNL A   1      43.846  27.656  34.509  1.00  0.00     0.057 A 
ATOM     64  C   UNL A   1      44.030  27.811  35.896  1.00  0.00     0.134 A 
ATOM     65  C   UNL A   1      43.851  26.321  34.053  1.00  0.00     0.134 A 
ATOM     66  F   UNL A   1      43.973  29.006  36.495  1.00  0.00    -0.206 F 
ATOM     67  C   UNL A   1      44.177  26.725  36.767  1.00  0.00     0.040 A 
ATOM     68  C   UNL A   1      43.944  25.227  34.923  1.00  0.00     0.040 A 
ATOM     69  F   UNL A   1      43.677  26.035  32.754  1.00  0.00    -0.206 F 
ATOM     70  C   UNL A   1      44.098  25.427  36.287  1.00  0.00     0.006 A 
ENDBRANCH  49  63
BRANCH  50  71
ATOM     71  C   UNL A   1      42.489  24.635  26.766  1.00  0.00     0.057 A 
ATOM     72  C   UNL A   1      41.929  23.477  27.337  1.00  0.00     0.134 A 
ATOM     73  C   UNL A   1      43.097  24.482  25.517  1.00  0.00     0.134 A 
ATOM     74  F   UNL A   1      41.384  23.507  28.564  1.00  0.00    -0.206 F 
ATOM     75  C   UNL A   1      41.974  22.234  26.703  1.00  0.00     0.040 A 
ATOM     76  C   UNL A   1      43.156  23.240  24.873  1.00  0.00     0.040 A 
ATOM     77  F   UNL A   1      43.686  25.524  24.914  1.00  0.00    -0.206 F 
ATOM     78  C   UNL A   1      42.601  22.110  25.469  1.00  0.00     0.006 A 
ENDBRANCH  50  71
BRANCH  62  79
ATOM     79  C   UNL A   1      45.206  30.102  28.290  1.00  0.00     0.057 A 
ATOM     80  C   UNL A   1      46.418  30.485  27.706  1.00  0.00     0.134 A 
ATOM     81  C   UNL A   1      44.047  30.745  27.835  1.00  0.00     0.134 A 
ATOM     82  F   UNL A   1      47.573  29.946  28.131  1.00  0.00    -0.206 F 
ATOM     83  C   UNL A   1      46.478  31.452  26.701  1.00  0.00     0.040 A 
ATOM     84  C   UNL A   1      44.090  31.692  26.808  1.00  0.00     0.040 A 
ATOM     85  F   UNL A   1      42.855  30.506  28.397  1.00  0.00    -0.206 F 
ATOM     86  C   UNL A   1      45.309  32.050  26.239  1.00  0.00     0.006 A 
ENDBRANCH  62  79
ENDBRANCH  36  37
ENDBRANCH  28  31
ENDBRANCH  26  27
ENDBRANCH  25  26
ENDBRANCH   1  25
TORSDOF 14
ENDMDL
MODEL 2
REMARK VINA RESULT:     -11.6      1.995      6.181
REMARK SMILES Cc1cccc2nc([C@@H]3CCCC[C@@H]3C(=O)NCCCCCCNC(=O)c3ccc(-c4c5nc(c(-c6c(F)cccc6F)c6ccc([nH]6)c(-c6c(F)cccc6F)c6nc(c(-c7c(F)cccc7F)c7ccc4[nH]7)C=C6)C=C5)cc3)oc12
REMARK SMILES IDX 21 1 20 2 19 3 18 4 17 5 15 6 16 7 14 9 9 10 10 11 11 12
REMARK SMILES IDX 13 13 12 14 8 15 1 16 2 17 3 18 82 19 4 20 6 21 81 22 5 23
REMARK SMILES IDX 7 24 22 25 23 26 24 27 25 28 26 30 27 31 28 32 80 33 29 34
REMARK SMILES IDX 79 35 30 36 31 37 32 38 73 39 33 40 78 41 72 42 74 43 34 44
REMARK SMILES IDX 77 45 71 46 70 47 35 49 61 50 44 51 60 52 45 53 48 54 59 55
REMARK SMILES IDX 75 56 46 57 47 58 58 60 76 61 49 62 36 63 37 64 42 65 38 66
REMARK SMILES IDX 39 67 41 68 43 69 40 70 62 71 63 72 68 73 64 74 65 75 67 76
REMARK SMILES IDX 69 77 66 78 50 79 51 80 56 81 52 82 53 83 55 84 57 85 54 86
REMARK H PARENT 17 8 24 29 74 48 48 59
REMARK Flexibility Score: inf
ROOT
ATOM      1  C   UNL A   1      32.463  29.209  26.907  1.00  0.00     0.002 C 
ENDROOT
BRANCH   1   2
ATOM      2  C   UNL A   1      31.920  27.893  27.474  1.00  0.00     0.002 C 
BRANCH   2   3
ATOM      3  C   UNL A   1      31.128  27.011  26.501  1.00  0.00     0.021 C 
BRANCH   3   4
ATOM      4  C   UNL A   1      31.546  25.539  26.501  1.00  0.00     0.116 C 
BRANCH   4   5
ATOM      5  N   UNL A   1      31.070  24.838  25.308  1.00  0.00    -0.356 N 
ATOM      6  C   UNL A   1      31.827  23.888  24.681  1.00  0.00     0.223 C 
ATOM      7  O   UNL A   1      31.668  22.713  25.025  1.00  0.00    -0.275 OA
ATOM      8  H   UNL A   1      30.179  25.055  24.947  1.00  0.00     0.163 HD
BRANCH   6   9
ATOM      9  C   UNL A   1      32.588  24.211  23.378  1.00  0.00     0.091 C 
ATOM     10  C   UNL A   1      34.003  24.820  23.384  1.00  0.00     0.088 C 
ATOM     11  C   UNL A   1      34.027  26.251  23.935  1.00  0.00     0.014 C 
ATOM     12  C   UNL A   1      33.045  27.158  23.183  1.00  0.00     0.001 C 
ATOM     13  C   UNL A   1      31.688  25.121  22.515  1.00  0.00     0.014 C 
ATOM     14  C   UNL A   1      31.648  26.555  23.041  1.00  0.00     0.001 C 
BRANCH  10  15
ATOM     15  C   UNL A   1      35.027  23.900  23.961  1.00  0.00     0.199 A 
ATOM     16  C   UNL A   1      38.293  24.542  26.876  1.00  0.00     0.048 C 
ATOM     17  C   UNL A   1      37.826  23.372  26.072  1.00  0.00    -0.006 A 
ATOM     18  C   UNL A   1      38.525  22.146  26.126  1.00  0.00     0.007 A 
ATOM     19  C   UNL A   1      36.755  23.397  25.176  1.00  0.00     0.157 A 
ATOM     20  C   UNL A   1      38.187  21.056  25.315  1.00  0.00     0.003 A 
ATOM     21  C   UNL A   1      36.413  22.344  24.342  1.00  0.00     0.110 A 
ATOM     22  O   UNL A   1      35.864  24.413  24.929  1.00  0.00    -0.440 OA
ATOM     23  C   UNL A   1      37.149  21.156  24.387  1.00  0.00     0.032 A 
ATOM     24  N   UNL A   1      35.334  22.681  23.577  1.00  0.00    -0.213 NA
ENDBRANCH  10  15
ENDBRANCH   6   9
ENDBRANCH   4   5
ENDBRANCH   3   4
ENDBRANCH   2   3
ENDBRANCH   1   2
BRANCH   1  25
ATOM     25  C   UNL A   1      33.847  29.126  26.254  1.00  0.00     0.021 C 
BRANCH  25  26
ATOM     26  C   UNL A   1      34.994  28.856  27.212  1.00  0.00     0.116 C 
BRANCH  26  27
ATOM     27  N   UNL A   1      35.064  29.828  28.299  1.00  0.00    -0.352 N 
ATOM     28  C   UNL A   1      36.091  30.046  29.194  1.00  0.00     0.251 C 
ATOM     29  H   UNL A   1      34.273  30.405  28.409  1.00  0.00     0.163 HD
ATOM     30  O   UNL A   1      35.902  30.679  30.224  1.00  0.00    -0.269 OA
BRANCH  28  31
ATOM     31  C   UNL A   1      37.423  29.482  28.903  1.00  0.00     0.039 A 
ATOM     32  C   UNL A   1      38.092  29.802  27.717  1.00  0.00     0.014 A 
ATOM     33  C   UNL A   1      38.017  28.644  29.839  1.00  0.00     0.014 A 
ATOM     34  C   UNL A   1      39.389  29.328  27.519  1.00  0.00     0.010 A 
ATOM     35  C   UNL A   1      39.347  28.314  29.718  1.00  0.00     0.010 A 
ATOM     36  C   UNL A   1      40.022  28.592  28.532  1.00  0.00    -0.014 A 
BRANCH  36  37
ATOM     37  C   UNL A   1      41.388  28.103  28.359  1.00  0.00     0.031 A 
ATOM     38  C   UNL A   1      41.569  26.821  27.628  1.00  0.00     0.074 A 
ATOM     39  C   UNL A   1      42.478  28.846  28.657  1.00  0.00     0.049 A 
ATOM     40  N   UNL A   1      42.046  25.710  28.082  1.00  0.00    -0.248 NA
ATOM     41  C   UNL A   1      41.136  26.757  26.225  1.00  0.00     0.031 C 
ATOM     42  C   UNL A   1      42.519  30.256  29.069  1.00  0.00     0.029 A 
ATOM     43  N   UNL A   1      43.799  28.520  28.547  1.00  0.00    -0.354 N 
ATOM     44  C   UNL A   1      42.156  24.857  26.984  1.00  0.00     0.074 A 
ATOM     45  C   UNL A   1      41.460  25.503  25.900  1.00  0.00     0.031 C 
ATOM     46  C   UNL A   1      43.776  30.723  28.948  1.00  0.00     0.029 A 
ATOM     47  C   UNL A   1      44.652  29.605  28.655  1.00  0.00     0.049 A 
ATOM     48  H   UNL A   1      44.116  27.598  28.405  1.00  0.00     0.167 HD
ATOM     49  C   UNL A   1      43.009  23.796  26.995  1.00  0.00     0.037 A 
ATOM     50  C   UNL A   1      45.996  29.618  28.540  1.00  0.00     0.037 A 
ATOM     51  C   UNL A   1      43.496  23.528  28.324  1.00  0.00     0.049 A 
ATOM     52  C   UNL A   1      46.499  28.258  28.814  1.00  0.00     0.074 A 
ATOM     53  C   UNL A   1      42.983  23.029  29.500  1.00  0.00     0.029 A 
ATOM     54  N   UNL A   1      44.701  24.104  28.620  1.00  0.00    -0.354 N 
ATOM     55  N   UNL A   1      46.422  27.675  29.978  1.00  0.00    -0.248 NA
ATOM     56  C   UNL A   1      46.851  27.382  27.703  1.00  0.00     0.031 C 
ATOM     57  C   UNL A   1      43.788  23.583  30.541  1.00  0.00     0.029 A 
ATOM     58  C   UNL A   1      44.762  24.395  29.957  1.00  0.00     0.049 A 
ATOM     59  H   UNL A   1      45.417  24.285  27.969  1.00  0.00     0.167 HD
ATOM     60  C   UNL A   1      46.292  26.331  29.683  1.00  0.00     0.074 A 
ATOM     61  C   UNL A   1      46.755  26.196  28.311  1.00  0.00     0.031 C 
ATOM     62  C   UNL A   1      45.527  25.514  30.462  1.00  0.00     0.037 A 
BRANCH  49  63
ATOM     63  C   UNL A   1      43.759  23.252  25.795  1.00  0.00     0.057 A 
ATOM     64  C   UNL A   1      44.768  23.953  25.108  1.00  0.00     0.134 A 
ATOM     65  C   UNL A   1      43.712  21.867  25.533  1.00  0.00     0.134 A 
ATOM     66  F   UNL A   1      44.995  25.257  25.308  1.00  0.00    -0.206 F 
ATOM     67  C   UNL A   1      45.679  23.325  24.252  1.00  0.00     0.040 A 
ATOM     68  C   UNL A   1      44.651  21.221  24.718  1.00  0.00     0.040 A 
ATOM     69  F   UNL A   1      42.802  21.082  26.129  1.00  0.00    -0.206 F 
ATOM     70  C   UNL A   1      45.646  21.950  24.081  1.00  0.00     0.006 A 
ENDBRANCH  49  63
BRANCH  50  71
ATOM     71  C   UNL A   1      46.851  30.736  28.106  1.00  0.00     0.057 A 
ATOM     72  C   UNL A   1      47.726  31.368  29.009  1.00  0.00     0.134 A 
ATOM     73  C   UNL A   1      46.680  31.358  26.865  1.00  0.00     0.134 A 
ATOM     74  F   UNL A   1      47.903  30.885  30.249  1.00  0.00    -0.206 F 
ATOM     75  C   UNL A   1      48.393  32.554  28.697  1.00  0.00     0.040 A 
ATOM     76  C   UNL A   1      47.337  32.552  26.542  1.00  0.00     0.040 A 
ATOM     77  F   UNL A   1      45.840  30.845  25.956  1.00  0.00    -0.206 F 
ATOM     78  C   UNL A   1      48.189  33.158  27.463  1.00  0.00     0.006 A 
ENDBRANCH  50  71
BRANCH  62  79
ATOM     79  C   UNL A   1      45.275  25.949  31.873  1.00  0.00     0.057 A 
ATOM     80  C   UNL A   1      46.181  25.556  32.864  1.00  0.00     0.134 A 
ATOM     81  C   UNL A   1      44.140  26.656  32.290  1.00  0.00     0.134 A 
ATOM     82  F   UNL A   1      47.263  24.830  32.542  1.00  0.00    -0.206 F 
ATOM     83  C   UNL A   1      45.979  25.866  34.211  1.00  0.00     0.040 A 
ATOM     84  C   UNL A   1      43.941  27.000  33.630  1.00  0.00     0.040 A 
ATOM     85  F   UNL A   1      43.177  26.996  31.423  1.00  0.00    -0.206 F 
ATOM     86  C   UNL A   1      44.862  26.602  34.596  1.00  0.00     0.006 A 
ENDBRANCH  62  79
ENDBRANCH  36  37
ENDBRANCH  28  31
ENDBRANCH  26  27
ENDBRANCH  25  26
ENDBRANCH   1  25
TORSDOF 14
ENDMDL
MODEL 3
REMARK VINA RESULT:     -11.5      2.569      7.952
REMARK SMILES Cc1cccc2nc([C@@H]3CCCC[C@@H]3C(=O)NCCCCCCNC(=O)c3ccc(-c4c5nc(c(-c6c(F)cccc6F)c6ccc([nH]6)c(-c6c(F)cccc6F)c6nc(c(-c7c(F)cccc7F)c7ccc4[nH]7)C=C6)C=C5)cc3)oc12
REMARK SMILES IDX 21 1 20 2 19 3 18 4 17 5 15 6 16 7 14 9 9 10 10 11 11 12
REMARK SMILES IDX 13 13 12 14 8 15 1 16 2 17 3 18 82 19 4 20 6 21 81 22 5 23
REMARK SMILES IDX 7 24 22 25 23 26 24 27 25 28 26 30 27 31 28 32 80 33 29 34
REMARK SMILES IDX 79 35 30 36 31 37 32 38 73 39 33 40 78 41 72 42 74 43 34 44
REMARK SMILES IDX 77 45 71 46 70 47 35 49 61 50 44 51 60 52 45 53 48 54 59 55
REMARK SMILES IDX 75 56 46 57 47 58 58 60 76 61 49 62 36 63 37 64 42 65 38 66
REMARK SMILES IDX 39 67 41 68 43 69 40 70 62 71 63 72 68 73 64 74 65 75 67 76
REMARK SMILES IDX 69 77 66 78 50 79 51 80 56 81 52 82 53 83 55 84 57 85 54 86
REMARK H PARENT 17 8 24 29 74 48 48 59
REMARK Flexibility Score: inf
ROOT
ATOM      1  C   UNL A   1      35.857  22.898  25.092  1.00  0.00     0.002 C 
ENDROOT
BRANCH   1   2
ATOM      2  C   UNL A   1      35.552  21.746  26.056  1.00  0.00     0.002 C 
BRANCH   2   3
ATOM      3  C   UNL A   1      34.106  21.237  26.066  1.00  0.00     0.021 C 
BRANCH   3   4
ATOM      4  C   UNL A   1      33.224  21.862  27.150  1.00  0.00     0.116 C 
BRANCH   4   5
ATOM      5  N   UNL A   1      33.305  23.323  27.143  1.00  0.00    -0.356 N 
ATOM      6  C   UNL A   1      32.383  24.092  26.491  1.00  0.00     0.223 C 
ATOM      7  O   UNL A   1      31.406  24.483  27.138  1.00  0.00    -0.275 OA
ATOM      8  H   UNL A   1      34.044  23.764  27.622  1.00  0.00     0.163 HD
BRANCH   6   9
ATOM      9  C   UNL A   1      32.703  24.729  25.122  1.00  0.00     0.091 C 
ATOM     10  C   UNL A   1      32.195  26.128  24.729  1.00  0.00     0.088 C 
ATOM     11  C   UNL A   1      30.671  26.180  24.571  1.00  0.00     0.014 C 
ATOM     12  C   UNL A   1      30.175  25.121  23.578  1.00  0.00     0.001 C 
ATOM     13  C   UNL A   1      32.258  23.741  24.023  1.00  0.00     0.014 C 
ATOM     14  C   UNL A   1      30.740  23.727  23.845  1.00  0.00     0.001 C 
BRANCH  10  15
ATOM     15  C   UNL A   1      32.783  27.215  25.569  1.00  0.00     0.199 A 
ATOM     16  C   UNL A   1      31.467  31.352  26.424  1.00  0.00     0.048 C 
ATOM     17  C   UNL A   1      32.658  30.534  26.808  1.00  0.00    -0.006 A 
ATOM     18  C   UNL A   1      33.695  31.105  27.578  1.00  0.00     0.007 A 
ATOM     19  C   UNL A   1      32.886  29.217  26.401  1.00  0.00     0.157 A 
ATOM     20  C   UNL A   1      34.874  30.411  27.875  1.00  0.00     0.003 A 
ATOM     21  C   UNL A   1      34.053  28.515  26.657  1.00  0.00     0.110 A 
ATOM     22  O   UNL A   1      32.060  28.383  25.689  1.00  0.00    -0.440 OA
ATOM     23  C   UNL A   1      35.082  29.119  27.386  1.00  0.00     0.032 A 
ATOM     24  N   UNL A   1      33.977  27.264  26.117  1.00  0.00    -0.213 NA
ENDBRANCH  10  15
ENDBRANCH   6   9
ENDBRANCH   4   5
ENDBRANCH   3   4
ENDBRANCH   2   3
ENDBRANCH   1   2
BRANCH   1  25
ATOM     25  C   UNL A   1      37.343  23.194  24.867  1.00  0.00     0.021 C 
BRANCH  25  26
ATOM     26  C   UNL A   1      38.142  23.473  26.128  1.00  0.00     0.116 C 
BRANCH  26  27
ATOM     27  N   UNL A   1      39.376  22.697  26.200  1.00  0.00    -0.352 N 
ATOM     28  C   UNL A   1      40.667  23.147  26.387  1.00  0.00     0.251 C 
ATOM     29  H   UNL A   1      39.275  21.722  26.101  1.00  0.00     0.163 HD
ATOM     30  O   UNL A   1      41.624  22.429  26.134  1.00  0.00    -0.269 OA
BRANCH  28  31
ATOM     31  C   UNL A   1      40.878  24.522  26.877  1.00  0.00     0.039 A 
ATOM     32  C   UNL A   1      40.624  25.623  26.052  1.00  0.00     0.014 A 
ATOM     33  C   UNL A   1      41.314  24.711  28.184  1.00  0.00     0.014 A 
ATOM     34  C   UNL A   1      40.742  26.909  26.580  1.00  0.00     0.010 A 
ATOM     35  C   UNL A   1      41.273  25.966  28.745  1.00  0.00     0.010 A 
ATOM     36  C   UNL A   1      41.055  27.078  27.936  1.00  0.00    -0.014 A 
BRANCH  36  37
ATOM     37  C   UNL A   1      41.164  28.414  28.519  1.00  0.00     0.031 A 
ATOM     38  C   UNL A   1      42.360  29.222  28.160  1.00  0.00     0.074 A 
ATOM     39  C   UNL A   1      40.154  29.005  29.195  1.00  0.00     0.049 A 
ATOM     40  N   UNL A   1      43.298  29.640  28.943  1.00  0.00    -0.248 NA
ATOM     41  C   UNL A   1      42.553  29.583  26.749  1.00  0.00     0.031 C 
ATOM     42  C   UNL A   1      38.779  28.515  29.366  1.00  0.00     0.029 A 
ATOM     43  N   UNL A   1      40.116  30.235  29.787  1.00  0.00    -0.354 N 
ATOM     44  C   UNL A   1      44.103  30.478  28.172  1.00  0.00     0.074 A 
ATOM     45  C   UNL A   1      43.679  30.299  26.807  1.00  0.00     0.031 C 
ATOM     46  C   UNL A   1      37.994  29.518  29.803  1.00  0.00     0.029 A 
ATOM     47  C   UNL A   1      38.841  30.648  30.135  1.00  0.00     0.049 A 
ATOM     48  H   UNL A   1      40.921  30.778  29.950  1.00  0.00     0.167 HD
ATOM     49  C   UNL A   1      44.897  31.422  28.748  1.00  0.00     0.037 A 
ATOM     50  C   UNL A   1      38.471  31.823  30.684  1.00  0.00     0.037 A 
ATOM     51  C   UNL A   1      45.011  31.217  30.169  1.00  0.00     0.049 A 
ATOM     52  C   UNL A   1      39.644  32.410  31.360  1.00  0.00     0.074 A 
ATOM     53  C   UNL A   1      45.614  30.308  31.009  1.00  0.00     0.029 A 
ATOM     54  N   UNL A   1      44.129  31.942  30.924  1.00  0.00    -0.354 N 
ATOM     55  N   UNL A   1      40.213  31.890  32.412  1.00  0.00    -0.248 NA
ATOM     56  C   UNL A   1      40.408  33.460  30.698  1.00  0.00     0.031 C 
ATOM     57  C   UNL A   1      44.853  30.330  32.217  1.00  0.00     0.029 A 
ATOM     58  C   UNL A   1      43.817  31.253  32.066  1.00  0.00     0.049 A 
ATOM     59  H   UNL A   1      43.772  32.828  30.683  1.00  0.00     0.167 HD
ATOM     60  C   UNL A   1      41.547  32.232  32.289  1.00  0.00     0.074 A 
ATOM     61  C   UNL A   1      41.569  33.341  31.347  1.00  0.00     0.031 C 
ATOM     62  C   UNL A   1      42.529  31.385  32.709  1.00  0.00     0.037 A 
BRANCH  49  63
ATOM     63  C   UNL A   1      45.236  32.774  28.154  1.00  0.00     0.057 A 
ATOM     64  C   UNL A   1      46.455  33.076  27.517  1.00  0.00     0.134 A 
ATOM     65  C   UNL A   1      44.193  33.692  27.909  1.00  0.00     0.134 A 
ATOM     66  F   UNL A   1      47.517  32.264  27.586  1.00  0.00    -0.206 F 
ATOM     67  C   UNL A   1      46.618  34.184  26.679  1.00  0.00     0.040 A 
ATOM     68  C   UNL A   1      44.331  34.774  27.030  1.00  0.00     0.040 A 
ATOM     69  F   UNL A   1      42.979  33.516  28.449  1.00  0.00    -0.206 F 
ATOM     70  C   UNL A   1      45.546  35.018  26.403  1.00  0.00     0.006 A 
ENDBRANCH  49  63
BRANCH  50  71
ATOM     71  C   UNL A   1      37.171  32.504  30.560  1.00  0.00     0.057 A 
ATOM     72  C   UNL A   1      36.090  32.148  31.387  1.00  0.00     0.134 A 
ATOM     73  C   UNL A   1      36.884  33.361  29.494  1.00  0.00     0.134 A 
ATOM     74  F   UNL A   1      36.250  31.276  32.395  1.00  0.00    -0.206 F 
ATOM     75  C   UNL A   1      34.793  32.615  31.165  1.00  0.00     0.040 A 
ATOM     76  C   UNL A   1      35.587  33.832  29.255  1.00  0.00     0.040 A 
ATOM     77  F   UNL A   1      37.846  33.725  28.636  1.00  0.00    -0.206 F 
ATOM     78  C   UNL A   1      34.536  33.452  30.086  1.00  0.00     0.006 A 
ENDBRANCH  50  71
BRANCH  62  79
ATOM     79  C   UNL A   1      42.160  30.365  33.743  1.00  0.00     0.057 A 
ATOM     80  C   UNL A   1      42.328  30.692  35.093  1.00  0.00     0.134 A 
ATOM     81  C   UNL A   1      41.736  29.062  33.450  1.00  0.00     0.134 A 
ATOM     82  F   UNL A   1      42.781  31.907  35.443  1.00  0.00    -0.206 F 
ATOM     83  C   UNL A   1      42.069  29.773  36.111  1.00  0.00     0.040 A 
ATOM     84  C   UNL A   1      41.444  28.142  34.460  1.00  0.00     0.040 A 
ATOM     85  F   UNL A   1      41.633  28.635  32.185  1.00  0.00    -0.206 F 
ATOM     86  C   UNL A   1      41.612  28.496  35.796  1.00  0.00     0.006 A 
ENDBRANCH  62  79
ENDBRANCH  36  37
ENDBRANCH  28  31
ENDBRANCH  26  27
ENDBRANCH  25  26
ENDBRANCH   1  25
TORSDOF 14
ENDMDL
