MODEL 1
REMARK VINA RESULT:     -11.7      0.000      0.000
REMARK SMILES O=C(NCCCCCCNC(=O)[C@H]1CSCN1C(=O)c1cnc2ccccn2c1=O)c1ccc(-c2c3nc(c(-c4c(F)cccc4F)c4ccc([nH]4)c(-c4c(F)cccc4F)c4nc(c(-c5c(F)cccc5F)c5ccc2[nH]5)C=C4)C=C3)cc1
REMARK SMILES IDX 6 1 5 2 4 3 3 4 1 5 2 6 31 8 32 9 84 10 33 11 83 12 34 13
REMARK SMILES IDX 35 14 36 15 77 16 37 17 82 18 76 19 78 20 38 21 81 22 75 23
REMARK SMILES IDX 74 24 39 26 65 27 48 28 64 29 49 30 52 31 63 32 79 33 50 34
REMARK SMILES IDX 51 35 62 37 80 38 53 39 40 40 41 41 46 42 42 43 43 44 45 45
REMARK SMILES IDX 47 46 44 47 66 48 67 49 72 50 68 51 69 52 71 53 73 54 70 55
REMARK SMILES IDX 54 56 55 57 60 58 56 59 57 60 59 61 61 62 58 63 7 64 8 65
REMARK SMILES IDX 9 66 10 67 11 68 12 70 13 71 14 72 17 73 15 74 16 75 18 76
REMARK SMILES IDX 19 77 20 78 21 79 29 80 22 81 28 82 30 83 23 84 27 85 24 86
REMARK SMILES IDX 26 87 25 88
REMARK H PARENT 3 7 78 25 52 36 10 69
REMARK Flexibility Score: inf
ROOT
ATOM      1  C   UNL A   1      36.604  20.899  24.754  1.00  0.00     0.002 C 
ENDROOT
BRANCH   1   2
ATOM      2  C   UNL A   1      37.702  19.855  24.953  1.00  0.00     0.021 C 
BRANCH   2   3
ATOM      3  C   UNL A   1      38.926  20.352  25.714  1.00  0.00     0.116 C 
BRANCH   3   4
ATOM      4  N   UNL A   1      40.009  19.382  25.731  1.00  0.00    -0.352 N 
ATOM      5  O   UNL A   1      42.149  18.669  25.874  1.00  0.00    -0.269 OA
ATOM      6  C   UNL A   1      41.331  19.564  26.062  1.00  0.00     0.251 C 
ATOM      7  H   UNL A   1      39.761  18.466  25.469  1.00  0.00     0.163 HD
BRANCH   6   8
ATOM      8  C   UNL A   1      41.770  20.860  26.622  1.00  0.00     0.039 A 
ATOM      9  C   UNL A   1      41.736  21.087  27.999  1.00  0.00     0.014 A 
ATOM     10  C   UNL A   1      42.211  21.864  25.756  1.00  0.00     0.014 A 
ATOM     11  C   UNL A   1      41.989  22.361  28.494  1.00  0.00     0.010 A 
ATOM     12  C   UNL A   1      42.551  23.121  26.265  1.00  0.00     0.010 A 
ATOM     13  C   UNL A   1      42.404  23.391  27.633  1.00  0.00    -0.014 A 
BRANCH  13  14
ATOM     14  C   UNL A   1      42.711  24.728  28.205  1.00  0.00     0.031 A 
ATOM     15  C   UNL A   1      44.123  25.133  28.529  1.00  0.00     0.074 A 
ATOM     16  C   UNL A   1      41.700  25.599  28.389  1.00  0.00     0.049 A 
ATOM     17  N   UNL A   1      44.568  26.281  28.976  1.00  0.00    -0.248 NA
ATOM     18  C   UNL A   1      45.172  24.120  28.336  1.00  0.00     0.031 C 
ATOM     19  C   UNL A   1      40.287  25.316  28.124  1.00  0.00     0.029 A 
ATOM     20  N   UNL A   1      41.705  26.903  28.810  1.00  0.00    -0.354 N 
ATOM     21  C   UNL A   1      45.938  26.121  29.142  1.00  0.00     0.074 A 
ATOM     22  C   UNL A   1      46.250  24.758  28.768  1.00  0.00     0.031 C 
ATOM     23  C   UNL A   1      39.570  26.430  28.332  1.00  0.00     0.029 A 
ATOM     24  C   UNL A   1      40.461  27.487  28.796  1.00  0.00     0.049 A 
ATOM     25  H   UNL A   1      42.519  27.377  29.095  1.00  0.00     0.167 HD
ATOM     26  C   UNL A   1      46.851  27.030  29.563  1.00  0.00     0.037 A 
ATOM     27  C   UNL A   1      40.077  28.733  29.124  1.00  0.00     0.037 A 
ATOM     28  C   UNL A   1      46.539  28.394  29.911  1.00  0.00     0.049 A 
ATOM     29  C   UNL A   1      41.109  29.717  29.586  1.00  0.00     0.074 A 
ATOM     30  C   UNL A   1      47.403  29.404  30.303  1.00  0.00     0.029 A 
ATOM     31  N   UNL A   1      45.263  28.938  29.914  1.00  0.00    -0.354 N 
ATOM     32  N   UNL A   1      42.407  29.564  29.697  1.00  0.00    -0.248 NA
ATOM     33  C   UNL A   1      40.624  31.049  29.973  1.00  0.00     0.031 C 
ATOM     34  C   UNL A   1      46.644  30.546  30.581  1.00  0.00     0.029 A 
ATOM     35  C   UNL A   1      45.314  30.261  30.320  1.00  0.00     0.049 A 
ATOM     36  H   UNL A   1      44.443  28.455  29.664  1.00  0.00     0.167 HD
ATOM     37  C   UNL A   1      42.895  30.782  30.147  1.00  0.00     0.074 A 
ATOM     38  C   UNL A   1      41.757  31.670  30.270  1.00  0.00     0.031 C 
ATOM     39  C   UNL A   1      44.172  31.133  30.435  1.00  0.00     0.037 A 
BRANCH  26  40
ATOM     40  C   UNL A   1      48.276  26.576  29.694  1.00  0.00     0.057 A 
ATOM     41  C   UNL A   1      48.749  25.928  30.842  1.00  0.00     0.134 A 
ATOM     42  C   UNL A   1      49.178  26.753  28.636  1.00  0.00     0.134 A 
ATOM     43  F   UNL A   1      47.942  25.737  31.897  1.00  0.00    -0.206 F 
ATOM     44  C   UNL A   1      50.073  25.491  30.941  1.00  0.00     0.040 A 
ATOM     45  C   UNL A   1      50.496  26.300  28.715  1.00  0.00     0.040 A 
ATOM     46  F   UNL A   1      48.790  27.360  27.504  1.00  0.00    -0.206 F 
ATOM     47  C   UNL A   1      50.948  25.671  29.872  1.00  0.00     0.006 A 
ENDBRANCH  26  40
BRANCH  27  48
ATOM     48  C   UNL A   1      38.650  29.120  29.009  1.00  0.00     0.057 A 
ATOM     49  C   UNL A   1      37.793  29.057  30.113  1.00  0.00     0.134 A 
ATOM     50  C   UNL A   1      38.111  29.572  27.798  1.00  0.00     0.134 A 
ATOM     51  F   UNL A   1      38.249  28.616  31.296  1.00  0.00    -0.206 F 
ATOM     52  C   UNL A   1      36.449  29.419  30.016  1.00  0.00     0.040 A 
ATOM     53  C   UNL A   1      36.776  29.961  27.692  1.00  0.00     0.040 A 
ATOM     54  F   UNL A   1      38.883  29.662  26.705  1.00  0.00    -0.206 F 
ATOM     55  C   UNL A   1      35.939  29.878  28.804  1.00  0.00     0.006 A 
ENDBRANCH  27  48
BRANCH  39  56
ATOM     56  C   UNL A   1      44.402  32.547  30.878  1.00  0.00     0.057 A 
ATOM     57  C   UNL A   1      44.388  32.909  32.231  1.00  0.00     0.134 A 
ATOM     58  C   UNL A   1      44.651  33.556  29.939  1.00  0.00     0.134 A 
ATOM     59  F   UNL A   1      44.138  31.992  33.178  1.00  0.00    -0.206 F 
ATOM     60  C   UNL A   1      44.587  34.231  32.633  1.00  0.00     0.040 A 
ATOM     61  C   UNL A   1      44.877  34.876  30.330  1.00  0.00     0.040 A 
ATOM     62  F   UNL A   1      44.686  33.273  28.628  1.00  0.00    -0.206 F 
ATOM     63  C   UNL A   1      44.837  35.218  31.681  1.00  0.00     0.006 A 
ENDBRANCH  39  56
ENDBRANCH  13  14
ENDBRANCH   6   8
ENDBRANCH   3   4
ENDBRANCH   2   3
ENDBRANCH   1   2
BRANCH   1  64
ATOM     64  C   UNL A   1      36.775  22.191  25.562  1.00  0.00     0.002 C 
BRANCH  64  65
ATOM     65  C   UNL A   1      36.433  23.484  24.813  1.00  0.00     0.021 C 
BRANCH  65  66
ATOM     66  C   UNL A   1      34.937  23.766  24.682  1.00  0.00     0.116 C 
BRANCH  66  67
ATOM     67  N   UNL A   1      34.566  23.925  23.289  1.00  0.00    -0.354 N 
ATOM     68  C   UNL A   1      33.584  23.321  22.563  1.00  0.00     0.243 C 
ATOM     69  H   UNL A   1      35.112  24.574  22.788  1.00  0.00     0.163 HD
ATOM     70  O   UNL A   1      33.668  23.393  21.332  1.00  0.00    -0.273 OA
BRANCH  68  71
ATOM     71  C   UNL A   1      32.528  22.407  23.219  1.00  0.00     0.185 C 
ATOM     72  C   UNL A   1      33.243  21.153  23.716  1.00  0.00     0.106 C 
ATOM     73  N   UNL A   1      31.756  23.019  24.307  1.00  0.00    -0.316 N 
ATOM     74  S   UNL A   1      32.423  20.634  25.239  1.00  0.00    -0.138 SA
ATOM     75  C   UNL A   1      31.442  22.130  25.405  1.00  0.00     0.190 C 
BRANCH  73  76
ATOM     76  C   UNL A   1      31.052  24.181  24.037  1.00  0.00     0.262 C 
ATOM     77  O   UNL A   1      30.198  24.239  23.153  1.00  0.00    -0.269 OA
BRANCH  76  78
ATOM     78  C   UNL A   1      31.308  25.381  24.863  1.00  0.00     0.124 A 
ATOM     79  C   UNL A   1      30.608  25.514  25.995  1.00  0.00     0.133 A 
ATOM     80  C   UNL A   1      32.206  26.488  24.475  1.00  0.00     0.270 A 
ATOM     81  N   UNL A   1      30.711  26.561  26.867  1.00  0.00    -0.237 NA
ATOM     82  N   UNL A   1      32.317  27.522  25.402  1.00  0.00    -0.267 N 
ATOM     83  O   UNL A   1      32.800  26.454  23.396  1.00  0.00    -0.268 OA
ATOM     84  C   UNL A   1      31.542  27.509  26.559  1.00  0.00     0.139 A 
ATOM     85  C   UNL A   1      33.199  28.569  25.149  1.00  0.00     0.096 A 
ATOM     86  C   UNL A   1      31.694  28.660  27.491  1.00  0.00     0.048 A 
ATOM     87  C   UNL A   1      33.342  29.593  25.999  1.00  0.00     0.019 A 
ATOM     88  C   UNL A   1      32.561  29.639  27.207  1.00  0.00     0.005 A 
ENDBRANCH  76  78
ENDBRANCH  73  76
ENDBRANCH  68  71
ENDBRANCH  66  67
ENDBRANCH  65  66
ENDBRANCH  64  65
ENDBRANCH   1  64
TORSDOF 15
ENDMDL
MODEL 2
REMARK VINA RESULT:     -11.6      3.530      8.859
REMARK SMILES O=C(NCCCCCCNC(=O)[C@H]1CSCN1C(=O)c1cnc2ccccn2c1=O)c1ccc(-c2c3nc(c(-c4c(F)cccc4F)c4ccc([nH]4)c(-c4c(F)cccc4F)c4nc(c(-c5c(F)cccc5F)c5ccc2[nH]5)C=C4)C=C3)cc1
REMARK SMILES IDX 6 1 5 2 4 3 3 4 1 5 2 6 31 8 32 9 84 10 33 11 83 12 34 13
REMARK SMILES IDX 35 14 36 15 77 16 37 17 82 18 76 19 78 20 38 21 81 22 75 23
REMARK SMILES IDX 74 24 39 26 65 27 48 28 64 29 49 30 52 31 63 32 79 33 50 34
REMARK SMILES IDX 51 35 62 37 80 38 53 39 40 40 41 41 46 42 42 43 43 44 45 45
REMARK SMILES IDX 47 46 44 47 66 48 67 49 72 50 68 51 69 52 71 53 73 54 70 55
REMARK SMILES IDX 54 56 55 57 60 58 56 59 57 60 59 61 61 62 58 63 7 64 8 65
REMARK SMILES IDX 9 66 10 67 11 68 12 70 13 71 14 72 17 73 15 74 16 75 18 76
REMARK SMILES IDX 19 77 20 78 21 79 29 80 22 81 28 82 30 83 23 84 27 85 24 86
REMARK SMILES IDX 26 87 25 88
REMARK H PARENT 3 7 78 25 52 36 10 69
REMARK Flexibility Score: inf
ROOT
ATOM      1  C   UNL A   1      31.646  30.479  26.061  1.00  0.00     0.002 C 
ENDROOT
BRANCH   1   2
ATOM      2  C   UNL A   1      31.438  31.911  26.552  1.00  0.00     0.021 C 
BRANCH   2   3
ATOM      3  C   UNL A   1      32.642  32.525  27.258  1.00  0.00     0.116 C 
BRANCH   3   4
ATOM      4  N   UNL A   1      32.405  33.895  27.683  1.00  0.00    -0.352 N 
ATOM      5  O   UNL A   1      32.684  35.750  28.943  1.00  0.00    -0.269 OA
ATOM      6  C   UNL A   1      33.112  34.659  28.581  1.00  0.00     0.251 C 
ATOM      7  H   UNL A   1      31.629  34.338  27.271  1.00  0.00     0.163 HD
BRANCH   6   8
ATOM      8  C   UNL A   1      34.383  34.144  29.134  1.00  0.00     0.039 A 
ATOM      9  C   UNL A   1      35.592  34.389  28.481  1.00  0.00     0.014 A 
ATOM     10  C   UNL A   1      34.361  33.396  30.315  1.00  0.00     0.014 A 
ATOM     11  C   UNL A   1      36.751  33.757  28.918  1.00  0.00     0.010 A 
ATOM     12  C   UNL A   1      35.545  32.835  30.803  1.00  0.00     0.010 A 
ATOM     13  C   UNL A   1      36.742  32.978  30.086  1.00  0.00    -0.014 A 
BRANCH  13  14
ATOM     14  C   UNL A   1      38.010  32.357  30.549  1.00  0.00     0.031 A 
ATOM     15  C   UNL A   1      38.776  32.921  31.714  1.00  0.00     0.074 A 
ATOM     16  C   UNL A   1      38.446  31.241  29.932  1.00  0.00     0.049 A 
ATOM     17  N   UNL A   1      39.866  32.466  32.281  1.00  0.00    -0.248 NA
ATOM     18  C   UNL A   1      38.261  34.159  32.318  1.00  0.00     0.031 C 
ATOM     19  C   UNL A   1      37.796  30.608  28.781  1.00  0.00     0.029 A 
ATOM     20  N   UNL A   1      39.515  30.427  30.199  1.00  0.00    -0.354 N 
ATOM     21  C   UNL A   1      40.181  33.372  33.286  1.00  0.00     0.074 A 
ATOM     22  C   UNL A   1      39.179  34.415  33.239  1.00  0.00     0.031 C 
ATOM     23  C   UNL A   1      38.444  29.474  28.480  1.00  0.00     0.029 A 
ATOM     24  C   UNL A   1      39.585  29.329  29.377  1.00  0.00     0.049 A 
ATOM     25  H   UNL A   1      40.170  30.610  30.911  1.00  0.00     0.167 HD
ATOM     26  C   UNL A   1      41.208  33.332  34.169  1.00  0.00     0.037 A 
ATOM     27  C   UNL A   1      40.470  28.317  29.345  1.00  0.00     0.037 A 
ATOM     28  C   UNL A   1      42.189  32.278  34.228  1.00  0.00     0.049 A 
ATOM     29  C   UNL A   1      41.597  28.300  30.334  1.00  0.00     0.074 A 
ATOM     30  C   UNL A   1      43.240  32.125  35.118  1.00  0.00     0.029 A 
ATOM     31  N   UNL A   1      42.244  31.199  33.358  1.00  0.00    -0.354 N 
ATOM     32  N   UNL A   1      41.856  29.141  31.305  1.00  0.00    -0.248 NA
ATOM     33  C   UNL A   1      42.557  27.194  30.220  1.00  0.00     0.031 C 
ATOM     34  C   UNL A   1      43.953  30.976  34.761  1.00  0.00     0.029 A 
ATOM     35  C   UNL A   1      43.321  30.388  33.677  1.00  0.00     0.049 A 
ATOM     36  H   UNL A   1      41.611  31.033  32.623  1.00  0.00     0.167 HD
ATOM     37  C   UNL A   1      42.996  28.657  31.931  1.00  0.00     0.074 A 
ATOM     38  C   UNL A   1      43.367  27.438  31.241  1.00  0.00     0.031 C 
ATOM     39  C   UNL A   1      43.676  29.177  32.982  1.00  0.00     0.037 A 
BRANCH  26  40
ATOM     40  C   UNL A   1      41.340  34.475  35.135  1.00  0.00     0.057 A 
ATOM     41  C   UNL A   1      40.715  34.467  36.388  1.00  0.00     0.134 A 
ATOM     42  C   UNL A   1      42.142  35.580  34.821  1.00  0.00     0.134 A 
ATOM     43  F   UNL A   1      39.924  33.445  36.748  1.00  0.00    -0.206 F 
ATOM     44  C   UNL A   1      40.866  35.527  37.286  1.00  0.00     0.040 A 
ATOM     45  C   UNL A   1      42.318  36.634  35.719  1.00  0.00     0.040 A 
ATOM     46  F   UNL A   1      42.775  35.650  33.640  1.00  0.00    -0.206 F 
ATOM     47  C   UNL A   1      41.675  36.612  36.954  1.00  0.00     0.006 A 
ENDBRANCH  26  40
BRANCH  27  48
ATOM     48  C   UNL A   1      40.312  27.230  28.347  1.00  0.00     0.057 A 
ATOM     49  C   UNL A   1      40.943  27.297  27.100  1.00  0.00     0.134 A 
ATOM     50  C   UNL A   1      39.538  26.095  28.620  1.00  0.00     0.134 A 
ATOM     51  F   UNL A   1      41.684  28.368  26.776  1.00  0.00    -0.206 F 
ATOM     52  C   UNL A   1      40.801  26.280  26.155  1.00  0.00     0.040 A 
ATOM     53  C   UNL A   1      39.409  25.060  27.695  1.00  0.00     0.040 A 
ATOM     54  F   UNL A   1      38.915  25.969  29.801  1.00  0.00    -0.206 F 
ATOM     55  C   UNL A   1      40.037  25.155  26.455  1.00  0.00     0.006 A 
ENDBRANCH  27  48
BRANCH  39  56
ATOM     56  C   UNL A   1      44.869  28.407  33.465  1.00  0.00     0.057 A 
ATOM     57  C   UNL A   1      44.755  27.397  34.428  1.00  0.00     0.134 A 
ATOM     58  C   UNL A   1      46.144  28.673  32.950  1.00  0.00     0.134 A 
ATOM     59  F   UNL A   1      43.564  27.106  34.971  1.00  0.00    -0.206 F 
ATOM     60  C   UNL A   1      45.874  26.696  34.883  1.00  0.00     0.040 A 
ATOM     61  C   UNL A   1      47.265  27.962  33.379  1.00  0.00     0.040 A 
ATOM     62  F   UNL A   1      46.319  29.623  32.020  1.00  0.00    -0.206 F 
ATOM     63  C   UNL A   1      47.133  26.975  34.354  1.00  0.00     0.006 A 
ENDBRANCH  39  56
ENDBRANCH  13  14
ENDBRANCH   6   8
ENDBRANCH   3   4
ENDBRANCH   2   3
ENDBRANCH   1   2
BRANCH   1  64
ATOM     64  C   UNL A   1      31.784  29.423  27.163  1.00  0.00     0.002 C 
BRANCH  64  65
ATOM     65  C   UNL A   1      32.879  28.374  26.935  1.00  0.00     0.021 C 
BRANCH  65  66
ATOM     66  C   UNL A   1      32.529  27.305  25.901  1.00  0.00     0.116 C 
BRANCH  66  67
ATOM     67  N   UNL A   1      31.495  26.423  26.405  1.00  0.00    -0.354 N 
ATOM     68  C   UNL A   1      30.356  25.967  25.810  1.00  0.00     0.243 C 
ATOM     69  H   UNL A   1      31.638  26.103  27.325  1.00  0.00     0.163 HD
ATOM     70  O   UNL A   1      29.491  25.483  26.547  1.00  0.00    -0.273 OA
BRANCH  68  71
ATOM     71  C   UNL A   1      30.054  26.226  24.319  1.00  0.00     0.185 C 
ATOM     72  C   UNL A   1      29.883  27.732  24.135  1.00  0.00     0.106 C 
ATOM     73  N   UNL A   1      31.051  25.706  23.376  1.00  0.00    -0.316 N 
ATOM     74  S   UNL A   1      30.539  28.151  22.506  1.00  0.00    -0.138 SA
ATOM     75  C   UNL A   1      31.293  26.546  22.222  1.00  0.00     0.190 C 
BRANCH  73  76
ATOM     76  C   UNL A   1      31.346  24.353  23.414  1.00  0.00     0.262 C 
ATOM     77  O   UNL A   1      30.478  23.491  23.281  1.00  0.00    -0.269 OA
BRANCH  76  78
ATOM     78  C   UNL A   1      32.753  23.932  23.581  1.00  0.00     0.124 A 
ATOM     79  C   UNL A   1      33.469  23.709  22.473  1.00  0.00     0.133 A 
ATOM     80  C   UNL A   1      33.390  23.641  24.882  1.00  0.00     0.270 A 
ATOM     81  N   UNL A   1      34.774  23.306  22.445  1.00  0.00    -0.237 NA
ATOM     82  N   UNL A   1      34.732  23.268  24.821  1.00  0.00    -0.267 N 
ATOM     83  O   UNL A   1      32.743  23.740  25.925  1.00  0.00    -0.268 OA
ATOM     84  C   UNL A   1      35.356  23.106  23.587  1.00  0.00     0.139 A 
ATOM     85  C   UNL A   1      35.430  23.049  26.005  1.00  0.00     0.096 A 
ATOM     86  C   UNL A   1      36.783  22.680  23.599  1.00  0.00     0.048 A 
ATOM     87  C   UNL A   1      36.717  22.682  26.009  1.00  0.00     0.019 A 
ATOM     88  C   UNL A   1      37.413  22.489  24.764  1.00  0.00     0.005 A 
ENDBRANCH  76  78
ENDBRANCH  73  76
ENDBRANCH  68  71
ENDBRANCH  66  67
ENDBRANCH  65  66
ENDBRANCH  64  65
ENDBRANCH   1  64
TORSDOF 15
ENDMDL
MODEL 3
REMARK VINA RESULT:     -11.6      5.229     10.094
REMARK SMILES O=C(NCCCCCCNC(=O)[C@H]1CSCN1C(=O)c1cnc2ccccn2c1=O)c1ccc(-c2c3nc(c(-c4c(F)cccc4F)c4ccc([nH]4)c(-c4c(F)cccc4F)c4nc(c(-c5c(F)cccc5F)c5ccc2[nH]5)C=C4)C=C3)cc1
REMARK SMILES IDX 6 1 5 2 4 3 3 4 1 5 2 6 31 8 32 9 84 10 33 11 83 12 34 13
REMARK SMILES IDX 35 14 36 15 77 16 37 17 82 18 76 19 78 20 38 21 81 22 75 23
REMARK SMILES IDX 74 24 39 26 65 27 48 28 64 29 49 30 52 31 63 32 79 33 50 34
REMARK SMILES IDX 51 35 62 37 80 38 53 39 40 40 41 41 46 42 42 43 43 44 45 45
REMARK SMILES IDX 47 46 44 47 66 48 67 49 72 50 68 51 69 52 71 53 73 54 70 55
REMARK SMILES IDX 54 56 55 57 60 58 56 59 57 60 59 61 61 62 58 63 7 64 8 65
REMARK SMILES IDX 9 66 10 67 11 68 12 70 13 71 14 72 17 73 15 74 16 75 18 76
REMARK SMILES IDX 19 77 20 78 21 79 29 80 22 81 28 82 30 83 23 84 27 85 24 86
REMARK SMILES IDX 26 87 25 88
REMARK H PARENT 3 7 78 25 52 36 10 69
REMARK Flexibility Score: inf
ROOT
ATOM      1  C   UNL A   1      34.380  33.419  29.209  1.00  0.00     0.002 C 
ENDROOT
BRANCH   1   2
ATOM      2  C   UNL A   1      33.259  34.403  28.879  1.00  0.00     0.021 C 
BRANCH   2   3
ATOM      3  C   UNL A   1      33.473  35.817  29.407  1.00  0.00     0.116 C 
BRANCH   3   4
ATOM      4  N   UNL A   1      32.542  36.169  30.467  1.00  0.00    -0.352 N 
ATOM      5  O   UNL A   1      31.616  36.073  32.526  1.00  0.00    -0.269 OA
ATOM      6  C   UNL A   1      32.568  35.817  31.796  1.00  0.00     0.251 C 
ATOM      7  H   UNL A   1      31.787  36.738  30.195  1.00  0.00     0.163 HD
BRANCH   6   8
ATOM      8  C   UNL A   1      33.742  35.100  32.337  1.00  0.00     0.039 A 
ATOM      9  C   UNL A   1      34.999  35.706  32.354  1.00  0.00     0.014 A 
ATOM     10  C   UNL A   1      33.584  33.798  32.822  1.00  0.00     0.014 A 
ATOM     11  C   UNL A   1      36.119  34.961  32.706  1.00  0.00     0.010 A 
ATOM     12  C   UNL A   1      34.700  33.079  33.260  1.00  0.00     0.010 A 
ATOM     13  C   UNL A   1      35.982  33.642  33.167  1.00  0.00    -0.014 A 
BRANCH  13  14
ATOM     14  C   UNL A   1      37.197  32.892  33.579  1.00  0.00     0.031 A 
ATOM     15  C   UNL A   1      37.835  31.879  32.668  1.00  0.00     0.074 A 
ATOM     16  C   UNL A   1      37.751  33.167  34.776  1.00  0.00     0.049 A 
ATOM     17  N   UNL A   1      38.930  31.182  32.851  1.00  0.00    -0.248 NA
ATOM     18  C   UNL A   1      37.157  31.604  31.393  1.00  0.00     0.031 C 
ATOM     19  C   UNL A   1      37.215  34.119  35.752  1.00  0.00     0.029 A 
ATOM     20  N   UNL A   1      38.898  32.700  35.363  1.00  0.00    -0.354 N 
ATOM     21  C   UNL A   1      39.057  30.371  31.730  1.00  0.00     0.074 A 
ATOM     22  C   UNL A   1      37.917  30.645  30.882  1.00  0.00     0.031 C 
ATOM     23  C   UNL A   1      38.062  34.210  36.787  1.00  0.00     0.029 A 
ATOM     24  C   UNL A   1      39.168  33.284  36.577  1.00  0.00     0.049 A 
ATOM     25  H   UNL A   1      39.473  32.012  34.955  1.00  0.00     0.167 HD
ATOM     26  C   UNL A   1      40.037  29.483  31.436  1.00  0.00     0.037 A 
ATOM     27  C   UNL A   1      40.192  33.094  37.428  1.00  0.00     0.037 A 
ATOM     28  C   UNL A   1      41.184  29.231  32.272  1.00  0.00     0.049 A 
ATOM     29  C   UNL A   1      41.262  32.106  37.076  1.00  0.00     0.074 A 
ATOM     30  C   UNL A   1      42.256  28.386  32.036  1.00  0.00     0.029 A 
ATOM     31  N   UNL A   1      41.406  29.820  33.508  1.00  0.00    -0.354 N 
ATOM     32  N   UNL A   1      41.390  31.378  35.993  1.00  0.00    -0.248 NA
ATOM     33  C   UNL A   1      42.330  31.909  38.065  1.00  0.00     0.031 C 
ATOM     34  C   UNL A   1      43.104  28.433  33.148  1.00  0.00     0.029 A 
ATOM     35  C   UNL A   1      42.586  29.342  34.055  1.00  0.00     0.049 A 
ATOM     36  H   UNL A   1      40.814  30.481  33.933  1.00  0.00     0.167 HD
ATOM     37  C   UNL A   1      42.561  30.651  36.161  1.00  0.00     0.074 A 
ATOM     38  C   UNL A   1      43.115  31.041  37.442  1.00  0.00     0.031 C 
ATOM     39  C   UNL A   1      43.125  29.741  35.330  1.00  0.00     0.037 A 
BRANCH  26  40
ATOM     40  C   UNL A   1      39.906  28.698  30.162  1.00  0.00     0.057 A 
ATOM     41  C   UNL A   1      40.515  29.107  28.969  1.00  0.00     0.134 A 
ATOM     42  C   UNL A   1      39.195  27.491  30.142  1.00  0.00     0.134 A 
ATOM     43  F   UNL A   1      41.202  30.258  28.915  1.00  0.00    -0.206 F 
ATOM     44  C   UNL A   1      40.404  28.354  27.797  1.00  0.00     0.040 A 
ATOM     45  C   UNL A   1      39.095  26.719  28.984  1.00  0.00     0.040 A 
ATOM     46  F   UNL A   1      38.592  27.037  31.252  1.00  0.00    -0.206 F 
ATOM     47  C   UNL A   1      39.697  27.152  27.804  1.00  0.00     0.006 A 
ENDBRANCH  26  40
BRANCH  27  48
ATOM     48  C   UNL A   1      40.255  33.873  38.689  1.00  0.00     0.057 A 
ATOM     49  C   UNL A   1      39.593  33.436  39.842  1.00  0.00     0.134 A 
ATOM     50  C   UNL A   1      40.988  35.063  38.777  1.00  0.00     0.134 A 
ATOM     51  F   UNL A   1      38.862  32.311  39.814  1.00  0.00    -0.206 F 
ATOM     52  C   UNL A   1      39.646  34.160  41.033  1.00  0.00     0.040 A 
ATOM     53  C   UNL A   1      41.071  35.784  39.968  1.00  0.00     0.040 A 
ATOM     54  F   UNL A   1      41.651  35.530  37.708  1.00  0.00    -0.206 F 
ATOM     55  C   UNL A   1      40.393  35.334  41.099  1.00  0.00     0.006 A 
ENDBRANCH  27  48
BRANCH  39  56
ATOM     56  C   UNL A   1      44.423  29.134  35.772  1.00  0.00     0.057 A 
ATOM     57  C   UNL A   1      44.468  27.958  36.530  1.00  0.00     0.134 A 
ATOM     58  C   UNL A   1      45.642  29.730  35.425  1.00  0.00     0.134 A 
ATOM     59  F   UNL A   1      43.335  27.349  36.909  1.00  0.00    -0.206 F 
ATOM     60  C   UNL A   1      45.682  27.409  36.951  1.00  0.00     0.040 A 
ATOM     61  C   UNL A   1      46.861  29.178  35.817  1.00  0.00     0.040 A 
ATOM     62  F   UNL A   1      45.668  30.855  34.693  1.00  0.00    -0.206 F 
ATOM     63  C   UNL A   1      46.883  28.017  36.590  1.00  0.00     0.006 A 
ENDBRANCH  39  56
ENDBRANCH  13  14
ENDBRANCH   6   8
ENDBRANCH   3   4
ENDBRANCH   2   3
ENDBRANCH   1   2
BRANCH   1  64
ATOM     64  C   UNL A   1      34.402  32.144  28.360  1.00  0.00     0.002 C 
BRANCH  64  65
ATOM     65  C   UNL A   1      33.164  31.915  27.486  1.00  0.00     0.021 C 
BRANCH  65  66
ATOM     66  C   UNL A   1      32.869  30.449  27.172  1.00  0.00     0.116 C 
BRANCH  66  67
ATOM     67  N   UNL A   1      33.407  30.084  25.877  1.00  0.00    -0.354 N 
ATOM     68  C   UNL A   1      32.853  29.360  24.863  1.00  0.00     0.243 C 
ATOM     69  H   UNL A   1      34.319  30.411  25.701  1.00  0.00     0.163 HD
ATOM     70  O   UNL A   1      33.619  28.926  23.996  1.00  0.00    -0.273 OA
BRANCH  68  71
ATOM     71  C   UNL A   1      31.376  28.913  24.891  1.00  0.00     0.185 C 
ATOM     72  C   UNL A   1      30.741  29.324  23.565  1.00  0.00     0.106 C 
ATOM     73  N   UNL A   1      31.156  27.483  25.141  1.00  0.00    -0.316 N 
ATOM     74  S   UNL A   1      29.532  28.054  23.133  1.00  0.00    -0.138 SA
ATOM     75  C   UNL A   1      30.056  26.899  24.405  1.00  0.00     0.190 C 
BRANCH  73  76
ATOM     76  C   UNL A   1      31.680  26.933  26.299  1.00  0.00     0.262 C 
ATOM     77  O   UNL A   1      31.393  27.363  27.417  1.00  0.00    -0.269 OA
BRANCH  76  78
ATOM     78  C   UNL A   1      32.585  25.768  26.192  1.00  0.00     0.124 A 
ATOM     79  C   UNL A   1      33.728  25.933  25.517  1.00  0.00     0.133 A 
ATOM     80  C   UNL A   1      32.267  24.414  26.686  1.00  0.00     0.270 A 
ATOM     81  N   UNL A   1      34.670  24.965  25.313  1.00  0.00    -0.237 NA
ATOM     82  N   UNL A   1      33.263  23.457  26.495  1.00  0.00    -0.267 N 
ATOM     83  O   UNL A   1      31.184  24.191  27.230  1.00  0.00    -0.268 OA
ATOM     84  C   UNL A   1      34.422  23.786  25.797  1.00  0.00     0.139 A 
ATOM     85  C   UNL A   1      33.077  22.173  26.998  1.00  0.00     0.096 A 
ATOM     86  C   UNL A   1      35.430  22.707  25.608  1.00  0.00     0.048 A 
ATOM     87  C   UNL A   1      33.995  21.212  26.839  1.00  0.00     0.019 A 
ATOM     88  C   UNL A   1      35.208  21.490  26.117  1.00  0.00     0.005 A 
ENDBRANCH  76  78
ENDBRANCH  73  76
ENDBRANCH  68  71
ENDBRANCH  66  67
ENDBRANCH  65  66
ENDBRANCH  64  65
ENDBRANCH   1  64
TORSDOF 15
ENDMDL
