MODEL 1
REMARK VINA RESULT:     -12.2      0.000      0.000
REMARK SMILES O=C(NCCCCCCNC(=O)c1ccc(-c2c3nc(c(-c4c(F)cccc4F)c4ccc([nH]4)c(-c4c(F)cccc4F)c4nc(c(-c5c(F)cccc5F)c5ccc2[nH]5)C=C4)C=C3)cc1)C1=Cc2cc(Cl)cc(-c3ccccc3)c2O[C@@H]1C(F)(F)F
REMARK SMILES IDX 7 1 6 2 5 3 4 4 3 5 1 6 2 7 67 9 68 10 83 11 69 12 82 13
REMARK SMILES IDX 70 14 81 15 71 16 74 17 72 18 73 19 84 20 85 21 86 22 87 23
REMARK SMILES IDX 75 24 76 25 80 26 77 27 79 28 78 29 8 30 9 31 10 32 11 33
REMARK SMILES IDX 12 35 13 36 14 37 66 38 15 39 65 40 16 41 17 42 18 43 59 44
REMARK SMILES IDX 19 45 64 46 58 47 60 48 20 49 63 50 57 51 56 52 21 54 47 55
REMARK SMILES IDX 30 56 46 57 31 58 34 59 45 60 61 61 32 62 33 63 44 65 62 66
REMARK SMILES IDX 35 67 22 68 23 69 28 70 24 71 25 72 27 73 29 74 26 75 48 76
REMARK SMILES IDX 49 77 54 78 50 79 51 80 53 81 55 82 52 83 36 84 37 85 42 86
REMARK SMILES IDX 38 87 39 88 41 89 43 90 40 91
REMARK H PARENT 3 8 10 34 60 53 34 64
REMARK Flexibility Score: inf
ROOT
ATOM      1  C   UNL A   1      32.734  29.311  24.985  1.00  0.00     0.002 C 
ENDROOT
BRANCH   1   2
ATOM      2  C   UNL A   1      31.493  28.564  24.484  1.00  0.00     0.002 C 
BRANCH   2   3
ATOM      3  C   UNL A   1      31.297  28.484  22.970  1.00  0.00     0.021 C 
BRANCH   3   4
ATOM      4  C   UNL A   1      30.908  27.123  22.398  1.00  0.00     0.116 C 
BRANCH   4   5
ATOM      5  N   UNL A   1      32.014  26.305  21.937  1.00  0.00    -0.352 N 
ATOM      6  O   UNL A   1      33.368  24.524  21.792  1.00  0.00    -0.270 OA
ATOM      7  C   UNL A   1      32.483  25.112  22.414  1.00  0.00     0.251 C 
ATOM      8  H   UNL A   1      32.503  26.665  21.161  1.00  0.00     0.163 HD
BRANCH   7   9
ATOM      9  C   UNL A   1      31.911  24.440  23.621  1.00  0.00     0.067 C 
ATOM     10  C   UNL A   1      31.412  23.192  23.588  1.00  0.00     0.025 C 
ATOM     11  C   UNL A   1      32.591  24.891  24.894  1.00  0.00     0.314 C 
ATOM     12  C   UNL A   1      32.328  22.212  24.231  1.00  0.00     0.019 A 
ATOM     13  O   UNL A   1      33.669  23.981  25.238  1.00  0.00    -0.475 OA
ATOM     14  C   UNL A   1      32.166  20.863  23.902  1.00  0.00     0.032 A 
ATOM     15  C   UNL A   1      33.490  22.657  24.898  1.00  0.00     0.135 A 
ATOM     16  C   UNL A   1      33.199  19.973  24.164  1.00  0.00     0.042 A 
ATOM     17  C   UNL A   1      34.568  21.773  25.102  1.00  0.00     0.026 A 
ATOM     18  Cl  UNL A   1      33.074  18.345  23.626  1.00  0.00    -0.084 Cl
ATOM     19  C   UNL A   1      34.387  20.420  24.744  1.00  0.00     0.033 A 
BRANCH  11  20
ATOM     20  C   UNL A   1      31.595  25.092  26.052  1.00  0.00     0.429 C 
ATOM     21  F   UNL A   1      31.999  26.072  26.893  1.00  0.00    -0.167 F 
ATOM     22  F   UNL A   1      30.369  25.446  25.594  1.00  0.00    -0.167 F 
ATOM     23  F   UNL A   1      31.427  23.972  26.797  1.00  0.00    -0.167 F 
ENDBRANCH  11  20
BRANCH  17  24
ATOM     24  C   UNL A   1      35.923  22.238  25.462  1.00  0.00    -0.015 A 
ATOM     25  C   UNL A   1      37.005  21.348  25.335  1.00  0.00     0.009 A 
ATOM     26  C   UNL A   1      36.200  23.534  25.909  1.00  0.00     0.009 A 
ATOM     27  C   UNL A   1      38.313  21.717  25.646  1.00  0.00     0.001 A 
ATOM     28  C   UNL A   1      37.511  23.910  26.229  1.00  0.00     0.001 A 
ATOM     29  C   UNL A   1      38.565  23.003  26.101  1.00  0.00     0.000 A 
ENDBRANCH  17  24
ENDBRANCH   7   9
ENDBRANCH   4   5
ENDBRANCH   3   4
ENDBRANCH   2   3
ENDBRANCH   1   2
BRANCH   1  30
ATOM     30  C   UNL A   1      33.803  28.477  25.696  1.00  0.00     0.021 C 
BRANCH  30  31
ATOM     31  C   UNL A   1      33.826  28.559  27.215  1.00  0.00     0.116 C 
BRANCH  31  32
ATOM     32  N   UNL A   1      33.768  29.932  27.690  1.00  0.00    -0.352 N 
ATOM     33  C   UNL A   1      34.693  30.688  28.369  1.00  0.00     0.251 C 
ATOM     34  H   UNL A   1      32.924  30.398  27.493  1.00  0.00     0.163 HD
ATOM     35  O   UNL A   1      34.346  31.762  28.850  1.00  0.00    -0.269 OA
BRANCH  33  36
ATOM     36  C   UNL A   1      36.096  30.233  28.540  1.00  0.00     0.039 A 
ATOM     37  C   UNL A   1      36.472  29.665  29.764  1.00  0.00     0.014 A 
ATOM     38  C   UNL A   1      37.061  30.417  27.547  1.00  0.00     0.014 A 
ATOM     39  C   UNL A   1      37.790  29.246  29.971  1.00  0.00     0.010 A 
ATOM     40  C   UNL A   1      38.351  29.919  27.721  1.00  0.00     0.010 A 
ATOM     41  C   UNL A   1      38.738  29.346  28.941  1.00  0.00    -0.014 A 
BRANCH  41  42
ATOM     42  C   UNL A   1      40.141  28.892  29.128  1.00  0.00     0.031 A 
ATOM     43  C   UNL A   1      41.160  29.823  29.731  1.00  0.00     0.074 A 
ATOM     44  C   UNL A   1      40.515  27.671  28.700  1.00  0.00     0.049 A 
ATOM     45  N   UNL A   1      42.447  29.647  29.899  1.00  0.00    -0.248 NA
ATOM     46  C   UNL A   1      40.676  31.140  30.178  1.00  0.00     0.031 C 
ATOM     47  C   UNL A   1      39.637  26.689  28.061  1.00  0.00     0.029 A 
ATOM     48  N   UNL A   1      41.739  27.048  28.730  1.00  0.00    -0.354 N 
ATOM     49  C   UNL A   1      42.925  30.836  30.439  1.00  0.00     0.074 A 
ATOM     50  C   UNL A   1      41.801  31.741  30.530  1.00  0.00     0.031 C 
ATOM     51  C   UNL A   1      40.342  25.581  27.785  1.00  0.00     0.029 A 
ATOM     52  C   UNL A   1      41.729  25.785  28.189  1.00  0.00     0.049 A 
ATOM     53  H   UNL A   1      42.547  27.468  29.104  1.00  0.00     0.167 HD
ATOM     54  C   UNL A   1      44.183  31.138  30.842  1.00  0.00     0.037 A 
ATOM     55  C   UNL A   1      42.727  24.895  28.031  1.00  0.00     0.037 A 
ATOM     56  C   UNL A   1      45.289  30.219  30.798  1.00  0.00     0.049 A 
ATOM     57  C   UNL A   1      44.112  25.254  28.497  1.00  0.00     0.074 A 
ATOM     58  C   UNL A   1      46.580  30.401  31.260  1.00  0.00     0.029 A 
ATOM     59  N   UNL A   1      45.232  28.942  30.261  1.00  0.00    -0.354 N 
ATOM     60  N   UNL A   1      44.533  26.355  29.070  1.00  0.00    -0.248 NA
ATOM     61  C   UNL A   1      45.160  24.244  28.295  1.00  0.00     0.031 C 
ATOM     62  C   UNL A   1      47.316  29.250  30.965  1.00  0.00     0.029 A 
ATOM     63  C   UNL A   1      46.472  28.333  30.360  1.00  0.00     0.049 A 
ATOM     64  H   UNL A   1      44.428  28.529  29.868  1.00  0.00     0.167 HD
ATOM     65  C   UNL A   1      45.883  26.157  29.328  1.00  0.00     0.074 A 
ATOM     66  C   UNL A   1      46.208  24.827  28.858  1.00  0.00     0.031 C 
ATOM     67  C   UNL A   1      46.774  27.002  29.902  1.00  0.00     0.037 A 
BRANCH  54  68
ATOM     68  C   UNL A   1      44.432  32.520  31.374  1.00  0.00     0.057 A 
ATOM     69  C   UNL A   1      44.291  32.829  32.733  1.00  0.00     0.134 A 
ATOM     70  C   UNL A   1      44.861  33.545  30.521  1.00  0.00     0.134 A 
ATOM     71  F   UNL A   1      43.873  31.897  33.602  1.00  0.00    -0.206 F 
ATOM     72  C   UNL A   1      44.546  34.111  33.222  1.00  0.00     0.040 A 
ATOM     73  C   UNL A   1      45.144  34.825  31.002  1.00  0.00     0.040 A 
ATOM     74  F   UNL A   1      45.023  33.317  29.209  1.00  0.00    -0.206 F 
ATOM     75  C   UNL A   1      44.982  35.113  32.355  1.00  0.00     0.006 A 
ENDBRANCH  54  68
BRANCH  55  76
ATOM     76  C   UNL A   1      42.456  23.566  27.430  1.00  0.00     0.057 A 
ATOM     77  C   UNL A   1      42.210  22.449  28.238  1.00  0.00     0.134 A 
ATOM     78  C   UNL A   1      42.456  23.370  26.044  1.00  0.00     0.134 A 
ATOM     79  F   UNL A   1      42.218  22.568  29.574  1.00  0.00    -0.206 F 
ATOM     80  C   UNL A   1      41.997  21.182  27.692  1.00  0.00     0.040 A 
ATOM     81  C   UNL A   1      42.219  22.114  25.483  1.00  0.00     0.040 A 
ATOM     82  F   UNL A   1      42.679  24.400  25.214  1.00  0.00    -0.206 F 
ATOM     83  C   UNL A   1      41.997  21.013  26.308  1.00  0.00     0.006 A 
ENDBRANCH  55  76
BRANCH  67  84
ATOM     84  C   UNL A   1      48.173  26.497  30.094  1.00  0.00     0.057 A 
ATOM     85  C   UNL A   1      48.565  25.827  31.259  1.00  0.00     0.134 A 
ATOM     86  C   UNL A   1      49.130  26.654  29.083  1.00  0.00     0.134 A 
ATOM     87  F   UNL A   1      47.700  25.658  32.270  1.00  0.00    -0.206 F 
ATOM     88  C   UNL A   1      49.866  25.347  31.420  1.00  0.00     0.040 A 
ATOM     89  C   UNL A   1      50.425  26.155  29.221  1.00  0.00     0.040 A 
ATOM     90  F   UNL A   1      48.816  27.279  27.938  1.00  0.00    -0.206 F 
ATOM     91  C   UNL A   1      50.798  25.504  30.395  1.00  0.00     0.006 A 
ENDBRANCH  67  84
ENDBRANCH  41  42
ENDBRANCH  33  36
ENDBRANCH  31  32
ENDBRANCH  30  31
ENDBRANCH   1  30
TORSDOF 15
ENDMDL
MODEL 2
REMARK VINA RESULT:     -12.1      1.495      2.927
REMARK SMILES O=C(NCCCCCCNC(=O)c1ccc(-c2c3nc(c(-c4c(F)cccc4F)c4ccc([nH]4)c(-c4c(F)cccc4F)c4nc(c(-c5c(F)cccc5F)c5ccc2[nH]5)C=C4)C=C3)cc1)C1=Cc2cc(Cl)cc(-c3ccccc3)c2O[C@@H]1C(F)(F)F
REMARK SMILES IDX 7 1 6 2 5 3 4 4 3 5 1 6 2 7 67 9 68 10 83 11 69 12 82 13
REMARK SMILES IDX 70 14 81 15 71 16 74 17 72 18 73 19 84 20 85 21 86 22 87 23
REMARK SMILES IDX 75 24 76 25 80 26 77 27 79 28 78 29 8 30 9 31 10 32 11 33
REMARK SMILES IDX 12 35 13 36 14 37 66 38 15 39 65 40 16 41 17 42 18 43 59 44
REMARK SMILES IDX 19 45 64 46 58 47 60 48 20 49 63 50 57 51 56 52 21 54 47 55
REMARK SMILES IDX 30 56 46 57 31 58 34 59 45 60 61 61 32 62 33 63 44 65 62 66
REMARK SMILES IDX 35 67 22 68 23 69 28 70 24 71 25 72 27 73 29 74 26 75 48 76
REMARK SMILES IDX 49 77 54 78 50 79 51 80 53 81 55 82 52 83 36 84 37 85 42 86
REMARK SMILES IDX 38 87 39 88 41 89 43 90 40 91
REMARK H PARENT 3 8 10 34 60 53 34 64
REMARK Flexibility Score: inf
ROOT
ATOM      1  C   UNL A   1      32.514  28.601  24.829  1.00  0.00     0.002 C 
ENDROOT
BRANCH   1   2
ATOM      2  C   UNL A   1      31.389  27.574  24.668  1.00  0.00     0.002 C 
BRANCH   2   3
ATOM      3  C   UNL A   1      30.727  27.064  25.949  1.00  0.00     0.021 C 
BRANCH   3   4
ATOM      4  C   UNL A   1      30.181  25.639  25.921  1.00  0.00     0.116 C 
BRANCH   4   5
ATOM      5  N   UNL A   1      30.869  24.696  26.783  1.00  0.00    -0.352 N 
ATOM      6  O   UNL A   1      32.535  23.405  27.548  1.00  0.00    -0.270 OA
ATOM      7  C   UNL A   1      32.082  24.085  26.626  1.00  0.00     0.251 C 
ATOM      8  H   UNL A   1      30.387  24.459  27.609  1.00  0.00     0.163 HD
BRANCH   7   9
ATOM      9  C   UNL A   1      32.933  24.271  25.410  1.00  0.00     0.067 C 
ATOM     10  C   UNL A   1      34.249  24.539  25.479  1.00  0.00     0.025 C 
ATOM     11  C   UNL A   1      32.446  23.435  24.248  1.00  0.00     0.314 C 
ATOM     12  C   UNL A   1      35.075  23.354  25.126  1.00  0.00     0.019 A 
ATOM     13  O   UNL A   1      33.154  22.167  24.211  1.00  0.00    -0.475 OA
ATOM     14  C   UNL A   1      36.404  23.341  25.559  1.00  0.00     0.032 A 
ATOM     15  C   UNL A   1      34.461  22.176  24.648  1.00  0.00     0.135 A 
ATOM     16  C   UNL A   1      37.094  22.137  25.591  1.00  0.00     0.042 A 
ATOM     17  C   UNL A   1      35.133  20.942  24.745  1.00  0.00     0.026 A 
ATOM     18  Cl  UNL A   1      38.676  22.081  26.264  1.00  0.00    -0.084 Cl
ATOM     19  C   UNL A   1      36.467  20.952  25.202  1.00  0.00     0.033 A 
BRANCH  11  20
ATOM     20  C   UNL A   1      32.521  24.192  22.908  1.00  0.00     0.429 C 
ATOM     21  F   UNL A   1      33.306  25.290  23.000  1.00  0.00    -0.167 F 
ATOM     22  F   UNL A   1      33.044  23.414  21.929  1.00  0.00    -0.167 F 
ATOM     23  F   UNL A   1      31.306  24.605  22.473  1.00  0.00    -0.167 F 
ENDBRANCH  11  20
BRANCH  17  24
ATOM     24  C   UNL A   1      34.441  19.645  24.599  1.00  0.00    -0.015 A 
ATOM     25  C   UNL A   1      35.206  18.465  24.556  1.00  0.00     0.009 A 
ATOM     26  C   UNL A   1      33.051  19.516  24.521  1.00  0.00     0.009 A 
ATOM     27  C   UNL A   1      34.625  17.204  24.431  1.00  0.00     0.001 A 
ATOM     28  C   UNL A   1      32.459  18.253  24.389  1.00  0.00     0.001 A 
ATOM     29  C   UNL A   1      33.244  17.100  24.341  1.00  0.00     0.000 A 
ENDBRANCH  17  24
ENDBRANCH   7   9
ENDBRANCH   4   5
ENDBRANCH   3   4
ENDBRANCH   2   3
ENDBRANCH   1   2
BRANCH   1  30
ATOM     30  C   UNL A   1      33.787  28.127  25.537  1.00  0.00     0.021 C 
BRANCH  30  31
ATOM     31  C   UNL A   1      33.820  28.287  27.050  1.00  0.00     0.116 C 
BRANCH  31  32
ATOM     32  N   UNL A   1      33.736  29.681  27.453  1.00  0.00    -0.352 N 
ATOM     33  C   UNL A   1      34.640  30.483  28.109  1.00  0.00     0.251 C 
ATOM     34  H   UNL A   1      32.890  30.125  27.220  1.00  0.00     0.163 HD
ATOM     35  O   UNL A   1      34.271  31.575  28.530  1.00  0.00    -0.269 OA
BRANCH  33  36
ATOM     36  C   UNL A   1      36.046  30.056  28.325  1.00  0.00     0.039 A 
ATOM     37  C   UNL A   1      36.404  29.539  29.576  1.00  0.00     0.014 A 
ATOM     38  C   UNL A   1      37.028  30.219  27.346  1.00  0.00     0.014 A 
ATOM     39  C   UNL A   1      37.723  29.148  29.825  1.00  0.00     0.010 A 
ATOM     40  C   UNL A   1      38.322  29.748  27.564  1.00  0.00     0.010 A 
ATOM     41  C   UNL A   1      38.691  29.225  28.811  1.00  0.00    -0.014 A 
BRANCH  41  42
ATOM     42  C   UNL A   1      40.096  28.800  29.044  1.00  0.00     0.031 A 
ATOM     43  C   UNL A   1      41.074  29.748  29.688  1.00  0.00     0.074 A 
ATOM     44  C   UNL A   1      40.512  27.591  28.620  1.00  0.00     0.049 A 
ATOM     45  N   UNL A   1      42.358  29.598  29.899  1.00  0.00    -0.248 NA
ATOM     46  C   UNL A   1      40.546  31.050  30.127  1.00  0.00     0.031 C 
ATOM     47  C   UNL A   1      39.677  26.595  27.945  1.00  0.00     0.029 A 
ATOM     48  N   UNL A   1      41.747  26.994  28.688  1.00  0.00    -0.354 N 
ATOM     49  C   UNL A   1      42.791  30.793  30.463  1.00  0.00     0.074 A 
ATOM     50  C   UNL A   1      41.646  31.673  30.522  1.00  0.00     0.031 C 
ATOM     51  C   UNL A   1      40.415  25.504  27.686  1.00  0.00     0.029 A 
ATOM     52  C   UNL A   1      41.783  25.735  28.139  1.00  0.00     0.049 A 
ATOM     53  H   UNL A   1      42.532  27.428  29.093  1.00  0.00     0.167 HD
ATOM     54  C   UNL A   1      44.027  31.119  30.912  1.00  0.00     0.037 A 
ATOM     55  C   UNL A   1      42.805  24.868  28.009  1.00  0.00     0.037 A 
ATOM     56  C   UNL A   1      45.154  30.225  30.899  1.00  0.00     0.049 A 
ATOM     57  C   UNL A   1      44.164  25.253  28.525  1.00  0.00     0.074 A 
ATOM     58  C   UNL A   1      46.425  30.431  31.406  1.00  0.00     0.029 A 
ATOM     59  N   UNL A   1      45.143  28.950  30.352  1.00  0.00    -0.354 N 
ATOM     60  N   UNL A   1      44.542  26.359  29.120  1.00  0.00    -0.248 NA
ATOM     61  C   UNL A   1      45.241  24.267  28.353  1.00  0.00     0.031 C 
ATOM     62  C   UNL A   1      47.195  29.298  31.129  1.00  0.00     0.029 A 
ATOM     63  C   UNL A   1      46.392  28.368  30.489  1.00  0.00     0.049 A 
ATOM     64  H   UNL A   1      44.363  28.523  29.929  1.00  0.00     0.167 HD
ATOM     65  C   UNL A   1      45.886  26.188  29.422  1.00  0.00     0.074 A 
ATOM     66  C   UNL A   1      46.256  24.869  28.955  1.00  0.00     0.031 C 
ATOM     67  C   UNL A   1      46.739  27.047  30.033  1.00  0.00     0.037 A 
BRANCH  54  68
ATOM     68  C   UNL A   1      44.228  32.502  31.461  1.00  0.00     0.057 A 
ATOM     69  C   UNL A   1      44.605  33.577  30.646  1.00  0.00     0.134 A 
ATOM     70  C   UNL A   1      43.998  32.771  32.817  1.00  0.00     0.134 A 
ATOM     71  F   UNL A   1      44.851  33.387  29.341  1.00  0.00    -0.206 F 
ATOM     72  C   UNL A   1      44.768  34.864  31.162  1.00  0.00     0.040 A 
ATOM     73  C   UNL A   1      44.132  34.058  33.340  1.00  0.00     0.040 A 
ATOM     74  F   UNL A   1      43.628  31.789  33.653  1.00  0.00    -0.206 F 
ATOM     75  C   UNL A   1      44.524  35.108  32.513  1.00  0.00     0.006 A 
ENDBRANCH  54  68
BRANCH  55  76
ATOM     76  C   UNL A   1      42.583  23.538  27.390  1.00  0.00     0.057 A 
ATOM     77  C   UNL A   1      42.715  23.357  26.008  1.00  0.00     0.134 A 
ATOM     78  C   UNL A   1      42.214  22.423  28.152  1.00  0.00     0.134 A 
ATOM     79  F   UNL A   1      43.046  24.392  25.221  1.00  0.00    -0.206 F 
ATOM     80  C   UNL A   1      42.467  22.124  25.403  1.00  0.00     0.040 A 
ATOM     81  C   UNL A   1      41.988  21.177  27.564  1.00  0.00     0.040 A 
ATOM     82  F   UNL A   1      42.076  22.528  29.482  1.00  0.00    -0.206 F 
ATOM     83  C   UNL A   1      42.106  21.028  26.183  1.00  0.00     0.006 A 
ENDBRANCH  55  76
BRANCH  67  84
ATOM     84  C   UNL A   1      48.141  26.571  30.269  1.00  0.00     0.057 A 
ATOM     85  C   UNL A   1      49.172  26.824  29.356  1.00  0.00     0.134 A 
ATOM     86  C   UNL A   1      48.470  25.884  31.445  1.00  0.00     0.134 A 
ATOM     87  F   UNL A   1      48.919  27.464  28.205  1.00  0.00    -0.206 F 
ATOM     88  C   UNL A   1      50.478  26.390  29.594  1.00  0.00     0.040 A 
ATOM     89  C   UNL A   1      49.776  25.470  31.707  1.00  0.00     0.040 A 
ATOM     90  F   UNL A   1      47.530  25.619  32.365  1.00  0.00    -0.206 F 
ATOM     91  C   UNL A   1      50.783  25.718  30.776  1.00  0.00     0.006 A 
ENDBRANCH  67  84
ENDBRANCH  41  42
ENDBRANCH  33  36
ENDBRANCH  31  32
ENDBRANCH  30  31
ENDBRANCH   1  30
TORSDOF 15
ENDMDL
MODEL 3
REMARK VINA RESULT:     -12.1      1.879      2.482
REMARK SMILES O=C(NCCCCCCNC(=O)c1ccc(-c2c3nc(c(-c4c(F)cccc4F)c4ccc([nH]4)c(-c4c(F)cccc4F)c4nc(c(-c5c(F)cccc5F)c5ccc2[nH]5)C=C4)C=C3)cc1)C1=Cc2cc(Cl)cc(-c3ccccc3)c2O[C@@H]1C(F)(F)F
REMARK SMILES IDX 7 1 6 2 5 3 4 4 3 5 1 6 2 7 67 9 68 10 83 11 69 12 82 13
REMARK SMILES IDX 70 14 81 15 71 16 74 17 72 18 73 19 84 20 85 21 86 22 87 23
REMARK SMILES IDX 75 24 76 25 80 26 77 27 79 28 78 29 8 30 9 31 10 32 11 33
REMARK SMILES IDX 12 35 13 36 14 37 66 38 15 39 65 40 16 41 17 42 18 43 59 44
REMARK SMILES IDX 19 45 64 46 58 47 60 48 20 49 63 50 57 51 56 52 21 54 47 55
REMARK SMILES IDX 30 56 46 57 31 58 34 59 45 60 61 61 32 62 33 63 44 65 62 66
REMARK SMILES IDX 35 67 22 68 23 69 28 70 24 71 25 72 27 73 29 74 26 75 48 76
REMARK SMILES IDX 49 77 54 78 50 79 51 80 53 81 55 82 52 83 36 84 37 85 42 86
REMARK SMILES IDX 38 87 39 88 41 89 43 90 40 91
REMARK H PARENT 3 8 10 34 60 53 34 64
REMARK Flexibility Score: inf
ROOT
ATOM      1  C   UNL A   1      31.585  29.310  25.102  1.00  0.00     0.002 C 
ENDROOT
BRANCH   1   2
ATOM      2  C   UNL A   1      30.668  28.995  23.915  1.00  0.00     0.002 C 
BRANCH   2   3
ATOM      3  C   UNL A   1      31.346  28.579  22.608  1.00  0.00     0.021 C 
BRANCH   3   4
ATOM      4  C   UNL A   1      31.032  27.179  22.087  1.00  0.00     0.116 C 
BRANCH   4   5
ATOM      5  N   UNL A   1      32.187  26.375  21.735  1.00  0.00    -0.352 N 
ATOM      6  O   UNL A   1      33.611  24.644  21.778  1.00  0.00    -0.270 OA
ATOM      7  C   UNL A   1      32.679  25.240  22.318  1.00  0.00     0.251 C 
ATOM      8  H   UNL A   1      32.696  26.697  20.956  1.00  0.00     0.163 HD
BRANCH   7   9
ATOM      9  C   UNL A   1      32.079  24.634  23.547  1.00  0.00     0.067 C 
ATOM     10  C   UNL A   1      31.544  23.401  23.561  1.00  0.00     0.025 C 
ATOM     11  C   UNL A   1      32.762  25.118  24.806  1.00  0.00     0.314 C 
ATOM     12  C   UNL A   1      32.426  22.422  24.250  1.00  0.00     0.019 A 
ATOM     13  O   UNL A   1      33.811  24.191  25.196  1.00  0.00    -0.475 OA
ATOM     14  C   UNL A   1      32.227  21.066  23.975  1.00  0.00     0.032 A 
ATOM     15  C   UNL A   1      33.596  22.860  24.908  1.00  0.00     0.135 A 
ATOM     16  C   UNL A   1      33.232  20.158  24.281  1.00  0.00     0.042 A 
ATOM     17  C   UNL A   1      34.646  21.954  25.156  1.00  0.00     0.026 A 
ATOM     18  Cl  UNL A   1      33.064  18.513  23.809  1.00  0.00    -0.084 Cl
ATOM     19  C   UNL A   1      34.428  20.594  24.852  1.00  0.00     0.033 A 
BRANCH  11  20
ATOM     20  C   UNL A   1      31.764  25.393  25.947  1.00  0.00     0.429 C 
ATOM     21  F   UNL A   1      31.534  24.284  26.686  1.00  0.00    -0.167 F 
ATOM     22  F   UNL A   1      32.233  26.342  26.795  1.00  0.00    -0.167 F 
ATOM     23  F   UNL A   1      30.563  25.830  25.496  1.00  0.00    -0.167 F 
ENDBRANCH  11  20
BRANCH  17  24
ATOM     24  C   UNL A   1      36.011  22.394  25.509  1.00  0.00    -0.015 A 
ATOM     25  C   UNL A   1      37.069  21.471  25.419  1.00  0.00     0.009 A 
ATOM     26  C   UNL A   1      36.322  23.697  25.912  1.00  0.00     0.009 A 
ATOM     27  C   UNL A   1      38.385  21.815  25.726  1.00  0.00     0.001 A 
ATOM     28  C   UNL A   1      37.641  24.049  26.227  1.00  0.00     0.001 A 
ATOM     29  C   UNL A   1      38.670  23.109  26.137  1.00  0.00     0.000 A 
ENDBRANCH  17  24
ENDBRANCH   7   9
ENDBRANCH   4   5
ENDBRANCH   3   4
ENDBRANCH   2   3
ENDBRANCH   1   2
BRANCH   1  30
ATOM     30  C   UNL A   1      33.067  28.958  24.944  1.00  0.00     0.021 C 
BRANCH  30  31
ATOM     31  C   UNL A   1      33.939  29.133  26.178  1.00  0.00     0.116 C 
BRANCH  31  32
ATOM     32  N   UNL A   1      33.824  30.467  26.744  1.00  0.00    -0.352 N 
ATOM     33  C   UNL A   1      34.537  31.083  27.744  1.00  0.00     0.251 C 
ATOM     34  H   UNL A   1      33.116  31.021  26.345  1.00  0.00     0.163 HD
ATOM     35  O   UNL A   1      34.126  32.147  28.200  1.00  0.00    -0.269 OA
BRANCH  33  36
ATOM     36  C   UNL A   1      35.784  30.491  28.291  1.00  0.00     0.039 A 
ATOM     37  C   UNL A   1      36.992  30.740  27.628  1.00  0.00     0.014 A 
ATOM     38  C   UNL A   1      35.776  29.642  29.400  1.00  0.00     0.014 A 
ATOM     39  C   UNL A   1      38.184  30.181  28.099  1.00  0.00     0.010 A 
ATOM     40  C   UNL A   1      36.974  29.157  29.922  1.00  0.00     0.010 A 
ATOM     41  C   UNL A   1      38.190  29.404  29.268  1.00  0.00    -0.014 A 
BRANCH  41  42
ATOM     42  C   UNL A   1      39.445  28.811  29.800  1.00  0.00     0.031 A 
ATOM     43  C   UNL A   1      40.095  29.397  31.026  1.00  0.00     0.074 A 
ATOM     44  C   UNL A   1      40.036  27.791  29.148  1.00  0.00     0.049 A 
ATOM     45  N   UNL A   1      41.232  29.079  31.595  1.00  0.00    -0.248 NA
ATOM     46  C   UNL A   1      39.390  30.509  31.686  1.00  0.00     0.031 C 
ATOM     47  C   UNL A   1      39.532  27.159  27.927  1.00  0.00     0.029 A 
ATOM     48  N   UNL A   1      41.196  27.107  29.419  1.00  0.00    -0.354 N 
ATOM     49  C   UNL A   1      41.388  29.968  32.652  1.00  0.00     0.074 A 
ATOM     50  C   UNL A   1      40.255  30.865  32.622  1.00  0.00     0.031 C 
ATOM     51  C   UNL A   1      40.363  26.166  27.570  1.00  0.00     0.029 A 
ATOM     52  C   UNL A   1      41.477  26.115  28.511  1.00  0.00     0.049 A 
ATOM     53  H   UNL A   1      41.772  27.311  30.191  1.00  0.00     0.167 HD
ATOM     54  C   UNL A   1      42.376  30.018  33.578  1.00  0.00     0.037 A 
ATOM     55  C   UNL A   1      42.518  25.264  28.442  1.00  0.00     0.037 A 
ATOM     56  C   UNL A   1      43.476  29.093  33.637  1.00  0.00     0.049 A 
ATOM     57  C   UNL A   1      43.596  25.336  29.489  1.00  0.00     0.074 A 
ATOM     58  C   UNL A   1      44.481  29.008  34.585  1.00  0.00     0.029 A 
ATOM     59  N   UNL A   1      43.713  28.089  32.710  1.00  0.00    -0.354 N 
ATOM     60  N   UNL A   1      43.693  26.136  30.524  1.00  0.00    -0.248 NA
ATOM     61  C   UNL A   1      44.708  24.384  29.360  1.00  0.00     0.031 C 
ATOM     62  C   UNL A   1      45.350  27.979  34.208  1.00  0.00     0.029 A 
ATOM     63  C   UNL A   1      44.861  27.394  33.051  1.00  0.00     0.049 A 
ATOM     64  H   UNL A   1      43.148  27.898  31.926  1.00  0.00     0.167 HD
ATOM     65  C   UNL A   1      44.855  25.761  31.185  1.00  0.00     0.074 A 
ATOM     66  C   UNL A   1      45.423  24.657  30.442  1.00  0.00     0.031 C 
ATOM     67  C   UNL A   1      45.404  26.286  32.309  1.00  0.00     0.037 A 
BRANCH  54  68
ATOM     68  C   UNL A   1      42.311  31.107  34.609  1.00  0.00     0.057 A 
ATOM     69  C   UNL A   1      41.653  30.932  35.834  1.00  0.00     0.134 A 
ATOM     70  C   UNL A   1      42.954  32.333  34.393  1.00  0.00     0.134 A 
ATOM     71  F   UNL A   1      41.008  29.787  36.101  1.00  0.00    -0.206 F 
ATOM     72  C   UNL A   1      41.617  31.943  36.795  1.00  0.00     0.040 A 
ATOM     73  C   UNL A   1      42.947  33.342  35.358  1.00  0.00     0.040 A 
ATOM     74  F   UNL A   1      43.609  32.566  33.245  1.00  0.00    -0.206 F 
ATOM     75  C   UNL A   1      42.272  33.151  36.561  1.00  0.00     0.006 A 
ENDBRANCH  54  68
BRANCH  55  76
ATOM     76  C   UNL A   1      42.585  24.249  27.361  1.00  0.00     0.057 A 
ATOM     77  C   UNL A   1      42.106  22.950  27.565  1.00  0.00     0.134 A 
ATOM     78  C   UNL A   1      43.144  24.541  26.112  1.00  0.00     0.134 A 
ATOM     79  F   UNL A   1      41.578  22.603  28.749  1.00  0.00    -0.206 F 
ATOM     80  C   UNL A   1      42.201  21.970  26.576  1.00  0.00     0.040 A 
ATOM     81  C   UNL A   1      43.222  23.578  25.103  1.00  0.00     0.040 A 
ATOM     82  F   UNL A   1      43.616  25.769  25.850  1.00  0.00    -0.206 F 
ATOM     83  C   UNL A   1      42.758  22.285  25.337  1.00  0.00     0.006 A 
ENDBRANCH  55  76
BRANCH  67  84
ATOM     84  C   UNL A   1      46.657  25.645  32.826  1.00  0.00     0.057 A 
ATOM     85  C   UNL A   1      47.925  26.026  32.371  1.00  0.00     0.134 A 
ATOM     86  C   UNL A   1      46.593  24.658  33.818  1.00  0.00     0.134 A 
ATOM     87  F   UNL A   1      48.052  26.955  31.411  1.00  0.00    -0.206 F 
ATOM     88  C   UNL A   1      49.086  25.434  32.871  1.00  0.00     0.040 A 
ATOM     89  C   UNL A   1      47.747  24.079  34.345  1.00  0.00     0.040 A 
ATOM     90  F   UNL A   1      45.409  24.255  34.303  1.00  0.00    -0.206 F 
ATOM     91  C   UNL A   1      48.998  24.463  33.867  1.00  0.00     0.006 A 
ENDBRANCH  67  84
ENDBRANCH  41  42
ENDBRANCH  33  36
ENDBRANCH  31  32
ENDBRANCH  30  31
ENDBRANCH   1  30
TORSDOF 15
ENDMDL
