MODEL 1
REMARK VINA RESULT:     -12.5      0.000      0.000
REMARK SMILES O=C(NCCCCCCNC(=O)[C@@H]1C[C@@H]1C(=O)N1CCN(c2ncc(C(F)(F)F)cc2Cl)CC1)c1ccc(-c2c3nc(c(-c4c(F)cccc4F)c4ccc([nH]4)c(-c4c(F)cccc4F)c4nc(c(-c5c(F)cccc5F)c5ccc2[nH]5)C=C4)C=C3)cc1
REMARK SMILES IDX 7 1 6 2 5 3 4 4 3 5 1 6 2 7 35 9 36 10 88 11 37 12 87 13
REMARK SMILES IDX 38 14 39 15 40 16 81 17 41 18 86 19 80 20 82 21 42 22 85 23
REMARK SMILES IDX 79 24 78 25 43 27 69 28 52 29 68 30 53 31 56 32 67 33 83 34
REMARK SMILES IDX 54 35 55 36 66 38 84 39 57 40 44 41 45 42 50 43 46 44 47 45
REMARK SMILES IDX 49 46 51 47 48 48 70 49 71 50 76 51 72 52 73 53 75 54 77 55
REMARK SMILES IDX 74 56 58 57 59 58 64 59 60 60 61 61 63 62 65 63 62 64 8 65
REMARK SMILES IDX 9 66 10 67 11 68 12 70 13 71 14 72 15 73 16 74 17 75 18 76
REMARK SMILES IDX 19 77 34 78 20 79 33 80 21 81 22 82 23 83 31 84 24 85 30 86
REMARK SMILES IDX 32 87 25 88 26 89 27 90 28 91 29 92
REMARK H PARENT 3 8 82 26 56 37 10 69
REMARK Flexibility Score: inf
ROOT
ATOM      1  C   UNL A   1      34.942  32.666  28.086  1.00  0.00     0.002 C 
ENDROOT
BRANCH   1   2
ATOM      2  C   UNL A   1      34.478  33.483  29.296  1.00  0.00     0.002 C 
BRANCH   2   3
ATOM      3  C   UNL A   1      33.263  34.378  29.067  1.00  0.00     0.021 C 
BRANCH   3   4
ATOM      4  C   UNL A   1      33.452  35.828  29.487  1.00  0.00     0.116 C 
BRANCH   4   5
ATOM      5  N   UNL A   1      32.567  36.237  30.568  1.00  0.00    -0.352 N 
ATOM      6  O   UNL A   1      31.744  36.242  32.677  1.00  0.00    -0.269 OA
ATOM      7  C   UNL A   1      32.636  35.911  31.904  1.00  0.00     0.251 C 
ATOM      8  H   UNL A   1      31.821  36.825  30.310  1.00  0.00     0.163 HD
BRANCH   7   9
ATOM      9  C   UNL A   1      33.791  35.127  32.392  1.00  0.00     0.039 A 
ATOM     10  C   UNL A   1      35.074  35.675  32.341  1.00  0.00     0.014 A 
ATOM     11  C   UNL A   1      33.600  33.826  32.866  1.00  0.00     0.014 A 
ATOM     12  C   UNL A   1      36.172  34.868  32.590  1.00  0.00     0.010 A 
ATOM     13  C   UNL A   1      34.707  33.054  33.236  1.00  0.00     0.010 A 
ATOM     14  C   UNL A   1      36.006  33.560  33.075  1.00  0.00    -0.014 A 
BRANCH  14  15
ATOM     15  C   UNL A   1      37.216  32.808  33.493  1.00  0.00     0.031 A 
ATOM     16  C   UNL A   1      37.874  31.797  32.598  1.00  0.00     0.074 A 
ATOM     17  C   UNL A   1      37.759  33.113  34.690  1.00  0.00     0.049 A 
ATOM     18  N   UNL A   1      38.975  31.116  32.803  1.00  0.00    -0.248 NA
ATOM     19  C   UNL A   1      37.218  31.502  31.315  1.00  0.00     0.031 C 
ATOM     20  C   UNL A   1      37.192  34.065  35.651  1.00  0.00     0.029 A 
ATOM     21  N   UNL A   1      38.915  32.690  35.289  1.00  0.00    -0.354 N 
ATOM     22  C   UNL A   1      39.142  30.312  31.683  1.00  0.00     0.074 A 
ATOM     23  C   UNL A   1      38.012  30.562  30.815  1.00  0.00     0.031 C 
ATOM     24  C   UNL A   1      38.033  34.204  36.684  1.00  0.00     0.029 A 
ATOM     25  C   UNL A   1      39.152  33.292  36.503  1.00  0.00     0.049 A 
ATOM     26  H   UNL A   1      39.518  32.022  34.891  1.00  0.00     0.167 HD
ATOM     27  C   UNL A   1      40.154  29.454  31.405  1.00  0.00     0.037 A 
ATOM     28  C   UNL A   1      40.147  33.112  37.389  1.00  0.00     0.037 A 
ATOM     29  C   UNL A   1      41.275  29.209  32.280  1.00  0.00     0.049 A 
ATOM     30  C   UNL A   1      41.232  32.129  37.064  1.00  0.00     0.074 A 
ATOM     31  C   UNL A   1      42.355  28.364  32.082  1.00  0.00     0.029 A 
ATOM     32  N   UNL A   1      41.460  29.805  33.519  1.00  0.00    -0.354 N 
ATOM     33  N   UNL A   1      41.390  31.400  35.986  1.00  0.00    -0.248 NA
ATOM     34  C   UNL A   1      42.274  31.942  38.079  1.00  0.00     0.031 C 
ATOM     35  C   UNL A   1      43.166  28.412  33.222  1.00  0.00     0.029 A 
ATOM     36  C   UNL A   1      42.624  29.331  34.105  1.00  0.00     0.049 A 
ATOM     37  H   UNL A   1      40.853  30.466  33.923  1.00  0.00     0.167 HD
ATOM     38  C   UNL A   1      42.556  30.676  36.188  1.00  0.00     0.074 A 
ATOM     39  C   UNL A   1      43.084  31.086  37.474  1.00  0.00     0.031 C 
ATOM     40  C   UNL A   1      43.133  29.746  35.388  1.00  0.00     0.037 A 
BRANCH  27  41
ATOM     41  C   UNL A   1      40.103  28.704  30.103  1.00  0.00     0.057 A 
ATOM     42  C   UNL A   1      39.369  27.519  29.962  1.00  0.00     0.134 A 
ATOM     43  C   UNL A   1      40.732  29.210  28.958  1.00  0.00     0.134 A 
ATOM     44  F   UNL A   1      38.751  26.972  31.019  1.00  0.00    -0.206 F 
ATOM     45  C   UNL A   1      39.269  26.861  28.734  1.00  0.00     0.040 A 
ATOM     46  C   UNL A   1      40.619  28.576  27.719  1.00  0.00     0.040 A 
ATOM     47  F   UNL A   1      41.445  30.345  29.019  1.00  0.00    -0.206 F 
ATOM     48  C   UNL A   1      39.887  27.395  27.605  1.00  0.00     0.006 A 
ENDBRANCH  27  41
BRANCH  28  49
ATOM     49  C   UNL A   1      40.140  33.849  38.678  1.00  0.00     0.057 A 
ATOM     50  C   UNL A   1      39.373  33.417  39.765  1.00  0.00     0.134 A 
ATOM     51  C   UNL A   1      40.890  35.021  38.845  1.00  0.00     0.134 A 
ATOM     52  F   UNL A   1      38.623  32.310  39.665  1.00  0.00    -0.206 F 
ATOM     53  C   UNL A   1      39.325  34.140  40.959  1.00  0.00     0.040 A 
ATOM     54  C   UNL A   1      40.882  35.732  40.044  1.00  0.00     0.040 A 
ATOM     55  F   UNL A   1      41.658  35.483  37.846  1.00  0.00    -0.206 F 
ATOM     56  C   UNL A   1      40.087  35.297  41.101  1.00  0.00     0.006 A 
ENDBRANCH  28  49
BRANCH  40  57
ATOM     57  C   UNL A   1      44.414  29.137  35.881  1.00  0.00     0.057 A 
ATOM     58  C   UNL A   1      45.663  29.708  35.599  1.00  0.00     0.134 A 
ATOM     59  C   UNL A   1      44.399  27.958  36.636  1.00  0.00     0.134 A 
ATOM     60  F   UNL A   1      45.747  30.828  34.865  1.00  0.00    -0.206 F 
ATOM     61  C   UNL A   1      46.851  29.106  36.014  1.00  0.00     0.040 A 
ATOM     62  C   UNL A   1      45.580  27.365  37.086  1.00  0.00     0.040 A 
ATOM     63  F   UNL A   1      43.239  27.363  36.950  1.00  0.00    -0.206 F 
ATOM     64  C   UNL A   1      46.810  27.932  36.763  1.00  0.00     0.006 A 
ENDBRANCH  40  57
ENDBRANCH  14  15
ENDBRANCH   7   9
ENDBRANCH   4   5
ENDBRANCH   3   4
ENDBRANCH   2   3
ENDBRANCH   1   2
BRANCH   1  65
ATOM     65  C   UNL A   1      34.497  31.198  28.038  1.00  0.00     0.021 C 
BRANCH  65  66
ATOM     66  C   UNL A   1      33.408  30.874  27.021  1.00  0.00     0.116 C 
BRANCH  66  67
ATOM     67  N   UNL A   1      32.412  29.945  27.522  1.00  0.00    -0.356 N 
ATOM     68  C   UNL A   1      32.429  28.574  27.464  1.00  0.00     0.223 C 
ATOM     69  H   UNL A   1      31.627  30.349  27.957  1.00  0.00     0.163 HD
ATOM     70  O   UNL A   1      31.606  27.923  28.099  1.00  0.00    -0.275 OA
BRANCH  68  71
ATOM     71  C   UNL A   1      33.462  27.920  26.633  1.00  0.00     0.091 C 
ATOM     72  C   UNL A   1      33.380  27.986  25.132  1.00  0.00     0.028 C 
ATOM     73  C   UNL A   1      33.278  26.650  25.839  1.00  0.00     0.092 C 
BRANCH  73  74
ATOM     74  C   UNL A   1      32.066  25.825  25.559  1.00  0.00     0.226 C 
ATOM     75  O   UNL A   1      31.036  26.381  25.195  1.00  0.00    -0.275 OA
ATOM     76  N   UNL A   1      32.296  24.477  25.377  1.00  0.00    -0.339 N 
ATOM     77  C   UNL A   1      31.698  23.769  24.234  1.00  0.00     0.141 C 
ATOM     78  C   UNL A   1      32.611  23.611  26.502  1.00  0.00     0.141 C 
ATOM     79  C   UNL A   1      32.566  22.552  23.797  1.00  0.00     0.139 C 
ATOM     80  C   UNL A   1      33.547  22.492  26.057  1.00  0.00     0.139 C 
ATOM     81  N   UNL A   1      32.887  21.748  24.984  1.00  0.00    -0.352 N 
BRANCH  81  82
ATOM     82  C   UNL A   1      33.178  20.404  24.898  1.00  0.00     0.147 A 
ATOM     83  N   UNL A   1      32.155  19.519  24.958  1.00  0.00    -0.237 NA
ATOM     84  C   UNL A   1      34.504  19.960  24.723  1.00  0.00     0.084 A 
ATOM     85  C   UNL A   1      32.440  18.199  24.821  1.00  0.00     0.126 A 
ATOM     86  C   UNL A   1      34.769  18.600  24.588  1.00  0.00     0.039 A 
ATOM     87  Cl  UNL A   1      35.865  21.033  24.727  1.00  0.00    -0.080 Cl
ATOM     88  C   UNL A   1      33.717  17.689  24.637  1.00  0.00     0.075 A 
BRANCH  88  89
ATOM     89  C   UNL A   1      33.939  16.215  24.510  1.00  0.00     0.417 C 
ATOM     90  F   UNL A   1      32.815  15.494  24.771  1.00  0.00    -0.166 F 
ATOM     91  F   UNL A   1      34.336  15.856  23.259  1.00  0.00    -0.166 F 
ATOM     92  F   UNL A   1      34.894  15.739  25.357  1.00  0.00    -0.166 F 
ENDBRANCH  88  89
ENDBRANCH  81  82
ENDBRANCH  73  74
ENDBRANCH  68  71
ENDBRANCH  66  67
ENDBRANCH  65  66
ENDBRANCH   1  65
TORSDOF 16
ENDMDL
MODEL 2
REMARK VINA RESULT:     -12.0      1.041      6.048
REMARK SMILES O=C(NCCCCCCNC(=O)[C@@H]1C[C@@H]1C(=O)N1CCN(c2ncc(C(F)(F)F)cc2Cl)CC1)c1ccc(-c2c3nc(c(-c4c(F)cccc4F)c4ccc([nH]4)c(-c4c(F)cccc4F)c4nc(c(-c5c(F)cccc5F)c5ccc2[nH]5)C=C4)C=C3)cc1
REMARK SMILES IDX 7 1 6 2 5 3 4 4 3 5 1 6 2 7 35 9 36 10 88 11 37 12 87 13
REMARK SMILES IDX 38 14 39 15 40 16 81 17 41 18 86 19 80 20 82 21 42 22 85 23
REMARK SMILES IDX 79 24 78 25 43 27 69 28 52 29 68 30 53 31 56 32 67 33 83 34
REMARK SMILES IDX 54 35 55 36 66 38 84 39 57 40 44 41 45 42 50 43 46 44 47 45
REMARK SMILES IDX 49 46 51 47 48 48 70 49 71 50 76 51 72 52 73 53 75 54 77 55
REMARK SMILES IDX 74 56 58 57 59 58 64 59 60 60 61 61 63 62 65 63 62 64 8 65
REMARK SMILES IDX 9 66 10 67 11 68 12 70 13 71 14 72 15 73 16 74 17 75 18 76
REMARK SMILES IDX 19 77 34 78 20 79 33 80 21 81 22 82 23 83 31 84 24 85 30 86
REMARK SMILES IDX 32 87 25 88 26 89 27 90 28 91 29 92
REMARK H PARENT 3 8 82 26 56 37 10 69
REMARK Flexibility Score: inf
ROOT
ATOM      1  C   UNL A   1      34.450  32.088  28.761  1.00  0.00     0.002 C 
ENDROOT
BRANCH   1   2
ATOM      2  C   UNL A   1      34.580  33.560  29.165  1.00  0.00     0.002 C 
BRANCH   2   3
ATOM      3  C   UNL A   1      33.322  34.409  28.995  1.00  0.00     0.021 C 
BRANCH   3   4
ATOM      4  C   UNL A   1      33.432  35.825  29.539  1.00  0.00     0.116 C 
BRANCH   4   5
ATOM      5  N   UNL A   1      32.534  36.088  30.654  1.00  0.00    -0.352 N 
ATOM      6  O   UNL A   1      31.750  35.894  32.768  1.00  0.00    -0.269 OA
ATOM      7  C   UNL A   1      32.655  35.691  31.966  1.00  0.00     0.251 C 
ATOM      8  H   UNL A   1      31.733  36.621  30.440  1.00  0.00     0.163 HD
BRANCH   7   9
ATOM      9  C   UNL A   1      33.884  34.987  32.392  1.00  0.00     0.039 A 
ATOM     10  C   UNL A   1      35.118  35.633  32.309  1.00  0.00     0.014 A 
ATOM     11  C   UNL A   1      33.811  33.665  32.839  1.00  0.00     0.014 A 
ATOM     12  C   UNL A   1      36.283  34.908  32.498  1.00  0.00     0.010 A 
ATOM     13  C   UNL A   1      34.986  32.972  33.150  1.00  0.00     0.010 A 
ATOM     14  C   UNL A   1      36.235  33.581  32.955  1.00  0.00    -0.014 A 
BRANCH  14  15
ATOM     15  C   UNL A   1      37.514  32.914  33.309  1.00  0.00     0.031 A 
ATOM     16  C   UNL A   1      38.223  33.190  34.605  1.00  0.00     0.074 A 
ATOM     17  C   UNL A   1      37.994  31.988  32.455  1.00  0.00     0.049 A 
ATOM     18  N   UNL A   1      39.310  32.630  35.078  1.00  0.00    -0.248 NA
ATOM     19  C   UNL A   1      37.654  34.225  35.481  1.00  0.00     0.031 C 
ATOM     20  C   UNL A   1      37.398  31.654  31.157  1.00  0.00     0.029 A 
ATOM     21  N   UNL A   1      39.060  31.134  32.555  1.00  0.00    -0.354 N 
ATOM     22  C   UNL A   1      39.556  33.244  36.300  1.00  0.00     0.074 A 
ATOM     23  C   UNL A   1      38.527  34.245  36.481  1.00  0.00     0.031 C 
ATOM     24  C   UNL A   1      38.064  30.626  30.615  1.00  0.00     0.029 A 
ATOM     25  C   UNL A   1      39.182  30.284  31.482  1.00  0.00     0.049 A 
ATOM     26  H   UNL A   1      39.679  31.129  33.321  1.00  0.00     0.167 HD
ATOM     27  C   UNL A   1      40.546  32.985  37.189  1.00  0.00     0.037 A 
ATOM     28  C   UNL A   1      40.107  29.348  31.208  1.00  0.00     0.037 A 
ATOM     29  C   UNL A   1      41.571  31.987  36.996  1.00  0.00     0.049 A 
ATOM     30  C   UNL A   1      41.208  29.112  32.198  1.00  0.00     0.074 A 
ATOM     31  C   UNL A   1      42.612  31.645  37.843  1.00  0.00     0.029 A 
ATOM     32  N   UNL A   1      41.686  31.174  35.877  1.00  0.00    -0.354 N 
ATOM     33  N   UNL A   1      41.408  29.681  33.362  1.00  0.00    -0.248 NA
ATOM     34  C   UNL A   1      42.213  28.107  31.836  1.00  0.00     0.031 C 
ATOM     35  C   UNL A   1      43.384  30.661  37.216  1.00  0.00     0.029 A 
ATOM     36  C   UNL A   1      42.792  30.346  36.004  1.00  0.00     0.049 A 
ATOM     37  H   UNL A   1      41.074  31.185  35.107  1.00  0.00     0.167 HD
ATOM     38  C   UNL A   1      42.555  29.094  33.877  1.00  0.00     0.074 A 
ATOM     39  C   UNL A   1      42.981  28.097  32.915  1.00  0.00     0.031 C 
ATOM     40  C   UNL A   1      43.205  29.363  35.036  1.00  0.00     0.037 A 
BRANCH  27  41
ATOM     41  C   UNL A   1      40.583  33.793  38.456  1.00  0.00     0.057 A 
ATOM     42  C   UNL A   1      41.386  34.935  38.579  1.00  0.00     0.134 A 
ATOM     43  C   UNL A   1      39.752  33.472  39.537  1.00  0.00     0.134 A 
ATOM     44  F   UNL A   1      42.214  35.296  37.588  1.00  0.00    -0.206 F 
ATOM     45  C   UNL A   1      41.366  35.722  39.734  1.00  0.00     0.040 A 
ATOM     46  C   UNL A   1      39.705  34.263  40.686  1.00  0.00     0.040 A 
ATOM     47  F   UNL A   1      38.952  32.396  39.483  1.00  0.00    -0.206 F 
ATOM     48  C   UNL A   1      40.517  35.391  40.788  1.00  0.00     0.006 A 
ENDBRANCH  27  41
BRANCH  28  49
ATOM     49  C   UNL A   1      40.051  28.597  29.929  1.00  0.00     0.057 A 
ATOM     50  C   UNL A   1      39.327  27.405  29.810  1.00  0.00     0.134 A 
ATOM     51  C   UNL A   1      40.740  29.045  28.794  1.00  0.00     0.134 A 
ATOM     52  F   UNL A   1      38.655  26.915  30.862  1.00  0.00    -0.206 F 
ATOM     53  C   UNL A   1      39.317  26.671  28.622  1.00  0.00     0.040 A 
ATOM     54  C   UNL A   1      40.709  28.343  27.591  1.00  0.00     0.040 A 
ATOM     55  F   UNL A   1      41.444  30.188  28.837  1.00  0.00    -0.206 F 
ATOM     56  C   UNL A   1      40.006  27.144  27.507  1.00  0.00     0.006 A 
ENDBRANCH  28  49
BRANCH  40  57
ATOM     57  C   UNL A   1      44.428  28.542  35.326  1.00  0.00     0.057 A 
ATOM     58  C   UNL A   1      45.707  28.947  34.918  1.00  0.00     0.134 A 
ATOM     59  C   UNL A   1      44.324  27.326  36.011  1.00  0.00     0.134 A 
ATOM     60  F   UNL A   1      45.872  30.094  34.241  1.00  0.00    -0.206 F 
ATOM     61  C   UNL A   1      46.830  28.152  35.143  1.00  0.00     0.040 A 
ATOM     62  C   UNL A   1      45.446  26.537  36.273  1.00  0.00     0.040 A 
ATOM     63  F   UNL A   1      43.133  26.882  36.438  1.00  0.00    -0.206 F 
ATOM     64  C   UNL A   1      46.701  26.944  35.827  1.00  0.00     0.006 A 
ENDBRANCH  40  57
ENDBRANCH  14  15
ENDBRANCH   7   9
ENDBRANCH   4   5
ENDBRANCH   3   4
ENDBRANCH   2   3
ENDBRANCH   1   2
BRANCH   1  65
ATOM     65  C   UNL A   1      33.522  31.781  27.578  1.00  0.00     0.021 C 
BRANCH  65  66
ATOM     66  C   UNL A   1      33.304  30.300  27.281  1.00  0.00     0.116 C 
BRANCH  66  67
ATOM     67  N   UNL A   1      33.586  29.944  25.903  1.00  0.00    -0.356 N 
ATOM     68  C   UNL A   1      32.888  29.085  25.092  1.00  0.00     0.223 C 
ATOM     69  H   UNL A   1      34.376  30.370  25.501  1.00  0.00     0.163 HD
ATOM     70  O   UNL A   1      33.142  29.031  23.892  1.00  0.00    -0.275 OA
BRANCH  68  71
ATOM     71  C   UNL A   1      31.832  28.249  25.699  1.00  0.00     0.091 C 
ATOM     72  C   UNL A   1      32.115  26.816  26.063  1.00  0.00     0.028 C 
ATOM     73  C   UNL A   1      31.079  27.139  25.006  1.00  0.00     0.092 C 
BRANCH  73  74
ATOM     74  C   UNL A   1      31.261  26.509  23.664  1.00  0.00     0.226 C 
ATOM     75  O   UNL A   1      31.357  27.228  22.676  1.00  0.00    -0.275 OA
ATOM     76  N   UNL A   1      31.673  25.193  23.679  1.00  0.00    -0.339 N 
ATOM     77  C   UNL A   1      32.785  24.753  22.822  1.00  0.00     0.141 C 
ATOM     78  C   UNL A   1      30.756  24.124  24.043  1.00  0.00     0.141 C 
ATOM     79  C   UNL A   1      33.536  23.537  23.439  1.00  0.00     0.139 C 
ATOM     80  C   UNL A   1      31.514  22.998  24.740  1.00  0.00     0.139 C 
ATOM     81  N   UNL A   1      32.552  22.518  23.828  1.00  0.00    -0.352 N 
BRANCH  81  82
ATOM     82  C   UNL A   1      32.880  21.182  23.918  1.00  0.00     0.147 A 
ATOM     83  N   UNL A   1      32.172  20.295  23.179  1.00  0.00    -0.237 NA
ATOM     84  C   UNL A   1      33.945  20.752  24.735  1.00  0.00     0.084 A 
ATOM     85  C   UNL A   1      32.532  18.987  23.230  1.00  0.00     0.126 A 
ATOM     86  C   UNL A   1      34.290  19.404  24.770  1.00  0.00     0.039 A 
ATOM     87  Cl  UNL A   1      34.831  21.822  25.769  1.00  0.00    -0.080 Cl
ATOM     88  C   UNL A   1      33.572  18.491  24.003  1.00  0.00     0.075 A 
BRANCH  88  89
ATOM     89  C   UNL A   1      33.888  17.029  24.008  1.00  0.00     0.417 C 
ATOM     90  F   UNL A   1      34.345  16.591  22.804  1.00  0.00    -0.166 F 
ATOM     91  F   UNL A   1      34.848  16.708  24.916  1.00  0.00    -0.166 F 
ATOM     92  F   UNL A   1      32.813  16.247  24.307  1.00  0.00    -0.166 F 
ENDBRANCH  88  89
ENDBRANCH  81  82
ENDBRANCH  73  74
ENDBRANCH  68  71
ENDBRANCH  66  67
ENDBRANCH  65  66
ENDBRANCH   1  65
TORSDOF 16
ENDMDL
MODEL 3
REMARK VINA RESULT:     -11.8      4.302      9.211
REMARK SMILES O=C(NCCCCCCNC(=O)[C@@H]1C[C@@H]1C(=O)N1CCN(c2ncc(C(F)(F)F)cc2Cl)CC1)c1ccc(-c2c3nc(c(-c4c(F)cccc4F)c4ccc([nH]4)c(-c4c(F)cccc4F)c4nc(c(-c5c(F)cccc5F)c5ccc2[nH]5)C=C4)C=C3)cc1
REMARK SMILES IDX 7 1 6 2 5 3 4 4 3 5 1 6 2 7 35 9 36 10 88 11 37 12 87 13
REMARK SMILES IDX 38 14 39 15 40 16 81 17 41 18 86 19 80 20 82 21 42 22 85 23
REMARK SMILES IDX 79 24 78 25 43 27 69 28 52 29 68 30 53 31 56 32 67 33 83 34
REMARK SMILES IDX 54 35 55 36 66 38 84 39 57 40 44 41 45 42 50 43 46 44 47 45
REMARK SMILES IDX 49 46 51 47 48 48 70 49 71 50 76 51 72 52 73 53 75 54 77 55
REMARK SMILES IDX 74 56 58 57 59 58 64 59 60 60 61 61 63 62 65 63 62 64 8 65
REMARK SMILES IDX 9 66 10 67 11 68 12 70 13 71 14 72 15 73 16 74 17 75 18 76
REMARK SMILES IDX 19 77 34 78 20 79 33 80 21 81 22 82 23 83 31 84 24 85 30 86
REMARK SMILES IDX 32 87 25 88 26 89 27 90 28 91 29 92
REMARK H PARENT 3 8 82 26 56 37 10 69
REMARK Flexibility Score: inf
ROOT
ATOM      1  C   UNL A   1      39.532  21.832  26.317  1.00  0.00     0.002 C 
ENDROOT
BRANCH   1   2
ATOM      2  C   UNL A   1      40.667  20.857  25.989  1.00  0.00     0.002 C 
BRANCH   2   3
ATOM      3  C   UNL A   1      41.706  20.651  27.089  1.00  0.00     0.021 C 
BRANCH   3   4
ATOM      4  C   UNL A   1      42.625  21.840  27.327  1.00  0.00     0.116 C 
BRANCH   4   5
ATOM      5  N   UNL A   1      43.093  22.465  26.099  1.00  0.00    -0.352 N 
ATOM      6  O   UNL A   1      43.399  24.156  24.626  1.00  0.00    -0.269 OA
ATOM      7  C   UNL A   1      43.073  23.797  25.752  1.00  0.00     0.251 C 
ATOM      8  H   UNL A   1      43.474  21.854  25.427  1.00  0.00     0.163 HD
BRANCH   7   9
ATOM      9  C   UNL A   1      42.623  24.792  26.749  1.00  0.00     0.039 A 
ATOM     10  C   UNL A   1      43.325  25.988  26.901  1.00  0.00     0.014 A 
ATOM     11  C   UNL A   1      41.521  24.514  27.563  1.00  0.00     0.014 A 
ATOM     12  C   UNL A   1      43.040  26.816  27.975  1.00  0.00     0.010 A 
ATOM     13  C   UNL A   1      41.158  25.416  28.569  1.00  0.00     0.010 A 
ATOM     14  C   UNL A   1      41.933  26.563  28.801  1.00  0.00    -0.014 A 
BRANCH  14  15
ATOM     15  C   UNL A   1      41.573  27.579  29.822  1.00  0.00     0.031 A 
ATOM     16  C   UNL A   1      40.427  28.531  29.628  1.00  0.00     0.074 A 
ATOM     17  C   UNL A   1      42.269  27.579  30.977  1.00  0.00     0.049 A 
ATOM     18  N   UNL A   1      39.954  29.423  30.464  1.00  0.00    -0.248 NA
ATOM     19  C   UNL A   1      39.723  28.488  28.338  1.00  0.00     0.031 C 
ATOM     20  C   UNL A   1      43.417  26.712  31.266  1.00  0.00     0.029 A 
ATOM     21  N   UNL A   1      42.101  28.295  32.132  1.00  0.00    -0.354 N 
ATOM     22  C   UNL A   1      38.904  30.049  29.803  1.00  0.00     0.074 A 
ATOM     23  C   UNL A   1      38.829  29.459  28.484  1.00  0.00     0.031 C 
ATOM     24  C   UNL A   1      43.805  26.898  32.534  1.00  0.00     0.029 A 
ATOM     25  C   UNL A   1      42.994  27.955  33.121  1.00  0.00     0.049 A 
ATOM     26  H   UNL A   1      41.409  28.986  32.244  1.00  0.00     0.167 HD
ATOM     27  C   UNL A   1      38.075  31.017  30.264  1.00  0.00     0.037 A 
ATOM     28  C   UNL A   1      43.162  28.454  34.357  1.00  0.00     0.037 A 
ATOM     29  C   UNL A   1      38.162  31.601  31.582  1.00  0.00     0.049 A 
ATOM     30  C   UNL A   1      42.249  29.550  34.822  1.00  0.00     0.074 A 
ATOM     31  C   UNL A   1      37.362  32.582  32.144  1.00  0.00     0.029 A 
ATOM     32  N   UNL A   1      39.105  31.260  32.540  1.00  0.00    -0.354 N 
ATOM     33  N   UNL A   1      41.242  30.107  34.194  1.00  0.00    -0.248 NA
ATOM     34  C   UNL A   1      42.497  30.086  36.164  1.00  0.00     0.031 C 
ATOM     35  C   UNL A   1      37.851  32.869  33.423  1.00  0.00     0.029 A 
ATOM     36  C   UNL A   1      38.919  32.026  33.682  1.00  0.00     0.049 A 
ATOM     37  H   UNL A   1      39.804  30.576  32.427  1.00  0.00     0.167 HD
ATOM     38  C   UNL A   1      40.729  31.053  35.070  1.00  0.00     0.074 A 
ATOM     39  C   UNL A   1      41.511  30.962  36.287  1.00  0.00     0.031 C 
ATOM     40  C   UNL A   1      39.710  31.926  34.883  1.00  0.00     0.037 A 
BRANCH  27  41
ATOM     41  C   UNL A   1      37.000  31.521  29.343  1.00  0.00     0.057 A 
ATOM     42  C   UNL A   1      35.849  30.770  29.072  1.00  0.00     0.134 A 
ATOM     43  C   UNL A   1      37.079  32.802  28.780  1.00  0.00     0.134 A 
ATOM     44  F   UNL A   1      35.712  29.531  29.568  1.00  0.00    -0.206 F 
ATOM     45  C   UNL A   1      34.821  31.270  28.268  1.00  0.00     0.040 A 
ATOM     46  C   UNL A   1      36.047  33.323  27.997  1.00  0.00     0.040 A 
ATOM     47  F   UNL A   1      38.150  33.579  29.005  1.00  0.00    -0.206 F 
ATOM     48  C   UNL A   1      34.915  32.555  27.736  1.00  0.00     0.006 A 
ENDBRANCH  27  41
BRANCH  28  49
ATOM     49  C   UNL A   1      44.259  27.950  35.222  1.00  0.00     0.057 A 
ATOM     50  C   UNL A   1      44.069  26.869  36.090  1.00  0.00     0.134 A 
ATOM     51  C   UNL A   1      45.523  28.554  35.214  1.00  0.00     0.134 A 
ATOM     52  F   UNL A   1      42.879  26.255  36.155  1.00  0.00    -0.206 F 
ATOM     53  C   UNL A   1      45.085  26.429  36.941  1.00  0.00     0.040 A 
ATOM     54  C   UNL A   1      46.558  28.101  36.031  1.00  0.00     0.040 A 
ATOM     55  F   UNL A   1      45.775  29.588  34.395  1.00  0.00    -0.206 F 
ATOM     56  C   UNL A   1      46.335  27.043  36.908  1.00  0.00     0.006 A 
ENDBRANCH  28  49
BRANCH  40  57
ATOM     57  C   UNL A   1      39.377  32.829  36.036  1.00  0.00     0.057 A 
ATOM     58  C   UNL A   1      38.445  32.464  37.017  1.00  0.00     0.134 A 
ATOM     59  C   UNL A   1      39.986  34.083  36.158  1.00  0.00     0.134 A 
ATOM     60  F   UNL A   1      37.813  31.282  36.948  1.00  0.00    -0.206 F 
ATOM     61  C   UNL A   1      38.101  33.331  38.055  1.00  0.00     0.040 A 
ATOM     62  C   UNL A   1      39.675  34.946  37.211  1.00  0.00     0.040 A 
ATOM     63  F   UNL A   1      40.893  34.493  35.259  1.00  0.00    -0.206 F 
ATOM     64  C   UNL A   1      38.721  34.575  38.155  1.00  0.00     0.006 A 
ENDBRANCH  40  57
ENDBRANCH  14  15
ENDBRANCH   7   9
ENDBRANCH   4   5
ENDBRANCH   3   4
ENDBRANCH   2   3
ENDBRANCH   1   2
BRANCH   1  65
ATOM     65  C   UNL A   1      38.253  21.702  25.478  1.00  0.00     0.021 C 
BRANCH  65  66
ATOM     66  C   UNL A   1      37.233  22.822  25.656  1.00  0.00     0.116 C 
BRANCH  66  67
ATOM     67  N   UNL A   1      36.113  22.450  26.500  1.00  0.00    -0.356 N 
ATOM     68  C   UNL A   1      34.937  21.850  26.128  1.00  0.00     0.223 C 
ATOM     69  H   UNL A   1      36.210  22.654  27.458  1.00  0.00     0.163 HD
ATOM     70  O   UNL A   1      34.166  21.428  26.984  1.00  0.00    -0.275 OA
BRANCH  68  71
ATOM     71  C   UNL A   1      34.640  21.724  24.686  1.00  0.00     0.091 C 
ATOM     72  C   UNL A   1      34.152  22.914  23.905  1.00  0.00     0.028 C 
ATOM     73  C   UNL A   1      33.262  21.699  24.070  1.00  0.00     0.092 C 
BRANCH  73  74
ATOM     74  C   UNL A   1      31.910  21.924  24.661  1.00  0.00     0.226 C 
ATOM     75  O   UNL A   1      31.494  21.147  25.512  1.00  0.00    -0.275 OA
ATOM     76  N   UNL A   1      31.386  23.187  24.477  1.00  0.00    -0.339 N 
ATOM     77  C   UNL A   1      30.799  23.921  25.610  1.00  0.00     0.141 C 
ATOM     78  C   UNL A   1      30.875  23.605  23.181  1.00  0.00     0.141 C 
ATOM     79  C   UNL A   1      30.916  25.461  25.416  1.00  0.00     0.139 C 
ATOM     80  C   UNL A   1      31.103  25.101  22.985  1.00  0.00     0.139 C 
ATOM     81  N   UNL A   1      30.430  25.809  24.074  1.00  0.00    -0.352 N 
BRANCH  81  82
ATOM     82  C   UNL A   1      29.932  27.060  23.779  1.00  0.00     0.147 A 
ATOM     83  N   UNL A   1      28.612  27.178  23.501  1.00  0.00    -0.237 NA
ATOM     84  C   UNL A   1      30.769  28.194  23.795  1.00  0.00     0.084 A 
ATOM     85  C   UNL A   1      28.116  28.419  23.263  1.00  0.00     0.126 A 
ATOM     86  C   UNL A   1      30.234  29.454  23.543  1.00  0.00     0.039 A 
ATOM     87  Cl  UNL A   1      32.479  28.099  24.054  1.00  0.00    -0.080 Cl
ATOM     88  C   UNL A   1      28.875  29.580  23.269  1.00  0.00     0.075 A 
BRANCH  88  89
ATOM     89  C   UNL A   1      28.244  30.905  22.981  1.00  0.00     0.417 C 
ATOM     90  F   UNL A   1      29.142  31.926  22.999  1.00  0.00    -0.166 F 
ATOM     91  F   UNL A   1      27.653  30.944  21.756  1.00  0.00    -0.166 F 
ATOM     92  F   UNL A   1      27.274  31.245  23.875  1.00  0.00    -0.166 F 
ENDBRANCH  88  89
ENDBRANCH  81  82
ENDBRANCH  73  74
ENDBRANCH  68  71
ENDBRANCH  66  67
ENDBRANCH  65  66
ENDBRANCH   1  65
TORSDOF 16
ENDMDL
