MODEL 1
REMARK VINA RESULT:     -11.7      0.000      0.000
REMARK SMILES CCC(=O)Nc1cc(NC(=O)/C=C/C(=O)NCCCCCCNC(=O)c2ccc(-c3c4nc(c(-c5c(F)cccc5F)c5ccc([nH]5)c(-c5c(F)cccc5F)c5nc(c(-c6c(F)cccc6F)c6ccc3[nH]6)C=C5)C=C4)cc2)ccc1C
REMARK SMILES IDX 18 1 17 2 16 3 14 4 15 5 13 7 12 8 10 9 9 10 11 12 8 13 6 14
REMARK SMILES IDX 7 15 82 16 81 17 83 18 80 19 5 20 3 21 4 22 2 24 1 25 19 26
REMARK SMILES IDX 20 27 21 28 22 29 23 30 24 31 25 33 26 34 27 35 79 36 28 37
REMARK SMILES IDX 78 38 29 39 30 40 31 41 72 42 32 43 77 44 71 45 73 46 33 47
REMARK SMILES IDX 76 48 70 49 69 50 34 52 60 53 43 54 59 55 44 56 47 57 58 58
REMARK SMILES IDX 74 59 45 60 46 61 57 63 75 64 48 65 35 66 36 67 41 68 37 69
REMARK SMILES IDX 38 70 40 71 42 72 39 73 61 74 62 75 67 76 63 77 64 78 66 79
REMARK SMILES IDX 68 80 65 81 49 82 50 83 55 84 51 85 52 86 54 87 56 88 53 89
REMARK H PARENT 16 6 9 11 5 23 23 32 73 51 47 62
REMARK Flexibility Score: inf
ROOT
ATOM      1  C   UNL A   1      32.293  26.934  25.986  1.00  0.00     0.021 C 
ENDROOT
BRANCH   1   2
ATOM      2  C   UNL A   1      31.650  27.477  24.714  1.00  0.00     0.116 C 
BRANCH   2   3
ATOM      3  N   UNL A   1      32.539  28.384  24.021  1.00  0.00    -0.353 N 
ATOM      4  C   UNL A   1      33.549  28.094  23.167  1.00  0.00     0.244 C 
ATOM      5  O   UNL A   1      34.344  28.964  22.821  1.00  0.00    -0.270 OA
ATOM      6  H   UNL A   1      32.390  29.341  24.194  1.00  0.00     0.163 HD
BRANCH   4   7
ATOM      7  C   UNL A   1      33.666  26.738  22.595  1.00  0.00     0.077 C 
ATOM      8  C   UNL A   1      32.637  26.260  21.877  1.00  0.00     0.077 C 
BRANCH   8   9
ATOM      9  C   UNL A   1      32.823  25.128  20.954  1.00  0.00     0.248 C 
ATOM     10  N   UNL A   1      32.666  23.844  21.408  1.00  0.00    -0.322 N 
ATOM     11  H   UNL A   1      32.812  23.151  20.725  1.00  0.00     0.170 HD
ATOM     12  O   UNL A   1      33.116  25.354  19.783  1.00  0.00    -0.270 OA
BRANCH  10  13
ATOM     13  C   UNL A   1      32.329  23.344  22.683  1.00  0.00     0.043 A 
ATOM     14  C   UNL A   1      32.911  22.218  24.763  1.00  0.00     0.046 A 
ATOM     15  C   UNL A   1      33.099  22.423  23.394  1.00  0.00     0.052 A 
ATOM     16  C   UNL A   1      31.896  22.911  25.431  1.00  0.00    -0.027 A 
ATOM     17  C   UNL A   1      30.992  23.671  24.669  1.00  0.00     0.008 A 
ATOM     18  C   UNL A   1      31.810  23.020  26.928  1.00  0.00     0.046 C 
ATOM     19  C   UNL A   1      31.206  23.884  23.305  1.00  0.00     0.026 A 
BRANCH  14  20
ATOM     20  N   UNL A   1      33.946  21.561  25.442  1.00  0.00    -0.326 N 
ATOM     21  C   UNL A   1      35.223  21.972  25.690  1.00  0.00     0.224 C 
ATOM     22  O   UNL A   1      36.046  21.165  26.133  1.00  0.00    -0.275 OA
ATOM     23  H   UNL A   1      33.717  20.670  25.793  1.00  0.00     0.169 HD
BRANCH  21  24
ATOM     24  C   UNL A   1      35.588  23.438  25.554  1.00  0.00     0.097 C 
ATOM     25  C   UNL A   1      36.522  23.772  24.414  1.00  0.00     0.014 C 
ENDBRANCH  21  24
ENDBRANCH  14  20
ENDBRANCH  10  13
ENDBRANCH   8   9
ENDBRANCH   4   7
ENDBRANCH   2   3
ENDBRANCH   1   2
BRANCH   1  26
ATOM     26  C   UNL A   1      32.772  27.996  26.982  1.00  0.00     0.002 C 
BRANCH  26  27
ATOM     27  C   UNL A   1      31.791  29.131  27.320  1.00  0.00     0.002 C 
BRANCH  27  28
ATOM     28  C   UNL A   1      32.313  30.567  27.215  1.00  0.00     0.021 C 
BRANCH  28  29
ATOM     29  C   UNL A   1      33.827  30.704  27.257  1.00  0.00     0.116 C 
BRANCH  29  30
ATOM     30  N   UNL A   1      34.330  31.550  28.325  1.00  0.00    -0.352 N 
ATOM     31  C   UNL A   1      35.409  31.346  29.176  1.00  0.00     0.251 C 
ATOM     32  H   UNL A   1      33.835  32.389  28.466  1.00  0.00     0.163 HD
ATOM     33  O   UNL A   1      35.657  32.149  30.048  1.00  0.00    -0.269 OA
BRANCH  31  34
ATOM     34  C   UNL A   1      36.346  30.218  28.906  1.00  0.00     0.039 A 
ATOM     35  C   UNL A   1      36.624  29.357  29.973  1.00  0.00     0.014 A 
ATOM     36  C   UNL A   1      37.096  30.144  27.736  1.00  0.00     0.014 A 
ATOM     37  C   UNL A   1      37.816  28.638  29.975  1.00  0.00     0.010 A 
ATOM     38  C   UNL A   1      38.322  29.510  27.771  1.00  0.00     0.010 A 
ATOM     39  C   UNL A   1      38.712  28.830  28.926  1.00  0.00    -0.014 A 
BRANCH  39  40
ATOM     40  C   UNL A   1      40.115  28.449  29.007  1.00  0.00     0.031 A 
ATOM     41  C   UNL A   1      40.541  27.103  28.586  1.00  0.00     0.074 A 
ATOM     42  C   UNL A   1      41.018  29.355  29.443  1.00  0.00     0.049 A 
ATOM     43  N   UNL A   1      41.637  26.538  28.963  1.00  0.00    -0.248 NA
ATOM     44  C   UNL A   1      39.700  26.238  27.767  1.00  0.00     0.031 C 
ATOM     45  C   UNL A   1      42.474  29.261  29.386  1.00  0.00     0.029 A 
ATOM     46  N   UNL A   1      40.769  30.472  30.255  1.00  0.00    -0.354 N 
ATOM     47  C   UNL A   1      41.786  25.381  28.234  1.00  0.00     0.074 A 
ATOM     48  C   UNL A   1      40.498  25.176  27.621  1.00  0.00     0.031 C 
ATOM     49  C   UNL A   1      42.992  30.060  30.333  1.00  0.00     0.029 A 
ATOM     50  C   UNL A   1      41.883  30.578  31.116  1.00  0.00     0.049 A 
ATOM     51  H   UNL A   1      39.981  31.060  30.230  1.00  0.00     0.167 HD
ATOM     52  C   UNL A   1      43.029  24.828  28.141  1.00  0.00     0.037 A 
ATOM     53  C   UNL A   1      41.749  30.436  32.466  1.00  0.00     0.037 A 
ATOM     54  C   UNL A   1      43.929  25.430  29.133  1.00  0.00     0.049 A 
ATOM     55  C   UNL A   1      42.550  29.293  33.044  1.00  0.00     0.074 A 
ATOM     56  C   UNL A   1      44.942  26.371  29.051  1.00  0.00     0.029 A 
ATOM     57  N   UNL A   1      43.645  25.278  30.489  1.00  0.00    -0.354 N 
ATOM     58  N   UNL A   1      43.040  28.313  32.335  1.00  0.00    -0.248 NA
ATOM     59  C   UNL A   1      42.837  29.147  34.470  1.00  0.00     0.031 C 
ATOM     60  C   UNL A   1      45.194  26.856  30.362  1.00  0.00     0.029 A 
ATOM     61  C   UNL A   1      44.366  26.182  31.244  1.00  0.00     0.049 A 
ATOM     62  H   UNL A   1      43.014  24.617  30.858  1.00  0.00     0.167 HD
ATOM     63  C   UNL A   1      43.653  27.409  33.163  1.00  0.00     0.074 A 
ATOM     64  C   UNL A   1      43.525  27.992  34.487  1.00  0.00     0.031 C 
ATOM     65  C   UNL A   1      44.197  26.249  32.691  1.00  0.00     0.037 A 
BRANCH  52  66
ATOM     66  C   UNL A   1      43.516  23.935  27.005  1.00  0.00     0.057 A 
ATOM     67  C   UNL A   1      44.106  24.510  25.857  1.00  0.00     0.134 A 
ATOM     68  C   UNL A   1      43.337  22.540  26.899  1.00  0.00     0.134 A 
ATOM     69  F   UNL A   1      44.391  25.817  25.792  1.00  0.00    -0.206 F 
ATOM     70  C   UNL A   1      44.421  23.777  24.699  1.00  0.00     0.040 A 
ATOM     71  C   UNL A   1      43.661  21.795  25.755  1.00  0.00     0.040 A 
ATOM     72  F   UNL A   1      42.828  21.796  27.880  1.00  0.00    -0.206 F 
ATOM     73  C   UNL A   1      44.189  22.414  24.639  1.00  0.00     0.006 A 
ENDBRANCH  52  66
BRANCH  53  74
ATOM     74  C   UNL A   1      40.438  30.912  32.980  1.00  0.00     0.057 A 
ATOM     75  C   UNL A   1      39.439  29.961  33.255  1.00  0.00     0.134 A 
ATOM     76  C   UNL A   1      40.281  32.179  33.548  1.00  0.00     0.134 A 
ATOM     77  F   UNL A   1      39.527  28.725  32.738  1.00  0.00    -0.206 F 
ATOM     78  C   UNL A   1      38.397  30.219  34.149  1.00  0.00     0.040 A 
ATOM     79  C   UNL A   1      39.232  32.453  34.434  1.00  0.00     0.040 A 
ATOM     80  F   UNL A   1      41.201  33.135  33.349  1.00  0.00    -0.206 F 
ATOM     81  C   UNL A   1      38.312  31.461  34.769  1.00  0.00     0.006 A 
ENDBRANCH  53  74
BRANCH  65  82
ATOM     82  C   UNL A   1      44.684  25.099  33.541  1.00  0.00     0.057 A 
ATOM     83  C   UNL A   1      46.025  24.702  33.644  1.00  0.00     0.134 A 
ATOM     84  C   UNL A   1      43.796  24.438  34.419  1.00  0.00     0.134 A 
ATOM     85  F   UNL A   1      46.995  25.321  32.956  1.00  0.00    -0.206 F 
ATOM     86  C   UNL A   1      46.445  23.681  34.508  1.00  0.00     0.040 A 
ATOM     87  C   UNL A   1      44.213  23.456  35.325  1.00  0.00     0.040 A 
ATOM     88  F   UNL A   1      42.489  24.732  34.451  1.00  0.00    -0.206 F 
ATOM     89  C   UNL A   1      45.540  23.063  35.361  1.00  0.00     0.006 A 
ENDBRANCH  65  82
ENDBRANCH  39  40
ENDBRANCH  31  34
ENDBRANCH  29  30
ENDBRANCH  28  29
ENDBRANCH  27  28
ENDBRANCH  26  27
ENDBRANCH   1  26
TORSDOF 17
ENDMDL
MODEL 2
REMARK VINA RESULT:     -11.5      1.449      2.228
REMARK SMILES CCC(=O)Nc1cc(NC(=O)/C=C/C(=O)NCCCCCCNC(=O)c2ccc(-c3c4nc(c(-c5c(F)cccc5F)c5ccc([nH]5)c(-c5c(F)cccc5F)c5nc(c(-c6c(F)cccc6F)c6ccc3[nH]6)C=C5)C=C4)cc2)ccc1C
REMARK SMILES IDX 18 1 17 2 16 3 14 4 15 5 13 7 12 8 10 9 9 10 11 12 8 13 6 14
REMARK SMILES IDX 7 15 82 16 81 17 83 18 80 19 5 20 3 21 4 22 2 24 1 25 19 26
REMARK SMILES IDX 20 27 21 28 22 29 23 30 24 31 25 33 26 34 27 35 79 36 28 37
REMARK SMILES IDX 78 38 29 39 30 40 31 41 72 42 32 43 77 44 71 45 73 46 33 47
REMARK SMILES IDX 76 48 70 49 69 50 34 52 60 53 43 54 59 55 44 56 47 57 58 58
REMARK SMILES IDX 74 59 45 60 46 61 57 63 75 64 48 65 35 66 36 67 41 68 37 69
REMARK SMILES IDX 38 70 40 71 42 72 39 73 61 74 62 75 67 76 63 77 64 78 66 79
REMARK SMILES IDX 68 80 65 81 49 82 50 83 55 84 51 85 52 86 54 87 56 88 53 89
REMARK H PARENT 16 6 9 11 5 23 23 32 73 51 47 62
REMARK Flexibility Score: inf
ROOT
ATOM      1  C   UNL A   1      32.918  28.560  25.234  1.00  0.00     0.021 C 
ENDROOT
BRANCH   1   2
ATOM      2  C   UNL A   1      33.326  29.279  23.952  1.00  0.00     0.116 C 
BRANCH   2   3
ATOM      3  N   UNL A   1      33.592  28.339  22.884  1.00  0.00    -0.353 N 
ATOM      4  C   UNL A   1      32.813  27.328  22.431  1.00  0.00     0.244 C 
ATOM      5  O   UNL A   1      33.266  26.490  21.655  1.00  0.00    -0.270 OA
ATOM      6  H   UNL A   1      34.455  28.450  22.426  1.00  0.00     0.163 HD
BRANCH   4   7
ATOM      7  C   UNL A   1      31.390  27.260  22.820  1.00  0.00     0.077 C 
ATOM      8  C   UNL A   1      30.884  26.067  23.172  1.00  0.00     0.077 C 
BRANCH   8   9
ATOM      9  C   UNL A   1      29.634  25.978  23.944  1.00  0.00     0.248 C 
ATOM     10  N   UNL A   1      29.618  25.313  25.143  1.00  0.00    -0.322 N 
ATOM     11  H   UNL A   1      28.742  25.300  25.590  1.00  0.00     0.170 HD
ATOM     12  O   UNL A   1      28.618  26.506  23.501  1.00  0.00    -0.270 OA
BRANCH  10  13
ATOM     13  C   UNL A   1      30.642  24.646  25.849  1.00  0.00     0.043 A 
ATOM     14  C   UNL A   1      31.971  22.661  26.325  1.00  0.00     0.046 A 
ATOM     15  C   UNL A   1      30.778  23.259  25.911  1.00  0.00     0.052 A 
ATOM     16  C   UNL A   1      33.039  23.465  26.738  1.00  0.00    -0.027 A 
ATOM     17  C   UNL A   1      32.821  24.848  26.875  1.00  0.00     0.008 A 
ATOM     18  C   UNL A   1      34.447  22.964  26.889  1.00  0.00     0.046 C 
ATOM     19  C   UNL A   1      31.630  25.433  26.436  1.00  0.00     0.026 A 
BRANCH  14  20
ATOM     20  N   UNL A   1      32.128  21.304  26.014  1.00  0.00    -0.326 N 
ATOM     21  C   UNL A   1      32.216  20.695  24.796  1.00  0.00     0.224 C 
ATOM     22  O   UNL A   1      32.154  19.464  24.727  1.00  0.00    -0.275 OA
ATOM     23  H   UNL A   1      32.184  20.700  26.789  1.00  0.00     0.169 HD
BRANCH  21  24
ATOM     24  C   UNL A   1      32.528  21.515  23.559  1.00  0.00     0.097 C 
ATOM     25  C   UNL A   1      33.945  22.033  23.464  1.00  0.00     0.014 C 
ENDBRANCH  21  24
ENDBRANCH  14  20
ENDBRANCH  10  13
ENDBRANCH   8   9
ENDBRANCH   4   7
ENDBRANCH   2   3
ENDBRANCH   1   2
BRANCH   1  26
ATOM     26  C   UNL A   1      34.071  28.201  26.178  1.00  0.00     0.002 C 
BRANCH  26  27
ATOM     27  C   UNL A   1      34.120  28.931  27.531  1.00  0.00     0.002 C 
BRANCH  27  28
ATOM     28  C   UNL A   1      33.625  30.379  27.568  1.00  0.00     0.021 C 
BRANCH  28  29
ATOM     29  C   UNL A   1      34.718  31.428  27.689  1.00  0.00     0.116 C 
BRANCH  29  30
ATOM     30  N   UNL A   1      35.037  31.818  29.052  1.00  0.00    -0.352 N 
ATOM     31  C   UNL A   1      35.897  31.216  29.962  1.00  0.00     0.251 C 
ATOM     32  H   UNL A   1      34.577  32.625  29.378  1.00  0.00     0.163 HD
ATOM     33  O   UNL A   1      36.004  31.660  31.083  1.00  0.00    -0.269 OA
BRANCH  31  34
ATOM     34  C   UNL A   1      36.796  30.121  29.498  1.00  0.00     0.039 A 
ATOM     35  C   UNL A   1      37.012  29.061  30.385  1.00  0.00     0.014 A 
ATOM     36  C   UNL A   1      37.574  30.240  28.350  1.00  0.00     0.014 A 
ATOM     37  C   UNL A   1      38.176  28.305  30.273  1.00  0.00     0.010 A 
ATOM     38  C   UNL A   1      38.774  29.559  28.287  1.00  0.00     0.010 A 
ATOM     39  C   UNL A   1      39.106  28.655  29.298  1.00  0.00    -0.014 A 
BRANCH  39  40
ATOM     40  C   UNL A   1      40.491  28.206  29.331  1.00  0.00     0.031 A 
ATOM     41  C   UNL A   1      40.852  26.882  28.796  1.00  0.00     0.074 A 
ATOM     42  C   UNL A   1      41.438  29.033  29.828  1.00  0.00     0.049 A 
ATOM     43  N   UNL A   1      41.923  26.239  29.113  1.00  0.00    -0.248 NA
ATOM     44  C   UNL A   1      39.966  26.125  27.920  1.00  0.00     0.031 C 
ATOM     45  C   UNL A   1      42.887  28.878  29.747  1.00  0.00     0.029 A 
ATOM     46  N   UNL A   1      41.247  30.089  30.731  1.00  0.00    -0.354 N 
ATOM     47  C   UNL A   1      42.014  25.140  28.291  1.00  0.00     0.074 A 
ATOM     48  C   UNL A   1      40.713  25.044  27.678  1.00  0.00     0.031 C 
ATOM     49  C   UNL A   1      43.450  29.573  30.749  1.00  0.00     0.029 A 
ATOM     50  C   UNL A   1      42.371  30.074  31.584  1.00  0.00     0.049 A 
ATOM     51  H   UNL A   1      40.487  30.712  30.763  1.00  0.00     0.167 HD
ATOM     52  C   UNL A   1      43.230  24.541  28.138  1.00  0.00     0.037 A 
ATOM     53  C   UNL A   1      42.242  29.828  32.920  1.00  0.00     0.037 A 
ATOM     54  C   UNL A   1      44.164  25.019  29.165  1.00  0.00     0.049 A 
ATOM     55  C   UNL A   1      42.994  28.607  33.394  1.00  0.00     0.074 A 
ATOM     56  C   UNL A   1      45.218  25.917  29.148  1.00  0.00     0.029 A 
ATOM     57  N   UNL A   1      43.884  24.770  30.508  1.00  0.00    -0.354 N 
ATOM     58  N   UNL A   1      43.433  27.668  32.602  1.00  0.00    -0.248 NA
ATOM     59  C   UNL A   1      43.286  28.332  34.799  1.00  0.00     0.031 C 
ATOM     60  C   UNL A   1      45.503  26.281  30.491  1.00  0.00     0.029 A 
ATOM     61  C   UNL A   1      44.652  25.576  31.325  1.00  0.00     0.049 A 
ATOM     62  H   UNL A   1      43.227  24.110  30.829  1.00  0.00     0.167 HD
ATOM     63  C   UNL A   1      44.012  26.673  33.347  1.00  0.00     0.074 A 
ATOM     64  C   UNL A   1      43.920  27.150  34.715  1.00  0.00     0.031 C 
ATOM     65  C   UNL A   1      44.498  25.531  32.775  1.00  0.00     0.037 A 
BRANCH  52  66
ATOM     66  C   UNL A   1      43.666  23.723  26.928  1.00  0.00     0.057 A 
ATOM     67  C   UNL A   1      44.306  24.357  25.839  1.00  0.00     0.134 A 
ATOM     68  C   UNL A   1      43.392  22.360  26.694  1.00  0.00     0.134 A 
ATOM     69  F   UNL A   1      44.682  25.642  25.896  1.00  0.00    -0.206 F 
ATOM     70  C   UNL A   1      44.583  23.712  24.621  1.00  0.00     0.040 A 
ATOM     71  C   UNL A   1      43.676  21.700  25.489  1.00  0.00     0.040 A 
ATOM     72  F   UNL A   1      42.823  21.567  27.601  1.00  0.00    -0.206 F 
ATOM     73  C   UNL A   1      44.258  22.380  24.436  1.00  0.00     0.006 A 
ENDBRANCH  52  66
BRANCH  53  74
ATOM     74  C   UNL A   1      40.958  30.319  33.487  1.00  0.00     0.057 A 
ATOM     75  C   UNL A   1      40.819  31.695  33.744  1.00  0.00     0.134 A 
ATOM     76  C   UNL A   1      39.783  29.564  33.422  1.00  0.00     0.134 A 
ATOM     77  F   UNL A   1      41.908  32.476  33.822  1.00  0.00    -0.206 F 
ATOM     78  C   UNL A   1      39.569  32.313  33.813  1.00  0.00     0.040 A 
ATOM     79  C   UNL A   1      38.524  30.172  33.504  1.00  0.00     0.040 A 
ATOM     80  F   UNL A   1      39.830  28.249  33.161  1.00  0.00    -0.206 F 
ATOM     81  C   UNL A   1      38.414  31.553  33.658  1.00  0.00     0.006 A 
ENDBRANCH  53  74
BRANCH  65  82
ATOM     82  C   UNL A   1      44.938  24.296  33.523  1.00  0.00     0.057 A 
ATOM     83  C   UNL A   1      44.211  23.098  33.572  1.00  0.00     0.134 A 
ATOM     84  C   UNL A   1      46.222  24.238  34.110  1.00  0.00     0.134 A 
ATOM     85  F   UNL A   1      43.026  22.970  32.957  1.00  0.00    -0.206 F 
ATOM     86  C   UNL A   1      44.694  21.947  34.210  1.00  0.00     0.040 A 
ATOM     87  C   UNL A   1      46.738  23.080  34.700  1.00  0.00     0.040 A 
ATOM     88  F   UNL A   1      47.042  25.300  34.114  1.00  0.00    -0.206 F 
ATOM     89  C   UNL A   1      45.967  21.931  34.767  1.00  0.00     0.006 A 
ENDBRANCH  65  82
ENDBRANCH  39  40
ENDBRANCH  31  34
ENDBRANCH  29  30
ENDBRANCH  28  29
ENDBRANCH  27  28
ENDBRANCH  26  27
ENDBRANCH   1  26
TORSDOF 17
ENDMDL
MODEL 3
REMARK VINA RESULT:     -11.5      1.895      2.893
REMARK SMILES CCC(=O)Nc1cc(NC(=O)/C=C/C(=O)NCCCCCCNC(=O)c2ccc(-c3c4nc(c(-c5c(F)cccc5F)c5ccc([nH]5)c(-c5c(F)cccc5F)c5nc(c(-c6c(F)cccc6F)c6ccc3[nH]6)C=C5)C=C4)cc2)ccc1C
REMARK SMILES IDX 18 1 17 2 16 3 14 4 15 5 13 7 12 8 10 9 9 10 11 12 8 13 6 14
REMARK SMILES IDX 7 15 82 16 81 17 83 18 80 19 5 20 3 21 4 22 2 24 1 25 19 26
REMARK SMILES IDX 20 27 21 28 22 29 23 30 24 31 25 33 26 34 27 35 79 36 28 37
REMARK SMILES IDX 78 38 29 39 30 40 31 41 72 42 32 43 77 44 71 45 73 46 33 47
REMARK SMILES IDX 76 48 70 49 69 50 34 52 60 53 43 54 59 55 44 56 47 57 58 58
REMARK SMILES IDX 74 59 45 60 46 61 57 63 75 64 48 65 35 66 36 67 41 68 37 69
REMARK SMILES IDX 38 70 40 71 42 72 39 73 61 74 62 75 67 76 63 77 64 78 66 79
REMARK SMILES IDX 68 80 65 81 49 82 50 83 55 84 51 85 52 86 54 87 56 88 53 89
REMARK H PARENT 16 6 9 11 5 23 23 32 73 51 47 62
REMARK Flexibility Score: inf
ROOT
ATOM      1  C   UNL A   1      31.284  30.024  25.048  1.00  0.00     0.021 C 
ENDROOT
BRANCH   1   2
ATOM      2  C   UNL A   1      31.402  29.205  23.767  1.00  0.00     0.116 C 
BRANCH   2   3
ATOM      3  N   UNL A   1      30.807  29.898  22.645  1.00  0.00    -0.353 N 
ATOM      4  C   UNL A   1      29.556  29.776  22.141  1.00  0.00     0.244 C 
ATOM      5  O   UNL A   1      29.267  30.282  21.059  1.00  0.00    -0.270 OA
ATOM      6  H   UNL A   1      31.390  30.544  22.186  1.00  0.00     0.163 HD
BRANCH   4   7
ATOM      7  C   UNL A   1      28.509  29.085  22.919  1.00  0.00     0.077 C 
ATOM      8  C   UNL A   1      28.502  27.743  22.923  1.00  0.00     0.077 C 
BRANCH   8   9
ATOM      9  C   UNL A   1      27.780  26.996  23.966  1.00  0.00     0.248 C 
ATOM     10  N   UNL A   1      28.445  26.072  24.730  1.00  0.00    -0.322 N 
ATOM     11  H   UNL A   1      27.885  25.619  25.400  1.00  0.00     0.170 HD
ATOM     12  O   UNL A   1      26.583  27.216  24.139  1.00  0.00    -0.270 OA
BRANCH  10  13
ATOM     13  C   UNL A   1      29.795  25.661  24.724  1.00  0.00     0.043 A 
ATOM     14  C   UNL A   1      31.802  24.923  23.558  1.00  0.00     0.046 A 
ATOM     15  C   UNL A   1      30.410  25.006  23.657  1.00  0.00     0.052 A 
ATOM     16  C   UNL A   1      32.599  25.462  24.573  1.00  0.00    -0.027 A 
ATOM     17  C   UNL A   1      31.970  25.927  25.742  1.00  0.00     0.008 A 
ATOM     18  C   UNL A   1      34.072  25.720  24.426  1.00  0.00     0.046 C 
ATOM     19  C   UNL A   1      30.578  26.024  25.817  1.00  0.00     0.026 A 
BRANCH  14  20
ATOM     20  N   UNL A   1      32.317  24.575  22.303  1.00  0.00    -0.326 N 
ATOM     21  C   UNL A   1      33.013  23.464  21.924  1.00  0.00     0.224 C 
ATOM     22  O   UNL A   1      33.552  23.434  20.814  1.00  0.00    -0.275 OA
ATOM     23  H   UNL A   1      32.151  25.230  21.586  1.00  0.00     0.169 HD
BRANCH  21  24
ATOM     24  C   UNL A   1      33.003  22.228  22.803  1.00  0.00     0.097 C 
ATOM     25  C   UNL A   1      32.047  21.137  22.377  1.00  0.00     0.014 C 
ENDBRANCH  21  24
ENDBRANCH  14  20
ENDBRANCH  10  13
ENDBRANCH   8   9
ENDBRANCH   4   7
ENDBRANCH   2   3
ENDBRANCH   1   2
BRANCH   1  26
ATOM     26  C   UNL A   1      31.943  29.403  26.285  1.00  0.00     0.002 C 
BRANCH  26  27
ATOM     27  C   UNL A   1      32.674  30.359  27.243  1.00  0.00     0.002 C 
BRANCH  27  28
ATOM     28  C   UNL A   1      34.127  30.027  27.596  1.00  0.00     0.021 C 
BRANCH  28  29
ATOM     29  C   UNL A   1      35.066  31.222  27.637  1.00  0.00     0.116 C 
BRANCH  29  30
ATOM     30  N   UNL A   1      35.427  31.663  28.974  1.00  0.00    -0.352 N 
ATOM     31  C   UNL A   1      36.309  31.091  29.881  1.00  0.00     0.251 C 
ATOM     32  H   UNL A   1      34.982  32.487  29.280  1.00  0.00     0.163 HD
ATOM     33  O   UNL A   1      36.453  31.580  30.980  1.00  0.00    -0.269 OA
BRANCH  31  34
ATOM     34  C   UNL A   1      37.188  29.973  29.436  1.00  0.00     0.039 A 
ATOM     35  C   UNL A   1      37.391  28.927  30.343  1.00  0.00     0.014 A 
ATOM     36  C   UNL A   1      37.961  30.054  28.282  1.00  0.00     0.014 A 
ATOM     37  C   UNL A   1      38.540  28.149  30.241  1.00  0.00     0.010 A 
ATOM     38  C   UNL A   1      39.149  29.352  28.227  1.00  0.00     0.010 A 
ATOM     39  C   UNL A   1      39.471  28.463  29.254  1.00  0.00    -0.014 A 
BRANCH  39  40
ATOM     40  C   UNL A   1      40.849  27.992  29.290  1.00  0.00     0.031 A 
ATOM     41  C   UNL A   1      41.191  26.668  28.741  1.00  0.00     0.074 A 
ATOM     42  C   UNL A   1      41.806  28.797  29.802  1.00  0.00     0.049 A 
ATOM     43  N   UNL A   1      42.250  26.005  29.057  1.00  0.00    -0.248 NA
ATOM     44  C   UNL A   1      40.298  25.936  27.852  1.00  0.00     0.031 C 
ATOM     45  C   UNL A   1      43.253  28.620  29.727  1.00  0.00     0.029 A 
ATOM     46  N   UNL A   1      41.627  29.846  30.716  1.00  0.00    -0.354 N 
ATOM     47  C   UNL A   1      42.328  24.914  28.222  1.00  0.00     0.074 A 
ATOM     48  C   UNL A   1      41.029  24.846  27.601  1.00  0.00     0.031 C 
ATOM     49  C   UNL A   1      43.821  29.294  30.740  1.00  0.00     0.029 A 
ATOM     50  C   UNL A   1      42.746  29.803  31.575  1.00  0.00     0.049 A 
ATOM     51  H   UNL A   1      40.877  30.481  30.751  1.00  0.00     0.167 HD
ATOM     52  C   UNL A   1      43.535  24.297  28.070  1.00  0.00     0.037 A 
ATOM     53  C   UNL A   1      42.605  29.544  32.908  1.00  0.00     0.037 A 
ATOM     54  C   UNL A   1      44.471  24.748  29.107  1.00  0.00     0.049 A 
ATOM     55  C   UNL A   1      43.335  28.305  33.371  1.00  0.00     0.074 A 
ATOM     56  C   UNL A   1      45.539  25.629  29.107  1.00  0.00     0.029 A 
ATOM     57  N   UNL A   1      44.179  24.488  30.446  1.00  0.00    -0.354 N 
ATOM     58  N   UNL A   1      43.763  27.368  32.571  1.00  0.00    -0.248 NA
ATOM     59  C   UNL A   1      43.614  28.009  34.775  1.00  0.00     0.031 C 
ATOM     60  C   UNL A   1      45.822  25.973  30.455  1.00  0.00     0.029 A 
ATOM     61  C   UNL A   1      44.955  25.272  31.276  1.00  0.00     0.049 A 
ATOM     62  H   UNL A   1      43.510  23.835  30.755  1.00  0.00     0.167 HD
ATOM     63  C   UNL A   1      44.321  26.355  33.307  1.00  0.00     0.074 A 
ATOM     64  C   UNL A   1      44.230  26.818  34.680  1.00  0.00     0.031 C 
ATOM     65  C   UNL A   1      44.792  25.213  32.724  1.00  0.00     0.037 A 
BRANCH  52  66
ATOM     66  C   UNL A   1      43.965  23.486  26.852  1.00  0.00     0.057 A 
ATOM     67  C   UNL A   1      43.471  22.176  26.665  1.00  0.00     0.134 A 
ATOM     68  C   UNL A   1      44.938  23.855  25.900  1.00  0.00     0.134 A 
ATOM     69  F   UNL A   1      42.510  21.667  27.449  1.00  0.00    -0.206 F 
ATOM     70  C   UNL A   1      43.947  21.303  25.670  1.00  0.00     0.040 A 
ATOM     71  C   UNL A   1      45.411  22.999  24.894  1.00  0.00     0.040 A 
ATOM     72  F   UNL A   1      45.510  25.057  25.874  1.00  0.00    -0.206 F 
ATOM     73  C   UNL A   1      44.930  21.709  24.785  1.00  0.00     0.006 A 
ENDBRANCH  52  66
BRANCH  53  74
ATOM     74  C   UNL A   1      41.326  30.049  33.472  1.00  0.00     0.057 A 
ATOM     75  C   UNL A   1      41.195  31.428  33.712  1.00  0.00     0.134 A 
ATOM     76  C   UNL A   1      40.147  29.299  33.422  1.00  0.00     0.134 A 
ATOM     77  F   UNL A   1      42.289  32.205  33.776  1.00  0.00    -0.206 F 
ATOM     78  C   UNL A   1      39.948  32.054  33.778  1.00  0.00     0.040 A 
ATOM     79  C   UNL A   1      38.891  29.915  33.502  1.00  0.00     0.040 A 
ATOM     80  F   UNL A   1      40.186  27.981  33.178  1.00  0.00    -0.206 F 
ATOM     81  C   UNL A   1      38.790  31.298  33.638  1.00  0.00     0.006 A 
ENDBRANCH  53  74
BRANCH  65  82
ATOM     82  C   UNL A   1      45.208  23.961  33.460  1.00  0.00     0.057 A 
ATOM     83  C   UNL A   1      46.466  23.771  34.052  1.00  0.00     0.134 A 
ATOM     84  C   UNL A   1      44.265  22.943  33.723  1.00  0.00     0.134 A 
ATOM     85  F   UNL A   1      47.423  24.708  33.984  1.00  0.00    -0.206 F 
ATOM     86  C   UNL A   1      46.783  22.627  34.796  1.00  0.00     0.040 A 
ATOM     87  C   UNL A   1      44.553  21.824  34.511  1.00  0.00     0.040 A 
ATOM     88  F   UNL A   1      43.014  23.003  33.245  1.00  0.00    -0.206 F 
ATOM     89  C   UNL A   1      45.823  21.653  35.038  1.00  0.00     0.006 A 
ENDBRANCH  65  82
ENDBRANCH  39  40
ENDBRANCH  31  34
ENDBRANCH  29  30
ENDBRANCH  28  29
ENDBRANCH  27  28
ENDBRANCH  26  27
ENDBRANCH   1  26
TORSDOF 17
ENDMDL
