MODEL 1
REMARK VINA RESULT:     -11.6      0.000      0.000
REMARK SMILES COc1ccccc1NC(=O)N[C@@](C)(C(=O)NCCCCCCNC(=O)c1ccc(-c2c3nc(c(-c4c(F)cccc4F)c4ccc([nH]4)c(-c4c(F)cccc4F)c4nc(c(-c5c(F)cccc5F)c5ccc2[nH]5)C=C4)C=C3)cc1)C(F)(F)F
REMARK SMILES IDX 20 1 19 2 18 3 17 4 15 5 16 6 13 8 14 9 12 10 9 11 10 12
REMARK SMILES IDX 11 14 8 16 3 17 4 18 5 19 7 20 6 21 2 22 1 23 81 24 82 25
REMARK SMILES IDX 83 26 84 27 21 28 22 29 23 30 24 31 25 32 26 34 27 35 28 36
REMARK SMILES IDX 80 37 29 38 79 39 30 40 31 41 32 42 73 43 33 44 78 45 72 46
REMARK SMILES IDX 74 47 34 48 77 49 71 50 70 51 35 53 61 54 44 55 60 56 45 57
REMARK SMILES IDX 48 58 59 59 75 60 46 61 47 62 58 64 76 65 49 66 36 67 37 68
REMARK SMILES IDX 42 69 38 70 39 71 41 72 43 73 40 74 62 75 63 76 68 77 64 78
REMARK SMILES IDX 65 79 67 80 69 81 66 82 50 83 51 84 56 85 52 86 53 87 55 88
REMARK SMILES IDX 57 89 54 90
REMARK H PARENT 17 7 9 13 12 15 24 33 74 52 48 63
REMARK Flexibility Score: inf
ROOT
ATOM      1  C   UNL A   1      36.834  22.786  24.831  1.00  0.00     0.002 C 
ENDROOT
BRANCH   1   2
ATOM      2  C   UNL A   1      36.134  23.911  25.620  1.00  0.00     0.021 C 
BRANCH   2   3
ATOM      3  C   UNL A   1      34.745  23.560  26.163  1.00  0.00     0.116 C 
BRANCH   3   4
ATOM      4  N   UNL A   1      33.753  24.419  25.564  1.00  0.00    -0.354 N 
ATOM      5  C   UNL A   1      33.046  24.137  24.432  1.00  0.00     0.255 C 
ATOM      6  O   UNL A   1      33.295  24.866  23.472  1.00  0.00    -0.272 OA
ATOM      7  H   UNL A   1      33.572  25.279  26.007  1.00  0.00     0.163 HD
BRANCH   5   8
ATOM      8  C   UNL A   1      31.948  23.029  24.457  1.00  0.00     0.213 C 
ATOM      9  C   UNL A   1      30.933  23.426  23.365  1.00  0.00     0.056 C 
BRANCH   8  10
ATOM     10  N   UNL A   1      31.248  22.982  25.783  1.00  0.00    -0.316 N 
ATOM     11  N   UNL A   1      29.900  24.940  26.143  1.00  0.00    -0.305 N 
ATOM     12  C   UNL A   1      30.421  23.757  26.500  1.00  0.00     0.320 C 
ATOM     13  H   UNL A   1      29.064  25.128  26.629  1.00  0.00     0.172 HD
ATOM     14  O   UNL A   1      29.988  23.241  27.539  1.00  0.00    -0.248 OA
ATOM     15  H   UNL A   1      31.455  22.148  26.262  1.00  0.00     0.166 HD
BRANCH  11  16
ATOM     16  C   UNL A   1      30.229  25.980  25.262  1.00  0.00     0.085 A 
ATOM     17  C   UNL A   1      31.208  26.908  25.660  1.00  0.00     0.142 A 
ATOM     18  C   UNL A   1      31.323  28.137  25.006  1.00  0.00     0.048 A 
ATOM     19  C   UNL A   1      30.550  28.393  23.874  1.00  0.00     0.004 A 
ATOM     20  C   UNL A   1      29.619  26.164  24.029  1.00  0.00     0.030 A 
ATOM     21  C   UNL A   1      29.745  27.383  23.351  1.00  0.00     0.002 A 
BRANCH  17  22
ATOM     22  O   UNL A   1      31.965  26.713  26.785  1.00  0.00    -0.495 OA
ATOM     23  C   UNL A   1      31.935  27.872  27.622  1.00  0.00     0.278 C 
ENDBRANCH  17  22
ENDBRANCH  11  16
ENDBRANCH   8  10
BRANCH   8  24
ATOM     24  C   UNL A   1      32.821  21.793  24.107  1.00  0.00     0.420 C 
ATOM     25  F   UNL A   1      32.155  20.901  23.332  1.00  0.00    -0.168 F 
ATOM     26  F   UNL A   1      33.943  22.085  23.440  1.00  0.00    -0.168 F 
ATOM     27  F   UNL A   1      33.242  21.151  25.228  1.00  0.00    -0.168 F 
ENDBRANCH   8  24
ENDBRANCH   5   8
ENDBRANCH   3   4
ENDBRANCH   2   3
ENDBRANCH   1   2
BRANCH   1  28
ATOM     28  C   UNL A   1      36.636  21.359  25.358  1.00  0.00     0.002 C 
BRANCH  28  29
ATOM     29  C   UNL A   1      37.748  20.382  25.001  1.00  0.00     0.021 C 
BRANCH  29  30
ATOM     30  C   UNL A   1      39.039  20.623  25.761  1.00  0.00     0.116 C 
BRANCH  30  31
ATOM     31  N   UNL A   1      39.876  19.436  25.811  1.00  0.00    -0.352 N 
ATOM     32  C   UNL A   1      41.237  19.376  26.008  1.00  0.00     0.251 C 
ATOM     33  H   UNL A   1      39.415  18.574  25.689  1.00  0.00     0.163 HD
ATOM     34  O   UNL A   1      41.858  18.341  25.861  1.00  0.00    -0.269 OA
BRANCH  32  35
ATOM     35  C   UNL A   1      41.926  20.628  26.379  1.00  0.00     0.039 A 
ATOM     36  C   UNL A   1      42.295  21.526  25.376  1.00  0.00     0.014 A 
ATOM     37  C   UNL A   1      42.114  20.940  27.728  1.00  0.00     0.014 A 
ATOM     38  C   UNL A   1      42.805  22.774  25.733  1.00  0.00     0.010 A 
ATOM     39  C   UNL A   1      42.540  22.212  28.079  1.00  0.00     0.010 A 
ATOM     40  C   UNL A   1      42.901  23.136  27.085  1.00  0.00    -0.014 A 
BRANCH  40  41
ATOM     41  C   UNL A   1      43.414  24.460  27.511  1.00  0.00     0.031 A 
ATOM     42  C   UNL A   1      42.437  25.511  27.955  1.00  0.00     0.074 A 
ATOM     43  C   UNL A   1      44.725  24.748  27.403  1.00  0.00     0.049 A 
ATOM     44  N   UNL A   1      42.639  26.779  28.203  1.00  0.00    -0.248 NA
ATOM     45  C   UNL A   1      41.036  25.084  28.104  1.00  0.00     0.031 C 
ATOM     46  C   UNL A   1      45.765  23.819  26.958  1.00  0.00     0.029 A 
ATOM     47  N   UNL A   1      45.402  25.918  27.637  1.00  0.00    -0.354 N 
ATOM     48  C   UNL A   1      41.390  27.304  28.504  1.00  0.00     0.074 A 
ATOM     49  C   UNL A   1      40.429  26.232  28.359  1.00  0.00     0.031 C 
ATOM     50  C   UNL A   1      46.949  24.453  26.958  1.00  0.00     0.029 A 
ATOM     51  C   UNL A   1      46.745  25.844  27.356  1.00  0.00     0.049 A 
ATOM     52  H   UNL A   1      44.967  26.734  27.974  1.00  0.00     0.167 HD
ATOM     53  C   UNL A   1      41.074  28.563  28.887  1.00  0.00     0.037 A 
ATOM     54  C   UNL A   1      47.697  26.795  27.394  1.00  0.00     0.037 A 
ATOM     55  C   UNL A   1      42.040  29.614  29.058  1.00  0.00     0.049 A 
ATOM     56  C   UNL A   1      47.322  28.192  27.809  1.00  0.00     0.074 A 
ATOM     57  C   UNL A   1      41.834  30.908  29.500  1.00  0.00     0.029 A 
ATOM     58  N   UNL A   1      43.396  29.488  28.797  1.00  0.00    -0.354 N 
ATOM     59  N   UNL A   1      46.145  28.665  28.141  1.00  0.00    -0.248 NA
ATOM     60  C   UNL A   1      48.403  29.187  27.853  1.00  0.00     0.031 C 
ATOM     61  C   UNL A   1      43.058  31.580  29.458  1.00  0.00     0.029 A 
ATOM     62  C   UNL A   1      44.036  30.688  29.047  1.00  0.00     0.049 A 
ATOM     63  H   UNL A   1      43.837  28.666  28.480  1.00  0.00     0.167 HD
ATOM     64  C   UNL A   1      46.350  29.998  28.473  1.00  0.00     0.074 A 
ATOM     65  C   UNL A   1      47.764  30.261  28.298  1.00  0.00     0.031 C 
ATOM     66  C   UNL A   1      45.450  30.921  28.892  1.00  0.00     0.037 A 
BRANCH  53  67
ATOM     67  C   UNL A   1      39.626  28.869  29.135  1.00  0.00     0.057 A 
ATOM     68  C   UNL A   1      38.778  29.325  28.116  1.00  0.00     0.134 A 
ATOM     69  C   UNL A   1      39.067  28.687  30.407  1.00  0.00     0.134 A 
ATOM     70  F   UNL A   1      39.252  29.535  26.880  1.00  0.00    -0.206 F 
ATOM     71  C   UNL A   1      37.436  29.618  28.360  1.00  0.00     0.040 A 
ATOM     72  C   UNL A   1      37.718  28.947  30.655  1.00  0.00     0.040 A 
ATOM     73  F   UNL A   1      39.819  28.248  31.427  1.00  0.00    -0.206 F 
ATOM     74  C   UNL A   1      36.901  29.422  29.633  1.00  0.00     0.006 A 
ENDBRANCH  53  67
BRANCH  54  75
ATOM     75  C   UNL A   1      49.100  26.456  27.042  1.00  0.00     0.057 A 
ATOM     76  C   UNL A   1      50.014  26.062  28.025  1.00  0.00     0.134 A 
ATOM     77  C   UNL A   1      49.559  26.513  25.720  1.00  0.00     0.134 A 
ATOM     78  F   UNL A   1      49.639  26.004  29.311  1.00  0.00    -0.206 F 
ATOM     79  C   UNL A   1      51.339  25.753  27.711  1.00  0.00     0.040 A 
ATOM     80  C   UNL A   1      50.874  26.183  25.388  1.00  0.00     0.040 A 
ATOM     81  F   UNL A   1      48.730  26.874  24.730  1.00  0.00    -0.206 F 
ATOM     82  C   UNL A   1      51.771  25.807  26.387  1.00  0.00     0.006 A 
ENDBRANCH  54  75
BRANCH  66  83
ATOM     83  C   UNL A   1      45.961  32.284  29.252  1.00  0.00     0.057 A 
ATOM     84  C   UNL A   1      45.984  33.336  28.330  1.00  0.00     0.134 A 
ATOM     85  C   UNL A   1      46.346  32.566  30.571  1.00  0.00     0.134 A 
ATOM     86  F   UNL A   1      45.639  33.128  27.051  1.00  0.00    -0.206 F 
ATOM     87  C   UNL A   1      46.375  34.622  28.707  1.00  0.00     0.040 A 
ATOM     88  C   UNL A   1      46.714  33.852  30.964  1.00  0.00     0.040 A 
ATOM     89  F   UNL A   1      46.336  31.601  31.503  1.00  0.00    -0.206 F 
ATOM     90  C   UNL A   1      46.730  34.885  30.029  1.00  0.00     0.006 A 
ENDBRANCH  66  83
ENDBRANCH  40  41
ENDBRANCH  32  35
ENDBRANCH  30  31
ENDBRANCH  29  30
ENDBRANCH  28  29
ENDBRANCH   1  28
TORSDOF 17
ENDMDL
MODEL 2
REMARK VINA RESULT:     -11.4      1.435      6.301
REMARK SMILES COc1ccccc1NC(=O)N[C@@](C)(C(=O)NCCCCCCNC(=O)c1ccc(-c2c3nc(c(-c4c(F)cccc4F)c4ccc([nH]4)c(-c4c(F)cccc4F)c4nc(c(-c5c(F)cccc5F)c5ccc2[nH]5)C=C4)C=C3)cc1)C(F)(F)F
REMARK SMILES IDX 20 1 19 2 18 3 17 4 15 5 16 6 13 8 14 9 12 10 9 11 10 12
REMARK SMILES IDX 11 14 8 16 3 17 4 18 5 19 7 20 6 21 2 22 1 23 81 24 82 25
REMARK SMILES IDX 83 26 84 27 21 28 22 29 23 30 24 31 25 32 26 34 27 35 28 36
REMARK SMILES IDX 80 37 29 38 79 39 30 40 31 41 32 42 73 43 33 44 78 45 72 46
REMARK SMILES IDX 74 47 34 48 77 49 71 50 70 51 35 53 61 54 44 55 60 56 45 57
REMARK SMILES IDX 48 58 59 59 75 60 46 61 47 62 58 64 76 65 49 66 36 67 37 68
REMARK SMILES IDX 42 69 38 70 39 71 41 72 43 73 40 74 62 75 63 76 68 77 64 78
REMARK SMILES IDX 65 79 67 80 69 81 66 82 50 83 51 84 56 85 52 86 53 87 55 88
REMARK SMILES IDX 57 89 54 90
REMARK H PARENT 17 7 9 13 12 15 24 33 74 52 48 63
REMARK Flexibility Score: inf
ROOT
ATOM      1  C   UNL A   1      36.074  21.523  25.757  1.00  0.00     0.002 C 
ENDROOT
BRANCH   1   2
ATOM      2  C   UNL A   1      35.704  23.019  25.826  1.00  0.00     0.021 C 
BRANCH   2   3
ATOM      3  C   UNL A   1      34.416  23.336  26.593  1.00  0.00     0.116 C 
BRANCH   3   4
ATOM      4  N   UNL A   1      33.615  24.272  25.841  1.00  0.00    -0.354 N 
ATOM      5  C   UNL A   1      33.022  24.015  24.640  1.00  0.00     0.255 C 
ATOM      6  O   UNL A   1      33.472  24.659  23.692  1.00  0.00    -0.272 OA
ATOM      7  H   UNL A   1      33.488  25.170  26.225  1.00  0.00     0.163 HD
BRANCH   5   8
ATOM      8  C   UNL A   1      31.803  23.045  24.567  1.00  0.00     0.213 C 
ATOM      9  C   UNL A   1      30.873  23.627  23.482  1.00  0.00     0.056 C 
BRANCH   8  10
ATOM     10  N   UNL A   1      31.063  22.997  25.872  1.00  0.00    -0.316 N 
ATOM     11  N   UNL A   1      29.715  24.961  26.198  1.00  0.00    -0.305 N 
ATOM     12  C   UNL A   1      30.219  23.774  26.567  1.00  0.00     0.320 C 
ATOM     13  H   UNL A   1      28.867  25.153  26.660  1.00  0.00     0.172 HD
ATOM     14  O   UNL A   1      29.753  23.257  27.590  1.00  0.00    -0.248 OA
ATOM     15  H   UNL A   1      31.250  22.160  26.353  1.00  0.00     0.166 HD
BRANCH  11  16
ATOM     16  C   UNL A   1      30.077  26.002  25.332  1.00  0.00     0.085 A 
ATOM     17  C   UNL A   1      31.117  26.865  25.721  1.00  0.00     0.142 A 
ATOM     18  C   UNL A   1      31.282  28.102  25.092  1.00  0.00     0.048 A 
ATOM     19  C   UNL A   1      30.492  28.427  23.991  1.00  0.00     0.004 A 
ATOM     20  C   UNL A   1      29.443  26.250  24.123  1.00  0.00     0.030 A 
ATOM     21  C   UNL A   1      29.617  27.476  23.469  1.00  0.00     0.002 A 
BRANCH  17  22
ATOM     22  O   UNL A   1      31.895  26.601  26.819  1.00  0.00    -0.495 OA
ATOM     23  C   UNL A   1      32.865  27.633  27.011  1.00  0.00     0.278 C 
ENDBRANCH  17  22
ENDBRANCH  11  16
ENDBRANCH   8  10
BRANCH   8  24
ATOM     24  C   UNL A   1      32.536  21.739  24.155  1.00  0.00     0.420 C 
ATOM     25  F   UNL A   1      32.786  20.935  25.217  1.00  0.00    -0.168 F 
ATOM     26  F   UNL A   1      31.860  20.985  23.281  1.00  0.00    -0.168 F 
ATOM     27  F   UNL A   1      33.716  22.009  23.538  1.00  0.00    -0.168 F 
ENDBRANCH   8  24
ENDBRANCH   5   8
ENDBRANCH   3   4
ENDBRANCH   2   3
ENDBRANCH   1   2
BRANCH   1  28
ATOM     28  C   UNL A   1      36.988  21.099  24.599  1.00  0.00     0.002 C 
BRANCH  28  29
ATOM     29  C   UNL A   1      37.946  19.961  24.922  1.00  0.00     0.021 C 
BRANCH  29  30
ATOM     30  C   UNL A   1      39.136  20.384  25.762  1.00  0.00     0.116 C 
BRANCH  30  31
ATOM     31  N   UNL A   1      40.139  19.338  25.859  1.00  0.00    -0.352 N 
ATOM     32  C   UNL A   1      41.472  19.479  26.173  1.00  0.00     0.251 C 
ATOM     33  H   UNL A   1      39.829  18.421  25.679  1.00  0.00     0.163 HD
ATOM     34  O   UNL A   1      42.257  18.558  26.058  1.00  0.00    -0.269 OA
BRANCH  32  35
ATOM     35  C   UNL A   1      41.926  20.809  26.629  1.00  0.00     0.039 A 
ATOM     36  C   UNL A   1      42.437  21.712  25.696  1.00  0.00     0.014 A 
ATOM     37  C   UNL A   1      41.751  21.177  27.966  1.00  0.00     0.014 A 
ATOM     38  C   UNL A   1      42.722  23.017  26.096  1.00  0.00     0.010 A 
ATOM     39  C   UNL A   1      41.953  22.497  28.340  1.00  0.00     0.010 A 
ATOM     40  C   UNL A   1      42.452  23.426  27.412  1.00  0.00    -0.014 A 
BRANCH  40  41
ATOM     41  C   UNL A   1      42.716  24.809  27.875  1.00  0.00     0.031 A 
ATOM     42  C   UNL A   1      44.108  25.181  28.299  1.00  0.00     0.074 A 
ATOM     43  C   UNL A   1      41.703  25.686  28.011  1.00  0.00     0.049 A 
ATOM     44  N   UNL A   1      44.532  26.265  28.894  1.00  0.00    -0.248 NA
ATOM     45  C   UNL A   1      45.159  24.180  28.053  1.00  0.00     0.031 C 
ATOM     46  C   UNL A   1      40.306  25.431  27.660  1.00  0.00     0.029 A 
ATOM     47  N   UNL A   1      41.694  26.965  28.507  1.00  0.00    -0.354 N 
ATOM     48  C   UNL A   1      45.887  26.062  29.120  1.00  0.00     0.074 A 
ATOM     49  C   UNL A   1      46.205  24.734  28.646  1.00  0.00     0.031 C 
ATOM     50  C   UNL A   1      39.575  26.521  27.944  1.00  0.00     0.029 A 
ATOM     51  C   UNL A   1      40.443  27.533  28.542  1.00  0.00     0.049 A 
ATOM     52  H   UNL A   1      42.506  27.432  28.810  1.00  0.00     0.167 HD
ATOM     53  C   UNL A   1      46.789  26.916  29.658  1.00  0.00     0.037 A 
ATOM     54  C   UNL A   1      40.041  28.724  29.023  1.00  0.00     0.037 A 
ATOM     55  C   UNL A   1      46.470  28.246  30.097  1.00  0.00     0.049 A 
ATOM     56  C   UNL A   1      41.058  29.653  29.629  1.00  0.00     0.074 A 
ATOM     57  C   UNL A   1      47.320  29.214  30.601  1.00  0.00     0.029 A 
ATOM     58  N   UNL A   1      45.197  28.797  30.083  1.00  0.00    -0.354 N 
ATOM     59  N   UNL A   1      42.346  29.471  29.791  1.00  0.00    -0.248 NA
ATOM     60  C   UNL A   1      40.569  30.950  30.120  1.00  0.00     0.031 C 
ATOM     61  C   UNL A   1      46.554  30.332  30.938  1.00  0.00     0.029 A 
ATOM     62  C   UNL A   1      45.236  30.083  30.590  1.00  0.00     0.049 A 
ATOM     63  H   UNL A   1      44.386  28.339  29.761  1.00  0.00     0.167 HD
ATOM     64  C   UNL A   1      42.828  30.642  30.363  1.00  0.00     0.074 A 
ATOM     65  C   UNL A   1      41.693  31.527  30.524  1.00  0.00     0.031 C 
ATOM     66  C   UNL A   1      44.097  30.958  30.716  1.00  0.00     0.037 A 
BRANCH  53  67
ATOM     67  C   UNL A   1      48.201  26.429  29.805  1.00  0.00     0.057 A 
ATOM     68  C   UNL A   1      48.643  25.774  30.962  1.00  0.00     0.134 A 
ATOM     69  C   UNL A   1      49.126  26.599  28.766  1.00  0.00     0.134 A 
ATOM     70  F   UNL A   1      47.813  25.591  32.000  1.00  0.00    -0.206 F 
ATOM     71  C   UNL A   1      49.962  25.335  31.094  1.00  0.00     0.040 A 
ATOM     72  C   UNL A   1      50.439  26.136  28.875  1.00  0.00     0.040 A 
ATOM     73  F   UNL A   1      48.769  27.212  27.628  1.00  0.00    -0.206 F 
ATOM     74  C   UNL A   1      50.862  25.510  30.044  1.00  0.00     0.006 A 
ENDBRANCH  53  67
BRANCH  54  75
ATOM     75  C   UNL A   1      38.610  29.114  28.939  1.00  0.00     0.057 A 
ATOM     76  C   UNL A   1      38.076  29.649  27.761  1.00  0.00     0.134 A 
ATOM     77  C   UNL A   1      37.742  28.959  30.027  1.00  0.00     0.134 A 
ATOM     78  F   UNL A   1      38.862  29.837  26.690  1.00  0.00    -0.206 F 
ATOM     79  C   UNL A   1      36.737  30.031  27.671  1.00  0.00     0.040 A 
ATOM     80  C   UNL A   1      36.394  29.314  29.944  1.00  0.00     0.040 A 
ATOM     81  F   UNL A   1      38.188  28.444  31.181  1.00  0.00    -0.206 F 
ATOM     82  C   UNL A   1      35.890  29.859  28.763  1.00  0.00     0.006 A 
ENDBRANCH  54  75
BRANCH  66  83
ATOM     83  C   UNL A   1      44.351  32.335  31.256  1.00  0.00     0.057 A 
ATOM     84  C   UNL A   1      44.365  32.605  32.628  1.00  0.00     0.134 A 
ATOM     85  C   UNL A   1      44.680  33.382  30.383  1.00  0.00     0.134 A 
ATOM     86  F   UNL A   1      44.048  31.647  33.512  1.00  0.00    -0.206 F 
ATOM     87  C   UNL A   1      44.694  33.870  33.116  1.00  0.00     0.040 A 
ATOM     88  C   UNL A   1      45.035  34.644  30.860  1.00  0.00     0.040 A 
ATOM     89  F   UNL A   1      44.693  33.184  29.056  1.00  0.00    -0.206 F 
ATOM     90  C   UNL A   1      45.042  34.890  32.231  1.00  0.00     0.006 A 
ENDBRANCH  66  83
ENDBRANCH  40  41
ENDBRANCH  32  35
ENDBRANCH  30  31
ENDBRANCH  29  30
ENDBRANCH  28  29
ENDBRANCH   1  28
TORSDOF 17
ENDMDL
MODEL 3
REMARK VINA RESULT:     -11.4      1.289      2.240
REMARK SMILES COc1ccccc1NC(=O)N[C@@](C)(C(=O)NCCCCCCNC(=O)c1ccc(-c2c3nc(c(-c4c(F)cccc4F)c4ccc([nH]4)c(-c4c(F)cccc4F)c4nc(c(-c5c(F)cccc5F)c5ccc2[nH]5)C=C4)C=C3)cc1)C(F)(F)F
REMARK SMILES IDX 20 1 19 2 18 3 17 4 15 5 16 6 13 8 14 9 12 10 9 11 10 12
REMARK SMILES IDX 11 14 8 16 3 17 4 18 5 19 7 20 6 21 2 22 1 23 81 24 82 25
REMARK SMILES IDX 83 26 84 27 21 28 22 29 23 30 24 31 25 32 26 34 27 35 28 36
REMARK SMILES IDX 80 37 29 38 79 39 30 40 31 41 32 42 73 43 33 44 78 45 72 46
REMARK SMILES IDX 74 47 34 48 77 49 71 50 70 51 35 53 61 54 44 55 60 56 45 57
REMARK SMILES IDX 48 58 59 59 75 60 46 61 47 62 58 64 76 65 49 66 36 67 37 68
REMARK SMILES IDX 42 69 38 70 39 71 41 72 43 73 40 74 62 75 63 76 68 77 64 78
REMARK SMILES IDX 65 79 67 80 69 81 66 82 50 83 51 84 56 85 52 86 53 87 55 88
REMARK SMILES IDX 57 89 54 90
REMARK H PARENT 17 7 9 13 12 15 24 33 74 52 48 63
REMARK Flexibility Score: inf
ROOT
ATOM      1  C   UNL A   1      35.992  22.142  25.526  1.00  0.00     0.002 C 
ENDROOT
BRANCH   1   2
ATOM      2  C   UNL A   1      34.884  21.071  25.583  1.00  0.00     0.021 C 
BRANCH   2   3
ATOM      3  C   UNL A   1      33.669  21.437  26.442  1.00  0.00     0.116 C 
BRANCH   3   4
ATOM      4  N   UNL A   1      32.469  21.384  25.643  1.00  0.00    -0.354 N 
ATOM      5  C   UNL A   1      31.525  22.365  25.572  1.00  0.00     0.255 C 
ATOM      6  O   UNL A   1      30.428  22.063  26.043  1.00  0.00    -0.272 OA
ATOM      7  H   UNL A   1      32.319  20.573  25.106  1.00  0.00     0.163 HD
BRANCH   5   8
ATOM      8  C   UNL A   1      31.850  23.705  24.842  1.00  0.00     0.213 C 
ATOM      9  C   UNL A   1      30.589  24.046  24.020  1.00  0.00     0.056 C 
BRANCH   8  10
ATOM     10  N   UNL A   1      33.015  23.552  23.909  1.00  0.00    -0.316 N 
ATOM     11  N   UNL A   1      33.655  25.656  22.939  1.00  0.00    -0.305 N 
ATOM     12  C   UNL A   1      33.758  24.329  23.109  1.00  0.00     0.320 C 
ATOM     13  H   UNL A   1      34.502  26.047  22.624  1.00  0.00     0.172 HD
ATOM     14  O   UNL A   1      34.732  23.769  22.590  1.00  0.00    -0.248 OA
ATOM     15  H   UNL A   1      33.319  22.616  23.875  1.00  0.00     0.166 HD
BRANCH  11  16
ATOM     16  C   UNL A   1      32.661  26.633  23.088  1.00  0.00     0.085 A 
ATOM     17  C   UNL A   1      32.841  27.625  24.069  1.00  0.00     0.142 A 
ATOM     18  C   UNL A   1      31.758  28.392  24.504  1.00  0.00     0.048 A 
ATOM     19  C   UNL A   1      30.521  28.263  23.874  1.00  0.00     0.004 A 
ATOM     20  C   UNL A   1      31.491  26.659  22.342  1.00  0.00     0.030 A 
ATOM     21  C   UNL A   1      30.405  27.442  22.754  1.00  0.00     0.002 A 
BRANCH  17  22
ATOM     22  O   UNL A   1      34.029  27.764  24.738  1.00  0.00    -0.495 OA
ATOM     23  C   UNL A   1      33.818  28.351  26.025  1.00  0.00     0.278 C 
ENDBRANCH  17  22
ENDBRANCH  11  16
ENDBRANCH   8  10
BRANCH   8  24
ATOM     24  C   UNL A   1      32.082  24.621  26.075  1.00  0.00     0.420 C 
ATOM     25  F   UNL A   1      31.266  25.703  26.069  1.00  0.00    -0.168 F 
ATOM     26  F   UNL A   1      31.877  24.019  27.251  1.00  0.00    -0.168 F 
ATOM     27  F   UNL A   1      33.368  25.058  26.129  1.00  0.00    -0.168 F 
ENDBRANCH   8  24
ENDBRANCH   5   8
ENDBRANCH   3   4
ENDBRANCH   2   3
ENDBRANCH   1   2
BRANCH   1  28
ATOM     28  C   UNL A   1      37.225  21.802  24.678  1.00  0.00     0.002 C 
BRANCH  28  29
ATOM     29  C   UNL A   1      37.872  20.461  24.995  1.00  0.00     0.021 C 
BRANCH  29  30
ATOM     30  C   UNL A   1      39.025  20.555  25.976  1.00  0.00     0.116 C 
BRANCH  30  31
ATOM     31  N   UNL A   1      39.896  19.394  25.914  1.00  0.00    -0.352 N 
ATOM     32  C   UNL A   1      41.269  19.367  26.005  1.00  0.00     0.251 C 
ATOM     33  H   UNL A   1      39.450  18.524  25.792  1.00  0.00     0.163 HD
ATOM     34  O   UNL A   1      41.906  18.359  25.769  1.00  0.00    -0.269 OA
BRANCH  32  35
ATOM     35  C   UNL A   1      41.950  20.625  26.374  1.00  0.00     0.039 A 
ATOM     36  C   UNL A   1      42.263  21.549  25.375  1.00  0.00     0.014 A 
ATOM     37  C   UNL A   1      42.185  20.914  27.721  1.00  0.00     0.014 A 
ATOM     38  C   UNL A   1      42.765  22.799  25.737  1.00  0.00     0.010 A 
ATOM     39  C   UNL A   1      42.602  22.187  28.080  1.00  0.00     0.010 A 
ATOM     40  C   UNL A   1      42.907  23.137  27.092  1.00  0.00    -0.014 A 
BRANCH  40  41
ATOM     41  C   UNL A   1      43.413  24.461  27.523  1.00  0.00     0.031 A 
ATOM     42  C   UNL A   1      42.429  25.510  27.958  1.00  0.00     0.074 A 
ATOM     43  C   UNL A   1      44.725  24.752  27.429  1.00  0.00     0.049 A 
ATOM     44  N   UNL A   1      42.626  26.778  28.208  1.00  0.00    -0.248 NA
ATOM     45  C   UNL A   1      41.028  25.080  28.091  1.00  0.00     0.031 C 
ATOM     46  C   UNL A   1      45.771  23.826  26.994  1.00  0.00     0.029 A 
ATOM     47  N   UNL A   1      45.397  25.924  27.671  1.00  0.00    -0.354 N 
ATOM     48  C   UNL A   1      41.372  27.300  28.496  1.00  0.00     0.074 A 
ATOM     49  C   UNL A   1      40.416  26.227  28.341  1.00  0.00     0.031 C 
ATOM     50  C   UNL A   1      46.954  24.462  27.008  1.00  0.00     0.029 A 
ATOM     51  C   UNL A   1      46.742  25.852  27.404  1.00  0.00     0.049 A 
ATOM     52  H   UNL A   1      44.956  26.738  28.004  1.00  0.00     0.167 HD
ATOM     53  C   UNL A   1      41.050  28.559  28.876  1.00  0.00     0.037 A 
ATOM     54  C   UNL A   1      47.692  26.805  27.452  1.00  0.00     0.037 A 
ATOM     55  C   UNL A   1      42.012  29.611  29.059  1.00  0.00     0.049 A 
ATOM     56  C   UNL A   1      47.310  28.201  27.864  1.00  0.00     0.074 A 
ATOM     57  C   UNL A   1      41.799  30.905  29.499  1.00  0.00     0.029 A 
ATOM     58  N   UNL A   1      43.371  29.488  28.811  1.00  0.00    -0.354 N 
ATOM     59  N   UNL A   1      46.129  28.672  28.184  1.00  0.00    -0.248 NA
ATOM     60  C   UNL A   1      48.388  29.199  27.920  1.00  0.00     0.031 C 
ATOM     61  C   UNL A   1      43.022  31.580  29.470  1.00  0.00     0.029 A 
ATOM     62  C   UNL A   1      44.006  30.690  29.069  1.00  0.00     0.049 A 
ATOM     63  H   UNL A   1      43.817  28.668  28.499  1.00  0.00     0.167 HD
ATOM     64  C   UNL A   1      46.328  30.005  28.519  1.00  0.00     0.074 A 
ATOM     65  C   UNL A   1      47.742  30.271  28.359  1.00  0.00     0.031 C 
ATOM     66  C   UNL A   1      45.421  30.925  28.929  1.00  0.00     0.037 A 
BRANCH  53  67
ATOM     67  C   UNL A   1      39.599  28.862  29.110  1.00  0.00     0.057 A 
ATOM     68  C   UNL A   1      39.012  28.748  30.378  1.00  0.00     0.134 A 
ATOM     69  C   UNL A   1      38.782  29.292  28.057  1.00  0.00     0.134 A 
ATOM     70  F   UNL A   1      39.735  28.328  31.427  1.00  0.00    -0.206 F 
ATOM     71  C   UNL A   1      37.659  29.021  30.583  1.00  0.00     0.040 A 
ATOM     72  C   UNL A   1      37.434  29.598  28.257  1.00  0.00     0.040 A 
ATOM     73  F   UNL A   1      39.279  29.428  26.819  1.00  0.00    -0.206 F 
ATOM     74  C   UNL A   1      36.868  29.454  29.521  1.00  0.00     0.006 A 
ENDBRANCH  53  67
BRANCH  54  75
ATOM     75  C   UNL A   1      49.099  26.469  27.115  1.00  0.00     0.057 A 
ATOM     76  C   UNL A   1      49.543  26.475  25.788  1.00  0.00     0.134 A 
ATOM     77  C   UNL A   1      50.033  26.140  28.105  1.00  0.00     0.134 A 
ATOM     78  F   UNL A   1      48.691  26.766  24.793  1.00  0.00    -0.206 F 
ATOM     79  C   UNL A   1      50.859  26.150  25.454  1.00  0.00     0.040 A 
ATOM     80  C   UNL A   1      51.358  25.837  27.789  1.00  0.00     0.040 A 
ATOM     81  F   UNL A   1      49.674  26.126  29.397  1.00  0.00    -0.206 F 
ATOM     82  C   UNL A   1      51.773  25.834  26.458  1.00  0.00     0.006 A 
ENDBRANCH  54  75
BRANCH  66  83
ATOM     83  C   UNL A   1      45.925  32.290  29.295  1.00  0.00     0.057 A 
ATOM     84  C   UNL A   1      45.962  33.341  28.372  1.00  0.00     0.134 A 
ATOM     85  C   UNL A   1      46.289  32.574  30.619  1.00  0.00     0.134 A 
ATOM     86  F   UNL A   1      45.637  33.130  27.088  1.00  0.00    -0.206 F 
ATOM     87  C   UNL A   1      46.347  34.628  28.753  1.00  0.00     0.040 A 
ATOM     88  C   UNL A   1      46.650  33.861  31.016  1.00  0.00     0.040 A 
ATOM     89  F   UNL A   1      46.265  31.610  31.553  1.00  0.00    -0.206 F 
ATOM     90  C   UNL A   1      46.680  34.892  30.081  1.00  0.00     0.006 A 
ENDBRANCH  66  83
ENDBRANCH  40  41
ENDBRANCH  32  35
ENDBRANCH  30  31
ENDBRANCH  29  30
ENDBRANCH  28  29
ENDBRANCH   1  28
TORSDOF 17
ENDMDL
