MODEL 1
REMARK VINA RESULT:     -10.3      0.000      0.000
REMARK SMILES O=C(NCCCCCCNC(=O)[C@@H](CCCCO)c1cccc(Cl)c1)c1ccc(-c2c3nc(c(-c4c(F)cccc4F)c4ccc([nH]4)c(-c4c(F)cccc4F)c4nc(c(-c5c(F)cccc5F)c5ccc2[nH]5)C=C4)C=C3)cc1
REMARK SMILES IDX 8 1 7 2 6 3 5 4 4 5 3 6 1 7 2 8 26 10 27 11 79 12 28 13
REMARK SMILES IDX 78 14 29 15 30 16 31 17 72 18 32 19 77 20 71 21 73 22 33 23
REMARK SMILES IDX 76 24 70 25 69 26 34 28 60 29 43 30 59 31 44 32 47 33 58 34
REMARK SMILES IDX 74 35 45 36 46 37 57 39 75 40 48 41 35 42 36 43 41 44 37 45
REMARK SMILES IDX 38 46 40 47 42 48 39 49 61 50 62 51 67 52 63 53 64 54 66 55
REMARK SMILES IDX 68 56 65 57 49 58 50 59 55 60 51 61 52 62 54 63 56 64 53 65
REMARK SMILES IDX 9 66 10 67 11 68 12 70 13 71 14 72 15 73 16 74 17 75 18 76
REMARK SMILES IDX 19 78 20 79 25 80 21 81 23 82 22 83 24 84
REMARK H PARENT 3 9 73 27 47 38 10 69 18 77
REMARK Flexibility Score: inf
ROOT
ATOM      1  C   UNL A   1      36.599  23.228  25.061  1.00  0.00     0.021 C 
ENDROOT
BRANCH   1   2
ATOM      2  C   UNL A   1      36.818  22.026  24.142  1.00  0.00     0.002 C 
BRANCH   2   3
ATOM      3  C   UNL A   1      36.575  20.652  24.782  1.00  0.00     0.002 C 
BRANCH   3   4
ATOM      4  C   UNL A   1      37.793  19.729  24.843  1.00  0.00     0.021 C 
BRANCH   4   5
ATOM      5  C   UNL A   1      38.852  20.144  25.852  1.00  0.00     0.116 C 
BRANCH   5   6
ATOM      6  N   UNL A   1      40.007  19.264  25.830  1.00  0.00    -0.352 N 
ATOM      7  O   UNL A   1      42.201  18.738  25.805  1.00  0.00    -0.269 OA
ATOM      8  C   UNL A   1      41.332  19.561  26.045  1.00  0.00     0.251 C 
ATOM      9  H   UNL A   1      39.815  18.319  25.633  1.00  0.00     0.163 HD
BRANCH   8  10
ATOM     10  C   UNL A   1      41.691  20.898  26.564  1.00  0.00     0.039 A 
ATOM     11  C   UNL A   1      42.110  21.900  25.688  1.00  0.00     0.014 A 
ATOM     12  C   UNL A   1      41.600  21.149  27.936  1.00  0.00     0.014 A 
ATOM     13  C   UNL A   1      42.571  23.105  26.194  1.00  0.00     0.010 A 
ATOM     14  C   UNL A   1      41.963  22.403  28.433  1.00  0.00     0.010 A 
ATOM     15  C   UNL A   1      42.467  23.385  27.566  1.00  0.00    -0.014 A 
BRANCH  15  16
ATOM     16  C   UNL A   1      42.791  24.754  28.033  1.00  0.00     0.031 A 
ATOM     17  C   UNL A   1      41.724  25.785  28.261  1.00  0.00     0.074 A 
ATOM     18  C   UNL A   1      44.082  25.036  28.299  1.00  0.00     0.049 A 
ATOM     19  N   UNL A   1      41.850  27.008  28.713  1.00  0.00    -0.248 NA
ATOM     20  C   UNL A   1      40.341  25.404  27.936  1.00  0.00     0.031 C 
ATOM     21  C   UNL A   1      45.203  24.112  28.093  1.00  0.00     0.029 A 
ATOM     22  N   UNL A   1      44.671  26.155  28.824  1.00  0.00    -0.354 N 
ATOM     23  C   UNL A   1      40.569  27.545  28.722  1.00  0.00     0.074 A 
ATOM     24  C   UNL A   1      39.682  26.525  28.200  1.00  0.00     0.031 C 
ATOM     25  C   UNL A   1      46.330  24.678  28.543  1.00  0.00     0.029 A 
ATOM     26  C   UNL A   1      46.028  26.028  28.998  1.00  0.00     0.049 A 
ATOM     27  H   UNL A   1      44.171  26.971  29.056  1.00  0.00     0.167 HD
ATOM     28  C   UNL A   1      40.175  28.772  29.136  1.00  0.00     0.037 A 
ATOM     29  C   UNL A   1      46.937  26.909  29.452  1.00  0.00     0.037 A 
ATOM     30  C   UNL A   1      41.069  29.778  29.656  1.00  0.00     0.049 A 
ATOM     31  C   UNL A   1      46.468  28.269  29.877  1.00  0.00     0.074 A 
ATOM     32  C   UNL A   1      40.765  31.049  30.114  1.00  0.00     0.029 A 
ATOM     33  N   UNL A   1      42.442  29.627  29.783  1.00  0.00    -0.354 N 
ATOM     34  N   UNL A   1      45.250  28.751  29.905  1.00  0.00    -0.248 NA
ATOM     35  C   UNL A   1      47.501  29.208  30.330  1.00  0.00     0.031 C 
ATOM     36  C   UNL A   1      41.959  31.682  30.478  1.00  0.00     0.029 A 
ATOM     37  C   UNL A   1      43.001  30.788  30.296  1.00  0.00     0.049 A 
ATOM     38  H   UNL A   1      42.946  28.815  29.546  1.00  0.00     0.167 HD
ATOM     39  C   UNL A   1      45.367  30.046  30.388  1.00  0.00     0.074 A 
ATOM     40  C   UNL A   1      46.771  30.258  30.674  1.00  0.00     0.031 C 
ATOM     41  C   UNL A   1      44.402  30.981  30.568  1.00  0.00     0.037 A 
BRANCH  28  42
ATOM     42  C   UNL A   1      38.714  29.111  29.043  1.00  0.00     0.057 A 
ATOM     43  C   UNL A   1      37.862  29.014  30.150  1.00  0.00     0.134 A 
ATOM     44  C   UNL A   1      38.170  29.609  27.852  1.00  0.00     0.134 A 
ATOM     45  F   UNL A   1      38.316  28.532  31.318  1.00  0.00    -0.206 F 
ATOM     46  C   UNL A   1      36.520  29.393  30.075  1.00  0.00     0.040 A 
ATOM     47  C   UNL A   1      36.836  30.013  27.770  1.00  0.00     0.040 A 
ATOM     48  F   UNL A   1      38.931  29.734  26.754  1.00  0.00    -0.206 F 
ATOM     49  C   UNL A   1      36.006  29.903  28.884  1.00  0.00     0.006 A 
ENDBRANCH  28  42
BRANCH  29  50
ATOM     50  C   UNL A   1      48.373  26.541  29.501  1.00  0.00     0.057 A 
ATOM     51  C   UNL A   1      49.208  26.712  28.392  1.00  0.00     0.134 A 
ATOM     52  C   UNL A   1      48.943  25.995  30.658  1.00  0.00     0.134 A 
ATOM     53  F   UNL A   1      48.720  27.217  27.250  1.00  0.00    -0.206 F 
ATOM     54  C   UNL A   1      50.550  26.329  28.423  1.00  0.00     0.040 A 
ATOM     55  C   UNL A   1      50.290  25.640  30.715  1.00  0.00     0.040 A 
ATOM     56  F   UNL A   1      48.198  25.816  31.760  1.00  0.00    -0.206 F 
ATOM     57  C   UNL A   1      51.095  25.795  29.589  1.00  0.00     0.006 A 
ENDBRANCH  29  50
BRANCH  41  58
ATOM     58  C   UNL A   1      44.845  32.303  31.120  1.00  0.00     0.057 A 
ATOM     59  C   UNL A   1      44.899  32.548  32.498  1.00  0.00     0.134 A 
ATOM     60  C   UNL A   1      45.219  33.346  30.262  1.00  0.00     0.134 A 
ATOM     61  F   UNL A   1      44.537  31.596  33.372  1.00  0.00    -0.206 F 
ATOM     62  C   UNL A   1      45.272  33.794  33.004  1.00  0.00     0.040 A 
ATOM     63  C   UNL A   1      45.624  34.587  30.757  1.00  0.00     0.040 A 
ATOM     64  F   UNL A   1      45.199  33.176  28.932  1.00  0.00    -0.206 F 
ATOM     65  C   UNL A   1      45.640  34.816  32.131  1.00  0.00     0.006 A 
ENDBRANCH  41  58
ENDBRANCH  15  16
ENDBRANCH   8  10
ENDBRANCH   5   6
ENDBRANCH   4   5
ENDBRANCH   3   4
ENDBRANCH   2   3
ENDBRANCH   1   2
BRANCH   1  66
ATOM     66  C   UNL A   1      35.375  24.057  24.708  1.00  0.00     0.116 C 
BRANCH  66  67
ATOM     67  N   UNL A   1      34.960  23.903  23.344  1.00  0.00    -0.356 N 
ATOM     68  C   UNL A   1      33.738  23.591  22.845  1.00  0.00     0.227 C 
ATOM     69  H   UNL A   1      35.665  24.044  22.672  1.00  0.00     0.163 HD
ATOM     70  O   UNL A   1      33.602  23.742  21.624  1.00  0.00    -0.274 OA
BRANCH  68  71
ATOM     71  C   UNL A   1      32.572  23.040  23.686  1.00  0.00     0.108 C 
BRANCH  71  72
ATOM     72  C   UNL A   1      31.173  23.689  23.493  1.00  0.00     0.018 C 
BRANCH  72  73
ATOM     73  C   UNL A   1      30.703  24.949  24.232  1.00  0.00     0.004 C 
BRANCH  73  74
ATOM     74  C   UNL A   1      31.266  26.297  23.770  1.00  0.00     0.028 C 
BRANCH  74  75
ATOM     75  C   UNL A   1      30.296  27.140  22.951  1.00  0.00     0.156 C 
BRANCH  75  76
ATOM     76  O   UNL A   1      30.894  27.513  21.717  1.00  0.00    -0.396 OA
ATOM     77  H   UNL A   1      30.942  26.740  21.134  1.00  0.00     0.210 HD
ENDBRANCH  75  76
ENDBRANCH  74  75
ENDBRANCH  73  74
ENDBRANCH  72  73
ENDBRANCH  71  72
BRANCH  71  78
ATOM     78  C   UNL A   1      32.640  21.571  24.112  1.00  0.00    -0.034 A 
ATOM     79  C   UNL A   1      32.909  21.123  25.412  1.00  0.00     0.004 A 
ATOM     80  C   UNL A   1      32.429  20.577  23.133  1.00  0.00     0.025 A 
ATOM     81  C   UNL A   1      33.021  19.761  25.717  1.00  0.00     0.002 A 
ATOM     82  C   UNL A   1      32.513  19.216  23.441  1.00  0.00     0.041 A 
ATOM     83  C   UNL A   1      32.826  18.803  24.730  1.00  0.00     0.020 A 
ATOM     84  Cl  UNL A   1      32.233  18.041  22.216  1.00  0.00    -0.084 Cl
ENDBRANCH  71  78
ENDBRANCH  68  71
ENDBRANCH  66  67
ENDBRANCH   1  66
TORSDOF 19
ENDMDL
MODEL 2
REMARK VINA RESULT:     -10.2      4.718      9.277
REMARK SMILES O=C(NCCCCCCNC(=O)[C@@H](CCCCO)c1cccc(Cl)c1)c1ccc(-c2c3nc(c(-c4c(F)cccc4F)c4ccc([nH]4)c(-c4c(F)cccc4F)c4nc(c(-c5c(F)cccc5F)c5ccc2[nH]5)C=C4)C=C3)cc1
REMARK SMILES IDX 8 1 7 2 6 3 5 4 4 5 3 6 1 7 2 8 26 10 27 11 79 12 28 13
REMARK SMILES IDX 78 14 29 15 30 16 31 17 72 18 32 19 77 20 71 21 73 22 33 23
REMARK SMILES IDX 76 24 70 25 69 26 34 28 60 29 43 30 59 31 44 32 47 33 58 34
REMARK SMILES IDX 74 35 45 36 46 37 57 39 75 40 48 41 35 42 36 43 41 44 37 45
REMARK SMILES IDX 38 46 40 47 42 48 39 49 61 50 62 51 67 52 63 53 64 54 66 55
REMARK SMILES IDX 68 56 65 57 49 58 50 59 55 60 51 61 52 62 54 63 56 64 53 65
REMARK SMILES IDX 9 66 10 67 11 68 12 70 13 71 14 72 15 73 16 74 17 75 18 76
REMARK SMILES IDX 19 78 20 79 25 80 21 81 23 82 22 83 24 84
REMARK H PARENT 3 9 73 27 47 38 10 69 18 77
REMARK Flexibility Score: inf
ROOT
ATOM      1  C   UNL A   1      32.748  28.506  26.782  1.00  0.00     0.021 C 
ENDROOT
BRANCH   1   2
ATOM      2  C   UNL A   1      31.490  29.374  26.841  1.00  0.00     0.002 C 
BRANCH   2   3
ATOM      3  C   UNL A   1      31.404  30.484  25.784  1.00  0.00     0.002 C 
BRANCH   3   4
ATOM      4  C   UNL A   1      31.216  31.900  26.330  1.00  0.00     0.021 C 
BRANCH   4   5
ATOM      5  C   UNL A   1      32.397  32.432  27.127  1.00  0.00     0.116 C 
BRANCH   5   6
ATOM      6  N   UNL A   1      32.229  33.827  27.495  1.00  0.00    -0.352 N 
ATOM      7  O   UNL A   1      32.527  35.684  28.741  1.00  0.00    -0.269 OA
ATOM      8  C   UNL A   1      32.919  34.573  28.420  1.00  0.00     0.251 C 
ATOM      9  H   UNL A   1      31.517  34.308  27.013  1.00  0.00     0.163 HD
BRANCH   8  10
ATOM     10  C   UNL A   1      34.141  34.007  29.029  1.00  0.00     0.039 A 
ATOM     11  C   UNL A   1      34.042  33.094  30.079  1.00  0.00     0.014 A 
ATOM     12  C   UNL A   1      35.393  34.388  28.538  1.00  0.00     0.014 A 
ATOM     13  C   UNL A   1      35.189  32.670  30.731  1.00  0.00     0.010 A 
ATOM     14  C   UNL A   1      36.551  33.875  29.127  1.00  0.00     0.010 A 
ATOM     15  C   UNL A   1      36.457  33.024  30.239  1.00  0.00    -0.014 A 
BRANCH  15  16
ATOM     16  C   UNL A   1      37.651  32.392  30.849  1.00  0.00     0.031 A 
ATOM     17  C   UNL A   1      38.181  32.829  32.184  1.00  0.00     0.074 A 
ATOM     18  C   UNL A   1      38.226  31.368  30.187  1.00  0.00     0.049 A 
ATOM     19  N   UNL A   1      39.186  32.339  32.866  1.00  0.00    -0.248 NA
ATOM     20  C   UNL A   1      37.506  33.960  32.838  1.00  0.00     0.031 C 
ATOM     21  C   UNL A   1      37.803  30.876  28.871  1.00  0.00     0.029 A 
ATOM     22  N   UNL A   1      39.259  30.538  30.531  1.00  0.00    -0.354 N 
ATOM     23  C   UNL A   1      39.270  33.102  34.023  1.00  0.00     0.074 A 
ATOM     24  C   UNL A   1      38.233  34.111  33.938  1.00  0.00     0.031 C 
ATOM     25  C   UNL A   1      38.527  29.797  28.549  1.00  0.00     0.029 A 
ATOM     26  C   UNL A   1      39.514  29.565  29.595  1.00  0.00     0.049 A 
ATOM     27  H   UNL A   1      39.769  30.630  31.368  1.00  0.00     0.167 HD
ATOM     28  C   UNL A   1      40.129  32.965  35.061  1.00  0.00     0.037 A 
ATOM     29  C   UNL A   1      40.452  28.604  29.568  1.00  0.00     0.037 A 
ATOM     30  C   UNL A   1      41.156  31.955  35.134  1.00  0.00     0.049 A 
ATOM     31  C   UNL A   1      41.405  28.498  30.722  1.00  0.00     0.074 A 
ATOM     32  C   UNL A   1      42.070  31.725  36.149  1.00  0.00     0.029 A 
ATOM     33  N   UNL A   1      41.408  31.009  34.151  1.00  0.00    -0.354 N 
ATOM     34  N   UNL A   1      41.453  29.210  31.821  1.00  0.00    -0.248 NA
ATOM     35  C   UNL A   1      42.435  27.456  30.631  1.00  0.00     0.031 C 
ATOM     36  C   UNL A   1      42.901  30.669  35.761  1.00  0.00     0.029 A 
ATOM     37  C   UNL A   1      42.474  30.206  34.528  1.00  0.00     0.049 A 
ATOM     38  H   UNL A   1      40.904  30.920  33.310  1.00  0.00     0.167 HD
ATOM     39  C   UNL A   1      42.511  28.698  32.558  1.00  0.00     0.074 A 
ATOM     40  C   UNL A   1      43.052  27.591  31.795  1.00  0.00     0.031 C 
ATOM     41  C   UNL A   1      43.001  29.113  33.752  1.00  0.00     0.037 A 
BRANCH  28  42
ATOM     42  C   UNL A   1      40.009  33.930  36.206  1.00  0.00     0.057 A 
ATOM     43  C   UNL A   1      40.679  35.160  36.207  1.00  0.00     0.134 A 
ATOM     44  C   UNL A   1      39.158  33.658  37.285  1.00  0.00     0.134 A 
ATOM     45  F   UNL A   1      41.519  35.478  35.210  1.00  0.00    -0.206 F 
ATOM     46  C   UNL A   1      40.511  36.082  37.243  1.00  0.00     0.040 A 
ATOM     47  C   UNL A   1      38.965  34.581  38.315  1.00  0.00     0.040 A 
ATOM     48  F   UNL A   1      38.481  32.501  37.345  1.00  0.00    -0.206 F 
ATOM     49  C   UNL A   1      39.645  35.797  38.296  1.00  0.00     0.006 A 
ENDBRANCH  28  42
BRANCH  29  50
ATOM     50  C   UNL A   1      40.552  27.690  28.404  1.00  0.00     0.057 A 
ATOM     51  C   UNL A   1      39.904  26.451  28.391  1.00  0.00     0.134 A 
ATOM     52  C   UNL A   1      41.312  28.031  27.277  1.00  0.00     0.134 A 
ATOM     53  F   UNL A   1      39.172  26.060  29.444  1.00  0.00    -0.206 F 
ATOM     54  C   UNL A   1      40.029  25.573  27.313  1.00  0.00     0.040 A 
ATOM     55  C   UNL A   1      41.418  27.179  26.179  1.00  0.00     0.040 A 
ATOM     56  F   UNL A   1      41.949  29.211  27.222  1.00  0.00    -0.206 F 
ATOM     57  C   UNL A   1      40.785  25.938  26.201  1.00  0.00     0.006 A 
ENDBRANCH  29  50
BRANCH  41  58
ATOM     58  C   UNL A   1      44.164  28.343  34.303  1.00  0.00     0.057 A 
ATOM     59  C   UNL A   1      45.488  28.723  34.048  1.00  0.00     0.134 A 
ATOM     60  C   UNL A   1      43.958  27.205  35.094  1.00  0.00     0.134 A 
ATOM     61  F   UNL A   1      45.753  29.793  33.284  1.00  0.00    -0.206 F 
ATOM     62  C   UNL A   1      46.566  27.979  34.530  1.00  0.00     0.040 A 
ATOM     63  C   UNL A   1      45.027  26.470  35.606  1.00  0.00     0.040 A 
ATOM     64  F   UNL A   1      42.714  26.791  35.382  1.00  0.00    -0.206 F 
ATOM     65  C   UNL A   1      46.336  26.851  35.315  1.00  0.00     0.006 A 
ENDBRANCH  41  58
ENDBRANCH  15  16
ENDBRANCH   8  10
ENDBRANCH   5   6
ENDBRANCH   4   5
ENDBRANCH   3   4
ENDBRANCH   2   3
ENDBRANCH   1   2
BRANCH   1  66
ATOM     66  C   UNL A   1      32.537  27.161  26.108  1.00  0.00     0.116 C 
BRANCH  66  67
ATOM     67  N   UNL A   1      31.363  26.475  26.566  1.00  0.00    -0.356 N 
ATOM     68  C   UNL A   1      30.387  25.863  25.850  1.00  0.00     0.227 C 
ATOM     69  H   UNL A   1      31.249  26.444  27.543  1.00  0.00     0.163 HD
ATOM     70  O   UNL A   1      29.606  25.157  26.500  1.00  0.00    -0.274 OA
BRANCH  68  71
ATOM     71  C   UNL A   1      30.187  26.035  24.332  1.00  0.00     0.108 C 
BRANCH  71  72
ATOM     72  C   UNL A   1      30.405  24.789  23.431  1.00  0.00     0.018 C 
BRANCH  72  73
ATOM     73  C   UNL A   1      31.710  23.983  23.383  1.00  0.00     0.004 C 
BRANCH  73  74
ATOM     74  C   UNL A   1      32.770  24.401  22.359  1.00  0.00     0.028 C 
BRANCH  74  75
ATOM     75  C   UNL A   1      33.622  25.591  22.782  1.00  0.00     0.156 C 
BRANCH  75  76
ATOM     76  O   UNL A   1      33.923  26.402  21.654  1.00  0.00    -0.396 OA
ATOM     77  H   UNL A   1      33.509  26.024  20.863  1.00  0.00     0.210 HD
ENDBRANCH  75  76
ENDBRANCH  74  75
ENDBRANCH  73  74
ENDBRANCH  72  73
ENDBRANCH  71  72
BRANCH  71  78
ATOM     78  C   UNL A   1      29.198  27.107  23.866  1.00  0.00    -0.034 A 
ATOM     79  C   UNL A   1      27.807  27.033  24.009  1.00  0.00     0.004 A 
ATOM     80  C   UNL A   1      29.707  28.262  23.234  1.00  0.00     0.025 A 
ATOM     81  C   UNL A   1      26.957  28.023  23.500  1.00  0.00     0.002 A 
ATOM     82  C   UNL A   1      28.862  29.264  22.750  1.00  0.00     0.041 A 
ATOM     83  C   UNL A   1      27.484  29.141  22.866  1.00  0.00     0.020 A 
ATOM     84  Cl  UNL A   1      29.531  30.660  21.999  1.00  0.00    -0.084 Cl
ENDBRANCH  71  78
ENDBRANCH  68  71
ENDBRANCH  66  67
ENDBRANCH   1  66
TORSDOF 19
ENDMDL
MODEL 3
REMARK VINA RESULT:     -10.1      4.703      9.519
REMARK SMILES O=C(NCCCCCCNC(=O)[C@@H](CCCCO)c1cccc(Cl)c1)c1ccc(-c2c3nc(c(-c4c(F)cccc4F)c4ccc([nH]4)c(-c4c(F)cccc4F)c4nc(c(-c5c(F)cccc5F)c5ccc2[nH]5)C=C4)C=C3)cc1
REMARK SMILES IDX 8 1 7 2 6 3 5 4 4 5 3 6 1 7 2 8 26 10 27 11 79 12 28 13
REMARK SMILES IDX 78 14 29 15 30 16 31 17 72 18 32 19 77 20 71 21 73 22 33 23
REMARK SMILES IDX 76 24 70 25 69 26 34 28 60 29 43 30 59 31 44 32 47 33 58 34
REMARK SMILES IDX 74 35 45 36 46 37 57 39 75 40 48 41 35 42 36 43 41 44 37 45
REMARK SMILES IDX 38 46 40 47 42 48 39 49 61 50 62 51 67 52 63 53 64 54 66 55
REMARK SMILES IDX 68 56 65 57 49 58 50 59 55 60 51 61 52 62 54 63 56 64 53 65
REMARK SMILES IDX 9 66 10 67 11 68 12 70 13 71 14 72 15 73 16 74 17 75 18 76
REMARK SMILES IDX 19 78 20 79 25 80 21 81 23 82 22 83 24 84
REMARK H PARENT 3 9 73 27 47 38 10 69 18 77
REMARK Flexibility Score: inf
ROOT
ATOM      1  C   UNL A   1      33.042  28.715  26.557  1.00  0.00     0.021 C 
ENDROOT
BRANCH   1   2
ATOM      2  C   UNL A   1      31.702  29.419  26.777  1.00  0.00     0.002 C 
BRANCH   2   3
ATOM      3  C   UNL A   1      31.381  30.549  25.789  1.00  0.00     0.002 C 
BRANCH   3   4
ATOM      4  C   UNL A   1      31.277  31.947  26.399  1.00  0.00     0.021 C 
BRANCH   4   5
ATOM      5  C   UNL A   1      32.558  32.453  27.043  1.00  0.00     0.116 C 
BRANCH   5   6
ATOM      6  N   UNL A   1      32.453  33.840  27.463  1.00  0.00    -0.352 N 
ATOM      7  O   UNL A   1      32.798  35.624  28.800  1.00  0.00    -0.269 OA
ATOM      8  C   UNL A   1      33.140  34.505  28.450  1.00  0.00     0.251 C 
ATOM      9  H   UNL A   1      31.795  34.382  26.970  1.00  0.00     0.163 HD
BRANCH   8  10
ATOM     10  C   UNL A   1      34.296  33.844  29.090  1.00  0.00     0.039 A 
ATOM     11  C   UNL A   1      34.092  32.834  30.032  1.00  0.00     0.014 A 
ATOM     12  C   UNL A   1      35.591  34.232  28.737  1.00  0.00     0.014 A 
ATOM     13  C   UNL A   1      35.174  32.311  30.723  1.00  0.00     0.010 A 
ATOM     14  C   UNL A   1      36.686  33.626  29.358  1.00  0.00     0.010 A 
ATOM     15  C   UNL A   1      36.484  32.672  30.368  1.00  0.00    -0.014 A 
BRANCH  15  16
ATOM     16  C   UNL A   1      37.611  31.946  31.000  1.00  0.00     0.031 A 
ATOM     17  C   UNL A   1      38.388  30.895  30.262  1.00  0.00     0.074 A 
ATOM     18  C   UNL A   1      37.955  32.295  32.256  1.00  0.00     0.049 A 
ATOM     19  N   UNL A   1      39.428  30.210  30.666  1.00  0.00    -0.248 NA
ATOM     20  C   UNL A   1      37.944  30.563  28.899  1.00  0.00     0.031 C 
ATOM     21  C   UNL A   1      37.253  33.290  33.074  1.00  0.00     0.029 A 
ATOM     22  N   UNL A   1      38.989  31.884  33.055  1.00  0.00    -0.354 N 
ATOM     23  C   UNL A   1      39.759  29.363  29.617  1.00  0.00     0.074 A 
ATOM     24  C   UNL A   1      38.790  29.597  28.566  1.00  0.00     0.031 C 
ATOM     25  C   UNL A   1      37.910  33.456  34.229  1.00  0.00     0.029 A 
ATOM     26  C   UNL A   1      39.032  32.528  34.267  1.00  0.00     0.049 A 
ATOM     27  H   UNL A   1      39.638  31.194  32.786  1.00  0.00     0.167 HD
ATOM     28  C   UNL A   1      40.783  28.480  29.539  1.00  0.00     0.037 A 
ATOM     29  C   UNL A   1      39.869  32.375  35.308  1.00  0.00     0.037 A 
ATOM     30  C   UNL A   1      41.743  28.258  30.592  1.00  0.00     0.049 A 
ATOM     31  C   UNL A   1      40.975  31.369  35.198  1.00  0.00     0.074 A 
ATOM     32  C   UNL A   1      42.825  27.395  30.606  1.00  0.00     0.029 A 
ATOM     33  N   UNL A   1      41.734  28.903  31.821  1.00  0.00    -0.354 N 
ATOM     34  N   UNL A   1      41.291  30.596  34.188  1.00  0.00    -0.248 NA
ATOM     35  C   UNL A   1      41.840  31.211  36.374  1.00  0.00     0.031 C 
ATOM     36  C   UNL A   1      43.445  27.485  31.857  1.00  0.00     0.029 A 
ATOM     37  C   UNL A   1      42.781  28.443  32.605  1.00  0.00     0.049 A 
ATOM     38  H   UNL A   1      41.082  29.587  32.095  1.00  0.00     0.167 HD
ATOM     39  C   UNL A   1      42.397  29.867  34.600  1.00  0.00     0.074 A 
ATOM     40  C   UNL A   1      42.717  30.319  35.939  1.00  0.00     0.031 C 
ATOM     41  C   UNL A   1      43.079  28.902  33.938  1.00  0.00     0.037 A 
BRANCH  28  42
ATOM     42  C   UNL A   1      40.925  27.676  28.278  1.00  0.00     0.057 A 
ATOM     43  C   UNL A   1      40.268  26.451  28.107  1.00  0.00     0.134 A 
ATOM     44  C   UNL A   1      41.666  28.168  27.196  1.00  0.00     0.134 A 
ATOM     45  F   UNL A   1      39.552  25.917  29.108  1.00  0.00    -0.206 F 
ATOM     46  C   UNL A   1      40.350  25.740  26.908  1.00  0.00     0.040 A 
ATOM     47  C   UNL A   1      41.737  27.477  25.984  1.00  0.00     0.040 A 
ATOM     48  F   UNL A   1      42.315  29.338  27.288  1.00  0.00    -0.206 F 
ATOM     49  C   UNL A   1      41.078  26.258  25.838  1.00  0.00     0.006 A 
ENDBRANCH  28  42
BRANCH  29  50
ATOM     50  C   UNL A   1      39.674  33.171  36.545  1.00  0.00     0.057 A 
ATOM     51  C   UNL A   1      40.349  34.378  36.750  1.00  0.00     0.134 A 
ATOM     52  C   UNL A   1      38.815  32.733  37.562  1.00  0.00     0.134 A 
ATOM     53  F   UNL A   1      41.196  34.845  35.821  1.00  0.00    -0.206 F 
ATOM     54  C   UNL A   1      40.199  35.108  37.930  1.00  0.00     0.040 A 
ATOM     55  C   UNL A   1      38.628  33.469  38.731  1.00  0.00     0.040 A 
ATOM     56  F   UNL A   1      38.129  31.589  37.422  1.00  0.00    -0.206 F 
ATOM     57  C   UNL A   1      39.332  34.656  38.923  1.00  0.00     0.006 A 
ENDBRANCH  29  50
BRANCH  41  58
ATOM     58  C   UNL A   1      44.249  28.296  34.655  1.00  0.00     0.057 A 
ATOM     59  C   UNL A   1      44.117  27.145  35.442  1.00  0.00     0.134 A 
ATOM     60  C   UNL A   1      45.522  28.873  34.559  1.00  0.00     0.134 A 
ATOM     61  F   UNL A   1      42.921  26.555  35.588  1.00  0.00    -0.206 F 
ATOM     62  C   UNL A   1      45.201  26.610  36.140  1.00  0.00     0.040 A 
ATOM     63  C   UNL A   1      46.620  28.330  35.228  1.00  0.00     0.040 A 
ATOM     64  F   UNL A   1      45.719  29.971  33.814  1.00  0.00    -0.206 F 
ATOM     65  C   UNL A   1      46.458  27.201  36.029  1.00  0.00     0.006 A 
ENDBRANCH  41  58
ENDBRANCH  15  16
ENDBRANCH   8  10
ENDBRANCH   5   6
ENDBRANCH   4   5
ENDBRANCH   3   4
ENDBRANCH   2   3
ENDBRANCH   1   2
BRANCH   1  66
ATOM     66  C   UNL A   1      32.942  27.199  26.524  1.00  0.00     0.116 C 
BRANCH  66  67
ATOM     67  N   UNL A   1      31.628  26.711  26.824  1.00  0.00    -0.356 N 
ATOM     68  C   UNL A   1      30.744  26.064  26.024  1.00  0.00     0.227 C 
ATOM     69  H   UNL A   1      31.322  26.868  27.747  1.00  0.00     0.163 HD
ATOM     70  O   UNL A   1      29.771  25.557  26.598  1.00  0.00    -0.274 OA
BRANCH  68  71
ATOM     71  C   UNL A   1      30.867  25.973  24.491  1.00  0.00     0.108 C 
BRANCH  71  72
ATOM     72  C   UNL A   1      30.628  24.588  23.830  1.00  0.00     0.018 C 
BRANCH  72  73
ATOM     73  C   UNL A   1      31.637  23.894  22.905  1.00  0.00     0.004 C 
BRANCH  73  74
ATOM     74  C   UNL A   1      33.127  24.067  23.217  1.00  0.00     0.028 C 
BRANCH  74  75
ATOM     75  C   UNL A   1      34.024  22.977  22.643  1.00  0.00     0.156 C 
BRANCH  75  76
ATOM     76  O   UNL A   1      35.390  23.298  22.868  1.00  0.00    -0.396 OA
ATOM     77  H   UNL A   1      35.878  22.493  23.098  1.00  0.00     0.210 HD
ENDBRANCH  75  76
ENDBRANCH  74  75
ENDBRANCH  73  74
ENDBRANCH  72  73
ENDBRANCH  71  72
BRANCH  71  78
ATOM     78  C   UNL A   1      30.547  27.232  23.681  1.00  0.00    -0.034 A 
ATOM     79  C   UNL A   1      31.492  28.010  22.999  1.00  0.00     0.004 A 
ATOM     80  C   UNL A   1      29.205  27.663  23.611  1.00  0.00     0.025 A 
ATOM     81  C   UNL A   1      31.136  29.188  22.330  1.00  0.00     0.002 A 
ATOM     82  C   UNL A   1      28.844  28.824  22.921  1.00  0.00     0.041 A 
ATOM     83  C   UNL A   1      29.810  29.599  22.292  1.00  0.00     0.020 A 
ATOM     84  Cl  UNL A   1      27.193  29.301  22.852  1.00  0.00    -0.084 Cl
ENDBRANCH  71  78
ENDBRANCH  68  71
ENDBRANCH  66  67
ENDBRANCH   1  66
TORSDOF 19
ENDMDL
