MODEL 1
REMARK VINA RESULT:     -10.8      0.000      0.000
REMARK SMILES CC(C)(C)OC(=O)N1CCC[C@H]1C(=O)N[C@@H](Cc1ccccc1)C(=O)NCCCCCCNC(=O)c1ccc(-c2c3nc(c(-c4c(F)cccc4F)c4ccc([nH]4)c(-c4c(F)cccc4F)c4nc(c(-c5c(F)cccc5F)c5ccc2[nH]5)C=C4)C=C3)cc1
REMARK SMILES IDX 28 1 27 2 26 3 24 4 25 5 16 7 15 8 13 9 14 10 12 12 8 13
REMARK SMILES IDX 9 14 10 15 11 16 6 17 7 18 5 19 2 20 1 21 3 22 4 23 17 24
REMARK SMILES IDX 18 25 19 26 23 27 20 28 22 29 21 30 29 31 30 32 31 33 32 34
REMARK SMILES IDX 33 35 34 36 35 38 36 39 37 40 89 41 38 42 88 43 39 44 40 45
REMARK SMILES IDX 41 46 82 47 42 48 87 49 81 50 83 51 43 52 86 53 80 54 79 55
REMARK SMILES IDX 44 57 70 58 53 59 69 60 54 61 57 62 68 63 84 64 55 65 56 66
REMARK SMILES IDX 67 68 85 69 58 70 45 71 46 72 51 73 47 74 48 75 50 76 52 77
REMARK SMILES IDX 49 78 71 79 72 80 77 81 73 82 74 83 76 84 78 85 75 86 59 87
REMARK SMILES IDX 60 88 65 89 61 90 62 91 64 92 66 93 63 94
REMARK H PARENT 26 6 15 11 33 37 83 56 57 67
REMARK Flexibility Score: inf
ROOT
ATOM      1  C   UNL A   1      35.282  29.337  27.397  1.00  0.00     0.021 C 
ENDROOT
BRANCH   1   2
ATOM      2  C   UNL A   1      34.246  28.712  26.468  1.00  0.00     0.116 C 
BRANCH   2   3
ATOM      3  N   UNL A   1      32.877  28.764  26.938  1.00  0.00    -0.354 N 
ATOM      4  C   UNL A   1      31.968  27.752  27.076  1.00  0.00     0.242 C 
ATOM      5  O   UNL A   1      31.128  27.889  27.975  1.00  0.00    -0.273 OA
ATOM      6  H   UNL A   1      32.553  29.658  27.194  1.00  0.00     0.163 HD
BRANCH   4   7
ATOM      7  C   UNL A   1      31.987  26.431  26.257  1.00  0.00     0.175 C 
BRANCH   7   8
ATOM      8  N   UNL A   1      31.168  25.336  26.785  1.00  0.00    -0.342 N 
ATOM      9  C   UNL A   1      31.364  23.981  26.654  1.00  0.00     0.243 C 
ATOM     10  O   UNL A   1      30.660  23.226  27.327  1.00  0.00    -0.273 OA
ATOM     11  H   UNL A   1      30.374  25.606  27.302  1.00  0.00     0.164 HD
BRANCH   9  12
ATOM     12  C   UNL A   1      32.325  23.474  25.553  1.00  0.00     0.178 C 
ATOM     13  N   UNL A   1      32.971  22.196  25.825  1.00  0.00    -0.296 N 
ATOM     14  C   UNL A   1      32.415  21.133  25.019  1.00  0.00     0.124 C 
ATOM     15  C   UNL A   1      31.945  21.851  23.770  1.00  0.00     0.024 C 
ATOM     16  C   UNL A   1      31.500  23.219  24.278  1.00  0.00     0.037 C 
BRANCH  13  17
ATOM     17  C   UNL A   1      34.078  22.114  26.636  1.00  0.00     0.410 C 
ATOM     18  O   UNL A   1      34.068  21.555  27.716  1.00  0.00    -0.224 OA
BRANCH  17  19
ATOM     19  O   UNL A   1      35.128  22.803  26.114  1.00  0.00    -0.444 OA
BRANCH  19  20
ATOM     20  C   UNL A   1      36.022  22.229  25.121  1.00  0.00     0.106 C 
ATOM     21  C   UNL A   1      37.427  22.708  25.525  1.00  0.00     0.056 C 
ATOM     22  C   UNL A   1      35.664  22.810  23.754  1.00  0.00     0.056 C 
ATOM     23  C   UNL A   1      36.044  20.695  25.092  1.00  0.00     0.056 C 
ENDBRANCH  19  20
ENDBRANCH  17  19
ENDBRANCH  13  17
ENDBRANCH   9  12
ENDBRANCH   7   8
BRANCH   7  24
ATOM     24  C   UNL A   1      31.908  26.598  24.718  1.00  0.00     0.070 C 
BRANCH  24  25
ATOM     25  C   UNL A   1      30.708  27.300  24.131  1.00  0.00    -0.045 A 
ATOM     26  C   UNL A   1      30.816  28.601  23.636  1.00  0.00     0.004 A 
ATOM     27  C   UNL A   1      29.472  26.649  24.010  1.00  0.00     0.004 A 
ATOM     28  C   UNL A   1      29.687  29.302  23.206  1.00  0.00     0.000 A 
ATOM     29  C   UNL A   1      28.353  27.330  23.523  1.00  0.00     0.000 A 
ATOM     30  C   UNL A   1      28.450  28.672  23.167  1.00  0.00     0.000 A 
ENDBRANCH  24  25
ENDBRANCH   7  24
ENDBRANCH   4   7
ENDBRANCH   2   3
ENDBRANCH   1   2
BRANCH   1  31
ATOM     31  C   UNL A   1      34.763  30.465  28.306  1.00  0.00     0.002 C 
BRANCH  31  32
ATOM     32  C   UNL A   1      34.747  31.889  27.728  1.00  0.00     0.002 C 
BRANCH  32  33
ATOM     33  C   UNL A   1      33.460  32.694  27.919  1.00  0.00     0.021 C 
BRANCH  33  34
ATOM     34  C   UNL A   1      33.630  34.206  27.999  1.00  0.00     0.116 C 
BRANCH  34  35
ATOM     35  N   UNL A   1      33.136  34.773  29.243  1.00  0.00    -0.352 N 
ATOM     36  C   UNL A   1      33.605  34.642  30.527  1.00  0.00     0.251 C 
ATOM     37  H   UNL A   1      32.337  35.342  29.150  1.00  0.00     0.163 HD
ATOM     38  O   UNL A   1      32.958  35.107  31.461  1.00  0.00    -0.269 OA
BRANCH  36  39
ATOM     39  C   UNL A   1      34.870  33.921  30.802  1.00  0.00     0.039 A 
ATOM     40  C   UNL A   1      34.826  32.747  31.561  1.00  0.00     0.014 A 
ATOM     41  C   UNL A   1      36.098  34.403  30.346  1.00  0.00     0.014 A 
ATOM     42  C   UNL A   1      36.002  32.033  31.813  1.00  0.00     0.010 A 
ATOM     43  C   UNL A   1      37.253  33.643  30.515  1.00  0.00     0.010 A 
ATOM     44  C   UNL A   1      37.222  32.461  31.267  1.00  0.00    -0.014 A 
BRANCH  44  45
ATOM     45  C   UNL A   1      38.484  31.714  31.513  1.00  0.00     0.031 A 
ATOM     46  C   UNL A   1      39.398  32.133  32.634  1.00  0.00     0.074 A 
ATOM     47  C   UNL A   1      38.835  30.695  30.706  1.00  0.00     0.049 A 
ATOM     48  N   UNL A   1      40.567  31.653  32.977  1.00  0.00    -0.248 NA
ATOM     49  C   UNL A   1      38.950  33.265  33.464  1.00  0.00     0.031 C 
ATOM     50  C   UNL A   1      38.057  30.212  29.564  1.00  0.00     0.029 A 
ATOM     51  N   UNL A   1      39.939  29.879  30.724  1.00  0.00    -0.354 N 
ATOM     52  C   UNL A   1      40.995  32.430  34.046  1.00  0.00     0.074 A 
ATOM     53  C   UNL A   1      39.998  33.456  34.250  1.00  0.00     0.031 C 
ATOM     54  C   UNL A   1      38.690  29.163  29.013  1.00  0.00     0.029 A 
ATOM     55  C   UNL A   1      39.937  28.926  29.735  1.00  0.00     0.049 A 
ATOM     56  H   UNL A   1      40.665  29.971  31.383  1.00  0.00     0.167 HD
ATOM     57  C   UNL A   1      42.104  32.285  34.812  1.00  0.00     0.037 A 
ATOM     58  C   UNL A   1      40.839  27.969  29.445  1.00  0.00     0.037 A 
ATOM     59  C   UNL A   1      43.086  31.251  34.621  1.00  0.00     0.049 A 
ATOM     60  C   UNL A   1      42.076  27.844  30.291  1.00  0.00     0.074 A 
ATOM     61  C   UNL A   1      44.223  30.991  35.366  1.00  0.00     0.029 A 
ATOM     62  N   UNL A   1      43.046  30.304  33.608  1.00  0.00    -0.354 N 
ATOM     63  N   UNL A   1      42.441  28.550  31.335  1.00  0.00    -0.248 NA
ATOM     64  C   UNL A   1      43.025  26.784  29.922  1.00  0.00     0.031 C 
ATOM     65  C   UNL A   1      44.896  29.917  34.775  1.00  0.00     0.029 A 
ATOM     66  C   UNL A   1      44.149  29.471  33.696  1.00  0.00     0.049 A 
ATOM     67  H   UNL A   1      42.340  30.235  32.927  1.00  0.00     0.167 HD
ATOM     68  C   UNL A   1      43.638  27.995  31.769  1.00  0.00     0.074 A 
ATOM     69  C   UNL A   1      43.934  26.890  30.881  1.00  0.00     0.031 C 
ATOM     70  C   UNL A   1      44.422  28.366  32.812  1.00  0.00     0.037 A 
BRANCH  57  71
ATOM     71  C   UNL A   1      42.303  33.271  35.928  1.00  0.00     0.057 A 
ATOM     72  C   UNL A   1      43.036  34.453  35.749  1.00  0.00     0.134 A 
ATOM     73  C   UNL A   1      41.750  33.044  37.195  1.00  0.00     0.134 A 
ATOM     74  F   UNL A   1      43.604  34.728  34.565  1.00  0.00    -0.206 F 
ATOM     75  C   UNL A   1      43.245  35.352  36.798  1.00  0.00     0.040 A 
ATOM     76  C   UNL A   1      41.924  33.951  38.242  1.00  0.00     0.040 A 
ATOM     77  F   UNL A   1      41.030  31.938  37.437  1.00  0.00    -0.206 F 
ATOM     78  C   UNL A   1      42.683  35.103  38.047  1.00  0.00     0.006 A 
ENDBRANCH  57  71
BRANCH  58  79
ATOM     79  C   UNL A   1      40.590  27.025  28.323  1.00  0.00     0.057 A 
ATOM     80  C   UNL A   1      39.684  25.968  28.461  1.00  0.00     0.134 A 
ATOM     81  C   UNL A   1      41.257  27.147  27.098  1.00  0.00     0.134 A 
ATOM     82  F   UNL A   1      39.028  25.788  29.618  1.00  0.00    -0.206 F 
ATOM     83  C   UNL A   1      39.462  25.053  27.431  1.00  0.00     0.040 A 
ATOM     84  C   UNL A   1      41.025  26.254  26.050  1.00  0.00     0.040 A 
ATOM     85  F   UNL A   1      42.133  28.142  26.898  1.00  0.00    -0.206 F 
ATOM     86  C   UNL A   1      40.132  25.198  26.218  1.00  0.00     0.006 A 
ENDBRANCH  58  79
BRANCH  70  87
ATOM     87  C   UNL A   1      45.646  27.540  33.082  1.00  0.00     0.057 A 
ATOM     88  C   UNL A   1      45.611  26.401  33.895  1.00  0.00     0.134 A 
ATOM     89  C   UNL A   1      46.870  27.869  32.483  1.00  0.00     0.134 A 
ATOM     90  F   UNL A   1      44.474  26.036  34.507  1.00  0.00    -0.206 F 
ATOM     91  C   UNL A   1      46.756  25.634  34.125  1.00  0.00     0.040 A 
ATOM     92  C   UNL A   1      48.013  27.095  32.681  1.00  0.00     0.040 A 
ATOM     93  F   UNL A   1      46.971  28.943  31.684  1.00  0.00    -0.206 F 
ATOM     94  C   UNL A   1      47.959  25.976  33.511  1.00  0.00     0.006 A 
ENDBRANCH  70  87
ENDBRANCH  44  45
ENDBRANCH  36  39
ENDBRANCH  34  35
ENDBRANCH  33  34
ENDBRANCH  32  33
ENDBRANCH  31  32
ENDBRANCH   1  31
TORSDOF 20
ENDMDL
MODEL 2
REMARK VINA RESULT:     -10.6      1.206      6.146
REMARK SMILES CC(C)(C)OC(=O)N1CCC[C@H]1C(=O)N[C@@H](Cc1ccccc1)C(=O)NCCCCCCNC(=O)c1ccc(-c2c3nc(c(-c4c(F)cccc4F)c4ccc([nH]4)c(-c4c(F)cccc4F)c4nc(c(-c5c(F)cccc5F)c5ccc2[nH]5)C=C4)C=C3)cc1
REMARK SMILES IDX 28 1 27 2 26 3 24 4 25 5 16 7 15 8 13 9 14 10 12 12 8 13
REMARK SMILES IDX 9 14 10 15 11 16 6 17 7 18 5 19 2 20 1 21 3 22 4 23 17 24
REMARK SMILES IDX 18 25 19 26 23 27 20 28 22 29 21 30 29 31 30 32 31 33 32 34
REMARK SMILES IDX 33 35 34 36 35 38 36 39 37 40 89 41 38 42 88 43 39 44 40 45
REMARK SMILES IDX 41 46 82 47 42 48 87 49 81 50 83 51 43 52 86 53 80 54 79 55
REMARK SMILES IDX 44 57 70 58 53 59 69 60 54 61 57 62 68 63 84 64 55 65 56 66
REMARK SMILES IDX 67 68 85 69 58 70 45 71 46 72 51 73 47 74 48 75 50 76 52 77
REMARK SMILES IDX 49 78 71 79 72 80 77 81 73 82 74 83 76 84 78 85 75 86 59 87
REMARK SMILES IDX 60 88 65 89 61 90 62 91 64 92 66 93 63 94
REMARK H PARENT 26 6 15 11 33 37 83 56 57 67
REMARK Flexibility Score: inf
ROOT
ATOM      1  C   UNL A   1      35.393  29.430  27.621  1.00  0.00     0.021 C 
ENDROOT
BRANCH   1   2
ATOM      2  C   UNL A   1      34.396  28.696  26.729  1.00  0.00     0.116 C 
BRANCH   2   3
ATOM      3  N   UNL A   1      33.006  28.822  27.114  1.00  0.00    -0.354 N 
ATOM      4  C   UNL A   1      32.026  27.869  27.151  1.00  0.00     0.242 C 
ATOM      5  O   UNL A   1      31.140  28.027  28.002  1.00  0.00    -0.273 OA
ATOM      6  H   UNL A   1      32.725  29.725  27.388  1.00  0.00     0.163 HD
BRANCH   4   7
ATOM      7  C   UNL A   1      32.012  26.583  26.279  1.00  0.00     0.175 C 
BRANCH   7   8
ATOM      8  N   UNL A   1      31.146  25.498  26.748  1.00  0.00    -0.342 N 
ATOM      9  C   UNL A   1      31.335  24.140  26.627  1.00  0.00     0.243 C 
ATOM     10  O   UNL A   1      30.579  23.393  27.250  1.00  0.00    -0.273 OA
ATOM     11  H   UNL A   1      30.323  25.776  27.211  1.00  0.00     0.164 HD
BRANCH   9  12
ATOM     12  C   UNL A   1      32.363  23.623  25.594  1.00  0.00     0.178 C 
ATOM     13  N   UNL A   1      33.085  22.417  25.977  1.00  0.00    -0.296 N 
ATOM     14  C   UNL A   1      32.629  21.261  25.239  1.00  0.00     0.124 C 
ATOM     15  C   UNL A   1      32.150  21.852  23.928  1.00  0.00     0.024 C 
ATOM     16  C   UNL A   1      31.597  23.219  24.319  1.00  0.00     0.037 C 
BRANCH  13  17
ATOM     17  C   UNL A   1      34.170  22.473  26.821  1.00  0.00     0.410 C 
ATOM     18  O   UNL A   1      34.198  21.915  27.900  1.00  0.00    -0.224 OA
BRANCH  17  19
ATOM     19  O   UNL A   1      35.140  23.288  26.328  1.00  0.00    -0.444 OA
BRANCH  19  20
ATOM     20  C   UNL A   1      36.135  22.829  25.372  1.00  0.00     0.106 C 
ATOM     21  C   UNL A   1      37.447  23.506  25.804  1.00  0.00     0.056 C 
ATOM     22  C   UNL A   1      35.740  23.333  23.984  1.00  0.00     0.056 C 
ATOM     23  C   UNL A   1      36.370  21.313  25.373  1.00  0.00     0.056 C 
ENDBRANCH  19  20
ENDBRANCH  17  19
ENDBRANCH  13  17
ENDBRANCH   9  12
ENDBRANCH   7   8
BRANCH   7  24
ATOM     24  C   UNL A   1      31.965  26.816  24.747  1.00  0.00     0.070 C 
BRANCH  24  25
ATOM     25  C   UNL A   1      30.751  27.494  24.159  1.00  0.00    -0.045 A 
ATOM     26  C   UNL A   1      30.816  28.819  23.727  1.00  0.00     0.004 A 
ATOM     27  C   UNL A   1      29.547  26.797  23.975  1.00  0.00     0.004 A 
ATOM     28  C   UNL A   1      29.669  29.491  23.297  1.00  0.00     0.000 A 
ATOM     29  C   UNL A   1      28.413  27.453  23.488  1.00  0.00     0.000 A 
ATOM     30  C   UNL A   1      28.461  28.813  23.196  1.00  0.00     0.000 A 
ENDBRANCH  24  25
ENDBRANCH   7  24
ENDBRANCH   4   7
ENDBRANCH   2   3
ENDBRANCH   1   2
BRANCH   1  31
ATOM     31  C   UNL A   1      34.833  30.644  28.380  1.00  0.00     0.002 C 
BRANCH  31  32
ATOM     32  C   UNL A   1      34.834  31.997  27.652  1.00  0.00     0.002 C 
BRANCH  32  33
ATOM     33  C   UNL A   1      33.522  32.784  27.660  1.00  0.00     0.021 C 
BRANCH  33  34
ATOM     34  C   UNL A   1      33.657  34.301  27.617  1.00  0.00     0.116 C 
BRANCH  34  35
ATOM     35  N   UNL A   1      33.004  34.966  28.732  1.00  0.00    -0.352 N 
ATOM     36  C   UNL A   1      33.278  34.919  30.077  1.00  0.00     0.251 C 
ATOM     37  H   UNL A   1      32.245  35.542  28.484  1.00  0.00     0.163 HD
ATOM     38  O   UNL A   1      32.516  35.464  30.872  1.00  0.00    -0.269 OA
BRANCH  36  39
ATOM     39  C   UNL A   1      34.467  34.196  30.585  1.00  0.00     0.039 A 
ATOM     40  C   UNL A   1      35.738  34.639  30.206  1.00  0.00     0.014 A 
ATOM     41  C   UNL A   1      34.342  33.073  31.406  1.00  0.00     0.014 A 
ATOM     42  C   UNL A   1      36.877  33.991  30.693  1.00  0.00     0.010 A 
ATOM     43  C   UNL A   1      35.475  32.489  31.966  1.00  0.00     0.010 A 
ATOM     44  C   UNL A   1      36.756  32.927  31.600  1.00  0.00    -0.014 A 
BRANCH  44  45
ATOM     45  C   UNL A   1      37.952  32.227  32.138  1.00  0.00     0.031 A 
ATOM     46  C   UNL A   1      38.572  31.095  31.363  1.00  0.00     0.074 A 
ATOM     47  C   UNL A   1      38.453  32.573  33.340  1.00  0.00     0.049 A 
ATOM     48  N   UNL A   1      39.578  30.321  31.684  1.00  0.00    -0.248 NA
ATOM     49  C   UNL A   1      37.958  30.769  30.065  1.00  0.00     0.031 C 
ATOM     50  C   UNL A   1      37.926  33.627  34.207  1.00  0.00     0.029 A 
ATOM     51  N   UNL A   1      39.523  32.071  34.040  1.00  0.00    -0.354 N 
ATOM     52  C   UNL A   1      39.706  29.415  30.639  1.00  0.00     0.074 A 
ATOM     53  C   UNL A   1      38.633  29.687  29.710  1.00  0.00     0.031 C 
ATOM     54  C   UNL A   1      38.693  33.717  35.307  1.00  0.00     0.029 A 
ATOM     55  C   UNL A   1      39.740  32.702  35.241  1.00  0.00     0.049 A 
ATOM     56  H   UNL A   1      40.080  31.329  33.713  1.00  0.00     0.167 HD
ATOM     57  C   UNL A   1      40.650  28.462  30.451  1.00  0.00     0.037 A 
ATOM     58  C   UNL A   1      40.678  32.484  36.183  1.00  0.00     0.037 A 
ATOM     59  C   UNL A   1      41.730  28.205  31.367  1.00  0.00     0.049 A 
ATOM     60  C   UNL A   1      41.700  31.401  35.966  1.00  0.00     0.074 A 
ATOM     61  C   UNL A   1      42.762  27.291  31.251  1.00  0.00     0.029 A 
ATOM     62  N   UNL A   1      41.915  28.867  32.572  1.00  0.00    -0.354 N 
ATOM     63  N   UNL A   1      41.843  30.590  34.946  1.00  0.00    -0.248 NA
ATOM     64  C   UNL A   1      42.695  31.209  37.031  1.00  0.00     0.031 C 
ATOM     65  C   UNL A   1      43.544  27.366  32.408  1.00  0.00     0.029 A 
ATOM     66  C   UNL A   1      43.033  28.366  33.219  1.00  0.00     0.049 A 
ATOM     67  H   UNL A   1      41.337  29.584  32.917  1.00  0.00     0.167 HD
ATOM     68  C   UNL A   1      42.965  29.820  35.227  1.00  0.00     0.074 A 
ATOM     69  C   UNL A   1      43.467  30.267  36.510  1.00  0.00     0.031 C 
ATOM     70  C   UNL A   1      43.529  28.832  34.490  1.00  0.00     0.037 A 
BRANCH  57  71
ATOM     71  C   UNL A   1      40.551  27.632  29.202  1.00  0.00     0.057 A 
ATOM     72  C   UNL A   1      39.673  26.544  29.104  1.00  0.00     0.134 A 
ATOM     73  C   UNL A   1      41.336  27.927  28.079  1.00  0.00     0.134 A 
ATOM     74  F   UNL A   1      38.902  26.197  30.146  1.00  0.00    -0.206 F 
ATOM     75  C   UNL A   1      39.608  25.755  27.953  1.00  0.00     0.040 A 
ATOM     76  C   UNL A   1      41.254  27.167  26.911  1.00  0.00     0.040 A 
ATOM     77  F   UNL A   1      42.192  28.959  28.098  1.00  0.00    -0.206 F 
ATOM     78  C   UNL A   1      40.396  26.072  26.849  1.00  0.00     0.006 A 
ENDBRANCH  57  71
BRANCH  58  79
ATOM     79  C   UNL A   1      40.722  33.334  37.402  1.00  0.00     0.057 A 
ATOM     80  C   UNL A   1      41.641  34.383  37.513  1.00  0.00     0.134 A 
ATOM     81  C   UNL A   1      39.862  33.112  38.484  1.00  0.00     0.134 A 
ATOM     82  F   UNL A   1      42.504  34.634  36.517  1.00  0.00    -0.206 F 
ATOM     83  C   UNL A   1      41.719  35.171  38.664  1.00  0.00     0.040 A 
ATOM     84  C   UNL A   1      39.912  33.908  39.630  1.00  0.00     0.040 A 
ATOM     85  F   UNL A   1      38.954  32.127  38.438  1.00  0.00    -0.206 F 
ATOM     86  C   UNL A   1      40.848  34.935  39.726  1.00  0.00     0.006 A 
ENDBRANCH  58  79
BRANCH  70  87
ATOM     87  C   UNL A   1      44.783  28.203  35.024  1.00  0.00     0.057 A 
ATOM     88  C   UNL A   1      46.050  28.748  34.783  1.00  0.00     0.134 A 
ATOM     89  C   UNL A   1      44.715  27.057  35.827  1.00  0.00     0.134 A 
ATOM     90  F   UNL A   1      46.187  29.839  34.013  1.00  0.00    -0.206 F 
ATOM     91  C   UNL A   1      47.207  28.159  35.299  1.00  0.00     0.040 A 
ATOM     92  C   UNL A   1      45.860  26.476  36.372  1.00  0.00     0.040 A 
ATOM     93  F   UNL A   1      43.531  26.488  36.104  1.00  0.00    -0.206 F 
ATOM     94  C   UNL A   1      47.112  27.025  36.103  1.00  0.00     0.006 A 
ENDBRANCH  70  87
ENDBRANCH  44  45
ENDBRANCH  36  39
ENDBRANCH  34  35
ENDBRANCH  33  34
ENDBRANCH  32  33
ENDBRANCH  31  32
ENDBRANCH   1  31
TORSDOF 20
ENDMDL
MODEL 3
REMARK VINA RESULT:     -10.5      1.948      2.654
REMARK SMILES CC(C)(C)OC(=O)N1CCC[C@H]1C(=O)N[C@@H](Cc1ccccc1)C(=O)NCCCCCCNC(=O)c1ccc(-c2c3nc(c(-c4c(F)cccc4F)c4ccc([nH]4)c(-c4c(F)cccc4F)c4nc(c(-c5c(F)cccc5F)c5ccc2[nH]5)C=C4)C=C3)cc1
REMARK SMILES IDX 28 1 27 2 26 3 24 4 25 5 16 7 15 8 13 9 14 10 12 12 8 13
REMARK SMILES IDX 9 14 10 15 11 16 6 17 7 18 5 19 2 20 1 21 3 22 4 23 17 24
REMARK SMILES IDX 18 25 19 26 23 27 20 28 22 29 21 30 29 31 30 32 31 33 32 34
REMARK SMILES IDX 33 35 34 36 35 38 36 39 37 40 89 41 38 42 88 43 39 44 40 45
REMARK SMILES IDX 41 46 82 47 42 48 87 49 81 50 83 51 43 52 86 53 80 54 79 55
REMARK SMILES IDX 44 57 70 58 53 59 69 60 54 61 57 62 68 63 84 64 55 65 56 66
REMARK SMILES IDX 67 68 85 69 58 70 45 71 46 72 51 73 47 74 48 75 50 76 52 77
REMARK SMILES IDX 49 78 71 79 72 80 77 81 73 82 74 83 76 84 78 85 75 86 59 87
REMARK SMILES IDX 60 88 65 89 61 90 62 91 64 92 66 93 63 94
REMARK H PARENT 26 6 15 11 33 37 83 56 57 67
REMARK Flexibility Score: inf
ROOT
ATOM      1  C   UNL A   1      34.570  31.202  27.647  1.00  0.00     0.021 C 
ENDROOT
BRANCH   1   2
ATOM      2  C   UNL A   1      34.051  29.845  27.184  1.00  0.00     0.116 C 
BRANCH   2   3
ATOM      3  N   UNL A   1      32.713  29.506  27.624  1.00  0.00    -0.354 N 
ATOM      4  C   UNL A   1      31.817  28.630  27.079  1.00  0.00     0.242 C 
ATOM      5  O   UNL A   1      31.034  28.085  27.869  1.00  0.00    -0.273 OA
ATOM      6  H   UNL A   1      32.405  29.976  28.432  1.00  0.00     0.163 HD
BRANCH   4   7
ATOM      7  C   UNL A   1      31.787  28.213  25.582  1.00  0.00     0.175 C 
BRANCH   7   8
ATOM      8  N   UNL A   1      30.964  27.046  25.255  1.00  0.00    -0.342 N 
ATOM      9  C   UNL A   1      31.306  25.937  24.515  1.00  0.00     0.243 C 
ATOM     10  O   UNL A   1      30.528  24.982  24.510  1.00  0.00    -0.273 OA
ATOM     11  H   UNL A   1      30.046  27.055  25.613  1.00  0.00     0.164 HD
BRANCH   9  12
ATOM     12  C   UNL A   1      32.551  26.013  23.600  1.00  0.00     0.178 C 
ATOM     13  N   UNL A   1      33.216  24.741  23.341  1.00  0.00    -0.296 N 
ATOM     14  C   UNL A   1      32.971  24.273  21.996  1.00  0.00     0.124 C 
ATOM     15  C   UNL A   1      32.767  25.553  21.212  1.00  0.00     0.024 C 
ATOM     16  C   UNL A   1      32.093  26.492  22.209  1.00  0.00     0.037 C 
BRANCH  13  17
ATOM     17  C   UNL A   1      34.089  24.196  24.252  1.00  0.00     0.410 C 
ATOM     18  O   UNL A   1      34.697  24.862  25.068  1.00  0.00    -0.224 OA
BRANCH  17  19
ATOM     19  O   UNL A   1      34.237  22.858  24.059  1.00  0.00    -0.444 OA
BRANCH  19  20
ATOM     20  C   UNL A   1      33.545  21.870  24.870  1.00  0.00     0.106 C 
ATOM     21  C   UNL A   1      34.658  21.124  25.627  1.00  0.00     0.056 C 
ATOM     22  C   UNL A   1      32.829  20.894  23.937  1.00  0.00     0.056 C 
ATOM     23  C   UNL A   1      32.586  22.458  25.913  1.00  0.00     0.056 C 
ENDBRANCH  19  20
ENDBRANCH  17  19
ENDBRANCH  13  17
ENDBRANCH   9  12
ENDBRANCH   7   8
BRANCH   7  24
ATOM     24  C   UNL A   1      31.667  29.379  24.567  1.00  0.00     0.070 C 
BRANCH  24  25
ATOM     25  C   UNL A   1      30.305  29.706  24.005  1.00  0.00    -0.045 A 
ATOM     26  C   UNL A   1      29.736  30.964  24.206  1.00  0.00     0.004 A 
ATOM     27  C   UNL A   1      29.604  28.782  23.216  1.00  0.00     0.004 A 
ATOM     28  C   UNL A   1      28.428  31.234  23.796  1.00  0.00     0.000 A 
ATOM     29  C   UNL A   1      28.317  29.072  22.753  1.00  0.00     0.000 A 
ATOM     30  C   UNL A   1      27.710  30.280  23.085  1.00  0.00     0.000 A 
ENDBRANCH  24  25
ENDBRANCH   7  24
ENDBRANCH   4   7
ENDBRANCH   2   3
ENDBRANCH   1   2
BRANCH   1  31
ATOM     31  C   UNL A   1      33.490  32.233  28.016  1.00  0.00     0.002 C 
BRANCH  31  32
ATOM     32  C   UNL A   1      33.964  33.607  28.517  1.00  0.00     0.002 C 
BRANCH  32  33
ATOM     33  C   UNL A   1      32.951  34.752  28.446  1.00  0.00     0.021 C 
BRANCH  33  34
ATOM     34  C   UNL A   1      33.338  36.026  29.185  1.00  0.00     0.116 C 
BRANCH  34  35
ATOM     35  N   UNL A   1      32.526  36.272  30.365  1.00  0.00    -0.352 N 
ATOM     36  C   UNL A   1      32.683  35.834  31.658  1.00  0.00     0.251 C 
ATOM     37  H   UNL A   1      31.739  36.844  30.215  1.00  0.00     0.163 HD
ATOM     38  O   UNL A   1      31.804  36.057  32.486  1.00  0.00    -0.269 OA
BRANCH  36  39
ATOM     39  C   UNL A   1      33.889  35.073  32.060  1.00  0.00     0.039 A 
ATOM     40  C   UNL A   1      33.760  33.712  32.354  1.00  0.00     0.014 A 
ATOM     41  C   UNL A   1      35.136  35.690  32.177  1.00  0.00     0.014 A 
ATOM     42  C   UNL A   1      34.886  32.964  32.710  1.00  0.00     0.010 A 
ATOM     43  C   UNL A   1      36.271  34.926  32.437  1.00  0.00     0.010 A 
ATOM     44  C   UNL A   1      36.157  33.559  32.727  1.00  0.00    -0.014 A 
BRANCH  44  45
ATOM     45  C   UNL A   1      37.371  32.783  33.094  1.00  0.00     0.031 A 
ATOM     46  C   UNL A   1      38.075  33.062  34.395  1.00  0.00     0.074 A 
ATOM     47  C   UNL A   1      37.869  31.866  32.242  1.00  0.00     0.049 A 
ATOM     48  N   UNL A   1      39.177  32.539  34.872  1.00  0.00    -0.248 NA
ATOM     49  C   UNL A   1      37.476  34.088  35.265  1.00  0.00     0.031 C 
ATOM     50  C   UNL A   1      37.304  31.526  30.936  1.00  0.00     0.029 A 
ATOM     51  N   UNL A   1      38.968  31.049  32.351  1.00  0.00    -0.354 N 
ATOM     52  C   UNL A   1      39.406  33.181  36.082  1.00  0.00     0.074 A 
ATOM     53  C   UNL A   1      38.372  34.179  36.234  1.00  0.00     0.031 C 
ATOM     54  C   UNL A   1      38.038  30.548  30.380  1.00  0.00     0.029 A 
ATOM     55  C   UNL A   1      39.148  30.221  31.270  1.00  0.00     0.049 A 
ATOM     56  H   UNL A   1      39.570  31.058  33.130  1.00  0.00     0.167 HD
ATOM     57  C   UNL A   1      40.371  32.940  37.003  1.00  0.00     0.037 A 
ATOM     58  C   UNL A   1      40.101  29.302  31.026  1.00  0.00     0.037 A 
ATOM     59  C   UNL A   1      41.388  31.932  36.860  1.00  0.00     0.049 A 
ATOM     60  C   UNL A   1      41.180  29.071  32.049  1.00  0.00     0.074 A 
ATOM     61  C   UNL A   1      42.387  31.580  37.751  1.00  0.00     0.029 A 
ATOM     62  N   UNL A   1      41.535  31.113  35.750  1.00  0.00    -0.354 N 
ATOM     63  N   UNL A   1      41.351  29.645  33.216  1.00  0.00    -0.248 NA
ATOM     64  C   UNL A   1      42.194  28.059  31.724  1.00  0.00     0.031 C 
ATOM     65  C   UNL A   1      43.167  30.582  37.160  1.00  0.00     0.029 A 
ATOM     66  C   UNL A   1      42.621  30.271  35.925  1.00  0.00     0.049 A 
ATOM     67  H   UNL A   1      40.955  31.129  34.956  1.00  0.00     0.167 HD
ATOM     68  C   UNL A   1      42.467  29.038  33.779  1.00  0.00     0.074 A 
ATOM     69  C   UNL A   1      42.926  28.045  32.828  1.00  0.00     0.031 C 
ATOM     70  C   UNL A   1      43.057  29.278  34.975  1.00  0.00     0.037 A 
BRANCH  57  71
ATOM     71  C   UNL A   1      40.363  33.786  38.245  1.00  0.00     0.057 A 
ATOM     72  C   UNL A   1      41.192  34.908  38.382  1.00  0.00     0.134 A 
ATOM     73  C   UNL A   1      39.513  33.482  39.316  1.00  0.00     0.134 A 
ATOM     74  F   UNL A   1      42.041  35.250  37.401  1.00  0.00    -0.206 F 
ATOM     75  C   UNL A   1      41.204  35.672  39.551  1.00  0.00     0.040 A 
ATOM     76  C   UNL A   1      39.492  34.258  40.476  1.00  0.00     0.040 A 
ATOM     77  F   UNL A   1      38.686  32.426  39.252  1.00  0.00    -0.206 F 
ATOM     78  C   UNL A   1      40.347  35.350  40.600  1.00  0.00     0.006 A 
ENDBRANCH  57  71
BRANCH  58  79
ATOM     79  C   UNL A   1      40.061  28.500  29.775  1.00  0.00     0.057 A 
ATOM     80  C   UNL A   1      39.305  27.324  29.699  1.00  0.00     0.134 A 
ATOM     81  C   UNL A   1      40.781  28.877  28.636  1.00  0.00     0.134 A 
ATOM     82  F   UNL A   1      38.608  26.900  30.764  1.00  0.00    -0.206 F 
ATOM     83  C   UNL A   1      39.281  26.541  28.544  1.00  0.00     0.040 A 
ATOM     84  C   UNL A   1      40.746  28.117  27.465  1.00  0.00     0.040 A 
ATOM     85  F   UNL A   1      41.520  29.996  28.640  1.00  0.00    -0.206 F 
ATOM     86  C   UNL A   1      40.002  26.941  27.420  1.00  0.00     0.006 A 
ENDBRANCH  58  79
BRANCH  70  87
ATOM     87  C   UNL A   1      44.231  28.420  35.349  1.00  0.00     0.057 A 
ATOM     88  C   UNL A   1      44.079  27.205  36.028  1.00  0.00     0.134 A 
ATOM     89  C   UNL A   1      45.530  28.800  34.986  1.00  0.00     0.134 A 
ATOM     90  F   UNL A   1      42.863  26.789  36.415  1.00  0.00    -0.206 F 
ATOM     91  C   UNL A   1      45.180  26.411  36.357  1.00  0.00     0.040 A 
ATOM     92  C   UNL A   1      46.635  28.001  35.282  1.00  0.00     0.040 A 
ATOM     93  F   UNL A   1      45.746  29.948  34.326  1.00  0.00    -0.206 F 
ATOM     94  C   UNL A   1      46.461  26.805  35.977  1.00  0.00     0.006 A 
ENDBRANCH  70  87
ENDBRANCH  44  45
ENDBRANCH  36  39
ENDBRANCH  34  35
ENDBRANCH  33  34
ENDBRANCH  32  33
ENDBRANCH  31  32
ENDBRANCH   1  31
TORSDOF 20
ENDMDL
