MODEL 1
REMARK VINA RESULT:     -11.0      0.000      0.000
REMARK SMILES C[C@H](Nc1cccc(C(=O)NCCCCCCNC(=O)c2ccc(-c3c4nc(c(-c5c(F)cccc5F)c5ccc([nH]5)c(-c5c(F)cccc5F)c5nc(c(-c6c(F)cccc6F)c6ccc3[nH]6)C=C5)C=C4)cc2)c1)C1CC[NH+](C)CC1
REMARK SMILES IDX 14 1 13 2 12 3 11 4 9 5 10 6 8 8 4 9 5 10 75 11 6 12 7 13
REMARK SMILES IDX 3 14 2 16 1 17 76 18 77 19 82 20 78 21 81 22 79 23 80 24
REMARK SMILES IDX 15 26 16 27 17 28 18 29 19 30 20 32 21 33 22 34 74 35 23 36
REMARK SMILES IDX 73 37 24 38 25 39 26 40 67 41 27 42 72 43 66 44 68 45 28 46
REMARK SMILES IDX 71 47 65 48 64 49 29 51 55 52 38 53 54 54 39 55 42 56 53 57
REMARK SMILES IDX 69 58 40 59 41 60 52 62 70 63 43 64 30 65 31 66 36 67 32 68
REMARK SMILES IDX 33 69 35 70 37 71 34 72 56 73 57 74 62 75 58 76 59 77 61 78
REMARK SMILES IDX 63 79 60 80 44 81 45 82 50 83 46 84 47 85 49 86 51 87 48 88
REMARK H PARENT 11 7 3 15 79 25 18 31 68 50 42 61
REMARK Flexibility Score: inf
ROOT
ATOM      1  C   UNL A   1      37.145  21.832  24.368  1.00  0.00     0.002 C 
ENDROOT
BRANCH   1   2
ATOM      2  C   UNL A   1      37.419  22.875  25.462  1.00  0.00     0.021 C 
BRANCH   2   3
ATOM      3  C   UNL A   1      36.185  23.683  25.884  1.00  0.00     0.116 C 
BRANCH   3   4
ATOM      4  N   UNL A   1      35.355  22.915  26.797  1.00  0.00    -0.352 N 
ATOM      5  C   UNL A   1      34.249  22.116  26.652  1.00  0.00     0.251 C 
ATOM      6  O   UNL A   1      33.831  21.569  27.675  1.00  0.00    -0.269 OA
ATOM      7  H   UNL A   1      35.656  22.983  27.733  1.00  0.00     0.163 HD
BRANCH   5   8
ATOM      8  C   UNL A   1      33.547  21.838  25.363  1.00  0.00     0.041 A 
ATOM      9  C   UNL A   1      32.430  22.471  23.282  1.00  0.00     0.035 A 
ATOM     10  C   UNL A   1      32.198  21.123  23.002  1.00  0.00     0.026 A 
ATOM     11  C   UNL A   1      33.073  22.812  24.482  1.00  0.00     0.039 A 
ATOM     12  C   UNL A   1      32.621  20.134  23.886  1.00  0.00     0.003 A 
ATOM     13  C   UNL A   1      33.300  20.490  25.052  1.00  0.00     0.014 A 
BRANCH   9  14
ATOM     14  N   UNL A   1      32.096  23.453  22.344  1.00  0.00    -0.382 N 
ATOM     15  H   UNL A   1      31.772  23.211  21.448  1.00  0.00     0.160 HD
BRANCH  14  16
ATOM     16  C   UNL A   1      32.243  24.860  22.744  1.00  0.00     0.079 C 
ATOM     17  C   UNL A   1      32.942  25.622  21.607  1.00  0.00     0.031 C 
BRANCH  16  18
ATOM     18  C   UNL A   1      30.880  25.554  23.063  1.00  0.00     0.022 C 
ATOM     19  C   UNL A   1      30.933  27.076  22.880  1.00  0.00     0.067 C 
ATOM     20  C   UNL A   1      30.264  25.250  24.438  1.00  0.00     0.067 C 
ATOM     21  C   UNL A   1      31.600  27.778  24.050  1.00  0.00     0.262 C 
ATOM     22  C   UNL A   1      30.904  26.032  25.592  1.00  0.00     0.262 C 
ATOM     23  N   UNL A   1      30.975  27.479  25.341  1.00  0.00    -0.337 N 
ATOM     24  C   UNL A   1      31.733  28.122  26.419  1.00  0.00     0.332 C 
ATOM     25  H   UNL A   1      30.023  27.842  25.313  1.00  0.00     0.347 HD
ENDBRANCH  16  18
ENDBRANCH  14  16
ENDBRANCH   9  14
ENDBRANCH   5   8
ENDBRANCH   3   4
ENDBRANCH   2   3
ENDBRANCH   1   2
BRANCH   1  26
ATOM     26  C   UNL A   1      37.028  20.380  24.856  1.00  0.00     0.002 C 
BRANCH  26  27
ATOM     27  C   UNL A   1      38.314  19.542  24.840  1.00  0.00     0.021 C 
BRANCH  27  28
ATOM     28  C   UNL A   1      39.215  19.661  26.072  1.00  0.00     0.116 C 
BRANCH  28  29
ATOM     29  N   UNL A   1      40.505  19.023  25.871  1.00  0.00    -0.352 N 
ATOM     30  C   UNL A   1      41.777  19.527  25.959  1.00  0.00     0.251 C 
ATOM     31  H   UNL A   1      40.457  18.069  25.632  1.00  0.00     0.163 HD
ATOM     32  O   UNL A   1      42.717  18.845  25.546  1.00  0.00    -0.269 OA
BRANCH  30  33
ATOM     33  C   UNL A   1      42.059  20.868  26.525  1.00  0.00     0.039 A 
ATOM     34  C   UNL A   1      42.362  21.909  25.640  1.00  0.00     0.014 A 
ATOM     35  C   UNL A   1      42.121  21.100  27.903  1.00  0.00     0.014 A 
ATOM     36  C   UNL A   1      42.681  23.182  26.127  1.00  0.00     0.010 A 
ATOM     37  C   UNL A   1      42.390  22.385  28.389  1.00  0.00     0.010 A 
ATOM     38  C   UNL A   1      42.678  23.439  27.507  1.00  0.00    -0.014 A 
BRANCH  38  39
ATOM     39  C   UNL A   1      42.967  24.805  28.022  1.00  0.00     0.031 A 
ATOM     40  C   UNL A   1      44.377  25.238  28.319  1.00  0.00     0.074 A 
ATOM     41  C   UNL A   1      41.949  25.659  28.248  1.00  0.00     0.049 A 
ATOM     42  N   UNL A   1      44.811  26.390  28.771  1.00  0.00    -0.248 NA
ATOM     43  C   UNL A   1      45.437  24.245  28.095  1.00  0.00     0.031 C 
ATOM     44  C   UNL A   1      40.532  25.356  28.045  1.00  0.00     0.029 A 
ATOM     45  N   UNL A   1      41.951  26.955  28.701  1.00  0.00    -0.354 N 
ATOM     46  C   UNL A   1      46.188  26.259  28.894  1.00  0.00     0.074 A 
ATOM     47  C   UNL A   1      46.514  24.901  28.508  1.00  0.00     0.031 C 
ATOM     48  C   UNL A   1      39.803  26.441  28.350  1.00  0.00     0.029 A 
ATOM     49  C   UNL A   1      40.697  27.507  28.794  1.00  0.00     0.049 A 
ATOM     50  H   UNL A   1      42.774  27.443  28.938  1.00  0.00     0.167 HD
ATOM     51  C   UNL A   1      47.100  27.185  29.276  1.00  0.00     0.037 A 
ATOM     52  C   UNL A   1      40.307  28.734  29.188  1.00  0.00     0.037 A 
ATOM     53  C   UNL A   1      46.786  28.543  29.639  1.00  0.00     0.049 A 
ATOM     54  C   UNL A   1      41.340  29.746  29.599  1.00  0.00     0.074 A 
ATOM     55  C   UNL A   1      47.653  29.568  29.982  1.00  0.00     0.029 A 
ATOM     56  N   UNL A   1      45.505  29.065  29.712  1.00  0.00    -0.354 N 
ATOM     57  N   UNL A   1      42.643  29.624  29.648  1.00  0.00    -0.248 NA
ATOM     58  C   UNL A   1      40.844  31.070  30.003  1.00  0.00     0.031 C 
ATOM     59  C   UNL A   1      46.893  30.701  30.295  1.00  0.00     0.029 A 
ATOM     60  C   UNL A   1      45.555  30.392  30.111  1.00  0.00     0.049 A 
ATOM     61  H   UNL A   1      44.679  28.568  29.510  1.00  0.00     0.167 HD
ATOM     62  C   UNL A   1      43.124  30.858  30.065  1.00  0.00     0.074 A 
ATOM     63  C   UNL A   1      41.974  31.719  30.240  1.00  0.00     0.031 C 
ATOM     64  C   UNL A   1      44.405  31.241  30.286  1.00  0.00     0.037 A 
BRANCH  51  65
ATOM     65  C   UNL A   1      48.540  26.761  29.314  1.00  0.00     0.057 A 
ATOM     66  C   UNL A   1      49.393  26.951  28.219  1.00  0.00     0.134 A 
ATOM     67  C   UNL A   1      49.090  26.196  30.471  1.00  0.00     0.134 A 
ATOM     68  F   UNL A   1      48.927  27.480  27.078  1.00  0.00    -0.206 F 
ATOM     69  C   UNL A   1      50.736  26.573  28.267  1.00  0.00     0.040 A 
ATOM     70  C   UNL A   1      50.437  25.834  30.539  1.00  0.00     0.040 A 
ATOM     71  F   UNL A   1      48.331  25.994  31.559  1.00  0.00    -0.206 F 
ATOM     72  C   UNL A   1      51.262  26.018  29.431  1.00  0.00     0.006 A 
ENDBRANCH  51  65
BRANCH  52  73
ATOM     73  C   UNL A   1      38.866  29.087  29.189  1.00  0.00     0.057 A 
ATOM     74  C   UNL A   1      38.240  29.554  28.028  1.00  0.00     0.134 A 
ATOM     75  C   UNL A   1      38.087  28.973  30.345  1.00  0.00     0.134 A 
ATOM     76  F   UNL A   1      38.942  29.704  26.895  1.00  0.00    -0.206 F 
ATOM     77  C   UNL A   1      36.890  29.910  28.020  1.00  0.00     0.040 A 
ATOM     78  C   UNL A   1      36.732  29.305  30.346  1.00  0.00     0.040 A 
ATOM     79  F   UNL A   1      38.630  28.528  31.488  1.00  0.00    -0.206 F 
ATOM     80  C   UNL A   1      36.131  29.781  29.181  1.00  0.00     0.006 A 
ENDBRANCH  52  73
BRANCH  64  81
ATOM     81  C   UNL A   1      44.628  32.659  30.720  1.00  0.00     0.057 A 
ATOM     82  C   UNL A   1      44.792  33.696  29.792  1.00  0.00     0.134 A 
ATOM     83  C   UNL A   1      44.663  32.995  32.078  1.00  0.00     0.134 A 
ATOM     84  F   UNL A   1      44.783  33.437  28.476  1.00  0.00    -0.206 F 
ATOM     85  C   UNL A   1      45.009  35.013  30.202  1.00  0.00     0.040 A 
ATOM     86  C   UNL A   1      44.856  34.311  32.500  1.00  0.00     0.040 A 
ATOM     87  F   UNL A   1      44.506  32.050  33.018  1.00  0.00    -0.206 F 
ATOM     88  C   UNL A   1      45.036  35.324  31.559  1.00  0.00     0.006 A 
ENDBRANCH  64  81
ENDBRANCH  38  39
ENDBRANCH  30  33
ENDBRANCH  28  29
ENDBRANCH  27  28
ENDBRANCH  26  27
ENDBRANCH   1  26
TORSDOF 16
ENDMDL
MODEL 2
REMARK VINA RESULT:     -10.9      5.288     10.287
REMARK SMILES C[C@H](Nc1cccc(C(=O)NCCCCCCNC(=O)c2ccc(-c3c4nc(c(-c5c(F)cccc5F)c5ccc([nH]5)c(-c5c(F)cccc5F)c5nc(c(-c6c(F)cccc6F)c6ccc3[nH]6)C=C5)C=C4)cc2)c1)C1CC[NH+](C)CC1
REMARK SMILES IDX 14 1 13 2 12 3 11 4 9 5 10 6 8 8 4 9 5 10 75 11 6 12 7 13
REMARK SMILES IDX 3 14 2 16 1 17 76 18 77 19 82 20 78 21 81 22 79 23 80 24
REMARK SMILES IDX 15 26 16 27 17 28 18 29 19 30 20 32 21 33 22 34 74 35 23 36
REMARK SMILES IDX 73 37 24 38 25 39 26 40 67 41 27 42 72 43 66 44 68 45 28 46
REMARK SMILES IDX 71 47 65 48 64 49 29 51 55 52 38 53 54 54 39 55 42 56 53 57
REMARK SMILES IDX 69 58 40 59 41 60 52 62 70 63 43 64 30 65 31 66 36 67 32 68
REMARK SMILES IDX 33 69 35 70 37 71 34 72 56 73 57 74 62 75 58 76 59 77 61 78
REMARK SMILES IDX 63 79 60 80 44 81 45 82 50 83 46 84 47 85 49 86 51 87 48 88
REMARK H PARENT 11 7 3 15 79 25 18 31 68 50 42 61
REMARK Flexibility Score: inf
ROOT
ATOM      1  C   UNL A   1      34.890  32.950  28.945  1.00  0.00     0.002 C 
ENDROOT
BRANCH   1   2
ATOM      2  C   UNL A   1      35.731  32.068  28.011  1.00  0.00     0.021 C 
BRANCH   2   3
ATOM      3  C   UNL A   1      35.141  30.674  27.762  1.00  0.00     0.116 C 
BRANCH   3   4
ATOM      4  N   UNL A   1      33.700  30.749  27.589  1.00  0.00    -0.352 N 
ATOM      5  C   UNL A   1      32.774  30.011  26.895  1.00  0.00     0.251 C 
ATOM      6  O   UNL A   1      31.595  30.350  27.025  1.00  0.00    -0.269 OA
ATOM      7  H   UNL A   1      33.296  31.500  28.082  1.00  0.00     0.163 HD
BRANCH   5   8
ATOM      8  C   UNL A   1      33.080  28.828  26.035  1.00  0.00     0.041 A 
ATOM      9  C   UNL A   1      33.502  26.455  25.624  1.00  0.00     0.035 A 
ATOM     10  C   UNL A   1      33.712  26.732  24.271  1.00  0.00     0.026 A 
ATOM     11  C   UNL A   1      33.223  27.518  26.496  1.00  0.00     0.039 A 
ATOM     12  C   UNL A   1      33.619  28.037  23.794  1.00  0.00     0.003 A 
ATOM     13  C   UNL A   1      33.294  29.074  24.669  1.00  0.00     0.014 A 
BRANCH   9  14
ATOM     14  N   UNL A   1      33.495  25.134  26.080  1.00  0.00    -0.382 N 
ATOM     15  H   UNL A   1      33.618  24.923  27.033  1.00  0.00     0.160 HD
BRANCH  14  16
ATOM     16  C   UNL A   1      33.296  24.067  25.087  1.00  0.00     0.079 C 
ATOM     17  C   UNL A   1      34.351  22.974  25.324  1.00  0.00     0.031 C 
BRANCH  16  18
ATOM     18  C   UNL A   1      31.873  23.427  25.149  1.00  0.00     0.022 C 
ATOM     19  C   UNL A   1      31.187  23.374  23.778  1.00  0.00     0.067 C 
ATOM     20  C   UNL A   1      30.892  24.040  26.162  1.00  0.00     0.067 C 
ATOM     21  C   UNL A   1      30.600  24.714  23.371  1.00  0.00     0.262 C 
ATOM     22  C   UNL A   1      30.254  25.353  25.691  1.00  0.00     0.262 C 
ATOM     23  N   UNL A   1      29.657  25.258  24.351  1.00  0.00    -0.337 N 
ATOM     24  C   UNL A   1      29.210  26.588  23.923  1.00  0.00     0.332 C 
ATOM     25  H   UNL A   1      28.864  24.619  24.403  1.00  0.00     0.347 HD
ENDBRANCH  16  18
ENDBRANCH  14  16
ENDBRANCH   9  14
ENDBRANCH   5   8
ENDBRANCH   3   4
ENDBRANCH   2   3
ENDBRANCH   1   2
BRANCH   1  26
ATOM     26  C   UNL A   1      34.542  34.344  28.400  1.00  0.00     0.002 C 
BRANCH  26  27
ATOM     27  C   UNL A   1      33.175  34.917  28.796  1.00  0.00     0.021 C 
BRANCH  27  28
ATOM     28  C   UNL A   1      33.192  36.248  29.553  1.00  0.00     0.116 C 
BRANCH  28  29
ATOM     29  N   UNL A   1      32.386  36.202  30.760  1.00  0.00    -0.352 N 
ATOM     30  C   UNL A   1      32.580  35.536  31.944  1.00  0.00     0.251 C 
ATOM     31  H   UNL A   1      31.562  36.739  30.723  1.00  0.00     0.163 HD
ATOM     32  O   UNL A   1      31.656  35.486  32.757  1.00  0.00    -0.269 OA
BRANCH  30  33
ATOM     33  C   UNL A   1      33.862  34.867  32.272  1.00  0.00     0.039 A 
ATOM     34  C   UNL A   1      33.825  33.523  32.662  1.00  0.00     0.014 A 
ATOM     35  C   UNL A   1      35.080  35.554  32.293  1.00  0.00     0.014 A 
ATOM     36  C   UNL A   1      35.002  32.861  33.028  1.00  0.00     0.010 A 
ATOM     37  C   UNL A   1      36.265  34.877  32.609  1.00  0.00     0.010 A 
ATOM     38  C   UNL A   1      36.237  33.525  32.985  1.00  0.00    -0.014 A 
BRANCH  38  39
ATOM     39  C   UNL A   1      37.496  32.805  33.325  1.00  0.00     0.031 A 
ATOM     40  C   UNL A   1      38.244  33.109  34.595  1.00  0.00     0.074 A 
ATOM     41  C   UNL A   1      37.984  31.883  32.472  1.00  0.00     0.049 A 
ATOM     42  N   UNL A   1      39.353  32.578  35.049  1.00  0.00    -0.248 NA
ATOM     43  C   UNL A   1      37.684  34.157  35.459  1.00  0.00     0.031 C 
ATOM     44  C   UNL A   1      37.385  31.519  31.188  1.00  0.00     0.029 A 
ATOM     45  N   UNL A   1      39.099  31.085  32.557  1.00  0.00    -0.354 N 
ATOM     46  C   UNL A   1      39.628  33.231  36.243  1.00  0.00     0.074 A 
ATOM     47  C   UNL A   1      38.591  34.227  36.424  1.00  0.00     0.031 C 
ATOM     48  C   UNL A   1      38.124  30.556  30.615  1.00  0.00     0.029 A 
ATOM     49  C   UNL A   1      39.262  30.251  31.478  1.00  0.00     0.049 A 
ATOM     50  H   UNL A   1      39.722  31.109  33.320  1.00  0.00     0.167 HD
ATOM     51  C   UNL A   1      40.639  33.012  37.119  1.00  0.00     0.037 A 
ATOM     52  C   UNL A   1      40.217  29.341  31.212  1.00  0.00     0.037 A 
ATOM     53  C   UNL A   1      41.660  32.009  36.957  1.00  0.00     0.049 A 
ATOM     54  C   UNL A   1      41.323  29.111  32.203  1.00  0.00     0.074 A 
ATOM     55  C   UNL A   1      42.689  31.677  37.823  1.00  0.00     0.029 A 
ATOM     56  N   UNL A   1      41.785  31.180  35.855  1.00  0.00    -0.354 N 
ATOM     57  N   UNL A   1      41.532  29.693  33.359  1.00  0.00    -0.248 NA
ATOM     58  C   UNL A   1      42.323  28.091  31.854  1.00  0.00     0.031 C 
ATOM     59  C   UNL A   1      43.457  30.669  37.228  1.00  0.00     0.029 A 
ATOM     60  C   UNL A   1      42.884  30.348  36.009  1.00  0.00     0.049 A 
ATOM     61  H   UNL A   1      41.183  31.180  35.076  1.00  0.00     0.167 HD
ATOM     62  C   UNL A   1      42.671  29.096  33.884  1.00  0.00     0.074 A 
ATOM     63  C   UNL A   1      43.098  28.096  32.929  1.00  0.00     0.031 C 
ATOM     64  C   UNL A   1      43.305  29.358  35.052  1.00  0.00     0.037 A 
BRANCH  51  65
ATOM     65  C   UNL A   1      40.688  33.876  38.346  1.00  0.00     0.057 A 
ATOM     66  C   UNL A   1      41.452  35.050  38.389  1.00  0.00     0.134 A 
ATOM     67  C   UNL A   1      39.931  33.556  39.479  1.00  0.00     0.134 A 
ATOM     68  F   UNL A   1      42.206  35.409  37.339  1.00  0.00    -0.206 F 
ATOM     69  C   UNL A   1      41.480  35.861  39.525  1.00  0.00     0.040 A 
ATOM     70  C   UNL A   1      39.932  34.371  40.613  1.00  0.00     0.040 A 
ATOM     71  F   UNL A   1      39.170  32.451  39.501  1.00  0.00    -0.206 F 
ATOM     72  C   UNL A   1      40.713  35.525  40.638  1.00  0.00     0.006 A 
ENDBRANCH  51  65
BRANCH  52  73
ATOM     73  C   UNL A   1      40.157  28.552  29.957  1.00  0.00     0.057 A 
ATOM     74  C   UNL A   1      39.405  27.374  29.883  1.00  0.00     0.134 A 
ATOM     75  C   UNL A   1      40.852  28.951  28.810  1.00  0.00     0.134 A 
ATOM     76  F   UNL A   1      38.735  26.932  30.957  1.00  0.00    -0.206 F 
ATOM     77  C   UNL A   1      39.356  26.612  28.715  1.00  0.00     0.040 A 
ATOM     78  C   UNL A   1      40.796  28.209  27.629  1.00  0.00     0.040 A 
ATOM     79  F   UNL A   1      41.588  30.072  28.818  1.00  0.00    -0.206 F 
ATOM     80  C   UNL A   1      40.050  27.032  27.581  1.00  0.00     0.006 A 
ENDBRANCH  52  73
BRANCH  64  81
ATOM     81  C   UNL A   1      44.516  28.532  35.370  1.00  0.00     0.057 A 
ATOM     82  C   UNL A   1      44.420  27.319  36.064  1.00  0.00     0.134 A 
ATOM     83  C   UNL A   1      45.790  28.945  34.963  1.00  0.00     0.134 A 
ATOM     84  F   UNL A   1      43.229  26.875  36.493  1.00  0.00    -0.206 F 
ATOM     85  C   UNL A   1      45.552  26.560  36.365  1.00  0.00     0.040 A 
ATOM     86  C   UNL A   1      46.927  28.184  35.238  1.00  0.00     0.040 A 
ATOM     87  F   UNL A   1      45.951  30.094  34.289  1.00  0.00    -0.206 F 
ATOM     88  C   UNL A   1      46.809  26.990  35.947  1.00  0.00     0.006 A 
ENDBRANCH  64  81
ENDBRANCH  38  39
ENDBRANCH  30  33
ENDBRANCH  28  29
ENDBRANCH  27  28
ENDBRANCH  26  27
ENDBRANCH   1  26
TORSDOF 16
ENDMDL
MODEL 3
REMARK VINA RESULT:     -10.5      5.192     10.214
REMARK SMILES C[C@H](Nc1cccc(C(=O)NCCCCCCNC(=O)c2ccc(-c3c4nc(c(-c5c(F)cccc5F)c5ccc([nH]5)c(-c5c(F)cccc5F)c5nc(c(-c6c(F)cccc6F)c6ccc3[nH]6)C=C5)C=C4)cc2)c1)C1CC[NH+](C)CC1
REMARK SMILES IDX 14 1 13 2 12 3 11 4 9 5 10 6 8 8 4 9 5 10 75 11 6 12 7 13
REMARK SMILES IDX 3 14 2 16 1 17 76 18 77 19 82 20 78 21 81 22 79 23 80 24
REMARK SMILES IDX 15 26 16 27 17 28 18 29 19 30 20 32 21 33 22 34 74 35 23 36
REMARK SMILES IDX 73 37 24 38 25 39 26 40 67 41 27 42 72 43 66 44 68 45 28 46
REMARK SMILES IDX 71 47 65 48 64 49 29 51 55 52 38 53 54 54 39 55 42 56 53 57
REMARK SMILES IDX 69 58 40 59 41 60 52 62 70 63 43 64 30 65 31 66 36 67 32 68
REMARK SMILES IDX 33 69 35 70 37 71 34 72 56 73 57 74 62 75 58 76 59 77 61 78
REMARK SMILES IDX 63 79 60 80 44 81 45 82 50 83 46 84 47 85 49 86 51 87 48 88
REMARK H PARENT 11 7 3 15 79 25 18 31 68 50 42 61
REMARK Flexibility Score: inf
ROOT
ATOM      1  C   UNL A   1      34.448  32.037  28.560  1.00  0.00     0.002 C 
ENDROOT
BRANCH   1   2
ATOM      2  C   UNL A   1      35.586  31.326  27.815  1.00  0.00     0.021 C 
BRANCH   2   3
ATOM      3  C   UNL A   1      35.366  29.821  27.617  1.00  0.00     0.116 C 
BRANCH   3   4
ATOM      4  N   UNL A   1      33.970  29.474  27.829  1.00  0.00    -0.352 N 
ATOM      5  C   UNL A   1      33.002  28.868  27.068  1.00  0.00     0.251 C 
ATOM      6  O   UNL A   1      31.910  28.689  27.612  1.00  0.00    -0.269 OA
ATOM      7  H   UNL A   1      33.645  29.732  28.723  1.00  0.00     0.163 HD
BRANCH   5   8
ATOM      8  C   UNL A   1      33.181  28.388  25.665  1.00  0.00     0.041 A 
ATOM      9  C   UNL A   1      33.701  26.715  23.959  1.00  0.00     0.035 A 
ATOM     10  C   UNL A   1      33.522  27.680  22.965  1.00  0.00     0.026 A 
ATOM     11  C   UNL A   1      33.562  27.094  25.302  1.00  0.00     0.039 A 
ATOM     12  C   UNL A   1      33.185  28.988  23.302  1.00  0.00     0.003 A 
ATOM     13  C   UNL A   1      33.005  29.335  24.641  1.00  0.00     0.014 A 
BRANCH   9  14
ATOM     14  N   UNL A   1      33.938  25.382  23.612  1.00  0.00    -0.382 N 
ATOM     15  H   UNL A   1      34.804  25.099  23.239  1.00  0.00     0.160 HD
BRANCH  14  16
ATOM     16  C   UNL A   1      32.850  24.415  23.822  1.00  0.00     0.079 C 
ATOM     17  C   UNL A   1      31.716  24.731  22.834  1.00  0.00     0.031 C 
BRANCH  16  18
ATOM     18  C   UNL A   1      33.300  22.932  23.628  1.00  0.00     0.022 C 
ATOM     19  C   UNL A   1      32.335  21.931  24.275  1.00  0.00     0.067 C 
ATOM     20  C   UNL A   1      34.731  22.588  24.074  1.00  0.00     0.067 C 
ATOM     21  C   UNL A   1      32.530  21.826  25.778  1.00  0.00     0.262 C 
ATOM     22  C   UNL A   1      34.882  22.410  25.590  1.00  0.00     0.262 C 
ATOM     23  N   UNL A   1      33.899  21.479  26.164  1.00  0.00    -0.337 N 
ATOM     24  C   UNL A   1      34.019  21.488  27.626  1.00  0.00     0.332 C 
ATOM     25  H   UNL A   1      34.096  20.548  25.799  1.00  0.00     0.347 HD
ENDBRANCH  16  18
ENDBRANCH  14  16
ENDBRANCH   9  14
ENDBRANCH   5   8
ENDBRANCH   3   4
ENDBRANCH   2   3
ENDBRANCH   1   2
BRANCH   1  26
ATOM     26  C   UNL A   1      34.469  33.572  28.486  1.00  0.00     0.002 C 
BRANCH  26  27
ATOM     27  C   UNL A   1      33.146  34.295  28.775  1.00  0.00     0.021 C 
BRANCH  27  28
ATOM     28  C   UNL A   1      33.248  35.783  29.115  1.00  0.00     0.116 C 
BRANCH  28  29
ATOM     29  N   UNL A   1      32.537  36.116  30.338  1.00  0.00    -0.352 N 
ATOM     30  C   UNL A   1      32.723  35.687  31.628  1.00  0.00     0.251 C 
ATOM     31  H   UNL A   1      31.799  36.756  30.221  1.00  0.00     0.163 HD
ATOM     32  O   UNL A   1      31.866  35.952  32.472  1.00  0.00    -0.269 OA
BRANCH  30  33
ATOM     33  C   UNL A   1      33.917  34.908  32.037  1.00  0.00     0.039 A 
ATOM     34  C   UNL A   1      35.180  35.401  31.688  1.00  0.00     0.014 A 
ATOM     35  C   UNL A   1      33.817  33.667  32.673  1.00  0.00     0.014 A 
ATOM     36  C   UNL A   1      36.334  34.679  32.011  1.00  0.00     0.010 A 
ATOM     37  C   UNL A   1      34.974  32.969  33.041  1.00  0.00     0.010 A 
ATOM     38  C   UNL A   1      36.245  33.465  32.709  1.00  0.00    -0.014 A 
BRANCH  38  39
ATOM     39  C   UNL A   1      37.476  32.723  33.096  1.00  0.00     0.031 A 
ATOM     40  C   UNL A   1      38.202  33.040  34.376  1.00  0.00     0.074 A 
ATOM     41  C   UNL A   1      37.960  31.768  32.278  1.00  0.00     0.049 A 
ATOM     42  N   UNL A   1      39.286  32.493  34.869  1.00  0.00    -0.248 NA
ATOM     43  C   UNL A   1      37.649  34.123  35.201  1.00  0.00     0.031 C 
ATOM     44  C   UNL A   1      37.382  31.387  30.989  1.00  0.00     0.029 A 
ATOM     45  N   UNL A   1      39.052  30.945  32.409  1.00  0.00    -0.354 N 
ATOM     46  C   UNL A   1      39.550  33.169  36.053  1.00  0.00     0.074 A 
ATOM     47  C   UNL A   1      38.535  34.194  36.185  1.00  0.00     0.031 C 
ATOM     48  C   UNL A   1      38.109  30.391  30.458  1.00  0.00     0.029 A 
ATOM     49  C   UNL A   1      39.219  30.080  31.355  1.00  0.00     0.049 A 
ATOM     50  H   UNL A   1      39.658  30.972  33.186  1.00  0.00     0.167 HD
ATOM     51  C   UNL A   1      40.535  32.947  36.958  1.00  0.00     0.037 A 
ATOM     52  C   UNL A   1      40.157  29.140  31.134  1.00  0.00     0.037 A 
ATOM     53  C   UNL A   1      41.533  31.915  36.845  1.00  0.00     0.049 A 
ATOM     54  C   UNL A   1      41.233  28.908  32.157  1.00  0.00     0.074 A 
ATOM     55  C   UNL A   1      42.533  31.579  37.744  1.00  0.00     0.029 A 
ATOM     56  N   UNL A   1      41.663  31.055  35.767  1.00  0.00    -0.354 N 
ATOM     57  N   UNL A   1      41.429  29.513  33.302  1.00  0.00    -0.248 NA
ATOM     58  C   UNL A   1      42.215  27.855  31.857  1.00  0.00     0.031 C 
ATOM     59  C   UNL A   1      43.289  30.538  37.192  1.00  0.00     0.029 A 
ATOM     60  C   UNL A   1      42.736  30.200  35.968  1.00  0.00     0.049 A 
ATOM     61  H   UNL A   1      41.079  31.051  34.974  1.00  0.00     0.167 HD
ATOM     62  C   UNL A   1      42.540  28.902  33.869  1.00  0.00     0.074 A 
ATOM     63  C   UNL A   1      42.964  27.867  32.949  1.00  0.00     0.031 C 
ATOM     64  C   UNL A   1      43.153  29.176  35.046  1.00  0.00     0.037 A 
BRANCH  51  65
ATOM     65  C   UNL A   1      40.577  33.840  38.164  1.00  0.00     0.057 A 
ATOM     66  C   UNL A   1      39.827  33.560  39.314  1.00  0.00     0.134 A 
ATOM     67  C   UNL A   1      41.409  34.966  38.193  1.00  0.00     0.134 A 
ATOM     68  F   UNL A   1      39.005  32.501  39.348  1.00  0.00    -0.206 F 
ATOM     69  C   UNL A   1      39.885  34.383  40.440  1.00  0.00     0.040 A 
ATOM     70  C   UNL A   1      41.493  35.784  39.321  1.00  0.00     0.040 A 
ATOM     71  F   UNL A   1      42.161  35.286  37.129  1.00  0.00    -0.206 F 
ATOM     72  C   UNL A   1      40.725  35.495  40.448  1.00  0.00     0.006 A 
ENDBRANCH  51  65
BRANCH  52  73
ATOM     73  C   UNL A   1      40.106  28.322  29.898  1.00  0.00     0.057 A 
ATOM     74  C   UNL A   1      40.837  28.688  28.762  1.00  0.00     0.134 A 
ATOM     75  C   UNL A   1      39.324  27.164  29.820  1.00  0.00     0.134 A 
ATOM     76  F   UNL A   1      41.587  29.799  28.772  1.00  0.00    -0.206 F 
ATOM     77  C   UNL A   1      40.782  27.939  27.586  1.00  0.00     0.040 A 
ATOM     78  C   UNL A   1      39.275  26.394  28.657  1.00  0.00     0.040 A 
ATOM     79  F   UNL A   1      38.604  26.760  30.877  1.00  0.00    -0.206 F 
ATOM     80  C   UNL A   1      40.002  26.785  27.533  1.00  0.00     0.006 A 
ENDBRANCH  52  73
BRANCH  64  81
ATOM     81  C   UNL A   1      44.336  28.329  35.412  1.00  0.00     0.057 A 
ATOM     82  C   UNL A   1      45.644  28.710  35.084  1.00  0.00     0.134 A 
ATOM     83  C   UNL A   1      44.168  27.130  36.113  1.00  0.00     0.134 A 
ATOM     84  F   UNL A   1      45.871  29.841  34.400  1.00  0.00    -0.206 F 
ATOM     85  C   UNL A   1      46.740  27.913  35.419  1.00  0.00     0.040 A 
ATOM     86  C   UNL A   1      45.257  26.335  36.474  1.00  0.00     0.040 A 
ATOM     87  F   UNL A   1      42.942  26.711  36.464  1.00  0.00    -0.206 F 
ATOM     88  C   UNL A   1      46.548  26.724  36.120  1.00  0.00     0.006 A 
ENDBRANCH  64  81
ENDBRANCH  38  39
ENDBRANCH  30  33
ENDBRANCH  28  29
ENDBRANCH  27  28
ENDBRANCH  26  27
ENDBRANCH   1  26
TORSDOF 16
ENDMDL
