MODEL 1
REMARK VINA RESULT:     -10.3      0.000      0.000
REMARK SMILES O=C(CCn1cc(Cl)c([N+](=O)[O-])n1)NCCCCCCNC(=O)c1ccc(-c2c3nc(c(-c4c(F)cccc4F)c4ccc([nH]4)c(-c4c(F)cccc4F)c4nc(c(-c5c(F)cccc5F)c5ccc2[nH]5)C=C4)C=C3)cc1
REMARK SMILES IDX 17 1 16 2 15 3 14 4 1 5 2 6 3 8 4 9 5 10 6 11 13 12 7 13
REMARK SMILES IDX 9 14 8 15 10 16 11 17 12 18 18 19 19 20 20 21 21 22 22 23
REMARK SMILES IDX 23 25 24 26 25 27 77 28 26 29 76 30 27 31 28 32 29 33 70 34
REMARK SMILES IDX 30 35 75 36 69 37 71 38 31 39 74 40 68 41 67 42 32 44 58 45
REMARK SMILES IDX 41 46 57 47 42 48 45 49 56 50 72 51 43 52 44 53 55 55 73 56
REMARK SMILES IDX 46 57 33 58 34 59 39 60 35 61 36 62 38 63 40 64 37 65 59 66
REMARK SMILES IDX 60 67 65 68 61 69 62 70 64 71 66 72 63 73 47 74 48 75 53 76
REMARK SMILES IDX 49 77 50 78 52 79 54 80 51 81
REMARK H PARENT 14 7 21 24 71 43 45 54
REMARK Flexibility Score: inf
ROOT
ATOM      1  C   UNL A   1      40.975  21.749  26.404  1.00  0.00     0.002 C 
ENDROOT
BRANCH   1   2
ATOM      2  C   UNL A   1      39.470  22.022  26.559  1.00  0.00     0.021 C 
BRANCH   2   3
ATOM      3  C   UNL A   1      38.577  21.410  25.476  1.00  0.00     0.116 C 
BRANCH   3   4
ATOM      4  N   UNL A   1      37.640  22.391  24.968  1.00  0.00    -0.356 N 
ATOM      5  O   UNL A   1      35.785  21.660  26.094  1.00  0.00    -0.275 OA
ATOM      6  C   UNL A   1      36.312  22.437  25.305  1.00  0.00     0.221 C 
ATOM      7  H   UNL A   1      37.979  23.069  24.340  1.00  0.00     0.163 HD
BRANCH   6   8
ATOM      8  C   UNL A   1      35.500  23.473  24.551  1.00  0.00     0.125 C 
BRANCH   8   9
ATOM      9  C   UNL A   1      34.974  24.609  25.421  1.00  0.00     0.179 C 
BRANCH   9  10
ATOM     10  N   UNL A   1      33.530  24.634  25.598  1.00  0.00    -0.178 N 
ATOM     11  C   UNL A   1      32.694  25.709  25.493  1.00  0.00     0.161 A 
ATOM     12  N   UNL A   1      32.898  23.512  25.989  1.00  0.00     0.061 NA
ATOM     13  C   UNL A   1      31.440  25.265  25.852  1.00  0.00     0.160 A 
ATOM     14  C   UNL A   1      31.608  23.888  26.113  1.00  0.00     0.408 A 
ATOM     15  Cl  UNL A   1      30.042  26.214  25.958  1.00  0.00    -0.073 Cl
BRANCH  14  16
ATOM     16  N   UNL A   1      30.642  22.894  26.538  1.00  0.00    -0.020 N 
ATOM     17  O   UNL A   1      29.932  23.183  27.510  1.00  0.00    -0.358 OA
ATOM     18  O   UNL A   1      30.591  21.824  25.915  1.00  0.00    -0.358 OA
ENDBRANCH  14  16
ENDBRANCH   9  10
ENDBRANCH   8   9
ENDBRANCH   6   8
ENDBRANCH   3   4
ENDBRANCH   2   3
ENDBRANCH   1   2
BRANCH   1  19
ATOM     19  C   UNL A   1      41.624  20.865  27.479  1.00  0.00     0.002 C 
BRANCH  19  20
ATOM     20  C   UNL A   1      42.493  19.703  26.982  1.00  0.00     0.021 C 
BRANCH  20  21
ATOM     21  C   UNL A   1      42.500  19.525  25.471  1.00  0.00     0.116 C 
BRANCH  21  22
ATOM     22  N   UNL A   1      43.830  19.253  24.922  1.00  0.00    -0.352 N 
ATOM     23  C   UNL A   1      44.767  20.172  24.475  1.00  0.00     0.251 C 
ATOM     24  H   UNL A   1      44.090  18.305  24.864  1.00  0.00     0.163 HD
ATOM     25  O   UNL A   1      45.651  19.858  23.695  1.00  0.00    -0.269 OA
BRANCH  23  26
ATOM     26  C   UNL A   1      44.680  21.554  24.982  1.00  0.00     0.039 A 
ATOM     27  C   UNL A   1      43.851  22.514  24.397  1.00  0.00     0.014 A 
ATOM     28  C   UNL A   1      45.440  21.859  26.106  1.00  0.00     0.014 A 
ATOM     29  C   UNL A   1      43.740  23.762  25.009  1.00  0.00     0.010 A 
ATOM     30  C   UNL A   1      45.178  23.000  26.811  1.00  0.00     0.010 A 
ATOM     31  C   UNL A   1      44.398  23.989  26.229  1.00  0.00    -0.014 A 
BRANCH  31  32
ATOM     32  C   UNL A   1      44.201  25.217  26.990  1.00  0.00     0.031 A 
ATOM     33  C   UNL A   1      45.222  26.261  26.710  1.00  0.00     0.074 A 
ATOM     34  C   UNL A   1      43.064  25.467  27.679  1.00  0.00     0.049 A 
ATOM     35  N   UNL A   1      46.148  26.692  27.501  1.00  0.00    -0.248 NA
ATOM     36  C   UNL A   1      45.339  26.767  25.331  1.00  0.00     0.031 C 
ATOM     37  C   UNL A   1      41.842  24.651  27.742  1.00  0.00     0.029 A 
ATOM     38  N   UNL A   1      42.712  26.569  28.398  1.00  0.00    -0.354 N 
ATOM     39  C   UNL A   1      46.806  27.699  26.798  1.00  0.00     0.074 A 
ATOM     40  C   UNL A   1      46.419  27.547  25.422  1.00  0.00     0.031 C 
ATOM     41  C   UNL A   1      40.825  25.381  28.245  1.00  0.00     0.029 A 
ATOM     42  C   UNL A   1      41.357  26.644  28.716  1.00  0.00     0.049 A 
ATOM     43  H   UNL A   1      43.362  27.256  28.671  1.00  0.00     0.167 HD
ATOM     44  C   UNL A   1      47.371  28.747  27.459  1.00  0.00     0.037 A 
ATOM     45  C   UNL A   1      40.722  27.680  29.317  1.00  0.00     0.037 A 
ATOM     46  C   UNL A   1      47.496  28.449  28.865  1.00  0.00     0.049 A 
ATOM     47  C   UNL A   1      41.764  28.498  29.976  1.00  0.00     0.074 A 
ATOM     48  C   UNL A   1      48.178  27.525  29.627  1.00  0.00     0.029 A 
ATOM     49  N   UNL A   1      46.502  28.953  29.665  1.00  0.00    -0.354 N 
ATOM     50  N   UNL A   1      42.473  28.092  30.991  1.00  0.00    -0.248 NA
ATOM     51  C   UNL A   1      42.315  29.620  29.237  1.00  0.00     0.031 C 
ATOM     52  C   UNL A   1      47.307  27.222  30.717  1.00  0.00     0.029 A 
ATOM     53  C   UNL A   1      46.169  28.024  30.611  1.00  0.00     0.049 A 
ATOM     54  H   UNL A   1      46.094  29.844  29.573  1.00  0.00     0.167 HD
ATOM     55  C   UNL A   1      43.742  28.596  30.756  1.00  0.00     0.074 A 
ATOM     56  C   UNL A   1      43.552  29.630  29.740  1.00  0.00     0.031 C 
ATOM     57  C   UNL A   1      44.846  27.920  31.191  1.00  0.00     0.037 A 
BRANCH  44  58
ATOM     58  C   UNL A   1      47.364  30.181  26.961  1.00  0.00     0.057 A 
ATOM     59  C   UNL A   1      48.549  30.937  27.064  1.00  0.00     0.134 A 
ATOM     60  C   UNL A   1      46.205  30.937  26.692  1.00  0.00     0.134 A 
ATOM     61  F   UNL A   1      49.724  30.344  27.325  1.00  0.00    -0.206 F 
ATOM     62  C   UNL A   1      48.560  32.337  26.998  1.00  0.00     0.040 A 
ATOM     63  C   UNL A   1      46.213  32.331  26.575  1.00  0.00     0.040 A 
ATOM     64  F   UNL A   1      44.984  30.395  26.630  1.00  0.00    -0.206 F 
ATOM     65  C   UNL A   1      47.387  33.040  26.763  1.00  0.00     0.006 A 
ENDBRANCH  44  58
BRANCH  45  66
ATOM     66  C   UNL A   1      39.346  28.191  29.114  1.00  0.00     0.057 A 
ATOM     67  C   UNL A   1      38.435  28.257  30.179  1.00  0.00     0.134 A 
ATOM     68  C   UNL A   1      38.998  28.913  27.959  1.00  0.00     0.134 A 
ATOM     69  F   UNL A   1      38.697  27.633  31.337  1.00  0.00    -0.206 F 
ATOM     70  C   UNL A   1      37.265  29.027  30.116  1.00  0.00     0.040 A 
ATOM     71  C   UNL A   1      37.831  29.683  27.882  1.00  0.00     0.040 A 
ATOM     72  F   UNL A   1      39.826  28.971  26.906  1.00  0.00    -0.206 F 
ATOM     73  C   UNL A   1      36.969  29.757  28.969  1.00  0.00     0.006 A 
ENDBRANCH  45  66
BRANCH  57  74
ATOM     74  C   UNL A   1      44.641  26.842  32.220  1.00  0.00     0.057 A 
ATOM     75  C   UNL A   1      44.415  27.067  33.586  1.00  0.00     0.134 A 
ATOM     76  C   UNL A   1      44.542  25.519  31.774  1.00  0.00     0.134 A 
ATOM     77  F   UNL A   1      44.407  28.304  34.095  1.00  0.00    -0.206 F 
ATOM     78  C   UNL A   1      44.138  26.018  34.471  1.00  0.00     0.040 A 
ATOM     79  C   UNL A   1      44.233  24.468  32.639  1.00  0.00     0.040 A 
ATOM     80  F   UNL A   1      44.701  25.234  30.472  1.00  0.00    -0.206 F 
ATOM     81  C   UNL A   1      44.039  24.713  33.995  1.00  0.00     0.006 A 
ENDBRANCH  57  74
ENDBRANCH  31  32
ENDBRANCH  23  26
ENDBRANCH  21  22
ENDBRANCH  20  21
ENDBRANCH  19  20
ENDBRANCH   1  19
TORSDOF 16
ENDMDL
MODEL 2
REMARK VINA RESULT:     -10.1      1.644      2.120
REMARK SMILES O=C(CCn1cc(Cl)c([N+](=O)[O-])n1)NCCCCCCNC(=O)c1ccc(-c2c3nc(c(-c4c(F)cccc4F)c4ccc([nH]4)c(-c4c(F)cccc4F)c4nc(c(-c5c(F)cccc5F)c5ccc2[nH]5)C=C4)C=C3)cc1
REMARK SMILES IDX 17 1 16 2 15 3 14 4 1 5 2 6 3 8 4 9 5 10 6 11 13 12 7 13
REMARK SMILES IDX 9 14 8 15 10 16 11 17 12 18 18 19 19 20 20 21 21 22 22 23
REMARK SMILES IDX 23 25 24 26 25 27 77 28 26 29 76 30 27 31 28 32 29 33 70 34
REMARK SMILES IDX 30 35 75 36 69 37 71 38 31 39 74 40 68 41 67 42 32 44 58 45
REMARK SMILES IDX 41 46 57 47 42 48 45 49 56 50 72 51 43 52 44 53 55 55 73 56
REMARK SMILES IDX 46 57 33 58 34 59 39 60 35 61 36 62 38 63 40 64 37 65 59 66
REMARK SMILES IDX 60 67 65 68 61 69 62 70 64 71 66 72 63 73 47 74 48 75 53 76
REMARK SMILES IDX 49 77 50 78 52 79 54 80 51 81
REMARK H PARENT 14 7 21 24 71 43 45 54
REMARK Flexibility Score: inf
ROOT
ATOM      1  C   UNL A   1      39.300  22.344  26.523  1.00  0.00     0.002 C 
ENDROOT
BRANCH   1   2
ATOM      2  C   UNL A   1      38.638  21.677  25.307  1.00  0.00     0.021 C 
BRANCH   2   3
ATOM      3  C   UNL A   1      37.258  21.064  25.565  1.00  0.00     0.116 C 
BRANCH   3   4
ATOM      4  N   UNL A   1      36.371  22.034  26.172  1.00  0.00    -0.356 N 
ATOM      5  O   UNL A   1      34.673  21.904  24.640  1.00  0.00    -0.275 OA
ATOM      6  C   UNL A   1      35.149  22.391  25.660  1.00  0.00     0.221 C 
ATOM      7  H   UNL A   1      36.663  22.466  27.007  1.00  0.00     0.163 HD
BRANCH   6   8
ATOM      8  C   UNL A   1      34.455  23.518  26.399  1.00  0.00     0.125 C 
BRANCH   8   9
ATOM      9  C   UNL A   1      33.011  23.752  25.970  1.00  0.00     0.179 C 
BRANCH   9  10
ATOM     10  N   UNL A   1      32.795  24.933  25.147  1.00  0.00    -0.178 N 
ATOM     11  C   UNL A   1      32.453  26.189  25.563  1.00  0.00     0.161 A 
ATOM     12  N   UNL A   1      32.849  24.818  23.807  1.00  0.00     0.061 NA
ATOM     13  C   UNL A   1      32.256  26.937  24.422  1.00  0.00     0.160 A 
ATOM     14  C   UNL A   1      32.551  26.055  23.360  1.00  0.00     0.408 A 
ATOM     15  Cl  UNL A   1      31.750  28.551  24.368  1.00  0.00    -0.073 Cl
BRANCH  14  16
ATOM     16  N   UNL A   1      32.514  26.275  21.927  1.00  0.00    -0.020 N 
ATOM     17  O   UNL A   1      31.396  26.362  21.403  1.00  0.00    -0.358 OA
ATOM     18  O   UNL A   1      33.591  26.355  21.320  1.00  0.00    -0.358 OA
ENDBRANCH  14  16
ENDBRANCH   9  10
ENDBRANCH   8   9
ENDBRANCH   6   8
ENDBRANCH   3   4
ENDBRANCH   2   3
ENDBRANCH   1   2
BRANCH   1  19
ATOM     19  C   UNL A   1      40.411  21.547  27.220  1.00  0.00     0.002 C 
BRANCH  19  20
ATOM     20  C   UNL A   1      40.971  20.337  26.461  1.00  0.00     0.021 C 
BRANCH  20  21
ATOM     21  C   UNL A   1      42.256  19.770  27.044  1.00  0.00     0.116 C 
BRANCH  21  22
ATOM     22  N   UNL A   1      43.312  19.573  26.048  1.00  0.00    -0.352 N 
ATOM     23  C   UNL A   1      43.887  20.527  25.222  1.00  0.00     0.251 C 
ATOM     24  H   UNL A   1      43.655  18.655  25.954  1.00  0.00     0.163 HD
ATOM     25  O   UNL A   1      44.453  20.220  24.186  1.00  0.00    -0.269 OA
BRANCH  23  26
ATOM     26  C   UNL A   1      43.813  21.940  25.638  1.00  0.00     0.039 A 
ATOM     27  C   UNL A   1      43.021  22.875  24.968  1.00  0.00     0.014 A 
ATOM     28  C   UNL A   1      44.546  22.302  26.763  1.00  0.00     0.014 A 
ATOM     29  C   UNL A   1      42.918  24.162  25.496  1.00  0.00     0.010 A 
ATOM     30  C   UNL A   1      44.287  23.490  27.385  1.00  0.00     0.010 A 
ATOM     31  C   UNL A   1      43.544  24.454  26.719  1.00  0.00    -0.014 A 
BRANCH  31  32
ATOM     32  C   UNL A   1      43.350  25.732  27.393  1.00  0.00     0.031 A 
ATOM     33  C   UNL A   1      44.341  26.769  27.002  1.00  0.00     0.074 A 
ATOM     34  C   UNL A   1      42.232  26.013  28.103  1.00  0.00     0.049 A 
ATOM     35  N   UNL A   1      45.284  27.273  27.725  1.00  0.00    -0.248 NA
ATOM     36  C   UNL A   1      44.401  27.173  25.586  1.00  0.00     0.031 C 
ATOM     37  C   UNL A   1      41.029  25.184  28.268  1.00  0.00     0.029 A 
ATOM     38  N   UNL A   1      41.884  27.159  28.751  1.00  0.00    -0.354 N 
ATOM     39  C   UNL A   1      45.898  28.236  26.927  1.00  0.00     0.074 A 
ATOM     40  C   UNL A   1      45.468  27.976  25.581  1.00  0.00     0.031 C 
ATOM     41  C   UNL A   1      40.015  25.933  28.753  1.00  0.00     0.029 A 
ATOM     42  C   UNL A   1      40.540  27.235  29.110  1.00  0.00     0.049 A 
ATOM     43  H   UNL A   1      42.529  27.876  28.949  1.00  0.00     0.167 HD
ATOM     44  C   UNL A   1      46.465  29.339  27.489  1.00  0.00     0.037 A 
ATOM     45  C   UNL A   1      39.906  28.303  29.655  1.00  0.00     0.037 A 
ATOM     46  C   UNL A   1      46.644  29.148  28.908  1.00  0.00     0.049 A 
ATOM     47  C   UNL A   1      40.953  29.184  30.215  1.00  0.00     0.074 A 
ATOM     48  C   UNL A   1      47.369  28.294  29.711  1.00  0.00     0.029 A 
ATOM     49  N   UNL A   1      45.669  29.694  29.704  1.00  0.00    -0.354 N 
ATOM     50  N   UNL A   1      41.704  28.867  31.231  1.00  0.00    -0.248 NA
ATOM     51  C   UNL A   1      41.458  30.258  29.376  1.00  0.00     0.031 C 
ATOM     52  C   UNL A   1      46.542  28.059  30.851  1.00  0.00     0.029 A 
ATOM     53  C   UNL A   1      45.386  28.832  30.726  1.00  0.00     0.049 A 
ATOM     54  H   UNL A   1      45.241  30.568  29.561  1.00  0.00     0.167 HD
ATOM     55  C   UNL A   1      42.955  29.373  30.915  1.00  0.00     0.074 A 
ATOM     56  C   UNL A   1      42.710  30.325  29.833  1.00  0.00     0.031 C 
ATOM     57  C   UNL A   1      44.086  28.749  31.359  1.00  0.00     0.037 A 
BRANCH  44  58
ATOM     58  C   UNL A   1      46.415  30.731  26.887  1.00  0.00     0.057 A 
ATOM     59  C   UNL A   1      47.594  31.504  26.871  1.00  0.00     0.134 A 
ATOM     60  C   UNL A   1      45.233  31.455  26.625  1.00  0.00     0.134 A 
ATOM     61  F   UNL A   1      48.788  30.942  27.113  1.00  0.00    -0.206 F 
ATOM     62  C   UNL A   1      47.583  32.894  26.702  1.00  0.00     0.040 A 
ATOM     63  C   UNL A   1      45.217  32.837  26.405  1.00  0.00     0.040 A 
ATOM     64  F   UNL A   1      44.018  30.899  26.668  1.00  0.00    -0.206 F 
ATOM     65  C   UNL A   1      46.390  33.568  26.478  1.00  0.00     0.006 A 
ENDBRANCH  44  58
BRANCH  45  66
ATOM     66  C   UNL A   1      38.514  28.775  29.464  1.00  0.00     0.057 A 
ATOM     67  C   UNL A   1      37.648  28.931  30.557  1.00  0.00     0.134 A 
ATOM     68  C   UNL A   1      38.106  29.378  28.262  1.00  0.00     0.134 A 
ATOM     69  F   UNL A   1      37.967  28.423  31.756  1.00  0.00    -0.206 F 
ATOM     70  C   UNL A   1      36.463  29.676  30.471  1.00  0.00     0.040 A 
ATOM     71  C   UNL A   1      36.924  30.123  28.163  1.00  0.00     0.040 A 
ATOM     72  F   UNL A   1      38.888  29.346  27.174  1.00  0.00    -0.206 F 
ATOM     73  C   UNL A   1      36.107  30.289  29.274  1.00  0.00     0.006 A 
ENDBRANCH  45  66
BRANCH  57  74
ATOM     74  C   UNL A   1      43.937  27.747  32.471  1.00  0.00     0.057 A 
ATOM     75  C   UNL A   1      43.866  26.356  32.296  1.00  0.00     0.134 A 
ATOM     76  C   UNL A   1      43.998  28.214  33.789  1.00  0.00     0.134 A 
ATOM     77  F   UNL A   1      43.885  25.807  31.076  1.00  0.00    -0.206 F 
ATOM     78  C   UNL A   1      43.822  25.477  33.384  1.00  0.00     0.040 A 
ATOM     79  C   UNL A   1      43.990  27.346  34.882  1.00  0.00     0.040 A 
ATOM     80  F   UNL A   1      44.113  29.529  34.033  1.00  0.00    -0.206 F 
ATOM     81  C   UNL A   1      43.893  25.972  34.683  1.00  0.00     0.006 A 
ENDBRANCH  57  74
ENDBRANCH  31  32
ENDBRANCH  23  26
ENDBRANCH  21  22
ENDBRANCH  20  21
ENDBRANCH  19  20
ENDBRANCH   1  19
TORSDOF 16
ENDMDL
MODEL 3
REMARK VINA RESULT:     -10.0      4.566      9.878
REMARK SMILES O=C(CCn1cc(Cl)c([N+](=O)[O-])n1)NCCCCCCNC(=O)c1ccc(-c2c3nc(c(-c4c(F)cccc4F)c4ccc([nH]4)c(-c4c(F)cccc4F)c4nc(c(-c5c(F)cccc5F)c5ccc2[nH]5)C=C4)C=C3)cc1
REMARK SMILES IDX 17 1 16 2 15 3 14 4 1 5 2 6 3 8 4 9 5 10 6 11 13 12 7 13
REMARK SMILES IDX 9 14 8 15 10 16 11 17 12 18 18 19 19 20 20 21 21 22 22 23
REMARK SMILES IDX 23 25 24 26 25 27 77 28 26 29 76 30 27 31 28 32 29 33 70 34
REMARK SMILES IDX 30 35 75 36 69 37 71 38 31 39 74 40 68 41 67 42 32 44 58 45
REMARK SMILES IDX 41 46 57 47 42 48 45 49 56 50 72 51 43 52 44 53 55 55 73 56
REMARK SMILES IDX 46 57 33 58 34 59 39 60 35 61 36 62 38 63 40 64 37 65 59 66
REMARK SMILES IDX 60 67 65 68 61 69 62 70 64 71 66 72 63 73 47 74 48 75 53 76
REMARK SMILES IDX 49 77 50 78 52 79 54 80 51 81
REMARK H PARENT 14 7 21 24 71 43 45 54
REMARK Flexibility Score: inf
ROOT
ATOM      1  C   UNL A   1      34.695  32.715  27.691  1.00  0.00     0.002 C 
ENDROOT
BRANCH   1   2
ATOM      2  C   UNL A   1      34.626  31.382  28.453  1.00  0.00     0.021 C 
BRANCH   2   3
ATOM      3  C   UNL A   1      34.850  30.128  27.603  1.00  0.00     0.116 C 
BRANCH   3   4
ATOM      4  N   UNL A   1      33.976  30.128  26.449  1.00  0.00    -0.356 N 
ATOM      5  O   UNL A   1      33.894  27.862  26.122  1.00  0.00    -0.275 OA
ATOM      6  C   UNL A   1      33.571  28.997  25.787  1.00  0.00     0.221 C 
ATOM      7  H   UNL A   1      33.651  30.996  26.117  1.00  0.00     0.163 HD
BRANCH   6   8
ATOM      8  C   UNL A   1      32.760  29.252  24.531  1.00  0.00     0.125 C 
BRANCH   8   9
ATOM      9  C   UNL A   1      31.418  28.530  24.495  1.00  0.00     0.179 C 
BRANCH   9  10
ATOM     10  N   UNL A   1      31.431  27.237  23.825  1.00  0.00    -0.178 N 
ATOM     11  C   UNL A   1      30.667  26.141  24.112  1.00  0.00     0.161 A 
ATOM     12  N   UNL A   1      32.332  27.010  22.852  1.00  0.00     0.061 NA
ATOM     13  C   UNL A   1      31.108  25.131  23.285  1.00  0.00     0.160 A 
ATOM     14  C   UNL A   1      32.115  25.728  22.496  1.00  0.00     0.408 A 
ATOM     15  Cl  UNL A   1      30.543  23.535  23.277  1.00  0.00    -0.073 Cl
BRANCH  14  16
ATOM     16  N   UNL A   1      32.945  25.156  21.453  1.00  0.00    -0.020 N 
ATOM     17  O   UNL A   1      33.419  24.033  21.669  1.00  0.00    -0.358 OA
ATOM     18  O   UNL A   1      33.133  25.821  20.425  1.00  0.00    -0.358 OA
ENDBRANCH  14  16
ENDBRANCH   9  10
ENDBRANCH   8   9
ENDBRANCH   6   8
ENDBRANCH   3   4
ENDBRANCH   2   3
ENDBRANCH   1   2
BRANCH   1  19
ATOM     19  C   UNL A   1      35.396  33.878  28.408  1.00  0.00     0.002 C 
BRANCH  19  20
ATOM     20  C   UNL A   1      34.513  35.058  28.834  1.00  0.00     0.021 C 
BRANCH  20  21
ATOM     21  C   UNL A   1      33.269  34.661  29.615  1.00  0.00     0.116 C 
BRANCH  21  22
ATOM     22  N   UNL A   1      33.104  35.407  30.865  1.00  0.00    -0.352 N 
ATOM     23  C   UNL A   1      33.608  35.085  32.116  1.00  0.00     0.251 C 
ATOM     24  H   UNL A   1      32.573  36.234  30.810  1.00  0.00     0.163 HD
ATOM     25  O   UNL A   1      33.111  35.527  33.139  1.00  0.00    -0.269 OA
BRANCH  23  26
ATOM     26  C   UNL A   1      34.785  34.199  32.184  1.00  0.00     0.039 A 
ATOM     27  C   UNL A   1      34.677  32.808  32.114  1.00  0.00     0.014 A 
ATOM     28  C   UNL A   1      36.028  34.813  32.284  1.00  0.00     0.014 A 
ATOM     29  C   UNL A   1      35.847  32.050  32.068  1.00  0.00     0.010 A 
ATOM     30  C   UNL A   1      37.161  34.091  32.037  1.00  0.00     0.010 A 
ATOM     31  C   UNL A   1      37.088  32.706  32.013  1.00  0.00    -0.014 A 
BRANCH  31  32
ATOM     32  C   UNL A   1      38.333  31.975  31.814  1.00  0.00     0.031 A 
ATOM     33  C   UNL A   1      39.055  31.673  33.078  1.00  0.00     0.074 A 
ATOM     34  C   UNL A   1      38.660  31.411  30.628  1.00  0.00     0.049 A 
ATOM     35  N   UNL A   1      40.174  32.170  33.487  1.00  0.00    -0.248 NA
ATOM     36  C   UNL A   1      38.371  30.847  34.090  1.00  0.00     0.031 C 
ATOM     37  C   UNL A   1      37.854  31.351  29.399  1.00  0.00     0.029 A 
ATOM     38  N   UNL A   1      39.753  30.670  30.294  1.00  0.00    -0.354 N 
ATOM     39  C   UNL A   1      40.453  31.533  34.694  1.00  0.00     0.074 A 
ATOM     40  C   UNL A   1      39.226  30.912  35.112  1.00  0.00     0.031 C 
ATOM     41  C   UNL A   1      38.368  30.430  28.556  1.00  0.00     0.029 A 
ATOM     42  C   UNL A   1      39.634  29.974  29.092  1.00  0.00     0.049 A 
ATOM     43  H   UNL A   1      40.560  30.630  30.855  1.00  0.00     0.167 HD
ATOM     44  C   UNL A   1      41.740  31.324  35.085  1.00  0.00     0.037 A 
ATOM     45  C   UNL A   1      40.516  29.078  28.584  1.00  0.00     0.037 A 
ATOM     46  C   UNL A   1      42.642  32.142  34.309  1.00  0.00     0.049 A 
ATOM     47  C   UNL A   1      41.805  29.307  29.274  1.00  0.00     0.074 A 
ATOM     48  C   UNL A   1      42.852  33.492  34.131  1.00  0.00     0.029 A 
ATOM     49  N   UNL A   1      43.246  31.513  33.251  1.00  0.00    -0.354 N 
ATOM     50  N   UNL A   1      42.523  30.385  29.135  1.00  0.00    -0.248 NA
ATOM     51  C   UNL A   1      42.094  28.510  30.454  1.00  0.00     0.031 C 
ATOM     52  C   UNL A   1      43.222  33.637  32.759  1.00  0.00     0.029 A 
ATOM     53  C   UNL A   1      43.290  32.366  32.184  1.00  0.00     0.049 A 
ATOM     54  H   UNL A   1      43.593  30.592  33.258  1.00  0.00     0.167 HD
ATOM     55  C   UNL A   1      43.026  30.637  30.401  1.00  0.00     0.074 A 
ATOM     56  C   UNL A   1      42.838  29.386  31.134  1.00  0.00     0.031 C 
ATOM     57  C   UNL A   1      43.268  31.918  30.807  1.00  0.00     0.037 A 
BRANCH  44  58
ATOM     58  C   UNL A   1      42.232  30.076  35.794  1.00  0.00     0.057 A 
ATOM     59  C   UNL A   1      43.196  30.214  36.813  1.00  0.00     0.134 A 
ATOM     60  C   UNL A   1      42.054  28.758  35.326  1.00  0.00     0.134 A 
ATOM     61  F   UNL A   1      43.471  31.415  37.344  1.00  0.00    -0.206 F 
ATOM     62  C   UNL A   1      43.982  29.142  37.258  1.00  0.00     0.040 A 
ATOM     63  C   UNL A   1      42.799  27.673  35.799  1.00  0.00     0.040 A 
ATOM     64  F   UNL A   1      41.233  28.452  34.316  1.00  0.00    -0.206 F 
ATOM     65  C   UNL A   1      43.792  27.868  36.744  1.00  0.00     0.006 A 
ENDBRANCH  44  58
BRANCH  45  66
ATOM     66  C   UNL A   1      40.268  27.853  27.789  1.00  0.00     0.057 A 
ATOM     67  C   UNL A   1      40.898  27.654  26.551  1.00  0.00     0.134 A 
ATOM     68  C   UNL A   1      39.662  26.722  28.362  1.00  0.00     0.134 A 
ATOM     69  F   UNL A   1      41.535  28.665  25.943  1.00  0.00    -0.206 F 
ATOM     70  C   UNL A   1      40.958  26.396  25.936  1.00  0.00     0.040 A 
ATOM     71  C   UNL A   1      39.712  25.459  27.756  1.00  0.00     0.040 A 
ATOM     72  F   UNL A   1      39.088  26.784  29.572  1.00  0.00    -0.206 F 
ATOM     73  C   UNL A   1      40.377  25.290  26.548  1.00  0.00     0.006 A 
ENDBRANCH  45  66
BRANCH  57  74
ATOM     74  C   UNL A   1      43.322  32.985  29.747  1.00  0.00     0.057 A 
ATOM     75  C   UNL A   1      42.267  33.852  29.424  1.00  0.00     0.134 A 
ATOM     76  C   UNL A   1      44.549  33.223  29.117  1.00  0.00     0.134 A 
ATOM     77  F   UNL A   1      41.079  33.758  30.032  1.00  0.00    -0.206 F 
ATOM     78  C   UNL A   1      42.420  34.884  28.491  1.00  0.00     0.040 A 
ATOM     79  C   UNL A   1      44.724  34.270  28.210  1.00  0.00     0.040 A 
ATOM     80  F   UNL A   1      45.616  32.463  29.411  1.00  0.00    -0.206 F 
ATOM     81  C   UNL A   1      43.655  35.100  27.887  1.00  0.00     0.006 A 
ENDBRANCH  57  74
ENDBRANCH  31  32
ENDBRANCH  23  26
ENDBRANCH  21  22
ENDBRANCH  20  21
ENDBRANCH  19  20
ENDBRANCH   1  19
TORSDOF 16
ENDMDL
