MODEL 1
REMARK VINA RESULT:     -12.3      0.000      0.000
REMARK SMILES O=C(NCCCCCCNC(=O)[C@H]1CCN1C(=O)OCC1c2ccccc2-c2ccccc21)c1ccc(-c2c3nc(c(-c4c(F)cccc4F)c4ccc([nH]4)c(-c4c(F)cccc4F)c4nc(c(-c5c(F)cccc5F)c5ccc2[nH]5)C=C4)C=C3)cc1
REMARK SMILES IDX 7 1 6 2 5 3 4 4 3 5 1 6 2 7 34 9 35 10 87 11 36 12 86 13
REMARK SMILES IDX 37 14 38 15 39 16 80 17 40 18 85 19 79 20 81 21 41 22 84 23
REMARK SMILES IDX 78 24 77 25 42 27 68 28 51 29 67 30 52 31 55 32 66 33 82 34
REMARK SMILES IDX 53 35 54 36 65 38 83 39 56 40 43 41 44 42 49 43 45 44 46 45
REMARK SMILES IDX 48 46 50 47 47 48 69 49 70 50 75 51 71 52 72 53 74 54 76 55
REMARK SMILES IDX 73 56 57 57 58 58 63 59 59 60 60 61 62 62 64 63 61 64 8 65
REMARK SMILES IDX 9 66 10 67 11 68 12 70 13 71 14 72 16 73 15 74 17 75 18 76
REMARK SMILES IDX 19 77 20 78 21 79 22 80 33 81 23 82 27 83 28 84 32 85 24 86
REMARK SMILES IDX 26 87 29 88 31 89 25 90 30 91
REMARK H PARENT 3 8 81 26 55 37 10 69
REMARK Flexibility Score: inf
ROOT
ATOM      1  C   UNL A   1      37.214  21.945  24.368  1.00  0.00     0.002 C 
ENDROOT
BRANCH   1   2
ATOM      2  C   UNL A   1      37.010  20.540  24.943  1.00  0.00     0.002 C 
BRANCH   2   3
ATOM      3  C   UNL A   1      38.237  19.627  24.904  1.00  0.00     0.021 C 
BRANCH   3   4
ATOM      4  C   UNL A   1      39.328  19.978  25.907  1.00  0.00     0.116 C 
BRANCH   4   5
ATOM      5  N   UNL A   1      40.382  18.981  25.943  1.00  0.00    -0.352 N 
ATOM      6  O   UNL A   1      42.510  18.232  25.919  1.00  0.00    -0.269 OA
ATOM      7  C   UNL A   1      41.734  19.168  26.082  1.00  0.00     0.251 C 
ATOM      8  H   UNL A   1      40.087  18.046  25.856  1.00  0.00     0.163 HD
BRANCH   7   9
ATOM      9  C   UNL A   1      42.260  20.509  26.421  1.00  0.00     0.039 A 
ATOM     10  C   UNL A   1      42.754  21.357  25.424  1.00  0.00     0.014 A 
ATOM     11  C   UNL A   1      42.211  20.939  27.750  1.00  0.00     0.014 A 
ATOM     12  C   UNL A   1      43.268  22.604  25.768  1.00  0.00     0.010 A 
ATOM     13  C   UNL A   1      42.672  22.214  28.085  1.00  0.00     0.010 A 
ATOM     14  C   UNL A   1      43.204  23.055  27.096  1.00  0.00    -0.014 A 
BRANCH  14  15
ATOM     15  C   UNL A   1      43.574  24.456  27.409  1.00  0.00     0.031 A 
ATOM     16  C   UNL A   1      45.002  24.915  27.382  1.00  0.00     0.074 A 
ATOM     17  C   UNL A   1      42.588  25.311  27.740  1.00  0.00     0.049 A 
ATOM     18  N   UNL A   1      45.485  26.103  27.643  1.00  0.00    -0.248 NA
ATOM     19  C   UNL A   1      46.021  23.918  27.021  1.00  0.00     0.031 C 
ATOM     20  C   UNL A   1      41.167  24.963  27.829  1.00  0.00     0.029 A 
ATOM     21  N   UNL A   1      42.625  26.642  28.064  1.00  0.00    -0.354 N 
ATOM     22  C   UNL A   1      46.861  25.996  27.498  1.00  0.00     0.074 A 
ATOM     23  C   UNL A   1      47.141  24.622  27.135  1.00  0.00     0.031 C 
ATOM     24  C   UNL A   1      40.467  26.056  28.164  1.00  0.00     0.029 A 
ATOM     25  C   UNL A   1      41.390  27.166  28.361  1.00  0.00     0.049 A 
ATOM     26  H   UNL A   1      43.455  27.172  28.082  1.00  0.00     0.167 HD
ATOM     27  C   UNL A   1      47.799  26.960  27.652  1.00  0.00     0.037 A 
ATOM     28  C   UNL A   1      41.041  28.399  28.771  1.00  0.00     0.037 A 
ATOM     29  C   UNL A   1      47.510  28.330  27.991  1.00  0.00     0.049 A 
ATOM     30  C   UNL A   1      42.106  29.438  28.948  1.00  0.00     0.074 A 
ATOM     31  C   UNL A   1      48.386  29.398  28.081  1.00  0.00     0.029 A 
ATOM     32  N   UNL A   1      46.252  28.817  28.310  1.00  0.00    -0.354 N 
ATOM     33  N   UNL A   1      43.396  29.339  28.737  1.00  0.00    -0.248 NA
ATOM     34  C   UNL A   1      41.672  30.756  29.429  1.00  0.00     0.031 C 
ATOM     35  C   UNL A   1      47.665  30.522  28.496  1.00  0.00     0.029 A 
ATOM     36  C   UNL A   1      46.335  30.162  28.632  1.00  0.00     0.049 A 
ATOM     37  H   UNL A   1      45.423  28.286  28.307  1.00  0.00     0.167 HD
ATOM     38  C   UNL A   1      43.928  30.578  29.060  1.00  0.00     0.074 A 
ATOM     39  C   UNL A   1      42.818  31.421  29.454  1.00  0.00     0.031 C 
ATOM     40  C   UNL A   1      45.221  30.979  29.039  1.00  0.00     0.037 A 
BRANCH  27  41
ATOM     41  C   UNL A   1      49.236  26.580  27.461  1.00  0.00     0.057 A 
ATOM     42  C   UNL A   1      50.033  26.152  28.529  1.00  0.00     0.134 A 
ATOM     43  C   UNL A   1      49.801  26.556  26.180  1.00  0.00     0.134 A 
ATOM     44  F   UNL A   1      49.553  26.159  29.782  1.00  0.00    -0.206 F 
ATOM     45  C   UNL A   1      51.345  25.715  28.330  1.00  0.00     0.040 A 
ATOM     46  C   UNL A   1      51.105  26.107  25.966  1.00  0.00     0.040 A 
ATOM     47  F   UNL A   1      49.087  26.948  25.114  1.00  0.00    -0.206 F 
ATOM     48  C   UNL A   1      51.880  25.683  27.044  1.00  0.00     0.006 A 
ENDBRANCH  27  41
BRANCH  28  49
ATOM     49  C   UNL A   1      39.621  28.701  29.069  1.00  0.00     0.057 A 
ATOM     50  C   UNL A   1      38.769  29.219  28.088  1.00  0.00     0.134 A 
ATOM     51  C   UNL A   1      39.083  28.472  30.342  1.00  0.00     0.134 A 
ATOM     52  F   UNL A   1      39.234  29.474  26.857  1.00  0.00    -0.206 F 
ATOM     53  C   UNL A   1      37.432  29.510  28.365  1.00  0.00     0.040 A 
ATOM     54  C   UNL A   1      37.743  28.736  30.626  1.00  0.00     0.040 A 
ATOM     55  F   UNL A   1      39.850  27.971  31.321  1.00  0.00    -0.206 F 
ATOM     56  C   UNL A   1      36.915  29.262  29.636  1.00  0.00     0.006 A 
ENDBRANCH  28  49
BRANCH  40  57
ATOM     57  C   UNL A   1      45.497  32.387  29.465  1.00  0.00     0.057 A 
ATOM     58  C   UNL A   1      45.439  33.447  28.552  1.00  0.00     0.134 A 
ATOM     59  C   UNL A   1      45.807  32.689  30.796  1.00  0.00     0.134 A 
ATOM     60  F   UNL A   1      45.165  33.217  27.259  1.00  0.00    -0.206 F 
ATOM     61  C   UNL A   1      45.697  34.761  28.945  1.00  0.00     0.040 A 
ATOM     62  C   UNL A   1      46.047  34.001  31.205  1.00  0.00     0.040 A 
ATOM     63  F   UNL A   1      45.874  31.717  31.717  1.00  0.00    -0.206 F 
ATOM     64  C   UNL A   1      45.998  35.040  30.278  1.00  0.00     0.006 A 
ENDBRANCH  40  57
ENDBRANCH  14  15
ENDBRANCH   7   9
ENDBRANCH   4   5
ENDBRANCH   3   4
ENDBRANCH   2   3
ENDBRANCH   1   2
BRANCH   1  65
ATOM     65  C   UNL A   1      37.481  23.054  25.395  1.00  0.00     0.021 C 
BRANCH  65  66
ATOM     66  C   UNL A   1      36.256  23.883  25.780  1.00  0.00     0.116 C 
BRANCH  66  67
ATOM     67  N   UNL A   1      35.490  23.247  26.826  1.00  0.00    -0.354 N 
ATOM     68  C   UNL A   1      34.163  22.898  26.835  1.00  0.00     0.243 C 
ATOM     69  H   UNL A   1      35.990  23.035  27.647  1.00  0.00     0.163 HD
ATOM     70  O   UNL A   1      33.737  22.399  27.884  1.00  0.00    -0.273 OA
BRANCH  68  71
ATOM     71  C   UNL A   1      33.282  23.145  25.547  1.00  0.00     0.179 C 
ATOM     72  C   UNL A   1      33.206  21.947  24.561  1.00  0.00     0.057 C 
ATOM     73  N   UNL A   1      31.859  22.901  25.737  1.00  0.00    -0.296 N 
ATOM     74  C   UNL A   1      31.912  21.529  25.283  1.00  0.00     0.126 C 
BRANCH  73  75
ATOM     75  C   UNL A   1      30.824  23.630  26.216  1.00  0.00     0.410 C 
ATOM     76  O   UNL A   1      30.339  23.456  27.328  1.00  0.00    -0.224 OA
BRANCH  75  77
ATOM     77  O   UNL A   1      30.348  24.507  25.295  1.00  0.00    -0.448 OA
BRANCH  77  78
ATOM     78  C   UNL A   1      30.293  25.900  25.689  1.00  0.00     0.248 C 
BRANCH  78  79
ATOM     79  C   UNL A   1      31.112  26.791  24.730  1.00  0.00     0.088 C 
ATOM     80  C   UNL A   1      30.294  27.902  24.070  1.00  0.00    -0.029 A 
ATOM     81  C   UNL A   1      32.173  27.610  25.472  1.00  0.00    -0.029 A 
ATOM     82  C   UNL A   1      29.235  27.798  23.182  1.00  0.00     0.005 A 
ATOM     83  C   UNL A   1      30.778  29.169  24.459  1.00  0.00    -0.014 A 
ATOM     84  C   UNL A   1      31.940  28.991  25.300  1.00  0.00    -0.014 A 
ATOM     85  C   UNL A   1      33.268  27.158  26.195  1.00  0.00     0.005 A 
ATOM     86  C   UNL A   1      28.610  28.968  22.742  1.00  0.00     0.000 A 
ATOM     87  C   UNL A   1      30.167  30.333  24.014  1.00  0.00     0.009 A 
ATOM     88  C   UNL A   1      32.793  29.930  25.856  1.00  0.00     0.009 A 
ATOM     89  C   UNL A   1      34.129  28.105  26.757  1.00  0.00     0.000 A 
ATOM     90  C   UNL A   1      29.066  30.225  23.161  1.00  0.00     0.001 A 
ATOM     91  C   UNL A   1      33.893  29.480  26.590  1.00  0.00     0.001 A 
ENDBRANCH  78  79
ENDBRANCH  77  78
ENDBRANCH  75  77
ENDBRANCH  73  75
ENDBRANCH  68  71
ENDBRANCH  66  67
ENDBRANCH  65  66
ENDBRANCH   1  65
TORSDOF 17
ENDMDL
MODEL 2
REMARK VINA RESULT:     -12.3      0.664      6.205
REMARK SMILES O=C(NCCCCCCNC(=O)[C@H]1CCN1C(=O)OCC1c2ccccc2-c2ccccc21)c1ccc(-c2c3nc(c(-c4c(F)cccc4F)c4ccc([nH]4)c(-c4c(F)cccc4F)c4nc(c(-c5c(F)cccc5F)c5ccc2[nH]5)C=C4)C=C3)cc1
REMARK SMILES IDX 7 1 6 2 5 3 4 4 3 5 1 6 2 7 34 9 35 10 87 11 36 12 86 13
REMARK SMILES IDX 37 14 38 15 39 16 80 17 40 18 85 19 79 20 81 21 41 22 84 23
REMARK SMILES IDX 78 24 77 25 42 27 68 28 51 29 67 30 52 31 55 32 66 33 82 34
REMARK SMILES IDX 53 35 54 36 65 38 83 39 56 40 43 41 44 42 49 43 45 44 46 45
REMARK SMILES IDX 48 46 50 47 47 48 69 49 70 50 75 51 71 52 72 53 74 54 76 55
REMARK SMILES IDX 73 56 57 57 58 58 63 59 59 60 60 61 62 62 64 63 61 64 8 65
REMARK SMILES IDX 9 66 10 67 11 68 12 70 13 71 14 72 16 73 15 74 17 75 18 76
REMARK SMILES IDX 19 77 20 78 21 79 22 80 33 81 23 82 27 83 28 84 32 85 24 86
REMARK SMILES IDX 26 87 29 88 31 89 25 90 30 91
REMARK H PARENT 3 8 81 26 55 37 10 69
REMARK Flexibility Score: inf
ROOT
ATOM      1  C   UNL A   1      37.209  21.990  24.352  1.00  0.00     0.002 C 
ENDROOT
BRANCH   1   2
ATOM      2  C   UNL A   1      36.912  20.580  24.874  1.00  0.00     0.002 C 
BRANCH   2   3
ATOM      3  C   UNL A   1      38.108  19.627  24.914  1.00  0.00     0.021 C 
BRANCH   3   4
ATOM      4  C   UNL A   1      39.265  20.089  25.790  1.00  0.00     0.116 C 
BRANCH   4   5
ATOM      5  N   UNL A   1      40.331  19.106  25.853  1.00  0.00    -0.352 N 
ATOM      6  O   UNL A   1      42.469  18.390  25.948  1.00  0.00    -0.269 OA
ATOM      7  C   UNL A   1      41.667  19.306  26.101  1.00  0.00     0.251 C 
ATOM      8  H   UNL A   1      40.061  18.173  25.698  1.00  0.00     0.163 HD
BRANCH   7   9
ATOM      9  C   UNL A   1      42.143  20.634  26.544  1.00  0.00     0.039 A 
ATOM     10  C   UNL A   1      42.628  21.566  25.619  1.00  0.00     0.014 A 
ATOM     11  C   UNL A   1      42.054  20.968  27.898  1.00  0.00     0.014 A 
ATOM     12  C   UNL A   1      43.094  22.801  26.060  1.00  0.00     0.010 A 
ATOM     13  C   UNL A   1      42.466  22.230  28.332  1.00  0.00     0.010 A 
ATOM     14  C   UNL A   1      42.990  23.155  27.415  1.00  0.00    -0.014 A 
BRANCH  14  15
ATOM     15  C   UNL A   1      43.309  24.541  27.833  1.00  0.00     0.031 A 
ATOM     16  C   UNL A   1      42.229  25.545  28.107  1.00  0.00     0.074 A 
ATOM     17  C   UNL A   1      44.607  24.885  27.945  1.00  0.00     0.049 A 
ATOM     18  N   UNL A   1      42.349  26.797  28.469  1.00  0.00    -0.248 NA
ATOM     19  C   UNL A   1      40.838  25.095  27.953  1.00  0.00     0.031 C 
ATOM     20  C   UNL A   1      45.739  23.996  27.671  1.00  0.00     0.029 A 
ATOM     21  N   UNL A   1      45.193  26.067  28.314  1.00  0.00    -0.354 N 
ATOM     22  C   UNL A   1      41.056  27.291  28.569  1.00  0.00     0.074 A 
ATOM     23  C   UNL A   1      40.163  26.206  28.219  1.00  0.00     0.031 C 
ATOM     24  C   UNL A   1      46.883  24.657  27.901  1.00  0.00     0.029 A 
ATOM     25  C   UNL A   1      46.566  26.025  28.289  1.00  0.00     0.049 A 
ATOM     26  H   UNL A   1      44.682  26.867  28.573  1.00  0.00     0.167 HD
ATOM     27  C   UNL A   1      40.657  28.536  28.924  1.00  0.00     0.037 A 
ATOM     28  C   UNL A   1      47.473  26.991  28.528  1.00  0.00     0.037 A 
ATOM     29  C   UNL A   1      41.552  29.603  29.292  1.00  0.00     0.049 A 
ATOM     30  C   UNL A   1      46.998  28.361  28.901  1.00  0.00     0.074 A 
ATOM     31  C   UNL A   1      41.238  30.870  29.752  1.00  0.00     0.029 A 
ATOM     32  N   UNL A   1      42.935  29.532  29.230  1.00  0.00    -0.354 N 
ATOM     33  N   UNL A   1      45.770  28.792  29.060  1.00  0.00    -0.248 NA
ATOM     34  C   UNL A   1      48.029  29.384  29.118  1.00  0.00     0.031 C 
ATOM     35  C   UNL A   1      42.430  31.581  29.927  1.00  0.00     0.029 A 
ATOM     36  C   UNL A   1      43.487  30.745  29.608  1.00  0.00     0.049 A 
ATOM     37  H   UNL A   1      43.448  28.737  28.957  1.00  0.00     0.167 HD
ATOM     38  C   UNL A   1      45.881  30.134  29.394  1.00  0.00     0.074 A 
ATOM     39  C   UNL A   1      47.296  30.438  29.443  1.00  0.00     0.031 C 
ATOM     40  C   UNL A   1      44.898  31.034  29.632  1.00  0.00     0.037 A 
BRANCH  27  41
ATOM     41  C   UNL A   1      39.188  28.828  28.930  1.00  0.00     0.057 A 
ATOM     42  C   UNL A   1      38.409  28.670  30.082  1.00  0.00     0.134 A 
ATOM     43  C   UNL A   1      38.564  29.361  27.794  1.00  0.00     0.134 A 
ATOM     44  F   UNL A   1      38.946  28.158  31.200  1.00  0.00    -0.206 F 
ATOM     45  C   UNL A   1      37.060  29.029  30.105  1.00  0.00     0.040 A 
ATOM     46  C   UNL A   1      37.220  29.737  27.809  1.00  0.00     0.040 A 
ATOM     47  F   UNL A   1      39.258  29.543  26.660  1.00  0.00    -0.206 F 
ATOM     48  C   UNL A   1      36.465  29.573  28.968  1.00  0.00     0.006 A 
ENDBRANCH  27  41
BRANCH  28  49
ATOM     49  C   UNL A   1      48.919  26.693  28.390  1.00  0.00     0.057 A 
ATOM     50  C   UNL A   1      49.563  26.790  27.152  1.00  0.00     0.134 A 
ATOM     51  C   UNL A   1      49.689  26.313  29.496  1.00  0.00     0.134 A 
ATOM     52  F   UNL A   1      48.871  27.133  26.056  1.00  0.00    -0.206 F 
ATOM     53  C   UNL A   1      50.923  26.507  27.016  1.00  0.00     0.040 A 
ATOM     54  C   UNL A   1      51.054  26.050  29.378  1.00  0.00     0.040 A 
ATOM     55  F   UNL A   1      49.127  26.210  30.708  1.00  0.00    -0.206 F 
ATOM     56  C   UNL A   1      51.673  26.141  28.133  1.00  0.00     0.006 A 
ENDBRANCH  28  49
BRANCH  40  57
ATOM     57  C   UNL A   1      45.327  32.431  29.955  1.00  0.00     0.057 A 
ATOM     58  C   UNL A   1      45.626  32.815  31.268  1.00  0.00     0.134 A 
ATOM     59  C   UNL A   1      45.457  33.395  28.948  1.00  0.00     0.134 A 
ATOM     60  F   UNL A   1      45.502  31.940  32.276  1.00  0.00    -0.206 F 
ATOM     61  C   UNL A   1      46.025  34.117  31.571  1.00  0.00     0.040 A 
ATOM     62  C   UNL A   1      45.875  34.694  29.237  1.00  0.00     0.040 A 
ATOM     63  F   UNL A   1      45.188  33.086  27.671  1.00  0.00    -0.206 F 
ATOM     64  C   UNL A   1      46.155  35.060  30.552  1.00  0.00     0.006 A 
ENDBRANCH  40  57
ENDBRANCH  14  15
ENDBRANCH   7   9
ENDBRANCH   4   5
ENDBRANCH   3   4
ENDBRANCH   2   3
ENDBRANCH   1   2
BRANCH   1  65
ATOM     65  C   UNL A   1      37.533  23.043  25.421  1.00  0.00     0.021 C 
BRANCH  65  66
ATOM     66  C   UNL A   1      36.317  23.761  26.006  1.00  0.00     0.116 C 
BRANCH  66  67
ATOM     67  N   UNL A   1      35.580  22.909  26.909  1.00  0.00    -0.354 N 
ATOM     68  C   UNL A   1      34.297  22.436  26.798  1.00  0.00     0.243 C 
ATOM     69  H   UNL A   1      36.066  22.629  27.719  1.00  0.00     0.163 HD
ATOM     70  O   UNL A   1      33.883  21.752  27.742  1.00  0.00    -0.273 OA
BRANCH  68  71
ATOM     71  C   UNL A   1      33.447  22.781  25.512  1.00  0.00     0.179 C 
ATOM     72  C   UNL A   1      33.345  21.639  24.464  1.00  0.00     0.057 C 
ATOM     73  N   UNL A   1      32.013  22.580  25.667  1.00  0.00    -0.296 N 
ATOM     74  C   UNL A   1      32.025  21.232  25.143  1.00  0.00     0.126 C 
BRANCH  73  75
ATOM     75  C   UNL A   1      30.997  23.321  26.167  1.00  0.00     0.410 C 
ATOM     76  O   UNL A   1      30.723  23.364  27.361  1.00  0.00    -0.224 OA
BRANCH  75  77
ATOM     77  O   UNL A   1      30.283  23.934  25.189  1.00  0.00    -0.448 OA
BRANCH  77  78
ATOM     78  C   UNL A   1      30.923  25.046  24.515  1.00  0.00     0.248 C 
BRANCH  78  79
ATOM     79  C   UNL A   1      30.594  26.388  25.204  1.00  0.00     0.088 C 
ATOM     80  C   UNL A   1      31.829  27.226  25.544  1.00  0.00    -0.029 A 
ATOM     81  C   UNL A   1      29.841  27.343  24.271  1.00  0.00    -0.029 A 
ATOM     82  C   UNL A   1      32.859  26.944  26.427  1.00  0.00     0.005 A 
ATOM     83  C   UNL A   1      31.810  28.444  24.833  1.00  0.00    -0.014 A 
ATOM     84  C   UNL A   1      30.585  28.525  24.071  1.00  0.00    -0.014 A 
ATOM     85  C   UNL A   1      28.589  27.183  23.696  1.00  0.00     0.005 A 
ATOM     86  C   UNL A   1      33.914  27.853  26.540  1.00  0.00     0.000 A 
ATOM     87  C   UNL A   1      32.850  29.355  24.953  1.00  0.00     0.009 A 
ATOM     88  C   UNL A   1      30.088  29.553  23.285  1.00  0.00     0.009 A 
ATOM     89  C   UNL A   1      28.087  28.220  22.903  1.00  0.00     0.000 A 
ATOM     90  C   UNL A   1      33.914  29.046  25.803  1.00  0.00     0.001 A 
ATOM     91  C   UNL A   1      28.830  29.394  22.698  1.00  0.00     0.001 A 
ENDBRANCH  78  79
ENDBRANCH  77  78
ENDBRANCH  75  77
ENDBRANCH  73  75
ENDBRANCH  68  71
ENDBRANCH  66  67
ENDBRANCH  65  66
ENDBRANCH   1  65
TORSDOF 17
ENDMDL
MODEL 3
REMARK VINA RESULT:     -12.2      1.660      6.419
REMARK SMILES O=C(NCCCCCCNC(=O)[C@H]1CCN1C(=O)OCC1c2ccccc2-c2ccccc21)c1ccc(-c2c3nc(c(-c4c(F)cccc4F)c4ccc([nH]4)c(-c4c(F)cccc4F)c4nc(c(-c5c(F)cccc5F)c5ccc2[nH]5)C=C4)C=C3)cc1
REMARK SMILES IDX 7 1 6 2 5 3 4 4 3 5 1 6 2 7 34 9 35 10 87 11 36 12 86 13
REMARK SMILES IDX 37 14 38 15 39 16 80 17 40 18 85 19 79 20 81 21 41 22 84 23
REMARK SMILES IDX 78 24 77 25 42 27 68 28 51 29 67 30 52 31 55 32 66 33 82 34
REMARK SMILES IDX 53 35 54 36 65 38 83 39 56 40 43 41 44 42 49 43 45 44 46 45
REMARK SMILES IDX 48 46 50 47 47 48 69 49 70 50 75 51 71 52 72 53 74 54 76 55
REMARK SMILES IDX 73 56 57 57 58 58 63 59 59 60 60 61 62 62 64 63 61 64 8 65
REMARK SMILES IDX 9 66 10 67 11 68 12 70 13 71 14 72 16 73 15 74 17 75 18 76
REMARK SMILES IDX 19 77 20 78 21 79 22 80 33 81 23 82 27 83 28 84 32 85 24 86
REMARK SMILES IDX 26 87 29 88 31 89 25 90 30 91
REMARK H PARENT 3 8 81 26 55 37 10 69
REMARK Flexibility Score: inf
ROOT
ATOM      1  C   UNL A   1      35.810  21.471  26.099  1.00  0.00     0.002 C 
ENDROOT
BRANCH   1   2
ATOM      2  C   UNL A   1      36.032  20.335  25.095  1.00  0.00     0.002 C 
BRANCH   2   3
ATOM      3  C   UNL A   1      37.467  20.174  24.589  1.00  0.00     0.021 C 
BRANCH   3   4
ATOM      4  C   UNL A   1      38.546  20.518  25.606  1.00  0.00     0.116 C 
BRANCH   4   5
ATOM      5  N   UNL A   1      39.577  19.498  25.677  1.00  0.00    -0.352 N 
ATOM      6  O   UNL A   1      41.682  18.709  25.866  1.00  0.00    -0.269 OA
ATOM      7  C   UNL A   1      40.898  19.639  26.023  1.00  0.00     0.251 C 
ATOM      8  H   UNL A   1      39.290  18.585  25.448  1.00  0.00     0.163 HD
BRANCH   7   9
ATOM      9  C   UNL A   1      41.382  20.922  26.577  1.00  0.00     0.039 A 
ATOM     10  C   UNL A   1      41.880  21.923  25.735  1.00  0.00     0.014 A 
ATOM     11  C   UNL A   1      41.288  21.143  27.953  1.00  0.00     0.014 A 
ATOM     12  C   UNL A   1      42.353  23.114  26.279  1.00  0.00     0.010 A 
ATOM     13  C   UNL A   1      41.708  22.362  28.492  1.00  0.00     0.010 A 
ATOM     14  C   UNL A   1      42.244  23.355  27.658  1.00  0.00    -0.014 A 
BRANCH  14  15
ATOM     15  C   UNL A   1      42.571  24.698  28.192  1.00  0.00     0.031 A 
ATOM     16  C   UNL A   1      41.513  25.745  28.385  1.00  0.00     0.074 A 
ATOM     17  C   UNL A   1      43.858  24.966  28.485  1.00  0.00     0.049 A 
ATOM     18  N   UNL A   1      41.644  26.969  28.830  1.00  0.00    -0.248 NA
ATOM     19  C   UNL A   1      40.134  25.378  28.032  1.00  0.00     0.031 C 
ATOM     20  C   UNL A   1      44.974  24.033  28.305  1.00  0.00     0.029 A 
ATOM     21  N   UNL A   1      44.447  26.095  28.991  1.00  0.00    -0.354 N 
ATOM     22  C   UNL A   1      40.374  27.525  28.795  1.00  0.00     0.074 A 
ATOM     23  C   UNL A   1      39.483  26.509  28.274  1.00  0.00     0.031 C 
ATOM     24  C   UNL A   1      46.108  24.619  28.713  1.00  0.00     0.029 A 
ATOM     25  C   UNL A   1      45.809  25.981  29.136  1.00  0.00     0.049 A 
ATOM     26  H   UNL A   1      43.945  26.908  29.229  1.00  0.00     0.167 HD
ATOM     27  C   UNL A   1      39.991  28.770  29.167  1.00  0.00     0.037 A 
ATOM     28  C   UNL A   1      46.722  26.883  29.542  1.00  0.00     0.037 A 
ATOM     29  C   UNL A   1      40.881  29.767  29.705  1.00  0.00     0.049 A 
ATOM     30  C   UNL A   1      46.267  28.257  29.930  1.00  0.00     0.074 A 
ATOM     31  C   UNL A   1      40.570  31.025  30.194  1.00  0.00     0.029 A 
ATOM     32  N   UNL A   1      42.255  29.626  29.813  1.00  0.00    -0.354 N 
ATOM     33  N   UNL A   1      45.051  28.744  29.958  1.00  0.00    -0.248 NA
ATOM     34  C   UNL A   1      47.309  29.210  30.333  1.00  0.00     0.031 C 
ATOM     35  C   UNL A   1      41.761  31.660  30.557  1.00  0.00     0.029 A 
ATOM     36  C   UNL A   1      42.810  30.787  30.325  1.00  0.00     0.049 A 
ATOM     37  H   UNL A   1      42.762  28.819  29.561  1.00  0.00     0.167 HD
ATOM     38  C   UNL A   1      45.180  30.059  30.380  1.00  0.00     0.074 A 
ATOM     39  C   UNL A   1      46.591  30.284  30.623  1.00  0.00     0.031 C 
ATOM     40  C   UNL A   1      44.218  30.997  30.543  1.00  0.00     0.037 A 
BRANCH  27  41
ATOM     41  C   UNL A   1      38.549  29.140  29.006  1.00  0.00     0.057 A 
ATOM     42  C   UNL A   1      37.666  29.157  30.091  1.00  0.00     0.134 A 
ATOM     43  C   UNL A   1      38.060  29.573  27.766  1.00  0.00     0.134 A 
ATOM     44  F   UNL A   1      38.071  28.748  31.304  1.00  0.00    -0.206 F 
ATOM     45  C   UNL A   1      36.345  29.589  29.950  1.00  0.00     0.040 A 
ATOM     46  C   UNL A   1      36.747  30.020  27.615  1.00  0.00     0.040 A 
ATOM     47  F   UNL A   1      38.858  29.586  26.688  1.00  0.00    -0.206 F 
ATOM     48  C   UNL A   1      35.885  30.031  28.711  1.00  0.00     0.006 A 
ENDBRANCH  27  41
BRANCH  28  49
ATOM     49  C   UNL A   1      48.158  26.516  29.569  1.00  0.00     0.057 A 
ATOM     50  C   UNL A   1      48.992  26.772  28.477  1.00  0.00     0.134 A 
ATOM     51  C   UNL A   1      48.728  25.907  30.694  1.00  0.00     0.134 A 
ATOM     52  F   UNL A   1      48.496  27.337  27.366  1.00  0.00    -0.206 F 
ATOM     53  C   UNL A   1      50.343  26.424  28.495  1.00  0.00     0.040 A 
ATOM     54  C   UNL A   1      50.083  25.576  30.735  1.00  0.00     0.040 A 
ATOM     55  F   UNL A   1      47.979  25.643  31.774  1.00  0.00    -0.206 F 
ATOM     56  C   UNL A   1      50.893  25.829  29.630  1.00  0.00     0.006 A 
ENDBRANCH  28  49
BRANCH  40  57
ATOM     57  C   UNL A   1      44.667  32.351  30.996  1.00  0.00     0.057 A 
ATOM     58  C   UNL A   1      44.979  33.360  30.077  1.00  0.00     0.134 A 
ATOM     59  C   UNL A   1      44.775  32.655  32.359  1.00  0.00     0.134 A 
ATOM     60  F   UNL A   1      44.913  33.123  28.759  1.00  0.00    -0.206 F 
ATOM     61  C   UNL A   1      45.399  34.623  30.497  1.00  0.00     0.040 A 
ATOM     62  C   UNL A   1      45.174  33.920  32.791  1.00  0.00     0.040 A 
ATOM     63  F   UNL A   1      44.486  31.732  33.287  1.00  0.00    -0.206 F 
ATOM     64  C   UNL A   1      45.492  34.906  31.859  1.00  0.00     0.006 A 
ENDBRANCH  40  57
ENDBRANCH  14  15
ENDBRANCH   7   9
ENDBRANCH   4   5
ENDBRANCH   3   4
ENDBRANCH   2   3
ENDBRANCH   1   2
BRANCH   1  65
ATOM     65  C   UNL A   1      34.390  21.592  26.669  1.00  0.00     0.021 C 
BRANCH  65  66
ATOM     66  C   UNL A   1      33.848  23.018  26.748  1.00  0.00     0.116 C 
BRANCH  66  67
ATOM     67  N   UNL A   1      32.592  23.150  26.048  1.00  0.00    -0.354 N 
ATOM     68  C   UNL A   1      32.359  23.582  24.767  1.00  0.00     0.243 C 
ATOM     69  H   UNL A   1      31.792  22.894  26.561  1.00  0.00     0.163 HD
ATOM     70  O   UNL A   1      31.173  23.644  24.418  1.00  0.00    -0.273 OA
BRANCH  68  71
ATOM     71  C   UNL A   1      33.578  23.965  23.838  1.00  0.00     0.179 C 
ATOM     72  C   UNL A   1      34.217  22.779  23.066  1.00  0.00     0.057 C 
ATOM     73  N   UNL A   1      33.199  24.442  22.515  1.00  0.00    -0.296 N 
ATOM     74  C   UNL A   1      33.294  23.142  21.889  1.00  0.00     0.126 C 
BRANCH  73  75
ATOM     75  C   UNL A   1      32.824  25.638  22.005  1.00  0.00     0.410 C 
ATOM     76  O   UNL A   1      33.607  26.412  21.466  1.00  0.00    -0.224 OA
BRANCH  75  77
ATOM     77  O   UNL A   1      31.513  25.903  22.234  1.00  0.00    -0.448 OA
BRANCH  77  78
ATOM     78  C   UNL A   1      31.108  27.293  22.176  1.00  0.00     0.248 C 
BRANCH  78  79
ATOM     79  C   UNL A   1      30.435  27.740  23.493  1.00  0.00     0.088 C 
ATOM     80  C   UNL A   1      31.422  28.232  24.554  1.00  0.00    -0.029 A 
ATOM     81  C   UNL A   1      29.568  28.988  23.299  1.00  0.00    -0.029 A 
ATOM     82  C   UNL A   1      32.414  27.527  25.217  1.00  0.00     0.005 A 
ATOM     83  C   UNL A   1      31.192  29.592  24.849  1.00  0.00    -0.014 A 
ATOM     84  C   UNL A   1      30.045  30.049  24.098  1.00  0.00    -0.014 A 
ATOM     85  C   UNL A   1      28.433  29.142  22.516  1.00  0.00     0.005 A 
ATOM     86  C   UNL A   1      33.229  28.209  26.125  1.00  0.00     0.000 A 
ATOM     87  C   UNL A   1      31.991  30.268  25.760  1.00  0.00     0.009 A 
ATOM     88  C   UNL A   1      29.398  31.275  24.112  1.00  0.00     0.009 A 
ATOM     89  C   UNL A   1      27.780  30.378  22.530  1.00  0.00     0.000 A 
ATOM     90  C   UNL A   1      33.025  29.570  26.389  1.00  0.00     0.001 A 
ATOM     91  C   UNL A   1      28.259  31.436  23.320  1.00  0.00     0.001 A 
ENDBRANCH  78  79
ENDBRANCH  77  78
ENDBRANCH  75  77
ENDBRANCH  73  75
ENDBRANCH  68  71
ENDBRANCH  66  67
ENDBRANCH  65  66
ENDBRANCH   1  65
TORSDOF 17
ENDMDL
