MODEL 1
REMARK VINA RESULT:     -11.6      0.000      0.000
REMARK SMILES CC1=NN(c2ccc(C(=O)NCCCCCCNC(=O)c3ccc(-c4c5nc(c(-c6c(F)cccc6F)c6ccc([nH]6)c(-c6c(F)cccc6F)c6nc(c(-c7c(F)cccc7F)c7ccc4[nH]7)C=C6)C=C5)cc3)cc2)C(=O)/C1=C\c1ccc(N2CCCC2)cc1
REMARK SMILES IDX 14 1 13 2 12 3 11 4 9 5 10 6 8 8 5 9 6 10 76 11 7 12 75 13
REMARK SMILES IDX 4 14 1 15 2 16 3 17 79 18 77 19 80 20 78 21 81 22 82 23
REMARK SMILES IDX 91 24 83 25 90 26 84 27 85 28 86 29 89 30 87 31 88 32 15 33
REMARK SMILES IDX 16 34 17 35 18 36 19 37 20 39 21 40 22 41 74 42 23 43 73 44
REMARK SMILES IDX 24 45 25 46 26 47 67 48 27 49 72 50 66 51 68 52 28 53 71 54
REMARK SMILES IDX 65 55 64 56 29 58 55 59 38 60 54 61 39 62 42 63 53 64 69 65
REMARK SMILES IDX 40 66 41 67 52 69 70 70 43 71 30 72 31 73 36 74 32 75 33 76
REMARK SMILES IDX 35 77 37 78 34 79 56 80 57 81 62 82 58 83 59 84 61 85 63 86
REMARK SMILES IDX 60 87 44 88 45 89 50 90 46 91 47 92 49 93 51 94 48 95
REMARK H PARENT 11 7 18 38 68 57 42 68
REMARK Flexibility Score: inf
ROOT
ATOM      1  C   UNL A   1      40.445  27.791  27.775  1.00  0.00     0.002 C 
ENDROOT
BRANCH   1   2
ATOM      2  C   UNL A   1      40.774  29.071  28.553  1.00  0.00     0.021 C 
BRANCH   2   3
ATOM      3  C   UNL A   1      40.298  29.010  30.007  1.00  0.00     0.116 C 
BRANCH   3   4
ATOM      4  N   UNL A   1      40.038  30.354  30.489  1.00  0.00    -0.352 N 
ATOM      5  C   UNL A   1      39.049  31.266  30.227  1.00  0.00     0.251 C 
ATOM      6  O   UNL A   1      39.146  32.373  30.761  1.00  0.00    -0.269 OA
ATOM      7  H   UNL A   1      40.710  30.676  31.133  1.00  0.00     0.163 HD
BRANCH   5   8
ATOM      8  C   UNL A   1      37.844  30.960  29.405  1.00  0.00     0.039 A 
ATOM      9  C   UNL A   1      35.400  30.617  28.069  1.00  0.00     0.069 A 
ATOM     10  C   UNL A   1      36.034  31.857  28.033  1.00  0.00     0.029 A 
ATOM     11  C   UNL A   1      36.033  29.534  28.679  1.00  0.00     0.029 A 
ATOM     12  C   UNL A   1      37.231  32.035  28.737  1.00  0.00     0.016 A 
ATOM     13  C   UNL A   1      37.281  29.692  29.276  1.00  0.00     0.016 A 
BRANCH   9  14
ATOM     14  N   UNL A   1      34.125  30.443  27.521  1.00  0.00    -0.196 N 
ATOM     15  C   UNL A   1      31.143  32.074  26.380  1.00  0.00     0.069 C 
ATOM     16  C   UNL A   1      32.265  31.163  26.746  1.00  0.00     0.071 C 
ATOM     17  N   UNL A   1      33.237  31.503  27.552  1.00  0.00    -0.169 NA
ATOM     18  C   UNL A   1      32.417  29.790  26.226  1.00  0.00     0.065 C 
ATOM     19  C   UNL A   1      33.763  29.377  26.689  1.00  0.00     0.280 C 
ATOM     20  C   UNL A   1      31.507  29.063  25.565  1.00  0.00     0.024 C 
ATOM     21  O   UNL A   1      34.379  28.376  26.388  1.00  0.00    -0.267 OA
BRANCH  20  22
ATOM     22  C   UNL A   1      31.666  27.627  25.306  1.00  0.00    -0.025 A 
ATOM     23  C   UNL A   1      32.175  27.157  24.097  1.00  0.00     0.010 A 
ATOM     24  C   UNL A   1      31.302  26.699  26.289  1.00  0.00     0.010 A 
ATOM     25  C   UNL A   1      32.341  25.777  23.893  1.00  0.00     0.026 A 
ATOM     26  C   UNL A   1      31.463  25.328  26.069  1.00  0.00     0.026 A 
ATOM     27  C   UNL A   1      31.984  24.835  24.869  1.00  0.00     0.037 A 
BRANCH  27  28
ATOM     28  N   UNL A   1      32.173  23.489  24.653  1.00  0.00    -0.372 N 
ATOM     29  C   UNL A   1      33.217  22.696  25.293  1.00  0.00     0.116 C 
ATOM     30  C   UNL A   1      31.736  22.894  23.390  1.00  0.00     0.116 C 
ATOM     31  C   UNL A   1      33.714  21.787  24.174  1.00  0.00     0.023 C 
ATOM     32  C   UNL A   1      32.461  21.548  23.345  1.00  0.00     0.023 C 
ENDBRANCH  27  28
ENDBRANCH  20  22
ENDBRANCH   9  14
ENDBRANCH   5   8
ENDBRANCH   3   4
ENDBRANCH   2   3
ENDBRANCH   1   2
BRANCH   1  33
ATOM     33  C   UNL A   1      40.108  26.584  28.660  1.00  0.00     0.002 C 
BRANCH  33  34
ATOM     34  C   UNL A   1      39.283  25.498  27.965  1.00  0.00     0.021 C 
BRANCH  34  35
ATOM     35  C   UNL A   1      39.773  25.160  26.562  1.00  0.00     0.116 C 
BRANCH  35  36
ATOM     36  N   UNL A   1      40.505  23.901  26.548  1.00  0.00    -0.352 N 
ATOM     37  C   UNL A   1      41.840  23.679  26.337  1.00  0.00     0.251 C 
ATOM     38  H   UNL A   1      39.964  23.097  26.715  1.00  0.00     0.163 HD
ATOM     39  O   UNL A   1      42.251  22.549  26.091  1.00  0.00    -0.269 OA
BRANCH  37  40
ATOM     40  C   UNL A   1      42.785  24.812  26.400  1.00  0.00     0.039 A 
ATOM     41  C   UNL A   1      43.324  25.180  27.634  1.00  0.00     0.014 A 
ATOM     42  C   UNL A   1      43.131  25.512  25.240  1.00  0.00     0.014 A 
ATOM     43  C   UNL A   1      44.257  26.216  27.695  1.00  0.00     0.010 A 
ATOM     44  C   UNL A   1      44.116  26.490  25.291  1.00  0.00     0.010 A 
ATOM     45  C   UNL A   1      44.687  26.855  26.520  1.00  0.00    -0.014 A 
BRANCH  45  46
ATOM     46  C   UNL A   1      45.736  27.904  26.553  1.00  0.00     0.031 A 
ATOM     47  C   UNL A   1      45.349  29.353  26.665  1.00  0.00     0.074 A 
ATOM     48  C   UNL A   1      47.031  27.554  26.423  1.00  0.00     0.049 A 
ATOM     49  N   UNL A   1      46.110  30.417  26.622  1.00  0.00    -0.248 NA
ATOM     50  C   UNL A   1      43.916  29.647  26.824  1.00  0.00     0.031 C 
ATOM     51  C   UNL A   1      47.529  26.185  26.277  1.00  0.00     0.029 A 
ATOM     52  N   UNL A   1      48.165  28.324  26.384  1.00  0.00    -0.354 N 
ATOM     53  C   UNL A   1      45.251  31.501  26.749  1.00  0.00     0.074 A 
ATOM     54  C   UNL A   1      43.907  30.971  26.807  1.00  0.00     0.031 C 
ATOM     55  C   UNL A   1      48.869  26.211  26.187  1.00  0.00     0.029 A 
ATOM     56  C   UNL A   1      49.320  27.598  26.219  1.00  0.00     0.049 A 
ATOM     57  H   UNL A   1      48.154  29.306  26.467  1.00  0.00     0.167 HD
ATOM     58  C   UNL A   1      45.558  32.817  26.837  1.00  0.00     0.037 A 
ATOM     59  C   UNL A   1      50.596  28.006  26.092  1.00  0.00     0.037 A 
ATOM     60  C   UNL A   1      46.898  33.340  26.788  1.00  0.00     0.049 A 
ATOM     61  C   UNL A   1      50.900  29.480  26.137  1.00  0.00     0.074 A 
ATOM     62  C   UNL A   1      47.314  34.655  26.894  1.00  0.00     0.029 A 
ATOM     63  N   UNL A   1      48.039  32.571  26.616  1.00  0.00    -0.354 N 
ATOM     64  N   UNL A   1      50.083  30.490  26.311  1.00  0.00    -0.248 NA
ATOM     65  C   UNL A   1      52.307  29.870  25.971  1.00  0.00     0.031 C 
ATOM     66  C   UNL A   1      48.703  34.689  26.738  1.00  0.00     0.029 A 
ATOM     67  C   UNL A   1      49.158  33.389  26.593  1.00  0.00     0.049 A 
ATOM     68  H   UNL A   1      48.054  31.591  26.525  1.00  0.00     0.167 HD
ATOM     69  C   UNL A   1      50.880  31.628  26.312  1.00  0.00     0.074 A 
ATOM     70  C   UNL A   1      52.245  31.182  26.141  1.00  0.00     0.031 C 
ATOM     71  C   UNL A   1      50.514  32.927  26.440  1.00  0.00     0.037 A 
BRANCH  58  72
ATOM     72  C   UNL A   1      44.425  33.787  27.010  1.00  0.00     0.057 A 
ATOM     73  C   UNL A   1      43.970  34.168  28.279  1.00  0.00     0.134 A 
ATOM     74  C   UNL A   1      43.823  34.393  25.900  1.00  0.00     0.134 A 
ATOM     75  F   UNL A   1      44.496  33.616  29.383  1.00  0.00    -0.206 F 
ATOM     76  C   UNL A   1      42.946  35.103  28.439  1.00  0.00     0.040 A 
ATOM     77  C   UNL A   1      42.818  35.351  26.048  1.00  0.00     0.040 A 
ATOM     78  F   UNL A   1      44.213  34.080  24.656  1.00  0.00    -0.206 F 
ATOM     79  C   UNL A   1      42.374  35.705  27.321  1.00  0.00     0.006 A 
ENDBRANCH  58  72
BRANCH  59  80
ATOM     80  C   UNL A   1      51.692  27.019  25.909  1.00  0.00     0.057 A 
ATOM     81  C   UNL A   1      52.039  26.553  24.634  1.00  0.00     0.134 A 
ATOM     82  C   UNL A   1      52.383  26.476  26.999  1.00  0.00     0.134 A 
ATOM     83  F   UNL A   1      51.402  27.018  23.549  1.00  0.00    -0.206 F 
ATOM     84  C   UNL A   1      53.002  25.558  24.453  1.00  0.00     0.040 A 
ATOM     85  C   UNL A   1      53.371  25.505  26.831  1.00  0.00     0.040 A 
ATOM     86  F   UNL A   1      52.107  26.883  28.247  1.00  0.00    -0.206 F 
ATOM     87  C   UNL A   1      53.672  25.032  25.556  1.00  0.00     0.006 A 
ENDBRANCH  59  80
BRANCH  71  88
ATOM     88  C   UNL A   1      51.612  33.952  26.450  1.00  0.00     0.057 A 
ATOM     89  C   UNL A   1      52.055  34.579  25.279  1.00  0.00     0.134 A 
ATOM     90  C   UNL A   1      52.210  34.340  27.656  1.00  0.00     0.134 A 
ATOM     91  F   UNL A   1      51.534  34.244  24.089  1.00  0.00    -0.206 F 
ATOM     92  C   UNL A   1      53.074  35.533  25.304  1.00  0.00     0.040 A 
ATOM     93  C   UNL A   1      53.206  35.316  27.698  1.00  0.00     0.040 A 
ATOM     94  F   UNL A   1      51.825  33.787  28.818  1.00  0.00    -0.206 F 
ATOM     95  C   UNL A   1      53.647  35.908  26.517  1.00  0.00     0.006 A 
ENDBRANCH  71  88
ENDBRANCH  45  46
ENDBRANCH  37  40
ENDBRANCH  35  36
ENDBRANCH  34  35
ENDBRANCH  33  34
ENDBRANCH   1  33
TORSDOF 16
ENDMDL
MODEL 2
REMARK VINA RESULT:     -11.4      3.110      7.805
REMARK SMILES CC1=NN(c2ccc(C(=O)NCCCCCCNC(=O)c3ccc(-c4c5nc(c(-c6c(F)cccc6F)c6ccc([nH]6)c(-c6c(F)cccc6F)c6nc(c(-c7c(F)cccc7F)c7ccc4[nH]7)C=C6)C=C5)cc3)cc2)C(=O)/C1=C\c1ccc(N2CCCC2)cc1
REMARK SMILES IDX 14 1 13 2 12 3 11 4 9 5 10 6 8 8 5 9 6 10 76 11 7 12 75 13
REMARK SMILES IDX 4 14 1 15 2 16 3 17 79 18 77 19 80 20 78 21 81 22 82 23
REMARK SMILES IDX 91 24 83 25 90 26 84 27 85 28 86 29 89 30 87 31 88 32 15 33
REMARK SMILES IDX 16 34 17 35 18 36 19 37 20 39 21 40 22 41 74 42 23 43 73 44
REMARK SMILES IDX 24 45 25 46 26 47 67 48 27 49 72 50 66 51 68 52 28 53 71 54
REMARK SMILES IDX 65 55 64 56 29 58 55 59 38 60 54 61 39 62 42 63 53 64 69 65
REMARK SMILES IDX 40 66 41 67 52 69 70 70 43 71 30 72 31 73 36 74 32 75 33 76
REMARK SMILES IDX 35 77 37 78 34 79 56 80 57 81 62 82 58 83 59 84 61 85 63 86
REMARK SMILES IDX 60 87 44 88 45 89 50 90 46 91 47 92 49 93 51 94 48 95
REMARK H PARENT 11 7 18 38 68 57 42 68
REMARK Flexibility Score: inf
ROOT
ATOM      1  C   UNL A   1      39.305  33.959  30.963  1.00  0.00     0.002 C 
ENDROOT
BRANCH   1   2
ATOM      2  C   UNL A   1      38.591  34.810  29.906  1.00  0.00     0.021 C 
BRANCH   2   3
ATOM      3  C   UNL A   1      37.384  34.093  29.296  1.00  0.00     0.116 C 
BRANCH   3   4
ATOM      4  N   UNL A   1      36.231  34.262  30.161  1.00  0.00    -0.352 N 
ATOM      5  C   UNL A   1      34.926  33.852  30.069  1.00  0.00     0.251 C 
ATOM      6  O   UNL A   1      34.156  34.217  30.959  1.00  0.00    -0.269 OA
ATOM      7  H   UNL A   1      36.426  34.775  30.978  1.00  0.00     0.163 HD
BRANCH   5   8
ATOM      8  C   UNL A   1      34.424  32.938  29.005  1.00  0.00     0.039 A 
ATOM      9  C   UNL A   1      33.156  31.241  27.164  1.00  0.00     0.069 A 
ATOM     10  C   UNL A   1      32.765  32.575  27.249  1.00  0.00     0.029 A 
ATOM     11  C   UNL A   1      34.239  30.787  27.918  1.00  0.00     0.029 A 
ATOM     12  C   UNL A   1      33.371  33.407  28.198  1.00  0.00     0.016 A 
ATOM     13  C   UNL A   1      34.912  31.654  28.775  1.00  0.00     0.016 A 
BRANCH   9  14
ATOM     14  N   UNL A   1      32.467  30.338  26.348  1.00  0.00    -0.196 N 
ATOM     15  C   UNL A   1      29.910  29.947  23.865  1.00  0.00     0.069 C 
ATOM     16  C   UNL A   1      31.027  29.837  24.845  1.00  0.00     0.071 C 
ATOM     17  N   UNL A   1      31.294  30.752  25.740  1.00  0.00    -0.169 NA
ATOM     18  C   UNL A   1      31.968  28.701  24.902  1.00  0.00     0.065 C 
ATOM     19  C   UNL A   1      33.005  29.141  25.865  1.00  0.00     0.280 C 
ATOM     20  C   UNL A   1      31.854  27.517  24.287  1.00  0.00     0.024 C 
ATOM     21  O   UNL A   1      34.055  28.592  26.129  1.00  0.00    -0.267 OA
BRANCH  20  22
ATOM     22  C   UNL A   1      32.713  26.368  24.599  1.00  0.00    -0.025 A 
ATOM     23  C   UNL A   1      32.563  25.648  25.783  1.00  0.00     0.010 A 
ATOM     24  C   UNL A   1      33.706  25.977  23.695  1.00  0.00     0.010 A 
ATOM     25  C   UNL A   1      33.382  24.535  26.037  1.00  0.00     0.026 A 
ATOM     26  C   UNL A   1      34.522  24.874  23.964  1.00  0.00     0.026 A 
ATOM     27  C   UNL A   1      34.381  24.129  25.139  1.00  0.00     0.037 A 
BRANCH  27  28
ATOM     28  N   UNL A   1      35.159  23.024  25.401  1.00  0.00    -0.372 N 
ATOM     29  C   UNL A   1      36.578  22.927  25.079  1.00  0.00     0.116 C 
ATOM     30  C   UNL A   1      34.532  21.706  25.492  1.00  0.00     0.116 C 
ATOM     31  C   UNL A   1      36.733  21.501  24.562  1.00  0.00     0.023 C 
ATOM     32  C   UNL A   1      35.704  20.730  25.373  1.00  0.00     0.023 C 
ENDBRANCH  27  28
ENDBRANCH  20  22
ENDBRANCH   9  14
ENDBRANCH   5   8
ENDBRANCH   3   4
ENDBRANCH   2   3
ENDBRANCH   1   2
BRANCH   1  33
ATOM     33  C   UNL A   1      39.305  34.571  32.371  1.00  0.00     0.002 C 
BRANCH  33  34
ATOM     34  C   UNL A   1      37.971  34.457  33.112  1.00  0.00     0.021 C 
BRANCH  34  35
ATOM     35  C   UNL A   1      37.868  33.224  34.002  1.00  0.00     0.116 C 
BRANCH  35  36
ATOM     36  N   UNL A   1      36.658  32.466  33.717  1.00  0.00    -0.352 N 
ATOM     37  C   UNL A   1      36.416  31.570  32.709  1.00  0.00     0.251 C 
ATOM     38  H   UNL A   1      35.909  32.619  34.336  1.00  0.00     0.163 HD
ATOM     39  O   UNL A   1      35.269  31.223  32.449  1.00  0.00    -0.269 OA
BRANCH  37  40
ATOM     40  C   UNL A   1      37.547  31.027  31.931  1.00  0.00     0.039 A 
ATOM     41  C   UNL A   1      37.444  30.955  30.540  1.00  0.00     0.014 A 
ATOM     42  C   UNL A   1      38.705  30.584  32.578  1.00  0.00     0.014 A 
ATOM     43  C   UNL A   1      38.527  30.492  29.793  1.00  0.00     0.010 A 
ATOM     44  C   UNL A   1      39.809  30.196  31.829  1.00  0.00     0.010 A 
ATOM     45  C   UNL A   1      39.730  30.143  30.429  1.00  0.00    -0.014 A 
BRANCH  45  46
ATOM     46  C   UNL A   1      40.920  29.723  29.648  1.00  0.00     0.031 A 
ATOM     47  C   UNL A   1      41.035  28.309  29.149  1.00  0.00     0.074 A 
ATOM     48  C   UNL A   1      41.922  30.600  29.439  1.00  0.00     0.049 A 
ATOM     49  N   UNL A   1      42.030  27.729  28.528  1.00  0.00    -0.248 NA
ATOM     50  C   UNL A   1      39.888  27.422  29.401  1.00  0.00     0.031 C 
ATOM     51  C   UNL A   1      41.941  31.990  29.898  1.00  0.00     0.029 A 
ATOM     52  N   UNL A   1      43.123  30.449  28.793  1.00  0.00    -0.354 N 
ATOM     53  C   UNL A   1      41.630  26.416  28.317  1.00  0.00     0.074 A 
ATOM     54  C   UNL A   1      40.329  26.266  28.929  1.00  0.00     0.031 C 
ATOM     55  C   UNL A   1      43.086  32.570  29.501  1.00  0.00     0.029 A 
ATOM     56  C   UNL A   1      43.901  31.581  28.803  1.00  0.00     0.049 A 
ATOM     57  H   UNL A   1      43.401  29.607  28.363  1.00  0.00     0.167 HD
ATOM     58  C   UNL A   1      42.278  25.433  27.647  1.00  0.00     0.037 A 
ATOM     59  C   UNL A   1      45.139  31.793  28.318  1.00  0.00     0.037 A 
ATOM     60  C   UNL A   1      43.569  25.589  27.030  1.00  0.00     0.049 A 
ATOM     61  C   UNL A   1      45.857  30.664  27.628  1.00  0.00     0.074 A 
ATOM     62  C   UNL A   1      44.296  24.660  26.308  1.00  0.00     0.029 A 
ATOM     63  N   UNL A   1      44.326  26.751  27.066  1.00  0.00    -0.354 N 
ATOM     64  N   UNL A   1      45.444  29.442  27.389  1.00  0.00    -0.248 NA
ATOM     65  C   UNL A   1      47.214  30.944  27.139  1.00  0.00     0.031 C 
ATOM     66  C   UNL A   1      45.514  25.243  25.947  1.00  0.00     0.029 A 
ATOM     67  C   UNL A   1      45.522  26.554  26.395  1.00  0.00     0.049 A 
ATOM     68  H   UNL A   1      44.054  27.591  27.503  1.00  0.00     0.167 HD
ATOM     69  C   UNL A   1      46.473  28.824  26.690  1.00  0.00     0.074 A 
ATOM     70  C   UNL A   1      47.520  29.809  26.529  1.00  0.00     0.031 C 
ATOM     71  C   UNL A   1      46.547  27.552  26.226  1.00  0.00     0.037 A 
BRANCH  58  72
ATOM     72  C   UNL A   1      41.594  24.101  27.533  1.00  0.00     0.057 A 
ATOM     73  C   UNL A   1      40.592  23.868  26.582  1.00  0.00     0.134 A 
ATOM     74  C   UNL A   1      41.983  23.023  28.338  1.00  0.00     0.134 A 
ATOM     75  F   UNL A   1      40.165  24.861  25.788  1.00  0.00    -0.206 F 
ATOM     76  C   UNL A   1      39.989  22.617  26.448  1.00  0.00     0.040 A 
ATOM     77  C   UNL A   1      41.408  21.759  28.192  1.00  0.00     0.040 A 
ATOM     78  F   UNL A   1      42.942  23.173  29.264  1.00  0.00    -0.206 F 
ATOM     79  C   UNL A   1      40.404  21.555  27.248  1.00  0.00     0.006 A 
ENDBRANCH  58  72
BRANCH  59  80
ATOM     80  C   UNL A   1      45.791  33.121  28.461  1.00  0.00     0.057 A 
ATOM     81  C   UNL A   1      45.695  34.086  27.450  1.00  0.00     0.134 A 
ATOM     82  C   UNL A   1      46.568  33.441  29.581  1.00  0.00     0.134 A 
ATOM     83  F   UNL A   1      44.982  33.834  26.343  1.00  0.00    -0.206 F 
ATOM     84  C   UNL A   1      46.378  35.301  27.528  1.00  0.00     0.040 A 
ATOM     85  C   UNL A   1      47.230  34.665  29.689  1.00  0.00     0.040 A 
ATOM     86  F   UNL A   1      46.696  32.566  30.590  1.00  0.00    -0.206 F 
ATOM     87  C   UNL A   1      47.148  35.593  28.653  1.00  0.00     0.006 A 
ENDBRANCH  59  80
BRANCH  71  88
ATOM     88  C   UNL A   1      47.779  27.172  25.457  1.00  0.00     0.057 A 
ATOM     89  C   UNL A   1      48.905  26.620  26.081  1.00  0.00     0.134 A 
ATOM     90  C   UNL A   1      47.825  27.331  24.066  1.00  0.00     0.134 A 
ATOM     91  F   UNL A   1      48.932  26.452  27.412  1.00  0.00    -0.206 F 
ATOM     92  C   UNL A   1      50.043  26.268  25.353  1.00  0.00     0.040 A 
ATOM     93  C   UNL A   1      48.944  26.953  23.323  1.00  0.00     0.040 A 
ATOM     94  F   UNL A   1      46.777  27.845  23.402  1.00  0.00    -0.206 F 
ATOM     95  C   UNL A   1      50.061  26.428  23.969  1.00  0.00     0.006 A 
ENDBRANCH  71  88
ENDBRANCH  45  46
ENDBRANCH  37  40
ENDBRANCH  35  36
ENDBRANCH  34  35
ENDBRANCH  33  34
ENDBRANCH   1  33
TORSDOF 16
ENDMDL
MODEL 3
REMARK VINA RESULT:     -11.4      3.237      7.127
REMARK SMILES CC1=NN(c2ccc(C(=O)NCCCCCCNC(=O)c3ccc(-c4c5nc(c(-c6c(F)cccc6F)c6ccc([nH]6)c(-c6c(F)cccc6F)c6nc(c(-c7c(F)cccc7F)c7ccc4[nH]7)C=C6)C=C5)cc3)cc2)C(=O)/C1=C\c1ccc(N2CCCC2)cc1
REMARK SMILES IDX 14 1 13 2 12 3 11 4 9 5 10 6 8 8 5 9 6 10 76 11 7 12 75 13
REMARK SMILES IDX 4 14 1 15 2 16 3 17 79 18 77 19 80 20 78 21 81 22 82 23
REMARK SMILES IDX 91 24 83 25 90 26 84 27 85 28 86 29 89 30 87 31 88 32 15 33
REMARK SMILES IDX 16 34 17 35 18 36 19 37 20 39 21 40 22 41 74 42 23 43 73 44
REMARK SMILES IDX 24 45 25 46 26 47 67 48 27 49 72 50 66 51 68 52 28 53 71 54
REMARK SMILES IDX 65 55 64 56 29 58 55 59 38 60 54 61 39 62 42 63 53 64 69 65
REMARK SMILES IDX 40 66 41 67 52 69 70 70 43 71 30 72 31 73 36 74 32 75 33 76
REMARK SMILES IDX 35 77 37 78 34 79 56 80 57 81 62 82 58 83 59 84 61 85 63 86
REMARK SMILES IDX 60 87 44 88 45 89 50 90 46 91 47 92 49 93 51 94 48 95
REMARK H PARENT 11 7 18 38 68 57 42 68
REMARK Flexibility Score: inf
ROOT
ATOM      1  C   UNL A   1      38.985  33.946  30.904  1.00  0.00     0.002 C 
ENDROOT
BRANCH   1   2
ATOM      2  C   UNL A   1      38.294  34.779  29.817  1.00  0.00     0.021 C 
BRANCH   2   3
ATOM      3  C   UNL A   1      37.117  34.040  29.176  1.00  0.00     0.116 C 
BRANCH   3   4
ATOM      4  N   UNL A   1      35.927  34.231  29.983  1.00  0.00    -0.352 N 
ATOM      5  C   UNL A   1      34.624  33.831  29.836  1.00  0.00     0.251 C 
ATOM      6  O   UNL A   1      33.816  34.215  30.684  1.00  0.00    -0.269 OA
ATOM      7  H   UNL A   1      36.088  34.753  30.802  1.00  0.00     0.163 HD
BRANCH   5   8
ATOM      8  C   UNL A   1      34.163  32.907  28.761  1.00  0.00     0.039 A 
ATOM      9  C   UNL A   1      32.979  31.161  26.911  1.00  0.00     0.069 A 
ATOM     10  C   UNL A   1      32.485  32.456  27.045  1.00  0.00     0.029 A 
ATOM     11  C   UNL A   1      34.117  30.777  27.620  1.00  0.00     0.029 A 
ATOM     12  C   UNL A   1      33.052  33.310  27.999  1.00  0.00     0.016 A 
ATOM     13  C   UNL A   1      34.745  31.673  28.482  1.00  0.00     0.016 A 
BRANCH   9  14
ATOM     14  N   UNL A   1      32.339  30.226  26.091  1.00  0.00    -0.196 N 
ATOM     15  C   UNL A   1      29.864  29.723  23.545  1.00  0.00     0.069 C 
ATOM     16  C   UNL A   1      30.957  29.661  24.557  1.00  0.00     0.071 C 
ATOM     17  N   UNL A   1      31.172  30.596  25.445  1.00  0.00    -0.169 NA
ATOM     18  C   UNL A   1      31.929  28.555  24.656  1.00  0.00     0.065 C 
ATOM     19  C   UNL A   1      32.926  29.039  25.640  1.00  0.00     0.280 C 
ATOM     20  C   UNL A   1      31.866  27.359  24.056  1.00  0.00     0.024 C 
ATOM     21  O   UNL A   1      33.983  28.526  25.941  1.00  0.00    -0.267 OA
BRANCH  20  22
ATOM     22  C   UNL A   1      32.750  26.241  24.408  1.00  0.00    -0.025 A 
ATOM     23  C   UNL A   1      32.724  25.664  25.677  1.00  0.00     0.010 A 
ATOM     24  C   UNL A   1      33.641  25.733  23.456  1.00  0.00     0.010 A 
ATOM     25  C   UNL A   1      33.562  24.576  25.971  1.00  0.00     0.026 A 
ATOM     26  C   UNL A   1      34.478  24.656  23.766  1.00  0.00     0.026 A 
ATOM     27  C   UNL A   1      34.459  24.054  25.027  1.00  0.00     0.037 A 
BRANCH  27  28
ATOM     28  N   UNL A   1      35.257  22.975  25.334  1.00  0.00    -0.372 N 
ATOM     29  C   UNL A   1      36.710  23.039  25.448  1.00  0.00     0.116 C 
ATOM     30  C   UNL A   1      34.796  21.624  25.015  1.00  0.00     0.116 C 
ATOM     31  C   UNL A   1      37.180  21.751  24.781  1.00  0.00     0.023 C 
ATOM     32  C   UNL A   1      36.063  20.771  25.105  1.00  0.00     0.023 C 
ENDBRANCH  27  28
ENDBRANCH  20  22
ENDBRANCH   9  14
ENDBRANCH   5   8
ENDBRANCH   3   4
ENDBRANCH   2   3
ENDBRANCH   1   2
BRANCH   1  33
ATOM     33  C   UNL A   1      39.057  34.633  32.275  1.00  0.00     0.002 C 
BRANCH  33  34
ATOM     34  C   UNL A   1      37.745  34.616  33.062  1.00  0.00     0.021 C 
BRANCH  34  35
ATOM     35  C   UNL A   1      37.581  33.390  33.953  1.00  0.00     0.116 C 
BRANCH  35  36
ATOM     36  N   UNL A   1      36.376  32.647  33.613  1.00  0.00    -0.352 N 
ATOM     37  C   UNL A   1      36.181  31.724  32.619  1.00  0.00     0.251 C 
ATOM     38  H   UNL A   1      35.592  32.834  34.177  1.00  0.00     0.163 HD
ATOM     39  O   UNL A   1      35.046  31.391  32.295  1.00  0.00    -0.269 OA
BRANCH  37  40
ATOM     40  C   UNL A   1      37.348  31.135  31.934  1.00  0.00     0.039 A 
ATOM     41  C   UNL A   1      37.317  30.984  30.546  1.00  0.00     0.014 A 
ATOM     42  C   UNL A   1      38.468  30.726  32.664  1.00  0.00     0.014 A 
ATOM     43  C   UNL A   1      38.435  30.477  29.883  1.00  0.00     0.010 A 
ATOM     44  C   UNL A   1      39.608  30.293  31.997  1.00  0.00     0.010 A 
ATOM     45  C   UNL A   1      39.602  30.161  30.600  1.00  0.00    -0.014 A 
BRANCH  45  46
ATOM     46  C   UNL A   1      40.829  29.694  29.908  1.00  0.00     0.031 A 
ATOM     47  C   UNL A   1      41.951  30.657  29.632  1.00  0.00     0.074 A 
ATOM     48  C   UNL A   1      40.906  28.420  29.477  1.00  0.00     0.049 A 
ATOM     49  N   UNL A   1      43.060  30.464  28.965  1.00  0.00    -0.248 NA
ATOM     50  C   UNL A   1      41.796  32.024  30.155  1.00  0.00     0.031 C 
ATOM     51  C   UNL A   1      39.871  27.400  29.657  1.00  0.00     0.029 A 
ATOM     52  N   UNL A   1      41.897  27.766  28.789  1.00  0.00    -0.354 N 
ATOM     53  C   UNL A   1      43.732  31.680  28.990  1.00  0.00     0.074 A 
ATOM     54  C   UNL A   1      42.880  32.621  29.681  1.00  0.00     0.031 C 
ATOM     55  C   UNL A   1      40.290  26.245  29.115  1.00  0.00     0.029 A 
ATOM     56  C   UNL A   1      41.600  26.455  28.507  1.00  0.00     0.049 A 
ATOM     57  H   UNL A   1      42.742  28.197  28.523  1.00  0.00     0.167 HD
ATOM     58  C   UNL A   1      44.961  31.976  28.504  1.00  0.00     0.037 A 
ATOM     59  C   UNL A   1      42.298  25.531  27.820  1.00  0.00     0.037 A 
ATOM     60  C   UNL A   1      45.811  31.034  27.823  1.00  0.00     0.049 A 
ATOM     61  C   UNL A   1      43.637  25.907  27.243  1.00  0.00     0.074 A 
ATOM     62  C   UNL A   1      47.083  31.231  27.317  1.00  0.00     0.029 A 
ATOM     63  N   UNL A   1      45.471  29.716  27.554  1.00  0.00    -0.354 N 
ATOM     64  N   UNL A   1      44.283  27.046  27.320  1.00  0.00    -0.248 NA
ATOM     65  C   UNL A   1      44.345  24.867  26.484  1.00  0.00     0.031 C 
ATOM     66  C   UNL A   1      47.495  30.047  26.698  1.00  0.00     0.029 A 
ATOM     67  C   UNL A   1      46.504  29.095  26.869  1.00  0.00     0.049 A 
ATOM     68  H   UNL A   1      44.624  29.285  27.811  1.00  0.00     0.167 HD
ATOM     69  C   UNL A   1      45.485  26.846  26.654  1.00  0.00     0.074 A 
ATOM     70  C   UNL A   1      45.486  25.473  26.196  1.00  0.00     0.031 C 
ATOM     71  C   UNL A   1      46.498  27.722  26.437  1.00  0.00     0.037 A 
BRANCH  58  72
ATOM     72  C   UNL A   1      45.470  33.375  28.701  1.00  0.00     0.057 A 
ATOM     73  C   UNL A   1      45.170  34.400  27.795  1.00  0.00     0.134 A 
ATOM     74  C   UNL A   1      46.214  33.715  29.838  1.00  0.00     0.134 A 
ATOM     75  F   UNL A   1      44.471  34.139  26.680  1.00  0.00    -0.206 F 
ATOM     76  C   UNL A   1      45.606  35.710  28.003  1.00  0.00     0.040 A 
ATOM     77  C   UNL A   1      46.631  35.027  30.071  1.00  0.00     0.040 A 
ATOM     78  F   UNL A   1      46.531  32.784  30.750  1.00  0.00    -0.206 F 
ATOM     79  C   UNL A   1      46.330  36.028  29.149  1.00  0.00     0.006 A 
ENDBRANCH  58  72
BRANCH  59  80
ATOM     80  C   UNL A   1      41.758  24.159  27.632  1.00  0.00     0.057 A 
ATOM     81  C   UNL A   1      40.752  23.902  26.692  1.00  0.00     0.134 A 
ATOM     82  C   UNL A   1      42.191  23.085  28.419  1.00  0.00     0.134 A 
ATOM     83  F   UNL A   1      40.280  24.892  25.920  1.00  0.00    -0.206 F 
ATOM     84  C   UNL A   1      40.170  22.639  26.568  1.00  0.00     0.040 A 
ATOM     85  C   UNL A   1      41.642  21.809  28.283  1.00  0.00     0.040 A 
ATOM     86  F   UNL A   1      43.157  23.260  29.333  1.00  0.00    -0.206 F 
ATOM     87  C   UNL A   1      40.616  21.587  27.366  1.00  0.00     0.006 A 
ENDBRANCH  59  80
BRANCH  71  88
ATOM     88  C   UNL A   1      47.709  27.205  25.716  1.00  0.00     0.057 A 
ATOM     89  C   UNL A   1      48.755  26.559  26.386  1.00  0.00     0.134 A 
ATOM     90  C   UNL A   1      47.814  27.329  24.324  1.00  0.00     0.134 A 
ATOM     91  F   UNL A   1      48.724  26.418  27.720  1.00  0.00    -0.206 F 
ATOM     92  C   UNL A   1      49.874  26.080  25.702  1.00  0.00     0.040 A 
ATOM     93  C   UNL A   1      48.912  26.826  23.625  1.00  0.00     0.040 A 
ATOM     94  F   UNL A   1      46.842  27.929  23.617  1.00  0.00    -0.206 F 
ATOM     95  C   UNL A   1      49.950  26.207  24.317  1.00  0.00     0.006 A 
ENDBRANCH  71  88
ENDBRANCH  45  46
ENDBRANCH  37  40
ENDBRANCH  35  36
ENDBRANCH  34  35
ENDBRANCH  33  34
ENDBRANCH   1  33
TORSDOF 16
ENDMDL
