MODEL 1
REMARK VINA RESULT:     -10.8      0.000      0.000
REMARK SMILES C/C(=N/OCC(=O)NCCCCCCNC(=O)c1ccc(-c2c3nc(c(-c4c(F)cccc4F)c4ccc([nH]4)c(-c4c(F)cccc4F)c4nc(c(-c5c(F)cccc5F)c5ccc2[nH]5)C=C4)C=C3)cc1)c1ccc(C)cc1
REMARK SMILES IDX 11 1 10 2 9 3 8 4 6 5 7 6 5 8 4 9 3 10 1 11 2 12 72 13 73 14
REMARK SMILES IDX 78 15 74 16 77 17 75 18 76 19 12 20 13 21 14 22 15 23 16 24
REMARK SMILES IDX 17 26 18 27 19 28 71 29 20 30 70 31 21 32 22 33 23 34 64 35
REMARK SMILES IDX 24 36 69 37 63 38 65 39 25 40 68 41 62 42 61 43 26 45 52 46
REMARK SMILES IDX 35 47 51 48 36 49 39 50 50 51 66 52 37 53 38 54 49 56 67 57
REMARK SMILES IDX 40 58 27 59 28 60 33 61 29 62 30 63 32 64 34 65 31 66 53 67
REMARK SMILES IDX 54 68 59 69 55 70 56 71 58 72 60 73 57 74 41 75 42 76 47 77
REMARK SMILES IDX 43 78 44 79 46 80 48 81 45 82
REMARK H PARENT 8 7 15 25 65 44 39 55
REMARK Flexibility Score: inf
ROOT
ATOM      1  C   UNL A   1      36.656  23.303  25.078  1.00  0.00     0.002 C 
ENDROOT
BRANCH   1   2
ATOM      2  C   UNL A   1      35.278  23.979  25.117  1.00  0.00     0.021 C 
BRANCH   2   3
ATOM      3  C   UNL A   1      34.418  23.579  26.318  1.00  0.00     0.116 C 
BRANCH   3   4
ATOM      4  N   UNL A   1      33.263  24.446  26.453  1.00  0.00    -0.353 N 
ATOM      5  C   UNL A   1      31.941  24.110  26.548  1.00  0.00     0.260 C 
ATOM      6  O   UNL A   1      31.116  25.023  26.632  1.00  0.00    -0.271 OA
ATOM      7  H   UNL A   1      33.458  25.410  26.480  1.00  0.00     0.163 HD
BRANCH   5   8
ATOM      8  C   UNL A   1      31.533  22.645  26.674  1.00  0.00     0.363 C 
BRANCH   8   9
ATOM      9  O   UNL A   1      31.242  21.988  25.455  1.00  0.00    -0.385 OA
BRANCH   9  10
ATOM     10  N   UNL A   1      31.679  22.761  24.375  1.00  0.00    -0.091 NA
ATOM     11  C   UNL A   1      33.026  22.854  22.392  1.00  0.00     0.071 C 
ATOM     12  C   UNL A   1      32.432  22.087  23.553  1.00  0.00     0.084 C 
BRANCH  12  13
ATOM     13  C   UNL A   1      32.769  20.635  23.653  1.00  0.00    -0.001 A 
ATOM     14  C   UNL A   1      33.744  20.195  24.556  1.00  0.00     0.010 A 
ATOM     15  C   UNL A   1      32.115  19.703  22.841  1.00  0.00     0.010 A 
ATOM     16  C   UNL A   1      34.097  18.845  24.610  1.00  0.00     0.004 A 
ATOM     17  C   UNL A   1      32.460  18.349  22.907  1.00  0.00     0.004 A 
ATOM     18  C   UNL A   1      33.461  17.912  23.784  1.00  0.00    -0.051 A 
ATOM     19  C   UNL A   1      33.876  16.470  23.828  1.00  0.00     0.044 C 
ENDBRANCH  12  13
ENDBRANCH   9  10
ENDBRANCH   8   9
ENDBRANCH   5   8
ENDBRANCH   3   4
ENDBRANCH   2   3
ENDBRANCH   1   2
BRANCH   1  20
ATOM     20  C   UNL A   1      36.826  22.216  24.011  1.00  0.00     0.002 C 
BRANCH  20  21
ATOM     21  C   UNL A   1      37.367  20.880  24.523  1.00  0.00     0.021 C 
BRANCH  21  22
ATOM     22  C   UNL A   1      38.396  20.995  25.645  1.00  0.00     0.116 C 
BRANCH  22  23
ATOM     23  N   UNL A   1      39.347  19.893  25.640  1.00  0.00    -0.352 N 
ATOM     24  C   UNL A   1      40.681  19.883  25.964  1.00  0.00     0.251 C 
ATOM     25  H   UNL A   1      38.979  19.023  25.361  1.00  0.00     0.163 HD
ATOM     26  O   UNL A   1      41.368  18.891  25.727  1.00  0.00    -0.269 OA
BRANCH  24  27
ATOM     27  C   UNL A   1      41.304  21.075  26.576  1.00  0.00     0.039 A 
ATOM     28  C   UNL A   1      41.924  22.013  25.746  1.00  0.00     0.014 A 
ATOM     29  C   UNL A   1      41.269  21.275  27.959  1.00  0.00     0.014 A 
ATOM     30  C   UNL A   1      42.431  23.194  26.293  1.00  0.00     0.010 A 
ATOM     31  C   UNL A   1      41.712  22.483  28.494  1.00  0.00     0.010 A 
ATOM     32  C   UNL A   1      42.281  23.460  27.664  1.00  0.00    -0.014 A 
BRANCH  32  33
ATOM     33  C   UNL A   1      42.654  24.778  28.235  1.00  0.00     0.031 A 
ATOM     34  C   UNL A   1      41.623  25.851  28.435  1.00  0.00     0.074 A 
ATOM     35  C   UNL A   1      43.950  25.034  28.500  1.00  0.00     0.049 A 
ATOM     36  N   UNL A   1      41.780  27.079  28.858  1.00  0.00    -0.248 NA
ATOM     37  C   UNL A   1      40.237  25.504  28.089  1.00  0.00     0.031 C 
ATOM     38  C   UNL A   1      45.052  24.090  28.309  1.00  0.00     0.029 A 
ATOM     39  N   UNL A   1      44.562  26.167  28.975  1.00  0.00    -0.354 N 
ATOM     40  C   UNL A   1      40.518  27.656  28.824  1.00  0.00     0.074 A 
ATOM     41  C   UNL A   1      39.616  26.659  28.286  1.00  0.00     0.031 C 
ATOM     42  C   UNL A   1      46.199  24.670  28.692  1.00  0.00     0.029 A 
ATOM     43  C   UNL A   1      45.923  26.042  29.108  1.00  0.00     0.049 A 
ATOM     44  H   UNL A   1      44.071  26.991  29.198  1.00  0.00     0.167 HD
ATOM     45  C   UNL A   1      40.141  28.895  29.222  1.00  0.00     0.037 A 
ATOM     46  C   UNL A   1      46.848  26.933  29.508  1.00  0.00     0.037 A 
ATOM     47  C   UNL A   1      41.044  29.882  29.758  1.00  0.00     0.049 A 
ATOM     48  C   UNL A   1      46.416  28.319  29.895  1.00  0.00     0.074 A 
ATOM     49  C   UNL A   1      40.751  31.141  30.254  1.00  0.00     0.029 A 
ATOM     50  N   UNL A   1      42.421  29.729  29.851  1.00  0.00    -0.354 N 
ATOM     51  N   UNL A   1      45.208  28.826  29.933  1.00  0.00    -0.248 NA
ATOM     52  C   UNL A   1      47.476  29.257  30.285  1.00  0.00     0.031 C 
ATOM     53  C   UNL A   1      41.955  31.772  30.586  1.00  0.00     0.029 A 
ATOM     54  C   UNL A   1      42.995  30.888  30.350  1.00  0.00     0.049 A 
ATOM     55  H   UNL A   1      42.916  28.916  29.598  1.00  0.00     0.167 HD
ATOM     56  C   UNL A   1      45.359  30.136  30.367  1.00  0.00     0.074 A 
ATOM     57  C   UNL A   1      46.775  30.339  30.597  1.00  0.00     0.031 C 
ATOM     58  C   UNL A   1      44.409  31.085  30.556  1.00  0.00     0.037 A 
BRANCH  45  59
ATOM     59  C   UNL A   1      38.690  29.255  29.070  1.00  0.00     0.057 A 
ATOM     60  C   UNL A   1      37.802  29.233  30.155  1.00  0.00     0.134 A 
ATOM     61  C   UNL A   1      38.175  29.639  27.825  1.00  0.00     0.134 A 
ATOM     62  F   UNL A   1      38.226  28.868  31.374  1.00  0.00    -0.206 F 
ATOM     63  C   UNL A   1      36.448  29.536  29.998  1.00  0.00     0.040 A 
ATOM     64  C   UNL A   1      36.830  29.975  27.664  1.00  0.00     0.040 A 
ATOM     65  F   UNL A   1      38.969  29.694  26.746  1.00  0.00    -0.206 F 
ATOM     66  C   UNL A   1      35.959  29.913  28.750  1.00  0.00     0.006 A 
ENDBRANCH  45  59
BRANCH  46  67
ATOM     67  C   UNL A   1      48.275  26.530  29.583  1.00  0.00     0.057 A 
ATOM     68  C   UNL A   1      49.149  26.785  28.521  1.00  0.00     0.134 A 
ATOM     69  C   UNL A   1      48.804  25.906  30.720  1.00  0.00     0.134 A 
ATOM     70  F   UNL A   1      48.695  27.363  27.398  1.00  0.00    -0.206 F 
ATOM     71  C   UNL A   1      50.498  26.432  28.582  1.00  0.00     0.040 A 
ATOM     72  C   UNL A   1      50.156  25.569  30.805  1.00  0.00     0.040 A 
ATOM     73  F   UNL A   1      48.020  25.640  31.773  1.00  0.00    -0.206 F 
ATOM     74  C   UNL A   1      51.006  25.829  29.731  1.00  0.00     0.006 A 
ENDBRANCH  46  67
BRANCH  58  75
ATOM     75  C   UNL A   1      44.870  32.431  31.035  1.00  0.00     0.057 A 
ATOM     76  C   UNL A   1      45.011  32.719  32.399  1.00  0.00     0.134 A 
ATOM     77  C   UNL A   1      45.215  33.438  30.124  1.00  0.00     0.134 A 
ATOM     78  F   UNL A   1      44.683  31.805  33.324  1.00  0.00    -0.206 F 
ATOM     79  C   UNL A   1      45.459  33.966  32.840  1.00  0.00     0.040 A 
ATOM     80  C   UNL A   1      45.691  34.679  30.551  1.00  0.00     0.040 A 
ATOM     81  F   UNL A   1      45.110  33.227  28.803  1.00  0.00    -0.206 F 
ATOM     82  C   UNL A   1      45.809  34.947  31.914  1.00  0.00     0.006 A 
ENDBRANCH  58  75
ENDBRANCH  32  33
ENDBRANCH  24  27
ENDBRANCH  22  23
ENDBRANCH  21  22
ENDBRANCH  20  21
ENDBRANCH   1  20
TORSDOF 16
ENDMDL
MODEL 2
REMARK VINA RESULT:     -10.7      1.268      1.957
REMARK SMILES C/C(=N/OCC(=O)NCCCCCCNC(=O)c1ccc(-c2c3nc(c(-c4c(F)cccc4F)c4ccc([nH]4)c(-c4c(F)cccc4F)c4nc(c(-c5c(F)cccc5F)c5ccc2[nH]5)C=C4)C=C3)cc1)c1ccc(C)cc1
REMARK SMILES IDX 11 1 10 2 9 3 8 4 6 5 7 6 5 8 4 9 3 10 1 11 2 12 72 13 73 14
REMARK SMILES IDX 78 15 74 16 77 17 75 18 76 19 12 20 13 21 14 22 15 23 16 24
REMARK SMILES IDX 17 26 18 27 19 28 71 29 20 30 70 31 21 32 22 33 23 34 64 35
REMARK SMILES IDX 24 36 69 37 63 38 65 39 25 40 68 41 62 42 61 43 26 45 52 46
REMARK SMILES IDX 35 47 51 48 36 49 39 50 50 51 66 52 37 53 38 54 49 56 67 57
REMARK SMILES IDX 40 58 27 59 28 60 33 61 29 62 30 63 32 64 34 65 31 66 53 67
REMARK SMILES IDX 54 68 59 69 55 70 56 71 58 72 60 73 57 74 41 75 42 76 47 77
REMARK SMILES IDX 43 78 44 79 46 80 48 81 45 82
REMARK H PARENT 8 7 15 25 65 44 39 55
REMARK Flexibility Score: inf
ROOT
ATOM      1  C   UNL A   1      37.011  22.691  25.234  1.00  0.00     0.002 C 
ENDROOT
BRANCH   1   2
ATOM      2  C   UNL A   1      35.607  23.308  25.166  1.00  0.00     0.021 C 
BRANCH   2   3
ATOM      3  C   UNL A   1      34.764  23.090  26.425  1.00  0.00     0.116 C 
BRANCH   3   4
ATOM      4  N   UNL A   1      33.732  24.101  26.551  1.00  0.00    -0.353 N 
ATOM      5  C   UNL A   1      32.377  23.939  26.660  1.00  0.00     0.260 C 
ATOM      6  O   UNL A   1      31.678  24.952  26.733  1.00  0.00    -0.271 OA
ATOM      7  H   UNL A   1      34.049  25.032  26.562  1.00  0.00     0.163 HD
BRANCH   5   8
ATOM      8  C   UNL A   1      31.785  22.541  26.813  1.00  0.00     0.363 C 
BRANCH   8   9
ATOM      9  O   UNL A   1      31.414  21.903  25.605  1.00  0.00    -0.385 OA
BRANCH   9  10
ATOM     10  N   UNL A   1      31.782  22.691  24.511  1.00  0.00    -0.091 NA
ATOM     11  C   UNL A   1      32.999  22.812  22.447  1.00  0.00     0.071 C 
ATOM     12  C   UNL A   1      32.480  22.029  23.633  1.00  0.00     0.084 C 
BRANCH  12  13
ATOM     13  C   UNL A   1      32.820  20.575  23.689  1.00  0.00    -0.001 A 
ATOM     14  C   UNL A   1      33.827  20.117  24.546  1.00  0.00     0.010 A 
ATOM     15  C   UNL A   1      32.137  19.660  22.882  1.00  0.00     0.010 A 
ATOM     16  C   UNL A   1      34.181  18.766  24.559  1.00  0.00     0.004 A 
ATOM     17  C   UNL A   1      32.484  18.306  22.907  1.00  0.00     0.004 A 
ATOM     18  C   UNL A   1      33.516  17.850  23.737  1.00  0.00    -0.051 A 
ATOM     19  C   UNL A   1      33.932  16.409  23.736  1.00  0.00     0.044 C 
ENDBRANCH  12  13
ENDBRANCH   9  10
ENDBRANCH   8   9
ENDBRANCH   5   8
ENDBRANCH   3   4
ENDBRANCH   2   3
ENDBRANCH   1   2
BRANCH   1  20
ATOM     20  C   UNL A   1      37.260  21.518  24.280  1.00  0.00     0.002 C 
BRANCH  20  21
ATOM     21  C   UNL A   1      37.808  20.249  24.938  1.00  0.00     0.021 C 
BRANCH  21  22
ATOM     22  C   UNL A   1      38.969  20.480  25.903  1.00  0.00     0.116 C 
BRANCH  22  23
ATOM     23  N   UNL A   1      39.928  19.385  25.887  1.00  0.00    -0.352 N 
ATOM     24  C   UNL A   1      41.291  19.410  26.050  1.00  0.00     0.251 C 
ATOM     25  H   UNL A   1      39.542  18.492  25.735  1.00  0.00     0.163 HD
ATOM     26  O   UNL A   1      41.959  18.403  25.826  1.00  0.00    -0.269 OA
BRANCH  24  27
ATOM     27  C   UNL A   1      41.964  20.656  26.470  1.00  0.00     0.039 A 
ATOM     28  C   UNL A   1      42.513  21.489  25.491  1.00  0.00     0.014 A 
ATOM     29  C   UNL A   1      42.047  21.009  27.820  1.00  0.00     0.014 A 
ATOM     30  C   UNL A   1      43.066  22.718  25.859  1.00  0.00     0.010 A 
ATOM     31  C   UNL A   1      42.535  22.263  28.178  1.00  0.00     0.010 A 
ATOM     32  C   UNL A   1      43.032  23.137  27.199  1.00  0.00    -0.014 A 
BRANCH  32  33
ATOM     33  C   UNL A   1      43.454  24.506  27.587  1.00  0.00     0.031 A 
ATOM     34  C   UNL A   1      42.440  25.545  27.970  1.00  0.00     0.074 A 
ATOM     35  C   UNL A   1      44.759  24.836  27.513  1.00  0.00     0.049 A 
ATOM     36  N   UNL A   1      42.622  26.805  28.272  1.00  0.00    -0.248 NA
ATOM     37  C   UNL A   1      41.034  25.115  27.992  1.00  0.00     0.031 C 
ATOM     38  C   UNL A   1      45.836  23.928  27.114  1.00  0.00     0.029 A 
ATOM     39  N   UNL A   1      45.399  26.024  27.759  1.00  0.00    -0.354 N 
ATOM     40  C   UNL A   1      41.356  27.323  28.513  1.00  0.00     0.074 A 
ATOM     41  C   UNL A   1      40.412  26.253  28.268  1.00  0.00     0.031 C 
ATOM     42  C   UNL A   1      47.005  24.583  27.172  1.00  0.00     0.029 A 
ATOM     43  C   UNL A   1      46.757  25.967  27.564  1.00  0.00     0.049 A 
ATOM     44  H   UNL A   1      44.929  26.840  28.048  1.00  0.00     0.167 HD
ATOM     45  C   UNL A   1      41.014  28.570  28.919  1.00  0.00     0.037 A 
ATOM     46  C   UNL A   1      47.697  26.923  27.676  1.00  0.00     0.037 A 
ATOM     47  C   UNL A   1      41.960  29.629  29.162  1.00  0.00     0.049 A 
ATOM     48  C   UNL A   1      47.290  28.312  28.077  1.00  0.00     0.074 A 
ATOM     49  C   UNL A   1      41.722  30.906  29.642  1.00  0.00     0.029 A 
ATOM     50  N   UNL A   1      43.325  29.543  28.926  1.00  0.00    -0.354 N 
ATOM     51  N   UNL A   1      46.099  28.768  28.379  1.00  0.00    -0.248 NA
ATOM     52  C   UNL A   1      48.356  29.321  28.144  1.00  0.00     0.031 C 
ATOM     53  C   UNL A   1      42.931  31.610  29.635  1.00  0.00     0.029 A 
ATOM     54  C   UNL A   1      43.934  30.757  29.204  1.00  0.00     0.049 A 
ATOM     55  H   UNL A   1      43.793  28.736  28.607  1.00  0.00     0.167 HD
ATOM     56  C   UNL A   1      46.273  30.111  28.688  1.00  0.00     0.074 A 
ATOM     57  C   UNL A   1      47.688  30.390  28.554  1.00  0.00     0.031 C 
ATOM     58  C   UNL A   1      45.342  31.029  29.048  1.00  0.00     0.037 A 
BRANCH  45  59
ATOM     59  C   UNL A   1      39.551  28.855  29.105  1.00  0.00     0.057 A 
ATOM     60  C   UNL A   1      38.740  29.298  28.051  1.00  0.00     0.134 A 
ATOM     61  C   UNL A   1      38.941  28.676  30.354  1.00  0.00     0.134 A 
ATOM     62  F   UNL A   1      39.261  29.498  26.830  1.00  0.00    -0.206 F 
ATOM     63  C   UNL A   1      37.389  29.593  28.240  1.00  0.00     0.040 A 
ATOM     64  C   UNL A   1      37.583  28.937  30.547  1.00  0.00     0.040 A 
ATOM     65  F   UNL A   1      39.652  28.245  31.405  1.00  0.00    -0.206 F 
ATOM     66  C   UNL A   1      36.805  29.409  29.492  1.00  0.00     0.006 A 
ENDBRANCH  45  59
BRANCH  46  67
ATOM     67  C   UNL A   1      49.121  26.587  27.424  1.00  0.00     0.057 A 
ATOM     68  C   UNL A   1      49.919  26.044  28.437  1.00  0.00     0.134 A 
ATOM     69  C   UNL A   1      49.710  26.774  26.167  1.00  0.00     0.134 A 
ATOM     70  F   UNL A   1      49.416  25.859  29.667  1.00  0.00    -0.206 F 
ATOM     71  C   UNL A   1      51.254  25.702  28.212  1.00  0.00     0.040 A 
ATOM     72  C   UNL A   1      51.036  26.414  25.921  1.00  0.00     0.040 A 
ATOM     73  F   UNL A   1      48.996  27.285  25.154  1.00  0.00    -0.206 F 
ATOM     74  C   UNL A   1      51.813  25.880  26.948  1.00  0.00     0.006 A 
ENDBRANCH  46  67
BRANCH  58  75
ATOM     75  C   UNL A   1      45.825  32.424  29.322  1.00  0.00     0.057 A 
ATOM     76  C   UNL A   1      46.277  32.810  30.591  1.00  0.00     0.134 A 
ATOM     77  C   UNL A   1      45.876  33.380  28.300  1.00  0.00     0.134 A 
ATOM     78  F   UNL A   1      46.239  31.947  31.618  1.00  0.00    -0.206 F 
ATOM     79  C   UNL A   1      46.743  34.103  30.839  1.00  0.00     0.040 A 
ATOM     80  C   UNL A   1      46.367  34.667  28.528  1.00  0.00     0.040 A 
ATOM     81  F   UNL A   1      45.465  33.075  27.060  1.00  0.00    -0.206 F 
ATOM     82  C   UNL A   1      46.798  35.032  29.802  1.00  0.00     0.006 A 
ENDBRANCH  58  75
ENDBRANCH  32  33
ENDBRANCH  24  27
ENDBRANCH  22  23
ENDBRANCH  21  22
ENDBRANCH  20  21
ENDBRANCH   1  20
TORSDOF 16
ENDMDL
MODEL 3
REMARK VINA RESULT:     -10.6      4.697     10.155
REMARK SMILES C/C(=N/OCC(=O)NCCCCCCNC(=O)c1ccc(-c2c3nc(c(-c4c(F)cccc4F)c4ccc([nH]4)c(-c4c(F)cccc4F)c4nc(c(-c5c(F)cccc5F)c5ccc2[nH]5)C=C4)C=C3)cc1)c1ccc(C)cc1
REMARK SMILES IDX 11 1 10 2 9 3 8 4 6 5 7 6 5 8 4 9 3 10 1 11 2 12 72 13 73 14
REMARK SMILES IDX 78 15 74 16 77 17 75 18 76 19 12 20 13 21 14 22 15 23 16 24
REMARK SMILES IDX 17 26 18 27 19 28 71 29 20 30 70 31 21 32 22 33 23 34 64 35
REMARK SMILES IDX 24 36 69 37 63 38 65 39 25 40 68 41 62 42 61 43 26 45 52 46
REMARK SMILES IDX 35 47 51 48 36 49 39 50 50 51 66 52 37 53 38 54 49 56 67 57
REMARK SMILES IDX 40 58 27 59 28 60 33 61 29 62 30 63 32 64 34 65 31 66 53 67
REMARK SMILES IDX 54 68 59 69 55 70 56 71 58 72 60 73 57 74 41 75 42 76 47 77
REMARK SMILES IDX 43 78 44 79 46 80 48 81 45 82
REMARK H PARENT 8 7 15 25 65 44 39 55
REMARK Flexibility Score: inf
ROOT
ATOM      1  C   UNL A   1      33.233  34.738  28.821  1.00  0.00     0.002 C 
ENDROOT
BRANCH   1   2
ATOM      2  C   UNL A   1      33.045  36.095  29.515  1.00  0.00     0.021 C 
BRANCH   2   3
ATOM      3  C   UNL A   1      32.776  35.998  31.018  1.00  0.00     0.116 C 
BRANCH   3   4
ATOM      4  N   UNL A   1      33.987  36.213  31.787  1.00  0.00    -0.353 N 
ATOM      5  C   UNL A   1      34.588  35.386  32.696  1.00  0.00     0.260 C 
ATOM      6  O   UNL A   1      35.610  35.786  33.255  1.00  0.00    -0.271 OA
ATOM      7  H   UNL A   1      34.440  37.072  31.633  1.00  0.00     0.163 HD
BRANCH   5   8
ATOM      8  C   UNL A   1      34.064  33.967  32.899  1.00  0.00     0.363 C 
BRANCH   8   9
ATOM      9  O   UNL A   1      34.933  32.932  32.480  1.00  0.00    -0.385 OA
BRANCH   9  10
ATOM     10  N   UNL A   1      35.580  32.370  33.583  1.00  0.00    -0.091 NA
ATOM     11  C   UNL A   1      37.673  31.739  34.573  1.00  0.00     0.071 C 
ATOM     12  C   UNL A   1      36.878  32.398  33.468  1.00  0.00     0.084 C 
BRANCH  12  13
ATOM     13  C   UNL A   1      37.651  33.014  32.347  1.00  0.00    -0.001 A 
ATOM     14  C   UNL A   1      38.608  34.002  32.607  1.00  0.00     0.010 A 
ATOM     15  C   UNL A   1      37.423  32.609  31.028  1.00  0.00     0.010 A 
ATOM     16  C   UNL A   1      39.292  34.615  31.555  1.00  0.00     0.004 A 
ATOM     17  C   UNL A   1      38.119  33.215  29.977  1.00  0.00     0.004 A 
ATOM     18  C   UNL A   1      39.050  34.230  30.232  1.00  0.00    -0.051 A 
ATOM     19  C   UNL A   1      39.767  34.923  29.111  1.00  0.00     0.044 C 
ENDBRANCH  12  13
ENDBRANCH   9  10
ENDBRANCH   8   9
ENDBRANCH   5   8
ENDBRANCH   3   4
ENDBRANCH   2   3
ENDBRANCH   1   2
BRANCH   1  20
ATOM     20  C   UNL A   1      34.497  34.607  27.964  1.00  0.00     0.002 C 
BRANCH  20  21
ATOM     21  C   UNL A   1      35.178  33.238  28.014  1.00  0.00     0.021 C 
BRANCH  21  22
ATOM     22  C   UNL A   1      34.601  32.274  29.047  1.00  0.00     0.116 C 
BRANCH  22  23
ATOM     23  N   UNL A   1      34.101  31.047  28.443  1.00  0.00    -0.352 N 
ATOM     24  C   UNL A   1      34.781  29.923  28.048  1.00  0.00     0.251 C 
ATOM     25  H   UNL A   1      33.128  31.021  28.294  1.00  0.00     0.163 HD
ATOM     26  O   UNL A   1      34.212  29.055  27.390  1.00  0.00    -0.269 OA
BRANCH  24  27
ATOM     27  C   UNL A   1      36.210  29.763  28.389  1.00  0.00     0.039 A 
ATOM     28  C   UNL A   1      36.551  29.291  29.659  1.00  0.00     0.014 A 
ATOM     29  C   UNL A   1      37.210  30.068  27.461  1.00  0.00     0.014 A 
ATOM     30  C   UNL A   1      37.891  29.040  29.967  1.00  0.00     0.010 A 
ATOM     31  C   UNL A   1      38.536  29.752  27.745  1.00  0.00     0.010 A 
ATOM     32  C   UNL A   1      38.886  29.219  28.994  1.00  0.00    -0.014 A 
BRANCH  32  33
ATOM     33  C   UNL A   1      40.287  28.794  29.242  1.00  0.00     0.031 A 
ATOM     34  C   UNL A   1      41.261  29.711  29.922  1.00  0.00     0.074 A 
ATOM     35  C   UNL A   1      40.702  27.600  28.774  1.00  0.00     0.049 A 
ATOM     36  N   UNL A   1      42.536  29.532  30.160  1.00  0.00    -0.248 NA
ATOM     37  C   UNL A   1      40.739  31.010  30.370  1.00  0.00     0.031 C 
ATOM     38  C   UNL A   1      39.862  26.636  28.061  1.00  0.00     0.029 A 
ATOM     39  N   UNL A   1      41.934  26.998  28.820  1.00  0.00    -0.354 N 
ATOM     40  C   UNL A   1      42.971  30.696  30.780  1.00  0.00     0.074 A 
ATOM     41  C   UNL A   1      41.837  31.595  30.829  1.00  0.00     0.031 C 
ATOM     42  C   UNL A   1      40.595  25.552  27.762  1.00  0.00     0.029 A 
ATOM     43  C   UNL A   1      41.965  25.763  28.219  1.00  0.00     0.049 A 
ATOM     44  H   UNL A   1      42.721  27.412  29.243  1.00  0.00     0.167 HD
ATOM     45  C   UNL A   1      44.199  30.982  31.278  1.00  0.00     0.037 A 
ATOM     46  C   UNL A   1      42.984  24.901  28.043  1.00  0.00     0.037 A 
ATOM     47  C   UNL A   1      45.323  30.082  31.226  1.00  0.00     0.049 A 
ATOM     48  C   UNL A   1      44.348  25.261  28.557  1.00  0.00     0.074 A 
ATOM     49  C   UNL A   1      46.588  30.250  31.763  1.00  0.00     0.029 A 
ATOM     50  N   UNL A   1      45.324  28.852  30.584  1.00  0.00    -0.354 N 
ATOM     51  N   UNL A   1      44.728  26.332  29.211  1.00  0.00    -0.248 NA
ATOM     52  C   UNL A   1      45.427  24.297  28.300  1.00  0.00     0.031 C 
ATOM     53  C   UNL A   1      47.372  29.152  31.390  1.00  0.00     0.029 A 
ATOM     54  C   UNL A   1      46.581  28.272  30.669  1.00  0.00     0.049 A 
ATOM     55  H   UNL A   1      44.546  28.450  30.133  1.00  0.00     0.167 HD
ATOM     56  C   UNL A   1      46.084  26.164  29.459  1.00  0.00     0.074 A 
ATOM     57  C   UNL A   1      46.455  24.880  28.901  1.00  0.00     0.031 C 
ATOM     58  C   UNL A   1      46.943  27.001  30.092  1.00  0.00     0.037 A 
BRANCH  45  59
ATOM     59  C   UNL A   1      44.389  32.335  31.904  1.00  0.00     0.057 A 
ATOM     60  C   UNL A   1      44.714  33.467  31.143  1.00  0.00     0.134 A 
ATOM     61  C   UNL A   1      44.235  32.512  33.285  1.00  0.00     0.134 A 
ATOM     62  F   UNL A   1      44.884  33.368  29.816  1.00  0.00    -0.206 F 
ATOM     63  C   UNL A   1      44.922  34.714  31.737  1.00  0.00     0.040 A 
ATOM     64  C   UNL A   1      44.409  33.760  33.886  1.00  0.00     0.040 A 
ATOM     65  F   UNL A   1      43.914  31.476  34.074  1.00  0.00    -0.206 F 
ATOM     66  C   UNL A   1      44.765  34.863  33.113  1.00  0.00     0.006 A 
ENDBRANCH  45  59
BRANCH  46  67
ATOM     67  C   UNL A   1      42.740  23.603  27.367  1.00  0.00     0.057 A 
ATOM     68  C   UNL A   1      42.906  23.473  25.983  1.00  0.00     0.134 A 
ATOM     69  C   UNL A   1      42.363  22.460  28.083  1.00  0.00     0.134 A 
ATOM     70  F   UNL A   1      43.248  24.538  25.242  1.00  0.00    -0.206 F 
ATOM     71  C   UNL A   1      42.702  22.255  25.333  1.00  0.00     0.040 A 
ATOM     72  C   UNL A   1      42.179  21.229  27.449  1.00  0.00     0.040 A 
ATOM     73  F   UNL A   1      42.194  22.518  29.411  1.00  0.00    -0.206 F 
ATOM     74  C   UNL A   1      42.345  21.127  26.069  1.00  0.00     0.006 A 
ENDBRANCH  46  67
BRANCH  58  75
ATOM     75  C   UNL A   1      48.372  26.554  30.213  1.00  0.00     0.057 A 
ATOM     76  C   UNL A   1      49.340  26.918  29.267  1.00  0.00     0.134 A 
ATOM     77  C   UNL A   1      48.793  25.785  31.305  1.00  0.00     0.134 A 
ATOM     78  F   UNL A   1      48.999  27.640  28.189  1.00  0.00    -0.206 F 
ATOM     79  C   UNL A   1      50.671  26.516  29.393  1.00  0.00     0.040 A 
ATOM     80  C   UNL A   1      50.127  25.401  31.457  1.00  0.00     0.040 A 
ATOM     81  F   UNL A   1      47.920  25.407  32.250  1.00  0.00    -0.206 F 
ATOM     82  C   UNL A   1      51.069  25.763  30.495  1.00  0.00     0.006 A 
ENDBRANCH  58  75
ENDBRANCH  32  33
ENDBRANCH  24  27
ENDBRANCH  22  23
ENDBRANCH  21  22
ENDBRANCH  20  21
ENDBRANCH   1  20
TORSDOF 16
ENDMDL
