MODEL 1
REMARK VINA RESULT:     -11.7      0.000      0.000
REMARK SMILES O=C(NCCCCCCNC(=O)c1ccc(-c2c3nc(c(-c4c(F)cccc4F)c4ccc([nH]4)c(-c4c(F)cccc4F)c4nc(c(-c5c(F)cccc5F)c5ccc2[nH]5)C=C4)C=C3)cc1)c1ccc(N[C@H]2OC[C@@H](O)[C@@H](O)[C@H]2O)cc1
REMARK SMILES IDX 6 1 5 2 4 3 3 4 1 5 2 6 67 8 68 9 82 10 69 11 81 12 70 13
REMARK SMILES IDX 71 14 72 16 73 17 79 18 74 19 77 20 75 21 80 22 78 24 76 26
REMARK SMILES IDX 7 28 8 29 9 30 10 31 11 32 12 34 13 35 14 36 66 37 15 38
REMARK SMILES IDX 65 39 16 40 17 41 18 42 59 43 19 44 64 45 58 46 60 47 20 48
REMARK SMILES IDX 63 49 57 50 56 51 21 53 47 54 30 55 46 56 31 57 34 58 45 59
REMARK SMILES IDX 61 60 32 61 33 62 44 64 62 65 35 66 22 67 23 68 28 69 24 70
REMARK SMILES IDX 25 71 27 72 29 73 26 74 48 75 49 76 54 77 50 78 51 79 53 80
REMARK SMILES IDX 55 81 52 82 36 83 37 84 42 85 38 86 39 87 41 88 43 89 40 90
REMARK H PARENT 3 7 71 15 80 23 78 25 76 27 10 33 60 52 34 63
REMARK Flexibility Score: inf
ROOT
ATOM      1  C   UNL A   1      36.001  22.592  25.878  1.00  0.00     0.002 C 
ENDROOT
BRANCH   1   2
ATOM      2  C   UNL A   1      34.755  23.467  26.034  1.00  0.00     0.021 C 
BRANCH   2   3
ATOM      3  C   UNL A   1      33.522  22.967  25.286  1.00  0.00     0.116 C 
BRANCH   3   4
ATOM      4  N   UNL A   1      32.391  22.770  26.177  1.00  0.00    -0.352 N 
ATOM      5  O   UNL A   1      30.649  23.406  27.468  1.00  0.00    -0.269 OA
ATOM      6  C   UNL A   1      31.416  23.663  26.542  1.00  0.00     0.251 C 
ATOM      7  H   UNL A   1      32.313  21.872  26.573  1.00  0.00     0.163 HD
BRANCH   6   8
ATOM      8  C   UNL A   1      31.295  24.943  25.819  1.00  0.00     0.039 A 
ATOM      9  C   UNL A   1      30.678  24.986  24.569  1.00  0.00     0.016 A 
ATOM     10  C   UNL A   1      31.773  26.115  26.399  1.00  0.00     0.016 A 
ATOM     11  C   UNL A   1      30.621  26.189  23.867  1.00  0.00     0.026 A 
ATOM     12  C   UNL A   1      31.689  27.320  25.694  1.00  0.00     0.026 A 
ATOM     13  C   UNL A   1      31.139  27.375  24.403  1.00  0.00     0.036 A 
BRANCH  13  14
ATOM     14  N   UNL A   1      31.056  28.599  23.757  1.00  0.00    -0.358 N 
ATOM     15  H   UNL A   1      31.881  28.989  23.389  1.00  0.00     0.163 HD
BRANCH  14  16
ATOM     16  C   UNL A   1      29.811  29.338  23.594  1.00  0.00     0.244 C 
ATOM     17  O   UNL A   1      30.013  30.682  24.038  1.00  0.00    -0.353 OA
ATOM     18  C   UNL A   1      29.441  29.383  22.094  1.00  0.00     0.195 C 
ATOM     19  C   UNL A   1      28.818  31.468  23.995  1.00  0.00     0.197 C 
ATOM     20  C   UNL A   1      28.159  30.211  21.928  1.00  0.00     0.178 C 
ATOM     21  C   UNL A   1      28.309  31.605  22.560  1.00  0.00     0.171 C 
BRANCH  18  22
ATOM     22  O   UNL A   1      30.517  30.006  21.348  1.00  0.00    -0.386 OA
ATOM     23  H   UNL A   1      30.391  29.840  20.401  1.00  0.00     0.211 HD
ENDBRANCH  18  22
BRANCH  20  24
ATOM     24  O   UNL A   1      27.830  30.333  20.543  1.00  0.00    -0.387 OA
ATOM     25  H   UNL A   1      28.626  30.570  20.041  1.00  0.00     0.211 HD
ENDBRANCH  20  24
BRANCH  21  26
ATOM     26  O   UNL A   1      29.230  32.397  21.797  1.00  0.00    -0.388 OA
ATOM     27  H   UNL A   1      30.083  32.432  22.255  1.00  0.00     0.211 HD
ENDBRANCH  21  26
ENDBRANCH  14  16
ENDBRANCH  13  14
ENDBRANCH   6   8
ENDBRANCH   3   4
ENDBRANCH   2   3
ENDBRANCH   1   2
BRANCH   1  28
ATOM     28  C   UNL A   1      35.869  21.427  24.893  1.00  0.00     0.002 C 
BRANCH  28  29
ATOM     29  C   UNL A   1      36.944  20.345  25.008  1.00  0.00     0.021 C 
BRANCH  29  30
ATOM     30  C   UNL A   1      38.321  20.845  25.433  1.00  0.00     0.116 C 
BRANCH  30  31
ATOM     31  N   UNL A   1      39.298  19.773  25.529  1.00  0.00    -0.352 N 
ATOM     32  C   UNL A   1      40.601  19.817  25.955  1.00  0.00     0.251 C 
ATOM     33  H   UNL A   1      38.978  18.886  25.246  1.00  0.00     0.163 HD
ATOM     34  O   UNL A   1      41.330  18.837  25.817  1.00  0.00    -0.269 OA
BRANCH  32  35
ATOM     35  C   UNL A   1      41.143  21.053  26.559  1.00  0.00     0.039 A 
ATOM     36  C   UNL A   1      41.741  22.004  25.728  1.00  0.00     0.014 A 
ATOM     37  C   UNL A   1      41.070  21.274  27.937  1.00  0.00     0.014 A 
ATOM     38  C   UNL A   1      42.207  23.203  26.270  1.00  0.00     0.010 A 
ATOM     39  C   UNL A   1      41.469  22.498  28.466  1.00  0.00     0.010 A 
ATOM     40  C   UNL A   1      42.044  23.475  27.638  1.00  0.00    -0.014 A 
BRANCH  40  41
ATOM     41  C   UNL A   1      42.464  24.776  28.217  1.00  0.00     0.031 A 
ATOM     42  C   UNL A   1      41.460  25.875  28.423  1.00  0.00     0.074 A 
ATOM     43  C   UNL A   1      43.764  24.993  28.498  1.00  0.00     0.049 A 
ATOM     44  N   UNL A   1      41.647  27.099  28.848  1.00  0.00    -0.248 NA
ATOM     45  C   UNL A   1      40.063  25.565  28.078  1.00  0.00     0.031 C 
ATOM     46  C   UNL A   1      44.845  24.026  28.298  1.00  0.00     0.029 A 
ATOM     47  N   UNL A   1      44.398  26.101  28.999  1.00  0.00    -0.354 N 
ATOM     48  C   UNL A   1      40.397  27.706  28.814  1.00  0.00     0.074 A 
ATOM     49  C   UNL A   1      39.472  26.736  28.269  1.00  0.00     0.031 C 
ATOM     50  C   UNL A   1      46.004  24.576  28.688  1.00  0.00     0.029 A 
ATOM     51  C   UNL A   1      45.757  25.946  29.130  1.00  0.00     0.049 A 
ATOM     52  H   UNL A   1      43.925  26.929  29.242  1.00  0.00     0.167 HD
ATOM     53  C   UNL A   1      40.047  28.948  29.223  1.00  0.00     0.037 A 
ATOM     54  C   UNL A   1      46.699  26.811  29.550  1.00  0.00     0.037 A 
ATOM     55  C   UNL A   1      40.967  29.908  29.777  1.00  0.00     0.049 A 
ATOM     56  C   UNL A   1      46.290  28.190  29.989  1.00  0.00     0.074 A 
ATOM     57  C   UNL A   1      40.702  31.176  30.265  1.00  0.00     0.029 A 
ATOM     58  N   UNL A   1      42.332  29.706  29.912  1.00  0.00    -0.354 N 
ATOM     59  N   UNL A   1      45.096  28.729  30.010  1.00  0.00    -0.248 NA
ATOM     60  C   UNL A   1      47.358  29.076  30.470  1.00  0.00     0.031 C 
ATOM     61  C   UNL A   1      41.913  31.758  30.653  1.00  0.00     0.029 A 
ATOM     62  C   UNL A   1      42.926  30.834  30.456  1.00  0.00     0.049 A 
ATOM     63  H   UNL A   1      42.810  28.882  29.659  1.00  0.00     0.167 HD
ATOM     64  C   UNL A   1      45.264  30.007  30.528  1.00  0.00     0.074 A 
ATOM     65  C   UNL A   1      46.674  30.155  30.821  1.00  0.00     0.031 C 
ATOM     66  C   UNL A   1      44.333  30.968  30.742  1.00  0.00     0.037 A 
BRANCH  53  67
ATOM     67  C   UNL A   1      38.603  29.337  29.084  1.00  0.00     0.057 A 
ATOM     68  C   UNL A   1      38.057  29.721  27.850  1.00  0.00     0.134 A 
ATOM     69  C   UNL A   1      37.743  29.314  30.189  1.00  0.00     0.134 A 
ATOM     70  F   UNL A   1      38.830  29.776  26.754  1.00  0.00    -0.206 F 
ATOM     71  C   UNL A   1      36.720  30.100  27.728  1.00  0.00     0.040 A 
ATOM     72  C   UNL A   1      36.394  29.661  30.072  1.00  0.00     0.040 A 
ATOM     73  F   UNL A   1      38.194  28.950  31.397  1.00  0.00    -0.206 F 
ATOM     74  C   UNL A   1      35.883  30.065  28.841  1.00  0.00     0.006 A 
ENDBRANCH  53  67
BRANCH  54  75
ATOM     75  C   UNL A   1      48.122  26.389  29.592  1.00  0.00     0.057 A 
ATOM     76  C   UNL A   1      48.664  25.786  30.732  1.00  0.00     0.134 A 
ATOM     77  C   UNL A   1      48.969  26.569  28.492  1.00  0.00     0.134 A 
ATOM     78  F   UNL A   1      47.906  25.604  31.823  1.00  0.00    -0.206 F 
ATOM     79  C   UNL A   1      50.001  25.391  30.784  1.00  0.00     0.040 A 
ATOM     80  C   UNL A   1      50.302  26.156  28.521  1.00  0.00     0.040 A 
ATOM     81  F   UNL A   1      48.508  27.132  27.365  1.00  0.00    -0.206 F 
ATOM     82  C   UNL A   1      50.824  25.570  29.673  1.00  0.00     0.006 A 
ENDBRANCH  54  75
BRANCH  66  83
ATOM     83  C   UNL A   1      44.805  32.259  31.347  1.00  0.00     0.057 A 
ATOM     84  C   UNL A   1      44.849  32.454  32.734  1.00  0.00     0.134 A 
ATOM     85  C   UNL A   1      45.256  33.304  30.532  1.00  0.00     0.134 A 
ATOM     86  F   UNL A   1      44.418  31.498  33.570  1.00  0.00    -0.206 F 
ATOM     87  C   UNL A   1      45.305  33.652  33.287  1.00  0.00     0.040 A 
ATOM     88  C   UNL A   1      45.739  34.496  31.074  1.00  0.00     0.040 A 
ATOM     89  F   UNL A   1      45.248  33.179  29.196  1.00  0.00    -0.206 F 
ATOM     90  C   UNL A   1      45.758  34.675  32.456  1.00  0.00     0.006 A 
ENDBRANCH  66  83
ENDBRANCH  40  41
ENDBRANCH  32  35
ENDBRANCH  30  31
ENDBRANCH  29  30
ENDBRANCH  28  29
ENDBRANCH   1  28
TORSDOF 18
ENDMDL
MODEL 2
REMARK VINA RESULT:     -11.7      2.353      6.986
REMARK SMILES O=C(NCCCCCCNC(=O)c1ccc(-c2c3nc(c(-c4c(F)cccc4F)c4ccc([nH]4)c(-c4c(F)cccc4F)c4nc(c(-c5c(F)cccc5F)c5ccc2[nH]5)C=C4)C=C3)cc1)c1ccc(N[C@H]2OC[C@@H](O)[C@@H](O)[C@H]2O)cc1
REMARK SMILES IDX 6 1 5 2 4 3 3 4 1 5 2 6 67 8 68 9 82 10 69 11 81 12 70 13
REMARK SMILES IDX 71 14 72 16 73 17 79 18 74 19 77 20 75 21 80 22 78 24 76 26
REMARK SMILES IDX 7 28 8 29 9 30 10 31 11 32 12 34 13 35 14 36 66 37 15 38
REMARK SMILES IDX 65 39 16 40 17 41 18 42 59 43 19 44 64 45 58 46 60 47 20 48
REMARK SMILES IDX 63 49 57 50 56 51 21 53 47 54 30 55 46 56 31 57 34 58 45 59
REMARK SMILES IDX 61 60 32 61 33 62 44 64 62 65 35 66 22 67 23 68 28 69 24 70
REMARK SMILES IDX 25 71 27 72 29 73 26 74 48 75 49 76 54 77 50 78 51 79 53 80
REMARK SMILES IDX 55 81 52 82 36 83 37 84 42 85 38 86 39 87 41 88 43 89 40 90
REMARK H PARENT 3 7 71 15 80 23 78 25 76 27 10 33 60 52 34 63
REMARK Flexibility Score: inf
ROOT
ATOM      1  C   UNL A   1      34.402  21.241  24.807  1.00  0.00     0.002 C 
ENDROOT
BRANCH   1   2
ATOM      2  C   UNL A   1      33.730  22.324  23.958  1.00  0.00     0.021 C 
BRANCH   2   3
ATOM      3  C   UNL A   1      32.226  22.466  24.173  1.00  0.00     0.116 C 
BRANCH   3   4
ATOM      4  N   UNL A   1      31.884  22.525  25.585  1.00  0.00    -0.352 N 
ATOM      5  O   UNL A   1      31.584  23.515  27.594  1.00  0.00    -0.269 OA
ATOM      6  C   UNL A   1      31.655  23.625  26.371  1.00  0.00     0.251 C 
ATOM      7  H   UNL A   1      31.805  21.655  26.040  1.00  0.00     0.163 HD
BRANCH   6   8
ATOM      8  C   UNL A   1      31.500  24.949  25.741  1.00  0.00     0.039 A 
ATOM      9  C   UNL A   1      30.257  25.352  25.256  1.00  0.00     0.016 A 
ATOM     10  C   UNL A   1      32.593  25.809  25.656  1.00  0.00     0.016 A 
ATOM     11  C   UNL A   1      30.132  26.582  24.610  1.00  0.00     0.026 A 
ATOM     12  C   UNL A   1      32.449  27.049  25.024  1.00  0.00     0.026 A 
ATOM     13  C   UNL A   1      31.224  27.446  24.463  1.00  0.00     0.036 A 
BRANCH  13  14
ATOM     14  N   UNL A   1      31.129  28.696  23.871  1.00  0.00    -0.358 N 
ATOM     15  H   UNL A   1      31.956  29.131  23.562  1.00  0.00     0.163 HD
BRANCH  14  16
ATOM     16  C   UNL A   1      29.868  29.400  23.681  1.00  0.00     0.244 C 
ATOM     17  O   UNL A   1      30.038  30.764  24.075  1.00  0.00    -0.353 OA
ATOM     18  C   UNL A   1      29.498  29.380  22.180  1.00  0.00     0.195 C 
ATOM     19  C   UNL A   1      28.826  31.520  24.003  1.00  0.00     0.197 C 
ATOM     20  C   UNL A   1      28.198  30.173  21.984  1.00  0.00     0.178 C 
ATOM     21  C   UNL A   1      28.315  31.592  22.564  1.00  0.00     0.171 C 
BRANCH  18  22
ATOM     22  O   UNL A   1      30.559  30.000  21.411  1.00  0.00    -0.386 OA
ATOM     23  H   UNL A   1      31.396  29.924  21.896  1.00  0.00     0.211 HD
ENDBRANCH  18  22
BRANCH  20  24
ATOM     24  O   UNL A   1      27.866  30.236  20.595  1.00  0.00    -0.387 OA
ATOM     25  H   UNL A   1      27.125  30.849  20.468  1.00  0.00     0.211 HD
ENDBRANCH  20  24
BRANCH  21  26
ATOM     26  O   UNL A   1      29.219  32.376  21.771  1.00  0.00    -0.388 OA
ATOM     27  H   UNL A   1      29.133  33.311  22.012  1.00  0.00     0.211 HD
ENDBRANCH  21  26
ENDBRANCH  14  16
ENDBRANCH  13  14
ENDBRANCH   6   8
ENDBRANCH   3   4
ENDBRANCH   2   3
ENDBRANCH   1   2
BRANCH   1  28
ATOM     28  C   UNL A   1      35.495  21.735  25.758  1.00  0.00     0.002 C 
BRANCH  28  29
ATOM     29  C   UNL A   1      35.719  23.249  25.771  1.00  0.00     0.021 C 
BRANCH  29  30
ATOM     30  C   UNL A   1      37.064  23.707  25.217  1.00  0.00     0.116 C 
BRANCH  30  31
ATOM     31  N   UNL A   1      38.137  22.775  25.518  1.00  0.00    -0.352 N 
ATOM     32  C   UNL A   1      39.312  22.987  26.194  1.00  0.00     0.251 C 
ATOM     33  H   UNL A   1      38.002  21.857  25.188  1.00  0.00     0.163 HD
ATOM     34  O   UNL A   1      40.179  22.114  26.215  1.00  0.00    -0.269 OA
BRANCH  32  35
ATOM     35  C   UNL A   1      39.552  24.274  26.879  1.00  0.00     0.039 A 
ATOM     36  C   UNL A   1      39.064  24.449  28.176  1.00  0.00     0.014 A 
ATOM     37  C   UNL A   1      40.248  25.309  26.247  1.00  0.00     0.014 A 
ATOM     38  C   UNL A   1      39.329  25.636  28.863  1.00  0.00     0.010 A 
ATOM     39  C   UNL A   1      40.573  26.461  26.957  1.00  0.00     0.010 A 
ATOM     40  C   UNL A   1      40.115  26.638  28.272  1.00  0.00    -0.014 A 
BRANCH  40  41
ATOM     41  C   UNL A   1      40.471  27.873  29.015  1.00  0.00     0.031 A 
ATOM     42  C   UNL A   1      41.809  27.994  29.690  1.00  0.00     0.074 A 
ATOM     43  C   UNL A   1      39.565  28.861  29.140  1.00  0.00     0.049 A 
ATOM     44  N   UNL A   1      42.274  28.960  30.441  1.00  0.00    -0.248 NA
ATOM     45  C   UNL A   1      42.738  26.865  29.520  1.00  0.00     0.031 C 
ATOM     46  C   UNL A   1      38.214  28.846  28.574  1.00  0.00     0.029 A 
ATOM     47  N   UNL A   1      39.638  30.065  29.793  1.00  0.00    -0.354 N 
ATOM     48  C   UNL A   1      43.541  28.553  30.839  1.00  0.00     0.074 A 
ATOM     49  C   UNL A   1      43.748  27.227  30.297  1.00  0.00     0.031 C 
ATOM     50  C   UNL A   1      37.593  29.993  28.891  1.00  0.00     0.029 A 
ATOM     51  C   UNL A   1      38.484  30.807  29.711  1.00  0.00     0.049 A 
ATOM     52  H   UNL A   1      40.441  30.369  30.274  1.00  0.00     0.167 HD
ATOM     53  C   UNL A   1      44.460  29.231  31.567  1.00  0.00     0.037 A 
ATOM     54  C   UNL A   1      38.176  32.004  30.244  1.00  0.00     0.037 A 
ATOM     55  C   UNL A   1      44.256  30.556  32.095  1.00  0.00     0.049 A 
ATOM     56  C   UNL A   1      39.206  32.736  31.059  1.00  0.00     0.074 A 
ATOM     57  C   UNL A   1      45.143  31.347  32.805  1.00  0.00     0.029 A 
ATOM     58  N   UNL A   1      43.081  31.282  31.974  1.00  0.00    -0.354 N 
ATOM     59  N   UNL A   1      40.423  32.366  31.375  1.00  0.00    -0.248 NA
ATOM     60  C   UNL A   1      38.823  34.053  31.584  1.00  0.00     0.031 C 
ATOM     61  C   UNL A   1      44.489  32.534  33.153  1.00  0.00     0.029 A 
ATOM     62  C   UNL A   1      43.212  32.504  32.615  1.00  0.00     0.049 A 
ATOM     63  H   UNL A   1      42.273  30.976  31.502  1.00  0.00     0.167 HD
ATOM     64  C   UNL A   1      40.960  33.413  32.113  1.00  0.00     0.074 A 
ATOM     65  C   UNL A   1      39.939  34.438  32.186  1.00  0.00     0.031 C 
ATOM     66  C   UNL A   1      42.187  33.516  32.679  1.00  0.00     0.037 A 
BRANCH  53  67
ATOM     67  C   UNL A   1      45.769  28.546  31.834  1.00  0.00     0.057 A 
ATOM     68  C   UNL A   1      45.968  27.753  32.973  1.00  0.00     0.134 A 
ATOM     69  C   UNL A   1      46.838  28.665  30.938  1.00  0.00     0.134 A 
ATOM     70  F   UNL A   1      44.988  27.606  33.879  1.00  0.00    -0.206 F 
ATOM     71  C   UNL A   1      47.193  27.133  33.228  1.00  0.00     0.040 A 
ATOM     72  C   UNL A   1      48.058  28.024  31.166  1.00  0.00     0.040 A 
ATOM     73  F   UNL A   1      46.716  29.401  29.824  1.00  0.00    -0.206 F 
ATOM     74  C   UNL A   1      48.240  27.264  32.319  1.00  0.00     0.006 A 
ENDBRANCH  53  67
BRANCH  54  75
ATOM     75  C   UNL A   1      36.834  32.594  30.006  1.00  0.00     0.057 A 
ATOM     76  C   UNL A   1      35.751  32.289  30.839  1.00  0.00     0.134 A 
ATOM     77  C   UNL A   1      36.604  33.482  28.948  1.00  0.00     0.134 A 
ATOM     78  F   UNL A   1      35.906  31.431  31.858  1.00  0.00    -0.206 F 
ATOM     79  C   UNL A   1      34.486  32.833  30.620  1.00  0.00     0.040 A 
ATOM     80  C   UNL A   1      35.350  34.053  28.732  1.00  0.00     0.040 A 
ATOM     81  F   UNL A   1      37.603  33.822  28.119  1.00  0.00    -0.206 F 
ATOM     82  C   UNL A   1      34.283  33.723  29.567  1.00  0.00     0.006 A 
ENDBRANCH  54  75
BRANCH  66  83
ATOM     83  C   UNL A   1      42.505  34.792  33.403  1.00  0.00     0.057 A 
ATOM     84  C   UNL A   1      43.111  35.878  32.759  1.00  0.00     0.134 A 
ATOM     85  C   UNL A   1      42.167  34.947  34.754  1.00  0.00     0.134 A 
ATOM     86  F   UNL A   1      43.473  35.790  31.470  1.00  0.00    -0.206 F 
ATOM     87  C   UNL A   1      43.388  37.066  33.438  1.00  0.00     0.040 A 
ATOM     88  C   UNL A   1      42.414  36.140  35.436  1.00  0.00     0.040 A 
ATOM     89  F   UNL A   1      41.578  33.948  35.428  1.00  0.00    -0.206 F 
ATOM     90  C   UNL A   1      43.033  37.201  34.779  1.00  0.00     0.006 A 
ENDBRANCH  66  83
ENDBRANCH  40  41
ENDBRANCH  32  35
ENDBRANCH  30  31
ENDBRANCH  29  30
ENDBRANCH  28  29
ENDBRANCH   1  28
TORSDOF 18
ENDMDL
MODEL 3
REMARK VINA RESULT:     -11.7      6.367     11.634
REMARK SMILES O=C(NCCCCCCNC(=O)c1ccc(-c2c3nc(c(-c4c(F)cccc4F)c4ccc([nH]4)c(-c4c(F)cccc4F)c4nc(c(-c5c(F)cccc5F)c5ccc2[nH]5)C=C4)C=C3)cc1)c1ccc(N[C@H]2OC[C@@H](O)[C@@H](O)[C@H]2O)cc1
REMARK SMILES IDX 6 1 5 2 4 3 3 4 1 5 2 6 67 8 68 9 82 10 69 11 81 12 70 13
REMARK SMILES IDX 71 14 72 16 73 17 79 18 74 19 77 20 75 21 80 22 78 24 76 26
REMARK SMILES IDX 7 28 8 29 9 30 10 31 11 32 12 34 13 35 14 36 66 37 15 38
REMARK SMILES IDX 65 39 16 40 17 41 18 42 59 43 19 44 64 45 58 46 60 47 20 48
REMARK SMILES IDX 63 49 57 50 56 51 21 53 47 54 30 55 46 56 31 57 34 58 45 59
REMARK SMILES IDX 61 60 32 61 33 62 44 64 62 65 35 66 22 67 23 68 28 69 24 70
REMARK SMILES IDX 25 71 27 72 29 73 26 74 48 75 49 76 54 77 50 78 51 79 53 80
REMARK SMILES IDX 55 81 52 82 36 83 37 84 42 85 38 86 39 87 41 88 43 89 40 90
REMARK H PARENT 3 7 71 15 80 23 78 25 76 27 10 33 60 52 34 63
REMARK Flexibility Score: inf
ROOT
ATOM      1  C   UNL A   1      45.861  25.456  32.655  1.00  0.00     0.002 C 
ENDROOT
BRANCH   1   2
ATOM      2  C   UNL A   1      45.303  25.215  31.250  1.00  0.00     0.021 C 
BRANCH   2   3
ATOM      3  C   UNL A   1      46.124  25.830  30.119  1.00  0.00     0.116 C 
BRANCH   3   4
ATOM      4  N   UNL A   1      45.496  27.027  29.584  1.00  0.00    -0.352 N 
ATOM      5  O   UNL A   1      44.489  28.297  28.010  1.00  0.00    -0.269 OA
ATOM      6  C   UNL A   1      44.774  27.176  28.428  1.00  0.00     0.251 C 
ATOM      7  H   UNL A   1      45.604  27.842  30.125  1.00  0.00     0.163 HD
BRANCH   6   8
ATOM      8  C   UNL A   1      44.342  25.980  27.680  1.00  0.00     0.039 A 
ATOM      9  C   UNL A   1      43.455  25.074  28.259  1.00  0.00     0.016 A 
ATOM     10  C   UNL A   1      44.801  25.772  26.381  1.00  0.00     0.016 A 
ATOM     11  C   UNL A   1      43.099  23.917  27.568  1.00  0.00     0.026 A 
ATOM     12  C   UNL A   1      44.418  24.617  25.690  1.00  0.00     0.026 A 
ATOM     13  C   UNL A   1      43.584  23.654  26.280  1.00  0.00     0.036 A 
BRANCH  13  14
ATOM     14  N   UNL A   1      43.214  22.540  25.542  1.00  0.00    -0.358 N 
ATOM     15  H   UNL A   1      42.424  22.609  24.959  1.00  0.00     0.163 HD
BRANCH  14  16
ATOM     16  C   UNL A   1      43.933  21.274  25.585  1.00  0.00     0.244 C 
ATOM     17  O   UNL A   1      43.114  20.260  24.998  1.00  0.00    -0.353 OA
ATOM     18  C   UNL A   1      45.221  21.395  24.739  1.00  0.00     0.195 C 
ATOM     19  C   UNL A   1      43.702  18.959  25.068  1.00  0.00     0.197 C 
ATOM     20  C   UNL A   1      45.941  20.039  24.744  1.00  0.00     0.178 C 
ATOM     21  C   UNL A   1      45.009  18.909  24.277  1.00  0.00     0.171 C 
BRANCH  18  22
ATOM     22  O   UNL A   1      44.874  21.750  23.377  1.00  0.00    -0.386 OA
ATOM     23  H   UNL A   1      45.667  22.065  22.914  1.00  0.00     0.211 HD
ENDBRANCH  18  22
BRANCH  20  24
ATOM     24  O   UNL A   1      47.100  20.096  23.910  1.00  0.00    -0.387 OA
ATOM     25  H   UNL A   1      47.026  19.430  23.208  1.00  0.00     0.211 HD
ENDBRANCH  20  24
BRANCH  21  26
ATOM     26  O   UNL A   1      44.728  19.048  22.876  1.00  0.00    -0.388 OA
ATOM     27  H   UNL A   1      43.946  19.607  22.757  1.00  0.00     0.211 HD
ENDBRANCH  21  26
ENDBRANCH  14  16
ENDBRANCH  13  14
ENDBRANCH   6   8
ENDBRANCH   3   4
ENDBRANCH   2   3
ENDBRANCH   1   2
BRANCH   1  28
ATOM     28  C   UNL A   1      45.591  24.342  33.670  1.00  0.00     0.002 C 
BRANCH  28  29
ATOM     29  C   UNL A   1      46.732  24.058  34.651  1.00  0.00     0.021 C 
BRANCH  29  30
ATOM     30  C   UNL A   1      47.695  25.219  34.876  1.00  0.00     0.116 C 
BRANCH  30  31
ATOM     31  N   UNL A   1      47.649  25.725  36.237  1.00  0.00    -0.352 N 
ATOM     32  C   UNL A   1      46.869  26.719  36.771  1.00  0.00     0.251 C 
ATOM     33  H   UNL A   1      48.268  25.292  36.868  1.00  0.00     0.163 HD
ATOM     34  O   UNL A   1      47.080  27.123  37.913  1.00  0.00    -0.269 OA
BRANCH  32  35
ATOM     35  C   UNL A   1      45.788  27.327  35.967  1.00  0.00     0.039 A 
ATOM     36  C   UNL A   1      44.490  26.823  36.092  1.00  0.00     0.014 A 
ATOM     37  C   UNL A   1      46.048  28.382  35.089  1.00  0.00     0.014 A 
ATOM     38  C   UNL A   1      43.444  27.419  35.386  1.00  0.00     0.010 A 
ATOM     39  C   UNL A   1      44.994  29.021  34.441  1.00  0.00     0.010 A 
ATOM     40  C   UNL A   1      43.681  28.545  34.581  1.00  0.00    -0.014 A 
BRANCH  40  41
ATOM     41  C   UNL A   1      42.569  29.238  33.883  1.00  0.00     0.031 A 
ATOM     42  C   UNL A   1      41.814  30.343  34.569  1.00  0.00     0.074 A 
ATOM     43  C   UNL A   1      42.193  28.829  32.656  1.00  0.00     0.049 A 
ATOM     44  N   UNL A   1      40.773  31.017  34.152  1.00  0.00    -0.248 NA
ATOM     45  C   UNL A   1      42.276  30.721  35.914  1.00  0.00     0.031 C 
ATOM     46  C   UNL A   1      42.812  27.737  31.903  1.00  0.00     0.029 A 
ATOM     47  N   UNL A   1      41.192  29.276  31.831  1.00  0.00    -0.354 N 
ATOM     48  C   UNL A   1      40.450  31.890  35.183  1.00  0.00     0.074 A 
ATOM     49  C   UNL A   1      41.367  31.618  36.268  1.00  0.00     0.031 C 
ATOM     50  C   UNL A   1      42.188  27.610  30.721  1.00  0.00     0.029 A 
ATOM     51  C   UNL A   1      41.104  28.585  30.648  1.00  0.00     0.049 A 
ATOM     52  H   UNL A   1      40.594  30.023  32.065  1.00  0.00     0.167 HD
ATOM     53  C   UNL A   1      39.494  32.849  35.215  1.00  0.00     0.037 A 
ATOM     54  C   UNL A   1      40.241  28.715  29.622  1.00  0.00     0.037 A 
ATOM     55  C   UNL A   1      38.590  33.127  34.128  1.00  0.00     0.049 A 
ATOM     56  C   UNL A   1      39.180  29.778  29.682  1.00  0.00     0.074 A 
ATOM     57  C   UNL A   1      37.618  34.108  34.044  1.00  0.00     0.029 A 
ATOM     58  N   UNL A   1      38.545  32.417  32.938  1.00  0.00    -0.354 N 
ATOM     59  N   UNL A   1      38.926  30.638  30.638  1.00  0.00    -0.248 NA
ATOM     60  C   UNL A   1      38.292  29.894  28.518  1.00  0.00     0.031 C 
ATOM     61  C   UNL A   1      36.954  33.964  32.821  1.00  0.00     0.029 A 
ATOM     62  C   UNL A   1      37.547  32.926  32.121  1.00  0.00     0.049 A 
ATOM     63  H   UNL A   1      39.135  31.663  32.706  1.00  0.00     0.167 HD
ATOM     64  C   UNL A   1      37.867  31.413  30.182  1.00  0.00     0.074 A 
ATOM     65  C   UNL A   1      37.537  30.929  28.858  1.00  0.00     0.031 C 
ATOM     66  C   UNL A   1      37.228  32.433  30.805  1.00  0.00     0.037 A 
BRANCH  53  67
ATOM     67  C   UNL A   1      39.380  33.667  36.469  1.00  0.00     0.057 A 
ATOM     68  C   UNL A   1      38.611  33.240  37.561  1.00  0.00     0.134 A 
ATOM     69  C   UNL A   1      40.057  34.886  36.596  1.00  0.00     0.134 A 
ATOM     70  F   UNL A   1      37.927  32.086  37.501  1.00  0.00    -0.206 F 
ATOM     71  C   UNL A   1      38.492  34.011  38.718  1.00  0.00     0.040 A 
ATOM     72  C   UNL A   1      39.971  35.652  37.761  1.00  0.00     0.040 A 
ATOM     73  F   UNL A   1      40.817  35.351  35.595  1.00  0.00    -0.206 F 
ATOM     74  C   UNL A   1      39.178  35.219  38.822  1.00  0.00     0.006 A 
ENDBRANCH  53  67
BRANCH  54  75
ATOM     75  C   UNL A   1      40.360  27.823  28.441  1.00  0.00     0.057 A 
ATOM     76  C   UNL A   1      39.742  26.567  28.418  1.00  0.00     0.134 A 
ATOM     77  C   UNL A   1      41.084  28.206  27.306  1.00  0.00     0.134 A 
ATOM     78  F   UNL A   1      39.050  26.137  29.484  1.00  0.00    -0.206 F 
ATOM     79  C   UNL A   1      39.853  25.719  27.316  1.00  0.00     0.040 A 
ATOM     80  C   UNL A   1      41.182  27.379  26.187  1.00  0.00     0.040 A 
ATOM     81  F   UNL A   1      41.691  29.401  27.262  1.00  0.00    -0.206 F 
ATOM     82  C   UNL A   1      40.569  26.126  26.193  1.00  0.00     0.006 A 
ENDBRANCH  54  75
BRANCH  66  83
ATOM     83  C   UNL A   1      36.123  33.114  30.050  1.00  0.00     0.057 A 
ATOM     84  C   UNL A   1      34.775  32.921  30.377  1.00  0.00     0.134 A 
ATOM     85  C   UNL A   1      36.415  34.003  29.007  1.00  0.00     0.134 A 
ATOM     86  F   UNL A   1      34.426  32.073  31.355  1.00  0.00    -0.206 F 
ATOM     87  C   UNL A   1      33.755  33.572  29.678  1.00  0.00     0.040 A 
ATOM     88  C   UNL A   1      35.407  34.679  28.320  1.00  0.00     0.040 A 
ATOM     89  F   UNL A   1      37.687  34.239  28.649  1.00  0.00    -0.206 F 
ATOM     90  C   UNL A   1      34.071  34.459  28.651  1.00  0.00     0.006 A 
ENDBRANCH  66  83
ENDBRANCH  40  41
ENDBRANCH  32  35
ENDBRANCH  30  31
ENDBRANCH  29  30
ENDBRANCH  28  29
ENDBRANCH   1  28
TORSDOF 18
ENDMDL
