MODEL 1
REMARK VINA RESULT:     -12.2      0.000      0.000
REMARK SMILES C/C(=N\NC(N)=O)c1nnn(-c2ccc(C(=O)NCCCCCCNC(=O)c3ccc(-c4c5nc(c(-c6c(F)cccc6F)c6ccc([nH]6)c(-c6c(F)cccc6F)c6nc(c(-c7c(F)cccc7F)c7ccc4[nH]7)C=C6)C=C5)cc3)cc2)c1C
REMARK SMILES IDX 21 1 20 2 19 3 18 4 16 5 17 6 15 8 12 9 13 10 83 11 14 12
REMARK SMILES IDX 82 13 11 14 8 15 9 16 84 17 10 18 85 19 2 20 1 21 3 22 4 23
REMARK SMILES IDX 5 24 6 26 7 27 22 30 23 31 24 32 25 33 26 34 27 36 28 37
REMARK SMILES IDX 29 38 81 39 30 40 80 41 31 42 32 43 33 44 74 45 34 46 79 47
REMARK SMILES IDX 73 48 75 49 35 50 78 51 72 52 71 53 36 55 62 56 45 57 61 58
REMARK SMILES IDX 46 59 49 60 60 61 76 62 47 63 48 64 59 66 77 67 50 68 37 69
REMARK SMILES IDX 38 70 43 71 39 72 40 73 42 74 44 75 41 76 63 77 64 78 69 79
REMARK SMILES IDX 65 80 66 81 68 82 70 83 67 84 51 85 52 86 57 87 53 88 54 89
REMARK SMILES IDX 56 90 58 91 55 92
REMARK H PARENT 18 7 4 25 6 28 6 29 25 35 75 54 49 65
REMARK Flexibility Score: inf
ROOT
ATOM      1  C   UNL A   1      32.622  27.956  26.478  1.00  0.00     0.002 C 
ENDROOT
BRANCH   1   2
ATOM      2  C   UNL A   1      31.424  28.901  26.314  1.00  0.00     0.021 C 
BRANCH   2   3
ATOM      3  C   UNL A   1      31.708  30.080  25.380  1.00  0.00     0.116 C 
BRANCH   3   4
ATOM      4  N   UNL A   1      30.769  30.078  24.271  1.00  0.00    -0.352 N 
ATOM      5  C   UNL A   1      30.594  29.245  23.196  1.00  0.00     0.251 C 
ATOM      6  O   UNL A   1      29.686  29.510  22.408  1.00  0.00    -0.269 OA
ATOM      7  H   UNL A   1      30.131  30.827  24.296  1.00  0.00     0.163 HD
BRANCH   5   8
ATOM      8  C   UNL A   1      31.389  28.000  22.993  1.00  0.00     0.039 A 
ATOM      9  C   UNL A   1      32.791  25.590  23.011  1.00  0.00     0.067 A 
ATOM     10  C   UNL A   1      31.398  25.560  23.057  1.00  0.00     0.029 A 
ATOM     11  C   UNL A   1      33.478  26.791  22.824  1.00  0.00     0.029 A 
ATOM     12  C   UNL A   1      30.704  26.773  23.082  1.00  0.00     0.016 A 
ATOM     13  C   UNL A   1      32.764  27.985  22.752  1.00  0.00     0.016 A 
BRANCH   9  14
ATOM     14  N   UNL A   1      33.529  24.420  23.249  1.00  0.00    -0.217 N 
ATOM     15  C   UNL A   1      34.393  22.620  24.105  1.00  0.00     0.132 A 
ATOM     16  N   UNL A   1      34.961  22.846  22.878  1.00  0.00    -0.128 NA
ATOM     17  C   UNL A   1      33.453  23.601  24.361  1.00  0.00     0.071 A 
ATOM     18  N   UNL A   1      34.363  23.898  22.330  1.00  0.00    -0.061 NA
ATOM     19  C   UNL A   1      32.455  23.755  25.446  1.00  0.00     0.069 C 
BRANCH  15  20
ATOM     20  C   UNL A   1      34.645  21.412  24.873  1.00  0.00     0.087 C 
ATOM     21  C   UNL A   1      35.867  21.437  25.751  1.00  0.00     0.071 C 
ATOM     22  N   UNL A   1      33.759  20.468  24.741  1.00  0.00    -0.174 NA
BRANCH  22  23
ATOM     23  N   UNL A   1      33.845  19.261  25.378  1.00  0.00    -0.229 N 
ATOM     24  C   UNL A   1      32.903  18.257  25.425  1.00  0.00     0.332 C 
ATOM     25  H   UNL A   1      34.684  19.088  25.863  1.00  0.00     0.195 HD
ATOM     26  N   UNL A   1      33.336  17.171  26.125  1.00  0.00    -0.350 N 
ATOM     27  O   UNL A   1      31.790  18.251  24.917  1.00  0.00    -0.247 OA
ATOM     28  H   UNL A   1      34.232  17.174  26.534  1.00  0.00     0.161 HD
ATOM     29  H   UNL A   1      32.755  16.383  26.222  1.00  0.00     0.161 HD
ENDBRANCH  22  23
ENDBRANCH  15  20
ENDBRANCH   9  14
ENDBRANCH   5   8
ENDBRANCH   3   4
ENDBRANCH   2   3
ENDBRANCH   1   2
BRANCH   1  30
ATOM     30  C   UNL A   1      34.006  28.627  26.419  1.00  0.00     0.002 C 
BRANCH  30  31
ATOM     31  C   UNL A   1      34.438  29.396  27.677  1.00  0.00     0.021 C 
BRANCH  31  32
ATOM     32  C   UNL A   1      34.988  30.776  27.366  1.00  0.00     0.116 C 
BRANCH  32  33
ATOM     33  N   UNL A   1      34.727  31.734  28.447  1.00  0.00    -0.352 N 
ATOM     34  C   UNL A   1      35.219  31.719  29.743  1.00  0.00     0.251 C 
ATOM     35  H   UNL A   1      34.130  32.482  28.222  1.00  0.00     0.163 HD
ATOM     36  O   UNL A   1      34.688  32.340  30.643  1.00  0.00    -0.269 OA
BRANCH  34  37
ATOM     37  C   UNL A   1      36.446  30.944  29.983  1.00  0.00     0.039 A 
ATOM     38  C   UNL A   1      36.441  29.634  30.472  1.00  0.00     0.014 A 
ATOM     39  C   UNL A   1      37.630  31.576  29.626  1.00  0.00     0.014 A 
ATOM     40  C   UNL A   1      37.654  28.952  30.545  1.00  0.00     0.010 A 
ATOM     41  C   UNL A   1      38.751  30.829  29.452  1.00  0.00     0.010 A 
ATOM     42  C   UNL A   1      38.802  29.567  30.027  1.00  0.00    -0.014 A 
BRANCH  42  43
ATOM     43  C   UNL A   1      40.108  28.935  30.013  1.00  0.00     0.031 A 
ATOM     44  C   UNL A   1      40.737  28.776  31.351  1.00  0.00     0.074 A 
ATOM     45  C   UNL A   1      40.529  28.281  28.905  1.00  0.00     0.049 A 
ATOM     46  N   UNL A   1      41.837  29.295  31.783  1.00  0.00    -0.248 NA
ATOM     47  C   UNL A   1      39.975  28.057  32.389  1.00  0.00     0.031 C 
ATOM     48  C   UNL A   1      39.815  28.064  27.635  1.00  0.00     0.029 A 
ATOM     49  N   UNL A   1      41.661  27.554  28.724  1.00  0.00    -0.354 N 
ATOM     50  C   UNL A   1      42.014  28.804  33.076  1.00  0.00     0.074 A 
ATOM     51  C   UNL A   1      40.758  28.217  33.458  1.00  0.00     0.031 C 
ATOM     52  C   UNL A   1      40.417  27.082  26.928  1.00  0.00     0.029 A 
ATOM     53  C   UNL A   1      41.653  26.736  27.596  1.00  0.00     0.049 A 
ATOM     54  H   UNL A   1      42.427  27.600  29.342  1.00  0.00     0.167 HD
ATOM     55  C   UNL A   1      43.253  28.713  33.635  1.00  0.00     0.037 A 
ATOM     56  C   UNL A   1      42.601  25.820  27.274  1.00  0.00     0.037 A 
ATOM     57  C   UNL A   1      44.207  29.494  32.889  1.00  0.00     0.049 A 
ATOM     58  C   UNL A   1      43.811  26.159  28.067  1.00  0.00     0.074 A 
ATOM     59  C   UNL A   1      44.354  30.838  32.610  1.00  0.00     0.029 A 
ATOM     60  N   UNL A   1      44.976  28.834  31.961  1.00  0.00    -0.354 N 
ATOM     61  N   UNL A   1      44.494  27.260  27.904  1.00  0.00    -0.248 NA
ATOM     62  C   UNL A   1      43.948  25.522  29.367  1.00  0.00     0.031 C 
ATOM     63  C   UNL A   1      44.784  30.883  31.250  1.00  0.00     0.029 A 
ATOM     64  C   UNL A   1      44.957  29.572  30.805  1.00  0.00     0.049 A 
ATOM     65  H   UNL A   1      45.455  27.985  32.101  1.00  0.00     0.167 HD
ATOM     66  C   UNL A   1      44.812  27.677  29.191  1.00  0.00     0.074 A 
ATOM     67  C   UNL A   1      44.494  26.534  30.048  1.00  0.00     0.031 C 
ATOM     68  C   UNL A   1      45.018  28.996  29.479  1.00  0.00     0.037 A 
BRANCH  55  69
ATOM     69  C   UNL A   1      43.685  27.655  34.623  1.00  0.00     0.057 A 
ATOM     70  C   UNL A   1      43.739  26.311  34.205  1.00  0.00     0.134 A 
ATOM     71  C   UNL A   1      43.777  27.846  36.016  1.00  0.00     0.134 A 
ATOM     72  F   UNL A   1      43.659  25.990  32.905  1.00  0.00    -0.206 F 
ATOM     73  C   UNL A   1      43.796  25.241  35.108  1.00  0.00     0.040 A 
ATOM     74  C   UNL A   1      43.887  26.787  36.924  1.00  0.00     0.040 A 
ATOM     75  F   UNL A   1      43.668  29.050  36.589  1.00  0.00    -0.206 F 
ATOM     76  C   UNL A   1      43.862  25.477  36.474  1.00  0.00     0.006 A 
ENDBRANCH  55  69
BRANCH  56  77
ATOM     77  C   UNL A   1      42.410  24.492  26.646  1.00  0.00     0.057 A 
ATOM     78  C   UNL A   1      43.094  24.133  25.477  1.00  0.00     0.134 A 
ATOM     79  C   UNL A   1      41.773  23.444  27.337  1.00  0.00     0.134 A 
ATOM     80  F   UNL A   1      43.768  25.057  24.776  1.00  0.00    -0.206 F 
ATOM     81  C   UNL A   1      43.161  22.806  25.031  1.00  0.00     0.040 A 
ATOM     82  C   UNL A   1      41.833  22.115  26.902  1.00  0.00     0.040 A 
ATOM     83  F   UNL A   1      41.155  23.664  28.506  1.00  0.00    -0.206 F 
ATOM     84  C   UNL A   1      42.540  21.790  25.751  1.00  0.00     0.006 A 
ENDBRANCH  56  77
BRANCH  68  85
ATOM     85  C   UNL A   1      45.096  29.970  28.330  1.00  0.00     0.057 A 
ATOM     86  C   UNL A   1      44.003  30.705  27.839  1.00  0.00     0.134 A 
ATOM     87  C   UNL A   1      46.354  30.309  27.823  1.00  0.00     0.134 A 
ATOM     88  F   UNL A   1      42.771  30.523  28.324  1.00  0.00    -0.206 F 
ATOM     89  C   UNL A   1      44.153  31.707  26.873  1.00  0.00     0.040 A 
ATOM     90  C   UNL A   1      46.523  31.328  26.882  1.00  0.00     0.040 A 
ATOM     91  F   UNL A   1      47.453  29.692  28.283  1.00  0.00    -0.206 F 
ATOM     92  C   UNL A   1      45.420  32.027  26.398  1.00  0.00     0.006 A 
ENDBRANCH  68  85
ENDBRANCH  42  43
ENDBRANCH  34  37
ENDBRANCH  32  33
ENDBRANCH  31  32
ENDBRANCH  30  31
ENDBRANCH   1  30
TORSDOF 16
ENDMDL
MODEL 2
REMARK VINA RESULT:     -12.1      2.875      6.735
REMARK SMILES C/C(=N\NC(N)=O)c1nnn(-c2ccc(C(=O)NCCCCCCNC(=O)c3ccc(-c4c5nc(c(-c6c(F)cccc6F)c6ccc([nH]6)c(-c6c(F)cccc6F)c6nc(c(-c7c(F)cccc7F)c7ccc4[nH]7)C=C6)C=C5)cc3)cc2)c1C
REMARK SMILES IDX 21 1 20 2 19 3 18 4 16 5 17 6 15 8 12 9 13 10 83 11 14 12
REMARK SMILES IDX 82 13 11 14 8 15 9 16 84 17 10 18 85 19 2 20 1 21 3 22 4 23
REMARK SMILES IDX 5 24 6 26 7 27 22 30 23 31 24 32 25 33 26 34 27 36 28 37
REMARK SMILES IDX 29 38 81 39 30 40 80 41 31 42 32 43 33 44 74 45 34 46 79 47
REMARK SMILES IDX 73 48 75 49 35 50 78 51 72 52 71 53 36 55 62 56 45 57 61 58
REMARK SMILES IDX 46 59 49 60 60 61 76 62 47 63 48 64 59 66 77 67 50 68 37 69
REMARK SMILES IDX 38 70 43 71 39 72 40 73 42 74 44 75 41 76 63 77 64 78 69 79
REMARK SMILES IDX 65 80 66 81 68 82 70 83 67 84 51 85 52 86 57 87 53 88 54 89
REMARK SMILES IDX 56 90 58 91 55 92
REMARK H PARENT 18 7 4 25 6 28 6 29 25 35 75 54 49 65
REMARK Flexibility Score: inf
ROOT
ATOM      1  C   UNL A   1      32.951  29.968  26.111  1.00  0.00     0.002 C 
ENDROOT
BRANCH   1   2
ATOM      2  C   UNL A   1      33.373  28.960  25.034  1.00  0.00     0.021 C 
BRANCH   2   3
ATOM      3  C   UNL A   1      32.258  28.643  24.033  1.00  0.00     0.116 C 
BRANCH   3   4
ATOM      4  N   UNL A   1      32.827  28.175  22.781  1.00  0.00    -0.352 N 
ATOM      5  C   UNL A   1      33.221  26.938  22.338  1.00  0.00     0.251 C 
ATOM      6  O   UNL A   1      33.674  26.857  21.196  1.00  0.00    -0.269 OA
ATOM      7  H   UNL A   1      32.957  28.890  22.117  1.00  0.00     0.163 HD
BRANCH   5   8
ATOM      8  C   UNL A   1      33.043  25.692  23.137  1.00  0.00     0.039 A 
ATOM      9  C   UNL A   1      32.977  23.191  24.367  1.00  0.00     0.067 A 
ATOM     10  C   UNL A   1      34.126  23.970  24.488  1.00  0.00     0.029 A 
ATOM     11  C   UNL A   1      31.827  23.695  23.759  1.00  0.00     0.029 A 
ATOM     12  C   UNL A   1      34.164  25.209  23.840  1.00  0.00     0.016 A 
ATOM     13  C   UNL A   1      31.849  24.972  23.202  1.00  0.00     0.016 A 
BRANCH   9  14
ATOM     14  N   UNL A   1      32.993  21.847  24.772  1.00  0.00    -0.217 N 
ATOM     15  C   UNL A   1      32.765  19.691  24.904  1.00  0.00     0.132 A 
ATOM     16  N   UNL A   1      33.349  20.148  26.058  1.00  0.00    -0.128 NA
ATOM     17  C   UNL A   1      32.546  20.756  24.050  1.00  0.00     0.071 A 
ATOM     18  N   UNL A   1      33.561  21.452  25.927  1.00  0.00    -0.061 NA
ATOM     19  C   UNL A   1      32.092  20.815  22.640  1.00  0.00     0.069 C 
BRANCH  15  20
ATOM     20  C   UNL A   1      32.610  18.274  24.613  1.00  0.00     0.087 C 
ATOM     21  C   UNL A   1      32.849  17.870  23.183  1.00  0.00     0.071 C 
ATOM     22  N   UNL A   1      32.326  17.520  25.635  1.00  0.00    -0.174 NA
BRANCH  22  23
ATOM     23  N   UNL A   1      32.133  16.170  25.541  1.00  0.00    -0.229 N 
ATOM     24  C   UNL A   1      33.087  15.181  25.437  1.00  0.00     0.332 C 
ATOM     25  H   UNL A   1      31.197  15.866  25.549  1.00  0.00     0.195 HD
ATOM     26  N   UNL A   1      32.539  13.933  25.398  1.00  0.00    -0.350 N 
ATOM     27  O   UNL A   1      34.302  15.315  25.392  1.00  0.00    -0.247 OA
ATOM     28  H   UNL A   1      31.561  13.824  25.435  1.00  0.00     0.161 HD
ATOM     29  H   UNL A   1      33.120  13.142  25.333  1.00  0.00     0.161 HD
ENDBRANCH  22  23
ENDBRANCH  15  20
ENDBRANCH   9  14
ENDBRANCH   5   8
ENDBRANCH   3   4
ENDBRANCH   2   3
ENDBRANCH   1   2
BRANCH   1  30
ATOM     30  C   UNL A   1      31.524  30.526  25.971  1.00  0.00     0.002 C 
BRANCH  30  31
ATOM     31  C   UNL A   1      31.285  31.926  26.555  1.00  0.00     0.021 C 
BRANCH  31  32
ATOM     32  C   UNL A   1      32.530  32.521  27.189  1.00  0.00     0.116 C 
BRANCH  32  33
ATOM     33  N   UNL A   1      32.345  33.929  27.560  1.00  0.00    -0.352 N 
ATOM     34  C   UNL A   1      32.983  34.642  28.563  1.00  0.00     0.251 C 
ATOM     35  H   UNL A   1      31.686  34.430  27.028  1.00  0.00     0.163 HD
ATOM     36  O   UNL A   1      32.527  35.676  29.012  1.00  0.00    -0.269 OA
BRANCH  34  37
ATOM     37  C   UNL A   1      34.269  34.115  29.043  1.00  0.00     0.039 A 
ATOM     38  C   UNL A   1      34.404  33.393  30.233  1.00  0.00     0.014 A 
ATOM     39  C   UNL A   1      35.351  34.321  28.199  1.00  0.00     0.014 A 
ATOM     40  C   UNL A   1      35.646  32.835  30.529  1.00  0.00     0.010 A 
ATOM     41  C   UNL A   1      36.468  33.565  28.358  1.00  0.00     0.010 A 
ATOM     42  C   UNL A   1      36.669  32.930  29.576  1.00  0.00    -0.014 A 
BRANCH  42  43
ATOM     43  C   UNL A   1      37.988  32.352  29.761  1.00  0.00     0.031 A 
ATOM     44  C   UNL A   1      38.122  30.946  29.296  1.00  0.00     0.074 A 
ATOM     45  C   UNL A   1      39.043  33.155  30.034  1.00  0.00     0.049 A 
ATOM     46  N   UNL A   1      38.401  29.898  29.995  1.00  0.00    -0.248 NA
ATOM     47  C   UNL A   1      37.765  30.646  27.898  1.00  0.00     0.031 C 
ATOM     48  C   UNL A   1      39.080  34.623  30.151  1.00  0.00     0.029 A 
ATOM     49  N   UNL A   1      40.356  32.826  30.147  1.00  0.00    -0.354 N 
ATOM     50  C   UNL A   1      38.459  28.836  29.093  1.00  0.00     0.074 A 
ATOM     51  C   UNL A   1      37.874  29.316  27.870  1.00  0.00     0.031 C 
ATOM     52  C   UNL A   1      40.356  35.061  30.078  1.00  0.00     0.029 A 
ATOM     53  C   UNL A   1      41.232  33.909  30.103  1.00  0.00     0.049 A 
ATOM     54  H   UNL A   1      40.664  31.897  30.251  1.00  0.00     0.167 HD
ATOM     55  C   UNL A   1      39.200  27.724  29.357  1.00  0.00     0.037 A 
ATOM     56  C   UNL A   1      42.586  33.832  30.058  1.00  0.00     0.037 A 
ATOM     57  C   UNL A   1      39.560  27.669  30.751  1.00  0.00     0.049 A 
ATOM     58  C   UNL A   1      42.951  32.463  30.504  1.00  0.00     0.074 A 
ATOM     59  C   UNL A   1      38.853  27.564  31.932  1.00  0.00     0.029 A 
ATOM     60  N   UNL A   1      40.804  28.136  31.101  1.00  0.00    -0.354 N 
ATOM     61  N   UNL A   1      42.738  32.016  31.713  1.00  0.00    -0.248 NA
ATOM     62  C   UNL A   1      43.077  31.444  29.473  1.00  0.00     0.031 C 
ATOM     63  C   UNL A   1      39.526  28.435  32.839  1.00  0.00     0.029 A 
ATOM     64  C   UNL A   1      40.649  28.954  32.192  1.00  0.00     0.049 A 
ATOM     65  H   UNL A   1      41.654  27.923  30.652  1.00  0.00     0.167 HD
ATOM     66  C   UNL A   1      42.293  30.712  31.540  1.00  0.00     0.074 A 
ATOM     67  C   UNL A   1      42.575  30.399  30.138  1.00  0.00     0.031 C 
ATOM     68  C   UNL A   1      41.472  30.115  32.454  1.00  0.00     0.037 A 
BRANCH  55  69
ATOM     69  C   UNL A   1      39.902  26.881  28.317  1.00  0.00     0.057 A 
ATOM     70  C   UNL A   1      40.779  27.505  27.410  1.00  0.00     0.134 A 
ATOM     71  C   UNL A   1      39.550  25.557  27.986  1.00  0.00     0.134 A 
ATOM     72  F   UNL A   1      41.191  28.767  27.606  1.00  0.00    -0.206 F 
ATOM     73  C   UNL A   1      41.206  26.888  26.226  1.00  0.00     0.040 A 
ATOM     74  C   UNL A   1      40.011  24.913  26.832  1.00  0.00     0.040 A 
ATOM     75  F   UNL A   1      38.670  24.844  28.697  1.00  0.00    -0.206 F 
ATOM     76  C   UNL A   1      40.814  25.590  25.930  1.00  0.00     0.006 A 
ENDBRANCH  55  69
BRANCH  56  77
ATOM     77  C   UNL A   1      43.524  34.700  29.311  1.00  0.00     0.057 A 
ATOM     78  C   UNL A   1      43.681  34.581  27.924  1.00  0.00     0.134 A 
ATOM     79  C   UNL A   1      44.072  35.857  29.898  1.00  0.00     0.134 A 
ATOM     80  F   UNL A   1      43.155  33.535  27.270  1.00  0.00    -0.206 F 
ATOM     81  C   UNL A   1      44.326  35.563  27.160  1.00  0.00     0.040 A 
ATOM     82  C   UNL A   1      44.718  36.845  29.147  1.00  0.00     0.040 A 
ATOM     83  F   UNL A   1      43.912  36.108  31.206  1.00  0.00    -0.206 F 
ATOM     84  C   UNL A   1      44.836  36.706  27.770  1.00  0.00     0.006 A 
ENDBRANCH  56  77
BRANCH  68  85
ATOM     85  C   UNL A   1      41.224  30.830  33.759  1.00  0.00     0.057 A 
ATOM     86  C   UNL A   1      40.138  31.688  33.999  1.00  0.00     0.134 A 
ATOM     87  C   UNL A   1      42.010  30.495  34.866  1.00  0.00     0.134 A 
ATOM     88  F   UNL A   1      39.272  31.998  33.029  1.00  0.00    -0.206 F 
ATOM     89  C   UNL A   1      39.866  32.209  35.269  1.00  0.00     0.040 A 
ATOM     90  C   UNL A   1      41.732  30.980  36.145  1.00  0.00     0.040 A 
ATOM     91  F   UNL A   1      43.031  29.635  34.730  1.00  0.00    -0.206 F 
ATOM     92  C   UNL A   1      40.660  31.846  36.351  1.00  0.00     0.006 A 
ENDBRANCH  68  85
ENDBRANCH  42  43
ENDBRANCH  34  37
ENDBRANCH  32  33
ENDBRANCH  31  32
ENDBRANCH  30  31
ENDBRANCH   1  30
TORSDOF 16
ENDMDL
MODEL 3
REMARK VINA RESULT:     -11.8      5.088      8.886
REMARK SMILES C/C(=N\NC(N)=O)c1nnn(-c2ccc(C(=O)NCCCCCCNC(=O)c3ccc(-c4c5nc(c(-c6c(F)cccc6F)c6ccc([nH]6)c(-c6c(F)cccc6F)c6nc(c(-c7c(F)cccc7F)c7ccc4[nH]7)C=C6)C=C5)cc3)cc2)c1C
REMARK SMILES IDX 21 1 20 2 19 3 18 4 16 5 17 6 15 8 12 9 13 10 83 11 14 12
REMARK SMILES IDX 82 13 11 14 8 15 9 16 84 17 10 18 85 19 2 20 1 21 3 22 4 23
REMARK SMILES IDX 5 24 6 26 7 27 22 30 23 31 24 32 25 33 26 34 27 36 28 37
REMARK SMILES IDX 29 38 81 39 30 40 80 41 31 42 32 43 33 44 74 45 34 46 79 47
REMARK SMILES IDX 73 48 75 49 35 50 78 51 72 52 71 53 36 55 62 56 45 57 61 58
REMARK SMILES IDX 46 59 49 60 60 61 76 62 47 63 48 64 59 66 77 67 50 68 37 69
REMARK SMILES IDX 38 70 43 71 39 72 40 73 42 74 44 75 41 76 63 77 64 78 69 79
REMARK SMILES IDX 65 80 66 81 68 82 70 83 67 84 51 85 52 86 57 87 53 88 54 89
REMARK SMILES IDX 56 90 58 91 55 92
REMARK H PARENT 18 7 4 25 6 28 6 29 25 35 75 54 49 65
REMARK Flexibility Score: inf
ROOT
ATOM      1  C   UNL A   1      37.771  31.394  32.929  1.00  0.00     0.002 C 
ENDROOT
BRANCH   1   2
ATOM      2  C   UNL A   1      37.852  31.442  34.461  1.00  0.00     0.021 C 
BRANCH   2   3
ATOM      3  C   UNL A   1      38.012  32.861  35.014  1.00  0.00     0.116 C 
BRANCH   3   4
ATOM      4  N   UNL A   1      39.150  32.923  35.914  1.00  0.00    -0.352 N 
ATOM      5  C   UNL A   1      40.494  33.115  35.711  1.00  0.00     0.251 C 
ATOM      6  O   UNL A   1      41.227  33.119  36.699  1.00  0.00    -0.269 OA
ATOM      7  H   UNL A   1      38.910  32.800  36.860  1.00  0.00     0.163 HD
BRANCH   5   8
ATOM      8  C   UNL A   1      41.081  33.404  34.371  1.00  0.00     0.039 A 
ATOM      9  C   UNL A   1      41.858  34.201  31.814  1.00  0.00     0.067 A 
ATOM     10  C   UNL A   1      41.978  35.106  32.868  1.00  0.00     0.029 A 
ATOM     11  C   UNL A   1      41.483  32.876  32.044  1.00  0.00     0.029 A 
ATOM     12  C   UNL A   1      41.555  34.710  34.140  1.00  0.00     0.016 A 
ATOM     13  C   UNL A   1      41.158  32.470  33.336  1.00  0.00     0.016 A 
BRANCH   9  14
ATOM     14  N   UNL A   1      42.018  34.637  30.490  1.00  0.00    -0.217 N 
ATOM     15  C   UNL A   1      42.809  35.227  28.555  1.00  0.00     0.132 A 
ATOM     16  N   UNL A   1      41.447  35.390  28.548  1.00  0.00    -0.128 NA
ATOM     17  C   UNL A   1      43.202  34.723  29.781  1.00  0.00     0.071 A 
ATOM     18  N   UNL A   1      40.969  34.945  29.704  1.00  0.00    -0.061 NA
ATOM     19  C   UNL A   1      44.509  34.225  30.271  1.00  0.00     0.069 C 
BRANCH  15  20
ATOM     20  C   UNL A   1      43.622  35.391  27.361  1.00  0.00     0.087 C 
ATOM     21  C   UNL A   1      44.976  36.014  27.572  1.00  0.00     0.071 C 
ATOM     22  N   UNL A   1      43.098  34.940  26.259  1.00  0.00    -0.174 NA
BRANCH  22  23
ATOM     23  N   UNL A   1      43.717  35.024  25.042  1.00  0.00    -0.229 N 
ATOM     24  C   UNL A   1      44.356  34.023  24.344  1.00  0.00     0.332 C 
ATOM     25  H   UNL A   1      43.705  35.909  24.612  1.00  0.00     0.195 HD
ATOM     26  N   UNL A   1      44.834  34.453  23.142  1.00  0.00    -0.350 N 
ATOM     27  O   UNL A   1      44.512  32.858  24.681  1.00  0.00    -0.247 OA
ATOM     28  H   UNL A   1      44.709  35.390  22.869  1.00  0.00     0.161 HD
ATOM     29  H   UNL A   1      45.304  33.826  22.546  1.00  0.00     0.161 HD
ENDBRANCH  22  23
ENDBRANCH  15  20
ENDBRANCH   9  14
ENDBRANCH   5   8
ENDBRANCH   3   4
ENDBRANCH   2   3
ENDBRANCH   1   2
BRANCH   1  30
ATOM     30  C   UNL A   1      36.434  30.894  32.354  1.00  0.00     0.002 C 
BRANCH  30  31
ATOM     31  C   UNL A   1      35.305  31.932  32.266  1.00  0.00     0.021 C 
BRANCH  31  32
ATOM     32  C   UNL A   1      35.514  32.937  31.148  1.00  0.00     0.116 C 
BRANCH  32  33
ATOM     33  N   UNL A   1      34.854  32.526  29.902  1.00  0.00    -0.352 N 
ATOM     34  C   UNL A   1      35.440  32.056  28.737  1.00  0.00     0.251 C 
ATOM     35  H   UNL A   1      33.873  32.592  29.894  1.00  0.00     0.163 HD
ATOM     36  O   UNL A   1      34.859  32.071  27.669  1.00  0.00    -0.269 OA
BRANCH  34  37
ATOM     37  C   UNL A   1      36.794  31.492  28.850  1.00  0.00     0.039 A 
ATOM     38  C   UNL A   1      37.905  32.245  29.243  1.00  0.00     0.014 A 
ATOM     39  C   UNL A   1      36.896  30.130  28.604  1.00  0.00     0.014 A 
ATOM     40  C   UNL A   1      39.116  31.582  29.436  1.00  0.00     0.010 A 
ATOM     41  C   UNL A   1      37.992  29.459  29.043  1.00  0.00     0.010 A 
ATOM     42  C   UNL A   1      39.140  30.185  29.332  1.00  0.00    -0.014 A 
BRANCH  42  43
ATOM     43  C   UNL A   1      40.334  29.389  29.552  1.00  0.00     0.031 A 
ATOM     44  C   UNL A   1      40.608  29.057  30.975  1.00  0.00     0.074 A 
ATOM     45  C   UNL A   1      40.928  28.762  28.509  1.00  0.00     0.049 A 
ATOM     46  N   UNL A   1      41.627  29.396  31.692  1.00  0.00    -0.248 NA
ATOM     47  C   UNL A   1      39.548  28.376  31.740  1.00  0.00     0.031 C 
ATOM     48  C   UNL A   1      40.512  28.728  27.095  1.00  0.00     0.029 A 
ATOM     49  N   UNL A   1      41.981  27.906  28.518  1.00  0.00    -0.354 N 
ATOM     50  C   UNL A   1      41.439  28.800  32.937  1.00  0.00     0.074 A 
ATOM     51  C   UNL A   1      40.070  28.358  32.968  1.00  0.00     0.031 C 
ATOM     52  C   UNL A   1      41.149  27.726  26.451  1.00  0.00     0.029 A 
ATOM     53  C   UNL A   1      42.148  27.175  27.343  1.00  0.00     0.049 A 
ATOM     54  H   UNL A   1      42.581  27.810  29.293  1.00  0.00     0.167 HD
ATOM     55  C   UNL A   1      42.493  28.509  33.749  1.00  0.00     0.037 A 
ATOM     56  C   UNL A   1      43.035  26.167  27.155  1.00  0.00     0.037 A 
ATOM     57  C   UNL A   1      43.677  29.207  33.317  1.00  0.00     0.049 A 
ATOM     58  C   UNL A   1      44.055  26.290  28.229  1.00  0.00     0.074 A 
ATOM     59  C   UNL A   1      44.036  30.536  33.209  1.00  0.00     0.029 A 
ATOM     60  N   UNL A   1      44.564  28.517  32.526  1.00  0.00    -0.354 N 
ATOM     61  N   UNL A   1      44.877  27.300  28.332  1.00  0.00    -0.248 NA
ATOM     62  C   UNL A   1      43.810  25.553  29.459  1.00  0.00     0.031 C 
ATOM     63  C   UNL A   1      44.775  30.617  31.992  1.00  0.00     0.029 A 
ATOM     64  C   UNL A   1      44.900  29.328  31.472  1.00  0.00     0.049 A 
ATOM     65  H   UNL A   1      44.899  27.605  32.687  1.00  0.00     0.167 HD
ATOM     66  C   UNL A   1      44.928  27.582  29.691  1.00  0.00     0.074 A 
ATOM     67  C   UNL A   1      44.291  26.436  30.340  1.00  0.00     0.031 C 
ATOM     68  C   UNL A   1      45.207  28.841  30.145  1.00  0.00     0.037 A 
BRANCH  55  69
ATOM     69  C   UNL A   1      42.560  27.338  34.702  1.00  0.00     0.057 A 
ATOM     70  C   UNL A   1      42.963  26.081  34.212  1.00  0.00     0.134 A 
ATOM     71  C   UNL A   1      41.988  27.317  35.990  1.00  0.00     0.134 A 
ATOM     72  F   UNL A   1      43.519  25.960  32.997  1.00  0.00    -0.206 F 
ATOM     73  C   UNL A   1      42.738  24.889  34.915  1.00  0.00     0.040 A 
ATOM     74  C   UNL A   1      41.806  26.138  36.722  1.00  0.00     0.040 A 
ATOM     75  F   UNL A   1      41.484  28.409  36.575  1.00  0.00    -0.206 F 
ATOM     76  C   UNL A   1      42.149  24.915  36.171  1.00  0.00     0.006 A 
ENDBRANCH  55  69
BRANCH  56  77
ATOM     77  C   UNL A   1      42.850  24.922  26.375  1.00  0.00     0.057 A 
ATOM     78  C   UNL A   1      43.708  24.589  25.319  1.00  0.00     0.134 A 
ATOM     79  C   UNL A   1      42.005  23.894  26.833  1.00  0.00     0.134 A 
ATOM     80  F   UNL A   1      44.581  25.490  24.845  1.00  0.00    -0.206 F 
ATOM     81  C   UNL A   1      43.741  23.303  24.763  1.00  0.00     0.040 A 
ATOM     82  C   UNL A   1      42.028  22.606  26.286  1.00  0.00     0.040 A 
ATOM     83  F   UNL A   1      41.199  24.082  27.888  1.00  0.00    -0.206 F 
ATOM     84  C   UNL A   1      42.908  22.303  25.255  1.00  0.00     0.006 A 
ENDBRANCH  56  77
BRANCH  68  85
ATOM     85  C   UNL A   1      45.661  29.872  29.142  1.00  0.00     0.057 A 
ATOM     86  C   UNL A   1      44.809  30.799  28.518  1.00  0.00     0.134 A 
ATOM     87  C   UNL A   1      47.032  30.051  28.939  1.00  0.00     0.134 A 
ATOM     88  F   UNL A   1      43.488  30.773  28.720  1.00  0.00    -0.206 F 
ATOM     89  C   UNL A   1      45.297  31.833  27.711  1.00  0.00     0.040 A 
ATOM     90  C   UNL A   1      47.536  31.097  28.163  1.00  0.00     0.040 A 
ATOM     91  F   UNL A   1      47.913  29.241  29.547  1.00  0.00    -0.206 F 
ATOM     92  C   UNL A   1      46.668  31.990  27.540  1.00  0.00     0.006 A 
ENDBRANCH  68  85
ENDBRANCH  42  43
ENDBRANCH  34  37
ENDBRANCH  32  33
ENDBRANCH  31  32
ENDBRANCH  30  31
ENDBRANCH   1  30
TORSDOF 16
ENDMDL
