MODEL 1
REMARK VINA RESULT:     -11.0      0.000      0.000
REMARK SMILES O=C(CCCNC(=O)[C@@H]1CCCN(S(=O)(=O)c2ccc(F)cc2)C1)NCCCCCCNC(=O)c1ccc(-c2c3nc(c(-c4c(F)cccc4F)c4ccc([nH]4)c(-c4c(F)cccc4F)c4nc(c(-c5c(F)cccc5F)c5ccc2[nH]5)C=C4)C=C3)cc1
REMARK SMILES IDX 26 1 25 2 1 3 2 4 3 6 4 7 5 8 6 9 7 10 8 12 9 13 10 14 24 15
REMARK SMILES IDX 11 16 13 17 12 18 14 19 15 20 16 21 17 22 18 23 23 24 19 25
REMARK SMILES IDX 22 26 20 27 21 28 27 29 28 30 29 31 30 32 31 33 32 34 33 35
REMARK SMILES IDX 34 37 35 38 36 39 88 40 37 41 87 42 38 43 39 44 40 45 81 46
REMARK SMILES IDX 41 47 86 48 80 49 82 50 42 51 85 52 79 53 78 54 43 56 69 57
REMARK SMILES IDX 52 58 68 59 53 60 56 61 67 62 83 63 54 64 55 65 66 67 84 68
REMARK SMILES IDX 57 69 44 70 45 71 50 72 46 73 47 74 49 75 51 76 48 77 70 78
REMARK SMILES IDX 71 79 76 80 72 81 73 82 75 83 77 84 74 85 58 86 59 87 64 88
REMARK SMILES IDX 60 89 61 90 63 91 65 92 62 93
REMARK H PARENT 25 5 6 11 32 36 82 55 56 66
REMARK Flexibility Score: inf
ROOT
ATOM      1  C   UNL A   1      40.111  22.175  25.936  1.00  0.00     0.116 C 
ENDROOT
BRANCH   1   2
ATOM      2  N   UNL A   1      38.698  22.472  25.828  1.00  0.00    -0.356 N 
ATOM      3  O   UNL A   1      38.853  24.633  26.589  1.00  0.00    -0.275 OA
ATOM      4  C   UNL A   1      38.182  23.702  26.161  1.00  0.00     0.220 C 
ATOM      5  H   UNL A   1      38.088  21.771  25.504  1.00  0.00     0.163 HD
BRANCH   4   6
ATOM      6  C   UNL A   1      36.694  23.823  25.914  1.00  0.00     0.102 C 
BRANCH   6   7
ATOM      7  C   UNL A   1      36.053  22.468  25.612  1.00  0.00     0.031 C 
BRANCH   7   8
ATOM      8  C   UNL A   1      34.756  22.169  26.370  1.00  0.00     0.116 C 
BRANCH   8   9
ATOM      9  N   UNL A   1      34.329  20.796  26.187  1.00  0.00    -0.356 N 
ATOM     10  C   UNL A   1      33.237  20.234  25.626  1.00  0.00     0.224 C 
ATOM     11  H   UNL A   1      34.967  20.136  26.545  1.00  0.00     0.163 HD
ATOM     12  O   UNL A   1      33.210  18.996  25.649  1.00  0.00    -0.275 OA
BRANCH  10  13
ATOM     13  C   UNL A   1      32.126  20.983  24.897  1.00  0.00     0.093 C 
ATOM     14  C   UNL A   1      32.470  21.195  23.426  1.00  0.00     0.016 C 
ATOM     15  C   UNL A   1      31.470  22.169  25.601  1.00  0.00     0.116 C 
ATOM     16  C   UNL A   1      33.044  22.572  23.166  1.00  0.00     0.018 C 
ATOM     17  N   UNL A   1      31.922  23.537  25.144  1.00  0.00    -0.197 NA
ATOM     18  C   UNL A   1      32.089  23.641  23.671  1.00  0.00     0.102 C 
BRANCH  17  19
ATOM     19  S   UNL A   1      30.892  24.759  25.827  1.00  0.00     0.243 S 
ATOM     20  O   UNL A   1      29.955  25.158  24.799  1.00  0.00    -0.207 OA
ATOM     21  O   UNL A   1      30.428  24.254  27.103  1.00  0.00    -0.207 OA
BRANCH  19  22
ATOM     22  C   UNL A   1      31.959  26.147  26.153  1.00  0.00     0.082 A 
ATOM     23  C   UNL A   1      31.448  27.269  26.822  1.00  0.00     0.025 A 
ATOM     24  C   UNL A   1      33.325  26.058  25.864  1.00  0.00     0.025 A 
ATOM     25  C   UNL A   1      32.294  28.336  27.131  1.00  0.00     0.040 A 
ATOM     26  C   UNL A   1      34.171  27.117  26.203  1.00  0.00     0.040 A 
ATOM     27  C   UNL A   1      33.647  28.248  26.821  1.00  0.00     0.123 A 
ATOM     28  F   UNL A   1      34.459  29.264  27.137  1.00  0.00    -0.207 F 
ENDBRANCH  19  22
ENDBRANCH  17  19
ENDBRANCH  10  13
ENDBRANCH   8   9
ENDBRANCH   7   8
ENDBRANCH   6   7
ENDBRANCH   4   6
ENDBRANCH   1   2
BRANCH   1  29
ATOM     29  C   UNL A   1      40.465  21.594  27.303  1.00  0.00     0.021 C 
BRANCH  29  30
ATOM     30  C   UNL A   1      41.853  20.946  27.393  1.00  0.00     0.002 C 
BRANCH  30  31
ATOM     31  C   UNL A   1      41.863  19.442  27.678  1.00  0.00     0.002 C 
BRANCH  31  32
ATOM     32  C   UNL A   1      42.794  18.612  26.790  1.00  0.00     0.021 C 
BRANCH  32  33
ATOM     33  C   UNL A   1      42.819  19.010  25.316  1.00  0.00     0.116 C 
BRANCH  33  34
ATOM     34  N   UNL A   1      44.087  18.707  24.671  1.00  0.00    -0.352 N 
ATOM     35  C   UNL A   1      45.126  19.550  24.360  1.00  0.00     0.251 C 
ATOM     36  H   UNL A   1      44.219  17.764  24.421  1.00  0.00     0.163 HD
ATOM     37  O   UNL A   1      46.068  19.145  23.687  1.00  0.00    -0.269 OA
BRANCH  35  38
ATOM     38  C   UNL A   1      45.098  20.960  24.809  1.00  0.00     0.039 A 
ATOM     39  C   UNL A   1      45.390  21.245  26.146  1.00  0.00     0.014 A 
ATOM     40  C   UNL A   1      44.786  21.996  23.924  1.00  0.00     0.014 A 
ATOM     41  C   UNL A   1      45.437  22.574  26.579  1.00  0.00     0.010 A 
ATOM     42  C   UNL A   1      44.891  23.322  24.342  1.00  0.00     0.010 A 
ATOM     43  C   UNL A   1      45.224  23.624  25.671  1.00  0.00    -0.014 A 
BRANCH  43  44
ATOM     44  C   UNL A   1      45.366  25.042  26.089  1.00  0.00     0.031 A 
ATOM     45  C   UNL A   1      46.706  25.720  26.037  1.00  0.00     0.074 A 
ATOM     46  C   UNL A   1      44.297  25.702  26.577  1.00  0.00     0.049 A 
ATOM     47  N   UNL A   1      47.039  26.920  26.441  1.00  0.00    -0.248 NA
ATOM     48  C   UNL A   1      47.824  24.943  25.479  1.00  0.00     0.031 C 
ATOM     49  C   UNL A   1      42.951  25.145  26.718  1.00  0.00     0.029 A 
ATOM     50  N   UNL A   1      44.177  26.982  27.060  1.00  0.00    -0.354 N 
ATOM     51  C   UNL A   1      48.402  27.035  26.203  1.00  0.00     0.074 A 
ATOM     52  C   UNL A   1      48.845  25.772  25.653  1.00  0.00     0.031 C 
ATOM     53  C   UNL A   1      42.138  26.080  27.235  1.00  0.00     0.029 A 
ATOM     54  C   UNL A   1      42.911  27.290  27.498  1.00  0.00     0.049 A 
ATOM     55  H   UNL A   1      44.928  27.619  27.090  1.00  0.00     0.167 HD
ATOM     56  C   UNL A   1      49.207  28.104  26.405  1.00  0.00     0.037 A 
ATOM     57  C   UNL A   1      42.428  28.417  28.056  1.00  0.00     0.037 A 
ATOM     58  C   UNL A   1      48.761  29.373  26.915  1.00  0.00     0.049 A 
ATOM     59  C   UNL A   1      43.343  29.592  28.263  1.00  0.00     0.074 A 
ATOM     60  C   UNL A   1      49.495  30.533  27.092  1.00  0.00     0.029 A 
ATOM     61  N   UNL A   1      47.467  29.651  27.326  1.00  0.00    -0.354 N 
ATOM     62  N   UNL A   1      44.618  29.702  27.984  1.00  0.00    -0.248 NA
ATOM     63  C   UNL A   1      42.754  30.799  28.862  1.00  0.00     0.031 C 
ATOM     64  C   UNL A   1      48.654  31.503  27.643  1.00  0.00     0.029 A 
ATOM     65  C   UNL A   1      47.387  30.960  27.771  1.00  0.00     0.049 A 
ATOM     66  H   UNL A   1      46.718  29.014  27.305  1.00  0.00     0.167 HD
ATOM     67  C   UNL A   1      44.978  30.992  28.349  1.00  0.00     0.074 A 
ATOM     68  C   UNL A   1      43.785  31.632  28.861  1.00  0.00     0.031 C 
ATOM     69  C   UNL A   1      46.191  31.589  28.269  1.00  0.00     0.037 A 
BRANCH  56  70
ATOM     70  C   UNL A   1      50.659  27.966  26.057  1.00  0.00     0.057 A 
ATOM     71  C   UNL A   1      51.084  28.041  24.724  1.00  0.00     0.134 A 
ATOM     72  C   UNL A   1      51.620  27.666  27.029  1.00  0.00     0.134 A 
ATOM     73  F   UNL A   1      50.212  28.318  23.744  1.00  0.00    -0.206 F 
ATOM     74  C   UNL A   1      52.414  27.806  24.370  1.00  0.00     0.040 A 
ATOM     75  C   UNL A   1      52.957  27.450  26.690  1.00  0.00     0.040 A 
ATOM     76  F   UNL A   1      51.277  27.588  28.324  1.00  0.00    -0.206 F 
ATOM     77  C   UNL A   1      53.354  27.508  25.356  1.00  0.00     0.006 A 
ENDBRANCH  56  70
BRANCH  57  78
ATOM     78  C   UNL A   1      40.998  28.492  28.444  1.00  0.00     0.057 A 
ATOM     79  C   UNL A   1      40.015  28.911  27.541  1.00  0.00     0.134 A 
ATOM     80  C   UNL A   1      40.584  28.154  29.738  1.00  0.00     0.134 A 
ATOM     81  F   UNL A   1      40.349  29.256  26.288  1.00  0.00    -0.206 F 
ATOM     82  C   UNL A   1      38.672  29.003  27.912  1.00  0.00     0.040 A 
ATOM     83  C   UNL A   1      39.241  28.219  30.116  1.00  0.00     0.040 A 
ATOM     84  F   UNL A   1      41.477  27.727  30.642  1.00  0.00    -0.206 F 
ATOM     85  C   UNL A   1      38.282  28.652  29.202  1.00  0.00     0.006 A 
ENDBRANCH  57  78
BRANCH  69  86
ATOM     86  C   UNL A   1      46.297  33.014  28.721  1.00  0.00     0.057 A 
ATOM     87  C   UNL A   1      46.121  34.065  27.811  1.00  0.00     0.134 A 
ATOM     88  C   UNL A   1      46.658  33.344  30.033  1.00  0.00     0.134 A 
ATOM     89  F   UNL A   1      45.786  33.814  26.537  1.00  0.00    -0.206 F 
ATOM     90  C   UNL A   1      46.315  35.394  28.189  1.00  0.00     0.040 A 
ATOM     91  C   UNL A   1      46.834  34.671  30.427  1.00  0.00     0.040 A 
ATOM     92  F   UNL A   1      46.831  32.382  30.952  1.00  0.00    -0.206 F 
ATOM     93  C   UNL A   1      46.673  35.700  29.500  1.00  0.00     0.006 A 
ENDBRANCH  69  86
ENDBRANCH  43  44
ENDBRANCH  35  38
ENDBRANCH  33  34
ENDBRANCH  32  33
ENDBRANCH  31  32
ENDBRANCH  30  31
ENDBRANCH  29  30
ENDBRANCH   1  29
TORSDOF 19
ENDMDL
MODEL 2
REMARK VINA RESULT:     -10.7      6.555     11.835
REMARK SMILES O=C(CCCNC(=O)[C@@H]1CCCN(S(=O)(=O)c2ccc(F)cc2)C1)NCCCCCCNC(=O)c1ccc(-c2c3nc(c(-c4c(F)cccc4F)c4ccc([nH]4)c(-c4c(F)cccc4F)c4nc(c(-c5c(F)cccc5F)c5ccc2[nH]5)C=C4)C=C3)cc1
REMARK SMILES IDX 26 1 25 2 1 3 2 4 3 6 4 7 5 8 6 9 7 10 8 12 9 13 10 14 24 15
REMARK SMILES IDX 11 16 13 17 12 18 14 19 15 20 16 21 17 22 18 23 23 24 19 25
REMARK SMILES IDX 22 26 20 27 21 28 27 29 28 30 29 31 30 32 31 33 32 34 33 35
REMARK SMILES IDX 34 37 35 38 36 39 88 40 37 41 87 42 38 43 39 44 40 45 81 46
REMARK SMILES IDX 41 47 86 48 80 49 82 50 42 51 85 52 79 53 78 54 43 56 69 57
REMARK SMILES IDX 52 58 68 59 53 60 56 61 67 62 83 63 54 64 55 65 66 67 84 68
REMARK SMILES IDX 57 69 44 70 45 71 50 72 46 73 47 74 49 75 51 76 48 77 70 78
REMARK SMILES IDX 71 79 76 80 72 81 73 82 75 83 77 84 74 85 58 86 59 87 64 88
REMARK SMILES IDX 60 89 61 90 63 91 65 92 62 93
REMARK H PARENT 25 5 6 11 32 36 82 55 56 66
REMARK Flexibility Score: inf
ROOT
ATOM      1  C   UNL A   1      34.733  31.569  28.848  1.00  0.00     0.116 C 
ENDROOT
BRANCH   1   2
ATOM      2  N   UNL A   1      33.995  30.646  28.012  1.00  0.00    -0.356 N 
ATOM      3  O   UNL A   1      35.738  29.191  27.672  1.00  0.00    -0.275 OA
ATOM      4  C   UNL A   1      34.569  29.510  27.494  1.00  0.00     0.220 C 
ATOM      5  H   UNL A   1      33.051  30.838  27.810  1.00  0.00     0.163 HD
BRANCH   4   6
ATOM      6  C   UNL A   1      33.608  28.651  26.701  1.00  0.00     0.102 C 
BRANCH   6   7
ATOM      7  C   UNL A   1      34.090  28.428  25.267  1.00  0.00     0.031 C 
BRANCH   7   8
ATOM      8  C   UNL A   1      32.997  28.443  24.195  1.00  0.00     0.116 C 
BRANCH   8   9
ATOM      9  N   UNL A   1      33.430  27.792  22.974  1.00  0.00    -0.356 N 
ATOM     10  C   UNL A   1      33.015  26.688  22.317  1.00  0.00     0.224 C 
ATOM     11  H   UNL A   1      34.182  28.250  22.532  1.00  0.00     0.163 HD
ATOM     12  O   UNL A   1      33.636  26.429  21.277  1.00  0.00    -0.275 OA
BRANCH  10  13
ATOM     13  C   UNL A   1      31.812  25.828  22.692  1.00  0.00     0.093 C 
ATOM     14  C   UNL A   1      30.557  26.677  22.875  1.00  0.00     0.016 C 
ATOM     15  C   UNL A   1      32.011  24.713  23.716  1.00  0.00     0.116 C 
ATOM     16  C   UNL A   1      30.294  27.003  24.330  1.00  0.00     0.018 C 
ATOM     17  N   UNL A   1      31.524  25.010  25.116  1.00  0.00    -0.197 NA
ATOM     18  C   UNL A   1      30.222  25.724  25.147  1.00  0.00     0.102 C 
BRANCH  17  19
ATOM     19  S   UNL A   1      31.560  23.561  26.075  1.00  0.00     0.243 S 
ATOM     20  O   UNL A   1      31.370  23.951  27.455  1.00  0.00    -0.207 OA
ATOM     21  O   UNL A   1      30.668  22.613  25.439  1.00  0.00    -0.207 OA
BRANCH  19  22
ATOM     22  C   UNL A   1      33.218  22.930  25.914  1.00  0.00     0.082 A 
ATOM     23  C   UNL A   1      34.304  23.745  26.261  1.00  0.00     0.025 A 
ATOM     24  C   UNL A   1      33.422  21.588  25.574  1.00  0.00     0.025 A 
ATOM     25  C   UNL A   1      35.602  23.237  26.192  1.00  0.00     0.040 A 
ATOM     26  C   UNL A   1      34.722  21.077  25.536  1.00  0.00     0.040 A 
ATOM     27  C   UNL A   1      35.798  21.908  25.832  1.00  0.00     0.123 A 
ATOM     28  F   UNL A   1      37.043  21.417  25.787  1.00  0.00    -0.207 F 
ENDBRANCH  19  22
ENDBRANCH  17  19
ENDBRANCH  10  13
ENDBRANCH   8   9
ENDBRANCH   7   8
ENDBRANCH   6   7
ENDBRANCH   4   6
ENDBRANCH   1   2
BRANCH   1  29
ATOM     29  C   UNL A   1      35.482  32.611  28.019  1.00  0.00     0.021 C 
BRANCH  29  30
ATOM     30  C   UNL A   1      35.556  34.009  28.648  1.00  0.00     0.002 C 
BRANCH  30  31
ATOM     31  C   UNL A   1      34.761  35.101  27.928  1.00  0.00     0.002 C 
BRANCH  31  32
ATOM     32  C   UNL A   1      33.785  35.888  28.806  1.00  0.00     0.021 C 
BRANCH  32  33
ATOM     33  C   UNL A   1      32.941  35.048  29.762  1.00  0.00     0.116 C 
BRANCH  33  34
ATOM     34  N   UNL A   1      32.365  35.831  30.844  1.00  0.00    -0.352 N 
ATOM     35  C   UNL A   1      32.728  35.883  32.167  1.00  0.00     0.251 C 
ATOM     36  H   UNL A   1      31.606  36.405  30.591  1.00  0.00     0.163 HD
ATOM     37  O   UNL A   1      32.037  36.500  32.972  1.00  0.00    -0.269 OA
BRANCH  35  38
ATOM     38  C   UNL A   1      33.937  35.168  32.634  1.00  0.00     0.039 A 
ATOM     39  C   UNL A   1      33.786  33.911  33.227  1.00  0.00     0.014 A 
ATOM     40  C   UNL A   1      35.209  35.728  32.493  1.00  0.00     0.014 A 
ATOM     41  C   UNL A   1      34.917  33.186  33.615  1.00  0.00     0.010 A 
ATOM     42  C   UNL A   1      36.338  34.980  32.826  1.00  0.00     0.010 A 
ATOM     43  C   UNL A   1      36.203  33.700  33.384  1.00  0.00    -0.014 A 
BRANCH  43  44
ATOM     44  C   UNL A   1      37.417  32.905  33.699  1.00  0.00     0.031 A 
ATOM     45  C   UNL A   1      38.194  33.169  34.958  1.00  0.00     0.074 A 
ATOM     46  C   UNL A   1      37.859  31.986  32.817  1.00  0.00     0.049 A 
ATOM     47  N   UNL A   1      39.322  32.639  35.358  1.00  0.00    -0.248 NA
ATOM     48  C   UNL A   1      37.645  34.176  35.880  1.00  0.00     0.031 C 
ATOM     49  C   UNL A   1      37.220  31.664  31.540  1.00  0.00     0.029 A 
ATOM     50  N   UNL A   1      38.959  31.164  32.854  1.00  0.00    -0.354 N 
ATOM     51  C   UNL A   1      39.625  33.257  36.563  1.00  0.00     0.074 A 
ATOM     52  C   UNL A   1      38.584  34.229  36.816  1.00  0.00     0.031 C 
ATOM     53  C   UNL A   1      37.927  30.704  30.923  1.00  0.00     0.029 A 
ATOM     54  C   UNL A   1      39.089  30.368  31.741  1.00  0.00     0.049 A 
ATOM     55  H   UNL A   1      39.593  31.147  33.606  1.00  0.00     0.167 HD
ATOM     56  C   UNL A   1      40.667  33.020  37.395  1.00  0.00     0.037 A 
ATOM     57  C   UNL A   1      40.041  29.475  31.410  1.00  0.00     0.037 A 
ATOM     58  C   UNL A   1      41.682  32.027  37.165  1.00  0.00     0.049 A 
ATOM     59  C   UNL A   1      41.184  29.227  32.355  1.00  0.00     0.074 A 
ATOM     60  C   UNL A   1      42.739  31.674  37.985  1.00  0.00     0.029 A 
ATOM     61  N   UNL A   1      41.766  31.227  36.036  1.00  0.00    -0.354 N 
ATOM     62  N   UNL A   1      41.427  29.783  33.516  1.00  0.00    -0.248 NA
ATOM     63  C   UNL A   1      42.183  28.229  31.947  1.00  0.00     0.031 C 
ATOM     64  C   UNL A   1      43.484  30.685  37.338  1.00  0.00     0.029 A 
ATOM     65  C   UNL A   1      42.867  30.393  36.133  1.00  0.00     0.049 A 
ATOM     66  H   UNL A   1      41.137  31.249  35.280  1.00  0.00     0.167 HD
ATOM     67  C   UNL A   1      42.590  29.188  33.987  1.00  0.00     0.074 A 
ATOM     68  C   UNL A   1      42.999  28.220  32.991  1.00  0.00     0.031 C 
ATOM     69  C   UNL A   1      43.258  29.427  35.140  1.00  0.00     0.037 A 
BRANCH  56  70
ATOM     70  C   UNL A   1      40.762  33.833  38.651  1.00  0.00     0.057 A 
ATOM     71  C   UNL A   1      41.615  34.942  38.721  1.00  0.00     0.134 A 
ATOM     72  C   UNL A   1      40.082  33.462  39.817  1.00  0.00     0.134 A 
ATOM     73  F   UNL A   1      42.301  35.345  37.641  1.00  0.00    -0.206 F 
ATOM     74  C   UNL A   1      41.799  35.644  39.913  1.00  0.00     0.040 A 
ATOM     75  C   UNL A   1      40.241  34.170  41.010  1.00  0.00     0.040 A 
ATOM     76  F   UNL A   1      39.244  32.415  39.811  1.00  0.00    -0.206 F 
ATOM     77  C   UNL A   1      41.111  35.257  41.063  1.00  0.00     0.006 A 
ENDBRANCH  56  70
BRANCH  57  78
ATOM     78  C   UNL A   1      39.944  28.736  30.127  1.00  0.00     0.057 A 
ATOM     79  C   UNL A   1      39.229  27.536  30.026  1.00  0.00     0.134 A 
ATOM     80  C   UNL A   1      40.577  29.210  28.972  1.00  0.00     0.134 A 
ATOM     81  F   UNL A   1      38.606  27.026  31.099  1.00  0.00    -0.206 F 
ATOM     82  C   UNL A   1      39.156  26.829  28.825  1.00  0.00     0.040 A 
ATOM     83  C   UNL A   1      40.493  28.524  27.759  1.00  0.00     0.040 A 
ATOM     84  F   UNL A   1      41.260  30.362  29.003  1.00  0.00    -0.206 F 
ATOM     85  C   UNL A   1      39.786  27.325  27.686  1.00  0.00     0.006 A 
ENDBRANCH  57  78
BRANCH  69  86
ATOM     86  C   UNL A   1      44.492  28.619  35.411  1.00  0.00     0.057 A 
ATOM     87  C   UNL A   1      44.414  27.420  36.133  1.00  0.00     0.134 A 
ATOM     88  C   UNL A   1      45.762  29.069  35.034  1.00  0.00     0.134 A 
ATOM     89  F   UNL A   1      43.226  26.941  36.532  1.00  0.00    -0.206 F 
ATOM     90  C   UNL A   1      45.560  26.706  36.483  1.00  0.00     0.040 A 
ATOM     91  C   UNL A   1      46.914  28.351  35.360  1.00  0.00     0.040 A 
ATOM     92  F   UNL A   1      45.901  30.204  34.334  1.00  0.00    -0.206 F 
ATOM     93  C   UNL A   1      46.815  27.171  36.096  1.00  0.00     0.006 A 
ENDBRANCH  69  86
ENDBRANCH  43  44
ENDBRANCH  35  38
ENDBRANCH  33  34
ENDBRANCH  32  33
ENDBRANCH  31  32
ENDBRANCH  30  31
ENDBRANCH  29  30
ENDBRANCH   1  29
TORSDOF 19
ENDMDL
MODEL 3
REMARK VINA RESULT:     -10.6      1.225      2.181
REMARK SMILES O=C(CCCNC(=O)[C@@H]1CCCN(S(=O)(=O)c2ccc(F)cc2)C1)NCCCCCCNC(=O)c1ccc(-c2c3nc(c(-c4c(F)cccc4F)c4ccc([nH]4)c(-c4c(F)cccc4F)c4nc(c(-c5c(F)cccc5F)c5ccc2[nH]5)C=C4)C=C3)cc1
REMARK SMILES IDX 26 1 25 2 1 3 2 4 3 6 4 7 5 8 6 9 7 10 8 12 9 13 10 14 24 15
REMARK SMILES IDX 11 16 13 17 12 18 14 19 15 20 16 21 17 22 18 23 23 24 19 25
REMARK SMILES IDX 22 26 20 27 21 28 27 29 28 30 29 31 30 32 31 33 32 34 33 35
REMARK SMILES IDX 34 37 35 38 36 39 88 40 37 41 87 42 38 43 39 44 40 45 81 46
REMARK SMILES IDX 41 47 86 48 80 49 82 50 42 51 85 52 79 53 78 54 43 56 69 57
REMARK SMILES IDX 52 58 68 59 53 60 56 61 67 62 83 63 54 64 55 65 66 67 84 68
REMARK SMILES IDX 57 69 44 70 45 71 50 72 46 73 47 74 49 75 51 76 48 77 70 78
REMARK SMILES IDX 71 79 76 80 72 81 73 82 75 83 77 84 74 85 58 86 59 87 64 88
REMARK SMILES IDX 60 89 61 90 63 91 65 92 62 93
REMARK H PARENT 25 5 6 11 32 36 82 55 56 66
REMARK Flexibility Score: inf
ROOT
ATOM      1  C   UNL A   1      40.162  22.766  26.634  1.00  0.00     0.116 C 
ENDROOT
BRANCH   1   2
ATOM      2  N   UNL A   1      38.949  22.746  25.844  1.00  0.00    -0.356 N 
ATOM      3  O   UNL A   1      37.993  24.584  26.835  1.00  0.00    -0.275 OA
ATOM      4  C   UNL A   1      37.954  23.681  26.008  1.00  0.00     0.220 C 
ATOM      5  H   UNL A   1      38.834  22.042  25.166  1.00  0.00     0.163 HD
BRANCH   4   6
ATOM      6  C   UNL A   1      36.803  23.518  25.040  1.00  0.00     0.102 C 
BRANCH   6   7
ATOM      7  C   UNL A   1      35.563  22.935  25.719  1.00  0.00     0.031 C 
BRANCH   7   8
ATOM      8  C   UNL A   1      34.354  23.871  25.798  1.00  0.00     0.116 C 
BRANCH   8   9
ATOM      9  N   UNL A   1      33.154  23.168  26.207  1.00  0.00    -0.356 N 
ATOM     10  C   UNL A   1      31.970  22.931  25.602  1.00  0.00     0.224 C 
ATOM     11  H   UNL A   1      33.214  22.784  27.112  1.00  0.00     0.163 HD
ATOM     12  O   UNL A   1      31.158  22.277  26.271  1.00  0.00    -0.275 OA
BRANCH  10  13
ATOM     13  C   UNL A   1      31.612  23.306  24.168  1.00  0.00     0.093 C 
ATOM     14  C   UNL A   1      32.282  22.372  23.165  1.00  0.00     0.016 C 
ATOM     15  C   UNL A   1      31.600  24.785  23.787  1.00  0.00     0.116 C 
ATOM     16  C   UNL A   1      33.555  22.962  22.596  1.00  0.00     0.018 C 
ATOM     17  N   UNL A   1      32.805  25.277  23.019  1.00  0.00    -0.197 NA
ATOM     18  C   UNL A   1      33.271  24.322  21.981  1.00  0.00     0.102 C 
BRANCH  17  19
ATOM     19  S   UNL A   1      32.511  26.882  22.423  1.00  0.00     0.243 S 
ATOM     20  O   UNL A   1      33.677  27.282  21.664  1.00  0.00    -0.207 OA
ATOM     21  O   UNL A   1      31.195  26.874  21.817  1.00  0.00    -0.207 OA
BRANCH  19  22
ATOM     22  C   UNL A   1      32.430  27.916  23.872  1.00  0.00     0.082 A 
ATOM     23  C   UNL A   1      33.445  27.838  24.835  1.00  0.00     0.025 A 
ATOM     24  C   UNL A   1      31.430  28.891  23.976  1.00  0.00     0.025 A 
ATOM     25  C   UNL A   1      33.416  28.686  25.943  1.00  0.00     0.040 A 
ATOM     26  C   UNL A   1      31.423  29.756  25.073  1.00  0.00     0.040 A 
ATOM     27  C   UNL A   1      32.407  29.638  26.050  1.00  0.00     0.123 A 
ATOM     28  F   UNL A   1      32.393  30.464  27.103  1.00  0.00    -0.207 F 
ENDBRANCH  19  22
ENDBRANCH  17  19
ENDBRANCH  10  13
ENDBRANCH   8   9
ENDBRANCH   7   8
ENDBRANCH   6   7
ENDBRANCH   4   6
ENDBRANCH   1   2
BRANCH   1  29
ATOM     29  C   UNL A   1      40.417  21.423  27.315  1.00  0.00     0.021 C 
BRANCH  29  30
ATOM     30  C   UNL A   1      41.846  20.882  27.169  1.00  0.00     0.002 C 
BRANCH  30  31
ATOM     31  C   UNL A   1      42.076  19.468  27.708  1.00  0.00     0.002 C 
BRANCH  31  32
ATOM     32  C   UNL A   1      42.806  18.515  26.758  1.00  0.00     0.021 C 
BRANCH  32  33
ATOM     33  C   UNL A   1      42.838  18.948  25.294  1.00  0.00     0.116 C 
BRANCH  33  34
ATOM     34  N   UNL A   1      44.103  18.644  24.643  1.00  0.00    -0.352 N 
ATOM     35  C   UNL A   1      45.136  19.488  24.316  1.00  0.00     0.251 C 
ATOM     36  H   UNL A   1      44.237  17.699  24.402  1.00  0.00     0.163 HD
ATOM     37  O   UNL A   1      46.076  19.079  23.641  1.00  0.00    -0.269 OA
BRANCH  35  38
ATOM     38  C   UNL A   1      45.106  20.903  24.750  1.00  0.00     0.039 A 
ATOM     39  C   UNL A   1      45.376  21.200  26.089  1.00  0.00     0.014 A 
ATOM     40  C   UNL A   1      44.812  21.930  23.850  1.00  0.00     0.014 A 
ATOM     41  C   UNL A   1      45.421  22.533  26.509  1.00  0.00     0.010 A 
ATOM     42  C   UNL A   1      44.914  23.260  24.256  1.00  0.00     0.010 A 
ATOM     43  C   UNL A   1      45.226  23.575  25.587  1.00  0.00    -0.014 A 
BRANCH  43  44
ATOM     44  C   UNL A   1      45.366  24.997  25.993  1.00  0.00     0.031 A 
ATOM     45  C   UNL A   1      46.705  25.677  25.935  1.00  0.00     0.074 A 
ATOM     46  C   UNL A   1      44.296  25.659  26.477  1.00  0.00     0.049 A 
ATOM     47  N   UNL A   1      47.036  26.880  26.329  1.00  0.00    -0.248 NA
ATOM     48  C   UNL A   1      47.824  24.896  25.383  1.00  0.00     0.031 C 
ATOM     49  C   UNL A   1      42.951  25.100  26.624  1.00  0.00     0.029 A 
ATOM     50  N   UNL A   1      44.175  26.943  26.949  1.00  0.00    -0.354 N 
ATOM     51  C   UNL A   1      48.399  26.995  26.088  1.00  0.00     0.074 A 
ATOM     52  C   UNL A   1      48.843  25.729  25.549  1.00  0.00     0.031 C 
ATOM     53  C   UNL A   1      42.137  26.038  27.133  1.00  0.00     0.029 A 
ATOM     54  C   UNL A   1      42.908  27.252  27.385  1.00  0.00     0.049 A 
ATOM     55  H   UNL A   1      44.924  27.581  26.973  1.00  0.00     0.167 HD
ATOM     56  C   UNL A   1      49.202  28.068  26.281  1.00  0.00     0.037 A 
ATOM     57  C   UNL A   1      42.423  28.382  27.934  1.00  0.00     0.037 A 
ATOM     58  C   UNL A   1      48.754  29.340  26.781  1.00  0.00     0.049 A 
ATOM     59  C   UNL A   1      43.336  29.560  28.131  1.00  0.00     0.074 A 
ATOM     60  C   UNL A   1      49.486  30.503  26.947  1.00  0.00     0.029 A 
ATOM     61  N   UNL A   1      47.459  29.619  27.191  1.00  0.00    -0.354 N 
ATOM     62  N   UNL A   1      44.611  29.670  27.849  1.00  0.00    -0.248 NA
ATOM     63  C   UNL A   1      42.745  30.772  28.719  1.00  0.00     0.031 C 
ATOM     64  C   UNL A   1      48.644  31.476  27.491  1.00  0.00     0.029 A 
ATOM     65  C   UNL A   1      47.377  30.931  27.624  1.00  0.00     0.049 A 
ATOM     66  H   UNL A   1      46.712  28.980  27.175  1.00  0.00     0.167 HD
ATOM     67  C   UNL A   1      44.969  30.964  28.204  1.00  0.00     0.074 A 
ATOM     68  C   UNL A   1      43.775  31.607  28.711  1.00  0.00     0.031 C 
ATOM     69  C   UNL A   1      46.181  31.563  28.118  1.00  0.00     0.037 A 
BRANCH  56  70
ATOM     70  C   UNL A   1      50.654  27.930  25.933  1.00  0.00     0.057 A 
ATOM     71  C   UNL A   1      51.611  27.720  26.935  1.00  0.00     0.134 A 
ATOM     72  C   UNL A   1      51.112  28.098  24.622  1.00  0.00     0.134 A 
ATOM     73  F   UNL A   1      51.238  27.559  28.213  1.00  0.00    -0.206 F 
ATOM     74  C   UNL A   1      52.976  27.699  26.643  1.00  0.00     0.040 A 
ATOM     75  C   UNL A   1      52.474  28.057  24.315  1.00  0.00     0.040 A 
ATOM     76  F   UNL A   1      50.244  28.293  23.618  1.00  0.00    -0.206 F 
ATOM     77  C   UNL A   1      53.410  27.869  25.329  1.00  0.00     0.006 A 
ENDBRANCH  56  70
BRANCH  57  78
ATOM     78  C   UNL A   1      40.994  28.458  28.323  1.00  0.00     0.057 A 
ATOM     79  C   UNL A   1      40.559  28.064  29.594  1.00  0.00     0.134 A 
ATOM     80  C   UNL A   1      40.025  28.917  27.422  1.00  0.00     0.134 A 
ATOM     81  F   UNL A   1      41.437  27.607  30.499  1.00  0.00    -0.206 F 
ATOM     82  C   UNL A   1      39.210  28.113  29.952  1.00  0.00     0.040 A 
ATOM     83  C   UNL A   1      38.677  28.994  27.776  1.00  0.00     0.040 A 
ATOM     84  F   UNL A   1      40.384  29.326  26.198  1.00  0.00    -0.206 F 
ATOM     85  C   UNL A   1      38.266  28.584  29.043  1.00  0.00     0.006 A 
ENDBRANCH  57  78
BRANCH  69  86
ATOM     86  C   UNL A   1      46.285  32.992  28.558  1.00  0.00     0.057 A 
ATOM     87  C   UNL A   1      46.544  33.308  29.898  1.00  0.00     0.134 A 
ATOM     88  C   UNL A   1      46.043  34.051  27.676  1.00  0.00     0.134 A 
ATOM     89  F   UNL A   1      46.773  32.336  30.795  1.00  0.00    -0.206 F 
ATOM     90  C   UNL A   1      46.544  34.628  30.348  1.00  0.00     0.040 A 
ATOM     91  C   UNL A   1      46.062  35.378  28.110  1.00  0.00     0.040 A 
ATOM     92  F   UNL A   1      45.799  33.813  26.379  1.00  0.00    -0.206 F 
ATOM     93  C   UNL A   1      46.303  35.668  29.452  1.00  0.00     0.006 A 
ENDBRANCH  69  86
ENDBRANCH  43  44
ENDBRANCH  35  38
ENDBRANCH  33  34
ENDBRANCH  32  33
ENDBRANCH  31  32
ENDBRANCH  30  31
ENDBRANCH  29  30
ENDBRANCH   1  29
TORSDOF 19
ENDMDL
