MODEL 1
REMARK VINA RESULT:     -12.1      0.000      0.000
REMARK SMILES Cc1cc(OC(F)(F)F)cc2c1O[C@H](C(F)(F)F)C(C(=O)NCCCCCCNC(=O)c1ccc(-c3c4nc(c(-c5c(F)cccc5F)c5ccc([nH]5)c(-c5c(F)cccc5F)c5nc(c(-c6c(F)cccc6F)c6ccc3[nH]6)C=C5)C=C4)cc1)=C2
REMARK SMILES IDX 25 1 24 2 23 3 22 4 20 5 21 6 19 8 1 9 2 10 3 11 12 12 4 13
REMARK SMILES IDX 11 14 13 15 10 16 86 17 14 18 5 19 6 20 7 21 8 22 9 23 15 24
REMARK SMILES IDX 16 25 17 26 18 27 26 28 27 29 28 30 29 31 30 32 31 34 32 35
REMARK SMILES IDX 33 36 85 37 34 38 84 39 35 40 36 41 37 42 78 43 38 44 83 45
REMARK SMILES IDX 77 46 79 47 39 48 82 49 76 50 75 51 40 53 66 54 49 55 65 56
REMARK SMILES IDX 50 57 53 58 64 59 80 60 51 61 52 62 63 64 81 65 54 66 41 67
REMARK SMILES IDX 42 68 47 69 43 70 44 71 46 72 48 73 45 74 67 75 68 76 73 77
REMARK SMILES IDX 69 78 70 79 72 80 74 81 71 82 55 83 56 84 61 85 57 86 58 87
REMARK SMILES IDX 60 88 62 89 59 90
REMARK H PARENT 22 7 29 33 79 52 53 63
REMARK Flexibility Score: inf
ROOT
ATOM      1  C   UNL A   1      30.719  27.483  25.162  1.00  0.00     0.002 C 
ENDROOT
BRANCH   1   2
ATOM      2  C   UNL A   1      30.744  27.583  23.636  1.00  0.00     0.021 C 
BRANCH   2   3
ATOM      3  C   UNL A   1      30.652  26.230  22.935  1.00  0.00     0.116 C 
BRANCH   3   4
ATOM      4  N   UNL A   1      31.634  26.105  21.873  1.00  0.00    -0.352 N 
ATOM      5  C   UNL A   1      32.736  25.361  21.624  1.00  0.00     0.251 C 
ATOM      6  O   UNL A   1      33.278  25.574  20.534  1.00  0.00    -0.270 OA
ATOM      7  H   UNL A   1      31.448  26.731  21.136  1.00  0.00     0.163 HD
BRANCH   5   8
ATOM      8  C   UNL A   1      33.316  24.340  22.547  1.00  0.00     0.067 C 
ATOM      9  C   UNL A   1      36.242  21.520  25.699  1.00  0.00     0.048 C 
ATOM     10  C   UNL A   1      34.951  21.309  24.957  1.00  0.00    -0.005 A 
ATOM     11  C   UNL A   1      34.283  20.081  25.062  1.00  0.00     0.054 A 
ATOM     12  C   UNL A   1      34.428  22.295  24.115  1.00  0.00     0.131 A 
ATOM     13  C   UNL A   1      33.102  19.848  24.352  1.00  0.00     0.130 A 
ATOM     14  C   UNL A   1      33.246  22.081  23.402  1.00  0.00     0.021 A 
ATOM     15  O   UNL A   1      35.151  23.443  23.983  1.00  0.00    -0.475 OA
ATOM     16  C   UNL A   1      32.586  20.856  23.528  1.00  0.00     0.058 A 
ATOM     17  C   UNL A   1      32.746  23.122  22.511  1.00  0.00     0.025 C 
ATOM     18  C   UNL A   1      34.442  24.612  23.502  1.00  0.00     0.314 C 
BRANCH  13  19
ATOM     19  O   UNL A   1      32.367  18.697  24.367  1.00  0.00    -0.406 OA
BRANCH  19  20
ATOM     20  C   UNL A   1      32.802  17.628  23.545  1.00  0.00     0.573 C 
ATOM     21  F   UNL A   1      34.125  17.716  23.290  1.00  0.00    -0.132 F 
ATOM     22  F   UNL A   1      32.530  16.434  24.114  1.00  0.00    -0.132 F 
ATOM     23  F   UNL A   1      32.144  17.690  22.366  1.00  0.00    -0.132 F 
ENDBRANCH  19  20
ENDBRANCH  13  19
BRANCH  18  24
ATOM     24  C   UNL A   1      34.013  25.471  24.705  1.00  0.00     0.429 C 
ATOM     25  F   UNL A   1      33.921  26.777  24.345  1.00  0.00    -0.167 F 
ATOM     26  F   UNL A   1      32.796  25.125  25.187  1.00  0.00    -0.167 F 
ATOM     27  F   UNL A   1      34.882  25.395  25.738  1.00  0.00    -0.167 F 
ENDBRANCH  18  24
ENDBRANCH   5   8
ENDBRANCH   3   4
ENDBRANCH   2   3
ENDBRANCH   1   2
BRANCH   1  28
ATOM     28  C   UNL A   1      31.611  28.495  25.896  1.00  0.00     0.002 C 
BRANCH  28  29
ATOM     29  C   UNL A   1      32.423  27.925  27.063  1.00  0.00     0.021 C 
BRANCH  29  30
ATOM     30  C   UNL A   1      33.786  28.579  27.250  1.00  0.00     0.116 C 
BRANCH  30  31
ATOM     31  N   UNL A   1      33.659  29.977  27.624  1.00  0.00    -0.352 N 
ATOM     32  C   UNL A   1      34.554  30.764  28.300  1.00  0.00     0.251 C 
ATOM     33  H   UNL A   1      32.821  30.416  27.357  1.00  0.00     0.163 HD
ATOM     34  O   UNL A   1      34.221  31.860  28.740  1.00  0.00    -0.269 OA
BRANCH  32  35
ATOM     35  C   UNL A   1      35.932  30.276  28.495  1.00  0.00     0.039 A 
ATOM     36  C   UNL A   1      36.285  29.703  29.718  1.00  0.00     0.014 A 
ATOM     37  C   UNL A   1      36.867  30.396  27.463  1.00  0.00     0.014 A 
ATOM     38  C   UNL A   1      37.581  29.222  29.899  1.00  0.00     0.010 A 
ATOM     39  C   UNL A   1      38.142  29.866  27.625  1.00  0.00     0.010 A 
ATOM     40  C   UNL A   1      38.513  29.296  28.852  1.00  0.00    -0.014 A 
BRANCH  40  41
ATOM     41  C   UNL A   1      39.913  28.858  29.050  1.00  0.00     0.031 A 
ATOM     42  C   UNL A   1      40.893  29.801  29.688  1.00  0.00     0.074 A 
ATOM     43  C   UNL A   1      40.307  27.644  28.628  1.00  0.00     0.049 A 
ATOM     44  N   UNL A   1      42.168  29.634  29.928  1.00  0.00    -0.248 NA
ATOM     45  C   UNL A   1      40.371  31.117  30.090  1.00  0.00     0.031 C 
ATOM     46  C   UNL A   1      39.450  26.654  27.973  1.00  0.00     0.029 A 
ATOM     47  N   UNL A   1      41.537  27.039  28.683  1.00  0.00    -0.354 N 
ATOM     48  C   UNL A   1      42.596  30.818  30.511  1.00  0.00     0.074 A 
ATOM     49  C   UNL A   1      41.465  31.720  30.526  1.00  0.00     0.031 C 
ATOM     50  C   UNL A   1      40.179  25.558  27.701  1.00  0.00     0.029 A 
ATOM     51  C   UNL A   1      41.555  25.779  28.139  1.00  0.00     0.049 A 
ATOM     52  H   UNL A   1      42.331  27.468  29.077  1.00  0.00     0.167 HD
ATOM     53  C   UNL A   1      43.816  31.120  31.015  1.00  0.00     0.037 A 
ATOM     54  C   UNL A   1      42.572  24.908  28.008  1.00  0.00     0.037 A 
ATOM     55  C   UNL A   1      44.937  30.221  30.999  1.00  0.00     0.049 A 
ATOM     56  C   UNL A   1      43.933  25.288  28.525  1.00  0.00     0.074 A 
ATOM     57  C   UNL A   1      46.206  30.410  31.519  1.00  0.00     0.029 A 
ATOM     58  N   UNL A   1      44.925  28.960  30.420  1.00  0.00    -0.354 N 
ATOM     59  N   UNL A   1      44.311  26.384  29.138  1.00  0.00    -0.248 NA
ATOM     60  C   UNL A   1      45.009  24.305  28.335  1.00  0.00     0.031 C 
ATOM     61  C   UNL A   1      46.973  29.280  31.214  1.00  0.00     0.029 A 
ATOM     62  C   UNL A   1      46.170  28.370  30.545  1.00  0.00     0.049 A 
ATOM     63  H   UNL A   1      44.144  28.545  29.987  1.00  0.00     0.167 HD
ATOM     64  C   UNL A   1      45.659  26.212  29.430  1.00  0.00     0.074 A 
ATOM     65  C   UNL A   1      46.027  24.899  28.941  1.00  0.00     0.031 C 
ATOM     66  C   UNL A   1      46.515  27.061  30.050  1.00  0.00     0.037 A 
BRANCH  53  67
ATOM     67  C   UNL A   1      43.984  32.483  31.621  1.00  0.00     0.057 A 
ATOM     68  C   UNL A   1      43.715  32.705  32.976  1.00  0.00     0.134 A 
ATOM     69  C   UNL A   1      44.425  33.575  30.862  1.00  0.00     0.134 A 
ATOM     70  F   UNL A   1      43.288  31.704  33.759  1.00  0.00    -0.206 F 
ATOM     71  C   UNL A   1      43.886  33.963  33.557  1.00  0.00     0.040 A 
ATOM     72  C   UNL A   1      44.628  34.831  31.437  1.00  0.00     0.040 A 
ATOM     73  F   UNL A   1      44.717  33.427  29.560  1.00  0.00    -0.206 F 
ATOM     74  C   UNL A   1      44.354  35.028  32.788  1.00  0.00     0.006 A 
ENDBRANCH  53  67
BRANCH  54  75
ATOM     75  C   UNL A   1      42.348  23.581  27.383  1.00  0.00     0.057 A 
ATOM     76  C   UNL A   1      42.461  23.392  26.000  1.00  0.00     0.134 A 
ATOM     77  C   UNL A   1      42.043  22.460  28.164  1.00  0.00     0.134 A 
ATOM     78  F   UNL A   1      42.746  24.427  25.197  1.00  0.00    -0.206 F 
ATOM     79  C   UNL A   1      42.281  22.137  25.418  1.00  0.00     0.040 A 
ATOM     80  C   UNL A   1      41.884  21.194  27.598  1.00  0.00     0.040 A 
ATOM     81  F   UNL A   1      41.941  22.575  29.497  1.00  0.00    -0.206 F 
ATOM     82  C   UNL A   1      42.000  21.031  26.219  1.00  0.00     0.006 A 
ENDBRANCH  54  75
BRANCH  66  83
ATOM     83  C   UNL A   1      47.923  26.582  30.251  1.00  0.00     0.057 A 
ATOM     84  C   UNL A   1      48.282  25.894  31.416  1.00  0.00     0.134 A 
ATOM     85  C   UNL A   1      48.928  26.826  29.307  1.00  0.00     0.134 A 
ATOM     86  F   UNL A   1      47.368  25.635  32.365  1.00  0.00    -0.206 F 
ATOM     87  C   UNL A   1      49.592  25.468  31.637  1.00  0.00     0.040 A 
ATOM     88  C   UNL A   1      50.236  26.381  29.504  1.00  0.00     0.040 A 
ATOM     89  F   UNL A   1      48.645  27.467  28.162  1.00  0.00    -0.206 F 
ATOM     90  C   UNL A   1      50.572  25.705  30.676  1.00  0.00     0.006 A 
ENDBRANCH  66  83
ENDBRANCH  40  41
ENDBRANCH  32  35
ENDBRANCH  30  31
ENDBRANCH  29  30
ENDBRANCH  28  29
ENDBRANCH   1  28
TORSDOF 16
ENDMDL
MODEL 2
REMARK VINA RESULT:     -11.9      3.245      8.382
REMARK SMILES Cc1cc(OC(F)(F)F)cc2c1O[C@H](C(F)(F)F)C(C(=O)NCCCCCCNC(=O)c1ccc(-c3c4nc(c(-c5c(F)cccc5F)c5ccc([nH]5)c(-c5c(F)cccc5F)c5nc(c(-c6c(F)cccc6F)c6ccc3[nH]6)C=C5)C=C4)cc1)=C2
REMARK SMILES IDX 25 1 24 2 23 3 22 4 20 5 21 6 19 8 1 9 2 10 3 11 12 12 4 13
REMARK SMILES IDX 11 14 13 15 10 16 86 17 14 18 5 19 6 20 7 21 8 22 9 23 15 24
REMARK SMILES IDX 16 25 17 26 18 27 26 28 27 29 28 30 29 31 30 32 31 34 32 35
REMARK SMILES IDX 33 36 85 37 34 38 84 39 35 40 36 41 37 42 78 43 38 44 83 45
REMARK SMILES IDX 77 46 79 47 39 48 82 49 76 50 75 51 40 53 66 54 49 55 65 56
REMARK SMILES IDX 50 57 53 58 64 59 80 60 51 61 52 62 63 64 81 65 54 66 41 67
REMARK SMILES IDX 42 68 47 69 43 70 44 71 46 72 48 73 45 74 67 75 68 76 73 77
REMARK SMILES IDX 69 78 70 79 72 80 74 81 71 82 55 83 56 84 61 85 57 86 58 87
REMARK SMILES IDX 60 88 62 89 59 90
REMARK H PARENT 22 7 29 33 79 52 53 63
REMARK Flexibility Score: inf
ROOT
ATOM      1  C   UNL A   1      34.562  21.735  24.821  1.00  0.00     0.002 C 
ENDROOT
BRANCH   1   2
ATOM      2  C   UNL A   1      33.144  21.241  24.526  1.00  0.00     0.021 C 
BRANCH   2   3
ATOM      3  C   UNL A   1      32.129  22.368  24.355  1.00  0.00     0.116 C 
BRANCH   3   4
ATOM      4  N   UNL A   1      31.343  22.573  25.557  1.00  0.00    -0.352 N 
ATOM      5  C   UNL A   1      30.852  23.624  26.255  1.00  0.00     0.251 C 
ATOM      6  O   UNL A   1      30.183  23.326  27.251  1.00  0.00    -0.270 OA
ATOM      7  H   UNL A   1      31.102  21.717  25.979  1.00  0.00     0.163 HD
BRANCH   5   8
ATOM      8  C   UNL A   1      31.061  25.062  25.911  1.00  0.00     0.067 C 
ATOM      9  C   UNL A   1      32.327  30.044  25.751  1.00  0.00     0.048 C 
ATOM     10  C   UNL A   1      31.407  29.145  24.973  1.00  0.00    -0.005 A 
ATOM     11  C   UNL A   1      30.645  29.674  23.922  1.00  0.00     0.054 A 
ATOM     12  C   UNL A   1      31.250  27.797  25.312  1.00  0.00     0.131 A 
ATOM     13  C   UNL A   1      29.755  28.866  23.208  1.00  0.00     0.130 A 
ATOM     14  C   UNL A   1      30.369  26.975  24.606  1.00  0.00     0.021 A 
ATOM     15  O   UNL A   1      31.952  27.345  26.389  1.00  0.00    -0.475 OA
ATOM     16  C   UNL A   1      29.627  27.515  23.553  1.00  0.00     0.058 A 
ATOM     17  C   UNL A   1      30.210  25.581  25.007  1.00  0.00     0.025 C 
ATOM     18  C   UNL A   1      32.157  25.914  26.483  1.00  0.00     0.314 C 
BRANCH  13  19
ATOM     19  O   UNL A   1      28.958  29.265  22.173  1.00  0.00    -0.406 OA
BRANCH  19  20
ATOM     20  C   UNL A   1      27.757  29.948  22.493  1.00  0.00     0.573 C 
ATOM     21  F   UNL A   1      27.903  30.695  23.608  1.00  0.00    -0.132 F 
ATOM     22  F   UNL A   1      27.357  30.734  21.471  1.00  0.00    -0.132 F 
ATOM     23  F   UNL A   1      26.787  29.035  22.725  1.00  0.00    -0.132 F 
ENDBRANCH  19  20
ENDBRANCH  13  19
BRANCH  18  24
ATOM     24  C   UNL A   1      33.544  25.566  25.913  1.00  0.00     0.429 C 
ATOM     25  F   UNL A   1      34.413  26.587  26.126  1.00  0.00    -0.167 F 
ATOM     26  F   UNL A   1      34.092  24.475  26.500  1.00  0.00    -0.167 F 
ATOM     27  F   UNL A   1      33.518  25.326  24.583  1.00  0.00    -0.167 F 
ENDBRANCH  18  24
ENDBRANCH   5   8
ENDBRANCH   3   4
ENDBRANCH   2   3
ENDBRANCH   1   2
BRANCH   1  28
ATOM     28  C   UNL A   1      35.116  22.760  23.821  1.00  0.00     0.002 C 
BRANCH  28  29
ATOM     29  C   UNL A   1      36.586  23.139  24.021  1.00  0.00     0.021 C 
BRANCH  29  30
ATOM     30  C   UNL A   1      36.976  23.378  25.474  1.00  0.00     0.116 C 
BRANCH  30  31
ATOM     31  N   UNL A   1      37.926  22.383  25.941  1.00  0.00    -0.352 N 
ATOM     32  C   UNL A   1      39.160  22.578  26.503  1.00  0.00     0.251 C 
ATOM     33  H   UNL A   1      37.646  21.445  25.841  1.00  0.00     0.163 HD
ATOM     34  O   UNL A   1      39.943  21.643  26.643  1.00  0.00    -0.269 OA
BRANCH  32  35
ATOM     35  C   UNL A   1      39.541  23.934  26.939  1.00  0.00     0.039 A 
ATOM     36  C   UNL A   1      40.062  24.829  26.003  1.00  0.00     0.014 A 
ATOM     37  C   UNL A   1      39.385  24.306  28.278  1.00  0.00     0.014 A 
ATOM     38  C   UNL A   1      40.404  26.119  26.408  1.00  0.00     0.010 A 
ATOM     39  C   UNL A   1      39.674  25.608  28.668  1.00  0.00     0.010 A 
ATOM     40  C   UNL A   1      40.206  26.516  27.740  1.00  0.00    -0.014 A 
BRANCH  40  41
ATOM     41  C   UNL A   1      40.632  27.855  28.205  1.00  0.00     0.031 A 
ATOM     42  C   UNL A   1      42.096  28.189  28.237  1.00  0.00     0.074 A 
ATOM     43  C   UNL A   1      39.717  28.746  28.626  1.00  0.00     0.049 A 
ATOM     44  N   UNL A   1      42.687  29.286  28.634  1.00  0.00    -0.248 NA
ATOM     45  C   UNL A   1      43.019  27.136  27.782  1.00  0.00     0.031 C 
ATOM     46  C   UNL A   1      38.271  28.525  28.663  1.00  0.00     0.029 A 
ATOM     47  N   UNL A   1      39.874  30.019  29.111  1.00  0.00    -0.354 N 
ATOM     48  C   UNL A   1      44.047  29.056  28.472  1.00  0.00     0.074 A 
ATOM     49  C   UNL A   1      44.197  27.696  28.007  1.00  0.00     0.031 C 
ATOM     50  C   UNL A   1      37.671  29.633  29.131  1.00  0.00     0.029 A 
ATOM     51  C   UNL A   1      38.692  30.628  29.450  1.00  0.00     0.049 A 
ATOM     52  H   UNL A   1      40.751  30.455  29.207  1.00  0.00     0.167 HD
ATOM     53  C   UNL A   1      45.078  29.913  28.666  1.00  0.00     0.037 A 
ATOM     54  C   UNL A   1      38.464  31.852  29.962  1.00  0.00     0.037 A 
ATOM     55  C   UNL A   1      44.924  31.265  29.128  1.00  0.00     0.049 A 
ATOM     56  C   UNL A   1      39.631  32.765  30.223  1.00  0.00     0.074 A 
ATOM     57  C   UNL A   1      45.897  32.230  29.319  1.00  0.00     0.029 A 
ATOM     58  N   UNL A   1      43.712  31.842  29.480  1.00  0.00    -0.354 N 
ATOM     59  N   UNL A   1      40.908  32.564  30.001  1.00  0.00    -0.248 NA
ATOM     60  C   UNL A   1      39.323  34.080  30.803  1.00  0.00     0.031 C 
ATOM     61  C   UNL A   1      45.277  33.377  29.830  1.00  0.00     0.029 A 
ATOM     62  C   UNL A   1      43.914  33.140  29.915  1.00  0.00     0.049 A 
ATOM     63  H   UNL A   1      42.837  31.394  29.428  1.00  0.00     0.167 HD
ATOM     64  C   UNL A   1      41.551  33.733  30.387  1.00  0.00     0.074 A 
ATOM     65  C   UNL A   1      40.521  34.644  30.844  1.00  0.00     0.031 C 
ATOM     66  C   UNL A   1      42.874  34.029  30.365  1.00  0.00     0.037 A 
BRANCH  53  67
ATOM     67  C   UNL A   1      46.457  29.394  28.377  1.00  0.00     0.057 A 
ATOM     68  C   UNL A   1      47.013  29.508  27.099  1.00  0.00     0.134 A 
ATOM     69  C   UNL A   1      47.238  28.791  29.372  1.00  0.00     0.134 A 
ATOM     70  F   UNL A   1      46.319  30.073  26.100  1.00  0.00    -0.206 F 
ATOM     71  C   UNL A   1      48.302  29.049  26.821  1.00  0.00     0.040 A 
ATOM     72  C   UNL A   1      48.539  28.354  29.114  1.00  0.00     0.040 A 
ATOM     73  F   UNL A   1      46.770  28.666  30.623  1.00  0.00    -0.206 F 
ATOM     74  C   UNL A   1      49.072  28.479  27.834  1.00  0.00     0.006 A 
ENDBRANCH  53  67
BRANCH  54  75
ATOM     75  C   UNL A   1      37.078  32.301  30.245  1.00  0.00     0.057 A 
ATOM     76  C   UNL A   1      36.327  33.005  29.296  1.00  0.00     0.134 A 
ATOM     77  C   UNL A   1      36.462  32.006  31.466  1.00  0.00     0.134 A 
ATOM     78  F   UNL A   1      36.862  33.321  28.109  1.00  0.00    -0.206 F 
ATOM     79  C   UNL A   1      35.012  33.398  29.552  1.00  0.00     0.040 A 
ATOM     80  C   UNL A   1      35.141  32.372  31.727  1.00  0.00     0.040 A 
ATOM     81  F   UNL A   1      37.125  31.318  32.407  1.00  0.00    -0.206 F 
ATOM     82  C   UNL A   1      34.413  33.074  30.767  1.00  0.00     0.006 A 
ENDBRANCH  54  75
BRANCH  66  83
ATOM     83  C   UNL A   1      43.272  35.401  30.826  1.00  0.00     0.057 A 
ATOM     84  C   UNL A   1      43.411  36.449  29.907  1.00  0.00     0.134 A 
ATOM     85  C   UNL A   1      43.547  35.677  32.171  1.00  0.00     0.134 A 
ATOM     86  F   UNL A   1      43.170  36.249  28.602  1.00  0.00    -0.206 F 
ATOM     87  C   UNL A   1      43.811  37.723  30.310  1.00  0.00     0.040 A 
ATOM     88  C   UNL A   1      43.922  36.955  32.590  1.00  0.00     0.040 A 
ATOM     89  F   UNL A   1      43.419  34.719  33.102  1.00  0.00    -0.206 F 
ATOM     90  C   UNL A   1      44.061  37.981  31.656  1.00  0.00     0.006 A 
ENDBRANCH  66  83
ENDBRANCH  40  41
ENDBRANCH  32  35
ENDBRANCH  30  31
ENDBRANCH  29  30
ENDBRANCH  28  29
ENDBRANCH   1  28
TORSDOF 16
ENDMDL
MODEL 3
REMARK VINA RESULT:     -11.8      1.676      2.545
REMARK SMILES Cc1cc(OC(F)(F)F)cc2c1O[C@H](C(F)(F)F)C(C(=O)NCCCCCCNC(=O)c1ccc(-c3c4nc(c(-c5c(F)cccc5F)c5ccc([nH]5)c(-c5c(F)cccc5F)c5nc(c(-c6c(F)cccc6F)c6ccc3[nH]6)C=C5)C=C4)cc1)=C2
REMARK SMILES IDX 25 1 24 2 23 3 22 4 20 5 21 6 19 8 1 9 2 10 3 11 12 12 4 13
REMARK SMILES IDX 11 14 13 15 10 16 86 17 14 18 5 19 6 20 7 21 8 22 9 23 15 24
REMARK SMILES IDX 16 25 17 26 18 27 26 28 27 29 28 30 29 31 30 32 31 34 32 35
REMARK SMILES IDX 33 36 85 37 34 38 84 39 35 40 36 41 37 42 78 43 38 44 83 45
REMARK SMILES IDX 77 46 79 47 39 48 82 49 76 50 75 51 40 53 66 54 49 55 65 56
REMARK SMILES IDX 50 57 53 58 64 59 80 60 51 61 52 62 63 64 81 65 54 66 41 67
REMARK SMILES IDX 42 68 47 69 43 70 44 71 46 72 48 73 45 74 67 75 68 76 73 77
REMARK SMILES IDX 69 78 70 79 72 80 74 81 71 82 55 83 56 84 61 85 57 86 58 87
REMARK SMILES IDX 60 88 62 89 59 90
REMARK H PARENT 22 7 29 33 79 52 53 63
REMARK Flexibility Score: inf
ROOT
ATOM      1  C   UNL A   1      30.898  27.327  25.363  1.00  0.00     0.002 C 
ENDROOT
BRANCH   1   2
ATOM      2  C   UNL A   1      30.820  27.416  23.837  1.00  0.00     0.021 C 
BRANCH   2   3
ATOM      3  C   UNL A   1      30.699  26.058  23.153  1.00  0.00     0.116 C 
BRANCH   3   4
ATOM      4  N   UNL A   1      31.597  25.943  22.019  1.00  0.00    -0.352 N 
ATOM      5  C   UNL A   1      32.688  25.214  21.687  1.00  0.00     0.251 C 
ATOM      6  O   UNL A   1      33.140  25.430  20.557  1.00  0.00    -0.270 OA
ATOM      7  H   UNL A   1      31.346  26.563  21.297  1.00  0.00     0.163 HD
BRANCH   5   8
ATOM      8  C   UNL A   1      33.354  24.206  22.566  1.00  0.00     0.067 C 
ATOM      9  C   UNL A   1      36.559  21.444  25.490  1.00  0.00     0.048 C 
ATOM     10  C   UNL A   1      35.217  21.211  24.852  1.00  0.00    -0.005 A 
ATOM     11  C   UNL A   1      34.578  19.973  25.012  1.00  0.00     0.054 A 
ATOM     12  C   UNL A   1      34.615  22.185  24.049  1.00  0.00     0.131 A 
ATOM     13  C   UNL A   1      33.349  19.720  24.397  1.00  0.00     0.130 A 
ATOM     14  C   UNL A   1      33.384  21.950  23.431  1.00  0.00     0.021 A 
ATOM     15  O   UNL A   1      35.308  23.343  23.857  1.00  0.00    -0.475 OA
ATOM     16  C   UNL A   1      32.755  20.716  23.612  1.00  0.00     0.058 A 
ATOM     17  C   UNL A   1      32.801  22.979  22.578  1.00  0.00     0.025 C 
ATOM     18  C   UNL A   1      34.547  24.498  23.429  1.00  0.00     0.314 C 
BRANCH  13  19
ATOM     19  O   UNL A   1      32.634  18.558  24.473  1.00  0.00    -0.406 OA
BRANCH  19  20
ATOM     20  C   UNL A   1      32.978  17.515  23.577  1.00  0.00     0.573 C 
ATOM     21  F   UNL A   1      32.266  17.601  22.433  1.00  0.00    -0.132 F 
ATOM     22  F   UNL A   1      34.297  17.534  23.290  1.00  0.00    -0.132 F 
ATOM     23  F   UNL A   1      32.693  16.329  24.160  1.00  0.00    -0.132 F 
ENDBRANCH  19  20
ENDBRANCH  13  19
BRANCH  18  24
ATOM     24  C   UNL A   1      34.199  25.357  24.659  1.00  0.00     0.429 C 
ATOM     25  F   UNL A   1      33.029  24.943  25.209  1.00  0.00    -0.167 F 
ATOM     26  F   UNL A   1      35.130  25.267  25.639  1.00  0.00    -0.167 F 
ATOM     27  F   UNL A   1      34.066  26.668  24.360  1.00  0.00    -0.167 F 
ENDBRANCH  18  24
ENDBRANCH   5   8
ENDBRANCH   3   4
ENDBRANCH   2   3
ENDBRANCH   1   2
BRANCH   1  28
ATOM     28  C   UNL A   1      31.558  28.529  26.053  1.00  0.00     0.002 C 
BRANCH  28  29
ATOM     29  C   UNL A   1      32.781  28.198  26.913  1.00  0.00     0.021 C 
BRANCH  29  30
ATOM     30  C   UNL A   1      34.034  28.982  26.544  1.00  0.00     0.116 C 
BRANCH  30  31
ATOM     31  N   UNL A   1      33.921  30.379  26.928  1.00  0.00    -0.352 N 
ATOM     32  C   UNL A   1      34.680  31.081  27.826  1.00  0.00     0.251 C 
ATOM     33  H   UNL A   1      33.204  30.887  26.485  1.00  0.00     0.163 HD
ATOM     34  O   UNL A   1      34.330  32.191  28.215  1.00  0.00    -0.269 OA
BRANCH  32  35
ATOM     35  C   UNL A   1      35.932  30.483  28.326  1.00  0.00     0.039 A 
ATOM     36  C   UNL A   1      35.912  29.758  29.519  1.00  0.00     0.014 A 
ATOM     37  C   UNL A   1      37.121  30.653  27.609  1.00  0.00     0.014 A 
ATOM     38  C   UNL A   1      37.090  29.175  29.983  1.00  0.00     0.010 A 
ATOM     39  C   UNL A   1      38.281  30.024  28.045  1.00  0.00     0.010 A 
ATOM     40  C   UNL A   1      38.278  29.300  29.246  1.00  0.00    -0.014 A 
BRANCH  40  41
ATOM     41  C   UNL A   1      39.553  28.750  29.760  1.00  0.00     0.031 A 
ATOM     42  C   UNL A   1      40.193  29.386  30.961  1.00  0.00     0.074 A 
ATOM     43  C   UNL A   1      40.145  27.718  29.134  1.00  0.00     0.049 A 
ATOM     44  N   UNL A   1      41.318  29.085  31.556  1.00  0.00    -0.248 NA
ATOM     45  C   UNL A   1      39.481  30.528  31.558  1.00  0.00     0.031 C 
ATOM     46  C   UNL A   1      39.628  27.037  27.946  1.00  0.00     0.029 A 
ATOM     47  N   UNL A   1      41.319  27.066  29.411  1.00  0.00    -0.354 N 
ATOM     48  C   UNL A   1      41.445  29.996  32.597  1.00  0.00     0.074 A 
ATOM     49  C   UNL A   1      40.321  30.901  32.511  1.00  0.00     0.031 C 
ATOM     50  C   UNL A   1      40.476  26.051  27.605  1.00  0.00     0.029 A 
ATOM     51  C   UNL A   1      41.603  26.049  28.534  1.00  0.00     0.049 A 
ATOM     52  H   UNL A   1      41.902  27.304  30.168  1.00  0.00     0.167 HD
ATOM     53  C   UNL A   1      42.398  30.056  33.557  1.00  0.00     0.037 A 
ATOM     54  C   UNL A   1      42.659  25.216  28.489  1.00  0.00     0.037 A 
ATOM     55  C   UNL A   1      43.514  29.154  33.639  1.00  0.00     0.049 A 
ATOM     56  C   UNL A   1      43.735  25.339  29.533  1.00  0.00     0.074 A 
ATOM     57  C   UNL A   1      44.515  29.100  34.593  1.00  0.00     0.029 A 
ATOM     58  N   UNL A   1      43.781  28.148  32.721  1.00  0.00    -0.354 N 
ATOM     59  N   UNL A   1      43.810  26.158  30.554  1.00  0.00    -0.248 NA
ATOM     60  C   UNL A   1      44.873  24.415  29.420  1.00  0.00     0.031 C 
ATOM     61  C   UNL A   1      45.412  28.090  34.226  1.00  0.00     0.029 A 
ATOM     62  C   UNL A   1      44.946  27.487  33.068  1.00  0.00     0.049 A 
ATOM     63  H   UNL A   1      43.224  27.936  31.937  1.00  0.00     0.167 HD
ATOM     64  C   UNL A   1      44.985  25.832  31.219  1.00  0.00     0.074 A 
ATOM     65  C   UNL A   1      45.583  24.730  30.493  1.00  0.00     0.031 C 
ATOM     66  C   UNL A   1      45.522  26.391  32.331  1.00  0.00     0.037 A 
BRANCH  53  67
ATOM     67  C   UNL A   1      42.261  31.141  34.585  1.00  0.00     0.057 A 
ATOM     68  C   UNL A   1      42.907  32.371  34.420  1.00  0.00     0.134 A 
ATOM     69  C   UNL A   1      41.480  30.970  35.735  1.00  0.00     0.134 A 
ATOM     70  F   UNL A   1      43.672  32.601  33.343  1.00  0.00    -0.206 F 
ATOM     71  C   UNL A   1      42.773  33.397  35.358  1.00  0.00     0.040 A 
ATOM     72  C   UNL A   1      41.314  31.997  36.666  1.00  0.00     0.040 A 
ATOM     73  F   UNL A   1      40.820  29.820  35.946  1.00  0.00    -0.206 F 
ATOM     74  C   UNL A   1      41.966  33.214  36.479  1.00  0.00     0.006 A 
ENDBRANCH  53  67
BRANCH  54  75
ATOM     75  C   UNL A   1      42.747  24.174  27.435  1.00  0.00     0.057 A 
ATOM     76  C   UNL A   1      42.264  22.877  27.643  1.00  0.00     0.134 A 
ATOM     77  C   UNL A   1      43.292  24.466  26.180  1.00  0.00     0.134 A 
ATOM     78  F   UNL A   1      41.733  22.533  28.825  1.00  0.00    -0.206 F 
ATOM     79  C   UNL A   1      42.318  21.908  26.640  1.00  0.00     0.040 A 
ATOM     80  C   UNL A   1      43.332  23.514  25.160  1.00  0.00     0.040 A 
ATOM     81  F   UNL A   1      43.754  25.697  25.915  1.00  0.00    -0.206 F 
ATOM     82  C   UNL A   1      42.846  22.229  25.390  1.00  0.00     0.006 A 
ENDBRANCH  54  75
BRANCH  66  83
ATOM     83  C   UNL A   1      46.806  25.802  32.838  1.00  0.00     0.057 A 
ATOM     84  C   UNL A   1      48.039  26.265  32.364  1.00  0.00     0.134 A 
ATOM     85  C   UNL A   1      46.821  24.758  33.771  1.00  0.00     0.134 A 
ATOM     86  F   UNL A   1      48.095  27.258  31.462  1.00  0.00    -0.206 F 
ATOM     87  C   UNL A   1      49.243  25.709  32.799  1.00  0.00     0.040 A 
ATOM     88  C   UNL A   1      48.019  24.212  34.234  1.00  0.00     0.040 A 
ATOM     89  F   UNL A   1      45.673  24.279  34.275  1.00  0.00    -0.206 F 
ATOM     90  C   UNL A   1      49.235  24.684  33.742  1.00  0.00     0.006 A 
ENDBRANCH  66  83
ENDBRANCH  40  41
ENDBRANCH  32  35
ENDBRANCH  30  31
ENDBRANCH  29  30
ENDBRANCH  28  29
ENDBRANCH   1  28
TORSDOF 16
ENDMDL
