MODEL 1
REMARK VINA RESULT:     -11.3      0.000      0.000
REMARK SMILES O=C(C[C@@H]1C(=O)NC(=S)N1c1ccccc1)NCCCCCCNC(=O)c1ccc(-c2c3nc(c(-c4c(F)cccc4F)c4ccc([nH]4)c(-c4c(F)cccc4F)c4nc(c(-c5c(F)cccc5F)c5ccc2[nH]5)C=C4)C=C3)cc1
REMARK SMILES IDX 20 1 19 2 18 3 17 4 1 5 2 6 3 8 4 9 5 10 10 11 6 12 7 13
REMARK SMILES IDX 8 14 9 16 11 17 12 18 16 19 13 20 15 21 14 22 21 23 22 24
REMARK SMILES IDX 23 25 24 26 25 27 26 29 27 30 28 31 80 32 29 33 79 34 30 35
REMARK SMILES IDX 31 36 32 37 73 38 33 39 78 40 72 41 74 42 34 43 77 44 71 45
REMARK SMILES IDX 70 46 35 48 61 49 44 50 60 51 45 52 48 53 59 54 75 55 46 56
REMARK SMILES IDX 47 57 58 59 76 60 49 61 36 62 37 63 42 64 38 65 39 66 41 67
REMARK SMILES IDX 43 68 40 69 62 70 63 71 68 72 64 73 65 74 67 75 69 76 66 77
REMARK SMILES IDX 50 78 51 79 56 80 52 81 53 82 55 83 57 84 54 85
REMARK H PARENT 17 7 7 15 24 28 74 47 48 58
REMARK Flexibility Score: inf
ROOT
ATOM      1  C   UNL A   1      37.155  22.239  24.640  1.00  0.00     0.002 C 
ENDROOT
BRANCH   1   2
ATOM      2  C   UNL A   1      36.427  23.065  23.567  1.00  0.00     0.021 C 
BRANCH   2   3
ATOM      3  C   UNL A   1      34.901  22.947  23.590  1.00  0.00     0.116 C 
BRANCH   3   4
ATOM      4  N   UNL A   1      34.373  23.390  24.862  1.00  0.00    -0.356 N 
ATOM      5  O   UNL A   1      33.354  21.436  25.511  1.00  0.00    -0.275 OA
ATOM      6  C   UNL A   1      33.592  22.624  25.691  1.00  0.00     0.222 C 
ATOM      7  H   UNL A   1      34.587  24.306  25.152  1.00  0.00     0.163 HD
BRANCH   6   8
ATOM      8  C   UNL A   1      32.993  23.404  26.844  1.00  0.00     0.135 C 
BRANCH   8   9
ATOM      9  C   UNL A   1      31.711  24.163  26.532  1.00  0.00     0.188 C 
ATOM     10  C   UNL A   1      30.693  23.316  25.771  1.00  0.00     0.249 C 
ATOM     11  N   UNL A   1      31.800  25.325  25.648  1.00  0.00    -0.306 N 
ATOM     12  O   UNL A   1      30.278  22.223  26.126  1.00  0.00    -0.272 OA
ATOM     13  N   UNL A   1      30.325  23.971  24.641  1.00  0.00    -0.301 N 
ATOM     14  C   UNL A   1      30.937  25.183  24.552  1.00  0.00     0.180 C 
ATOM     15  H   UNL A   1      29.696  23.615  23.972  1.00  0.00     0.172 HD
ATOM     16  S   UNL A   1      30.640  26.221  23.290  1.00  0.00    -0.040 S 
BRANCH  11  17
ATOM     17  C   UNL A   1      32.270  26.557  26.161  1.00  0.00     0.044 A 
ATOM     18  C   UNL A   1      33.593  26.961  25.942  1.00  0.00     0.026 A 
ATOM     19  C   UNL A   1      31.403  27.407  26.852  1.00  0.00     0.026 A 
ATOM     20  C   UNL A   1      34.039  28.201  26.406  1.00  0.00     0.002 A 
ATOM     21  C   UNL A   1      31.851  28.644  27.319  1.00  0.00     0.002 A 
ATOM     22  C   UNL A   1      33.167  29.043  27.094  1.00  0.00     0.000 A 
ENDBRANCH  11  17
ENDBRANCH   8   9
ENDBRANCH   6   8
ENDBRANCH   3   4
ENDBRANCH   2   3
ENDBRANCH   1   2
BRANCH   1  23
ATOM     23  C   UNL A   1      36.681  20.791  24.788  1.00  0.00     0.002 C 
BRANCH  23  24
ATOM     24  C   UNL A   1      37.793  19.763  25.003  1.00  0.00     0.021 C 
BRANCH  24  25
ATOM     25  C   UNL A   1      39.017  20.282  25.753  1.00  0.00     0.116 C 
BRANCH  25  26
ATOM     26  N   UNL A   1      40.106  19.320  25.783  1.00  0.00    -0.352 N 
ATOM     27  C   UNL A   1      41.434  19.508  26.074  1.00  0.00     0.251 C 
ATOM     28  H   UNL A   1      39.854  18.394  25.562  1.00  0.00     0.163 HD
ATOM     29  O   UNL A   1      42.236  18.597  25.892  1.00  0.00    -0.269 OA
BRANCH  27  30
ATOM     30  C   UNL A   1      41.912  20.815  26.579  1.00  0.00     0.039 A 
ATOM     31  C   UNL A   1      42.388  21.753  25.659  1.00  0.00     0.014 A 
ATOM     32  C   UNL A   1      41.903  21.118  27.943  1.00  0.00     0.014 A 
ATOM     33  C   UNL A   1      42.794  23.014  26.100  1.00  0.00     0.010 A 
ATOM     34  C   UNL A   1      42.234  22.402  28.374  1.00  0.00     0.010 A 
ATOM     35  C   UNL A   1      42.683  23.364  27.457  1.00  0.00    -0.014 A 
BRANCH  35  36
ATOM     36  C   UNL A   1      43.001  24.743  27.909  1.00  0.00     0.031 A 
ATOM     37  C   UNL A   1      44.426  25.188  28.091  1.00  0.00     0.074 A 
ATOM     38  C   UNL A   1      41.993  25.591  28.193  1.00  0.00     0.049 A 
ATOM     39  N   UNL A   1      44.884  26.362  28.450  1.00  0.00    -0.248 NA
ATOM     40  C   UNL A   1      45.471  24.180  27.866  1.00  0.00     0.031 C 
ATOM     41  C   UNL A   1      40.568  25.263  28.114  1.00  0.00     0.029 A 
ATOM     42  N   UNL A   1      42.009  26.901  28.598  1.00  0.00    -0.354 N 
ATOM     43  C   UNL A   1      46.267  26.231  28.502  1.00  0.00     0.074 A 
ATOM     44  C   UNL A   1      46.567  24.849  28.192  1.00  0.00     0.031 C 
ATOM     45  C   UNL A   1      39.848  26.355  28.414  1.00  0.00     0.029 A 
ATOM     46  C   UNL A   1      40.758  27.449  28.742  1.00  0.00     0.049 A 
ATOM     47  H   UNL A   1      42.840  27.402  28.769  1.00  0.00     0.167 HD
ATOM     48  C   UNL A   1      47.200  27.178  28.762  1.00  0.00     0.037 A 
ATOM     49  C   UNL A   1      40.383  28.693  29.092  1.00  0.00     0.037 A 
ATOM     50  C   UNL A   1      46.897  28.555  29.059  1.00  0.00     0.049 A 
ATOM     51  C   UNL A   1      41.437  29.724  29.381  1.00  0.00     0.074 A 
ATOM     52  C   UNL A   1      47.772  29.608  29.262  1.00  0.00     0.029 A 
ATOM     53  N   UNL A   1      45.617  29.069  29.210  1.00  0.00    -0.354 N 
ATOM     54  N   UNL A   1      42.742  29.610  29.333  1.00  0.00    -0.248 NA
ATOM     55  C   UNL A   1      40.963  31.059  29.768  1.00  0.00     0.031 C 
ATOM     56  C   UNL A   1      47.025  30.743  29.596  1.00  0.00     0.029 A 
ATOM     57  C   UNL A   1      45.680  30.414  29.540  1.00  0.00     0.049 A 
ATOM     58  H   UNL A   1      44.785  28.554  29.098  1.00  0.00     0.167 HD
ATOM     59  C   UNL A   1      43.245  30.862  29.662  1.00  0.00     0.074 A 
ATOM     60  C   UNL A   1      42.102  31.725  29.880  1.00  0.00     0.031 C 
ATOM     61  C   UNL A   1      44.536  31.261  29.771  1.00  0.00     0.037 A 
BRANCH  48  62
ATOM     62  C   UNL A   1      48.642  26.751  28.747  1.00  0.00     0.057 A 
ATOM     63  C   UNL A   1      49.289  26.274  29.896  1.00  0.00     0.134 A 
ATOM     64  C   UNL A   1      49.388  26.798  27.563  1.00  0.00     0.134 A 
ATOM     65  F   UNL A   1      48.637  26.212  31.067  1.00  0.00    -0.206 F 
ATOM     66  C   UNL A   1      50.631  25.892  29.875  1.00  0.00     0.040 A 
ATOM     67  C   UNL A   1      50.722  26.389  27.523  1.00  0.00     0.040 A 
ATOM     68  F   UNL A   1      48.833  27.236  26.423  1.00  0.00    -0.206 F 
ATOM     69  C   UNL A   1      51.351  25.943  28.684  1.00  0.00     0.006 A 
ENDBRANCH  48  62
BRANCH  49  70
ATOM     70  C   UNL A   1      38.941  29.045  29.147  1.00  0.00     0.057 A 
ATOM     71  C   UNL A   1      38.210  28.904  30.333  1.00  0.00     0.134 A 
ATOM     72  C   UNL A   1      38.260  29.530  28.024  1.00  0.00     0.134 A 
ATOM     73  F   UNL A   1      38.803  28.426  31.437  1.00  0.00    -0.206 F 
ATOM     74  C   UNL A   1      36.851  29.213  30.397  1.00  0.00     0.040 A 
ATOM     75  C   UNL A   1      36.907  29.871  28.081  1.00  0.00     0.040 A 
ATOM     76  F   UNL A   1      38.906  29.696  26.860  1.00  0.00    -0.206 F 
ATOM     77  C   UNL A   1      36.198  29.706  29.268  1.00  0.00     0.006 A 
ENDBRANCH  49  70
BRANCH  61  78
ATOM     78  C   UNL A   1      44.775  32.702  30.128  1.00  0.00     0.057 A 
ATOM     79  C   UNL A   1      44.882  33.699  29.150  1.00  0.00     0.134 A 
ATOM     80  C   UNL A   1      44.897  33.096  31.466  1.00  0.00     0.134 A 
ATOM     81  F   UNL A   1      44.789  33.388  27.848  1.00  0.00    -0.206 F 
ATOM     82  C   UNL A   1      45.140  35.029  29.488  1.00  0.00     0.040 A 
ATOM     83  C   UNL A   1      45.122  34.428  31.819  1.00  0.00     0.040 A 
ATOM     84  F   UNL A   1      44.794  32.196  32.455  1.00  0.00    -0.206 F 
ATOM     85  C   UNL A   1      45.255  35.398  30.827  1.00  0.00     0.006 A 
ENDBRANCH  61  78
ENDBRANCH  35  36
ENDBRANCH  27  30
ENDBRANCH  25  26
ENDBRANCH  24  25
ENDBRANCH  23  24
ENDBRANCH   1  23
TORSDOF 15
ENDMDL
MODEL 2
REMARK VINA RESULT:     -11.0      2.370      7.602
REMARK SMILES O=C(C[C@@H]1C(=O)NC(=S)N1c1ccccc1)NCCCCCCNC(=O)c1ccc(-c2c3nc(c(-c4c(F)cccc4F)c4ccc([nH]4)c(-c4c(F)cccc4F)c4nc(c(-c5c(F)cccc5F)c5ccc2[nH]5)C=C4)C=C3)cc1
REMARK SMILES IDX 20 1 19 2 18 3 17 4 1 5 2 6 3 8 4 9 5 10 10 11 6 12 7 13
REMARK SMILES IDX 8 14 9 16 11 17 12 18 16 19 13 20 15 21 14 22 21 23 22 24
REMARK SMILES IDX 23 25 24 26 25 27 26 29 27 30 28 31 80 32 29 33 79 34 30 35
REMARK SMILES IDX 31 36 32 37 73 38 33 39 78 40 72 41 74 42 34 43 77 44 71 45
REMARK SMILES IDX 70 46 35 48 61 49 44 50 60 51 45 52 48 53 59 54 75 55 46 56
REMARK SMILES IDX 47 57 58 59 76 60 49 61 36 62 37 63 42 64 38 65 39 66 41 67
REMARK SMILES IDX 43 68 40 69 62 70 63 71 68 72 64 73 65 74 67 75 69 76 66 77
REMARK SMILES IDX 50 78 51 79 56 80 52 81 53 82 55 83 57 84 54 85
REMARK H PARENT 17 7 7 15 24 28 74 47 48 58
REMARK Flexibility Score: inf
ROOT
ATOM      1  C   UNL A   1      30.683  26.636  25.916  1.00  0.00     0.002 C 
ENDROOT
BRANCH   1   2
ATOM      2  C   UNL A   1      30.424  26.236  24.454  1.00  0.00     0.021 C 
BRANCH   2   3
ATOM      3  C   UNL A   1      31.541  26.612  23.476  1.00  0.00     0.116 C 
BRANCH   3   4
ATOM      4  N   UNL A   1      32.344  25.454  23.149  1.00  0.00    -0.356 N 
ATOM      5  O   UNL A   1      34.097  25.835  24.584  1.00  0.00    -0.275 OA
ATOM      6  C   UNL A   1      33.582  25.190  23.680  1.00  0.00     0.222 C 
ATOM      7  H   UNL A   1      31.978  24.812  22.499  1.00  0.00     0.163 HD
BRANCH   6   8
ATOM      8  C   UNL A   1      34.295  24.038  23.000  1.00  0.00     0.135 C 
BRANCH   8   9
ATOM      9  C   UNL A   1      34.201  22.694  23.707  1.00  0.00     0.188 C 
ATOM     10  C   UNL A   1      32.764  22.193  23.835  1.00  0.00     0.249 C 
ATOM     11  N   UNL A   1      34.630  22.621  25.103  1.00  0.00    -0.306 N 
ATOM     12  O   UNL A   1      31.976  22.067  22.911  1.00  0.00    -0.272 OA
ATOM     13  N   UNL A   1      32.504  21.913  25.137  1.00  0.00    -0.301 N 
ATOM     14  C   UNL A   1      33.601  22.123  25.914  1.00  0.00     0.180 C 
ATOM     15  H   UNL A   1      31.635  21.598  25.476  1.00  0.00     0.172 HD
ATOM     16  S   UNL A   1      33.585  21.820  27.547  1.00  0.00    -0.040 S 
BRANCH  11  17
ATOM     17  C   UNL A   1      36.012  22.554  25.405  1.00  0.00     0.044 A 
ATOM     18  C   UNL A   1      36.742  21.388  25.143  1.00  0.00     0.026 A 
ATOM     19  C   UNL A   1      36.672  23.670  25.924  1.00  0.00     0.026 A 
ATOM     20  C   UNL A   1      38.115  21.343  25.395  1.00  0.00     0.002 A 
ATOM     21  C   UNL A   1      38.044  23.622  26.180  1.00  0.00     0.002 A 
ATOM     22  C   UNL A   1      38.766  22.461  25.913  1.00  0.00     0.000 A 
ENDBRANCH  11  17
ENDBRANCH   8   9
ENDBRANCH   6   8
ENDBRANCH   3   4
ENDBRANCH   2   3
ENDBRANCH   1   2
BRANCH   1  23
ATOM     23  C   UNL A   1      31.523  27.900  26.111  1.00  0.00     0.002 C 
BRANCH  23  24
ATOM     24  C   UNL A   1      32.485  27.863  27.300  1.00  0.00     0.021 C 
BRANCH  24  25
ATOM     25  C   UNL A   1      33.787  28.634  27.102  1.00  0.00     0.116 C 
BRANCH  25  26
ATOM     26  N   UNL A   1      33.728  29.981  27.647  1.00  0.00    -0.352 N 
ATOM     27  C   UNL A   1      34.672  30.680  28.357  1.00  0.00     0.251 C 
ATOM     28  H   UNL A   1      32.886  30.463  27.482  1.00  0.00     0.163 HD
ATOM     29  O   UNL A   1      34.379  31.755  28.872  1.00  0.00    -0.269 OA
BRANCH  27  30
ATOM     30  C   UNL A   1      36.036  30.132  28.532  1.00  0.00     0.039 A 
ATOM     31  C   UNL A   1      36.930  30.212  27.462  1.00  0.00     0.014 A 
ATOM     32  C   UNL A   1      36.435  29.536  29.732  1.00  0.00     0.014 A 
ATOM     33  C   UNL A   1      38.240  29.754  27.615  1.00  0.00     0.010 A 
ATOM     34  C   UNL A   1      37.763  29.150  29.910  1.00  0.00     0.010 A 
ATOM     35  C   UNL A   1      38.680  29.255  28.854  1.00  0.00    -0.014 A 
BRANCH  35  36
ATOM     36  C   UNL A   1      40.103  28.878  29.053  1.00  0.00     0.031 A 
ATOM     37  C   UNL A   1      41.065  29.816  29.727  1.00  0.00     0.074 A 
ATOM     38  C   UNL A   1      40.540  27.692  28.587  1.00  0.00     0.049 A 
ATOM     39  N   UNL A   1      42.332  29.638  30.008  1.00  0.00    -0.248 NA
ATOM     40  C   UNL A   1      40.545  31.136  30.115  1.00  0.00     0.031 C 
ATOM     41  C   UNL A   1      39.722  26.717  27.862  1.00  0.00     0.029 A 
ATOM     42  N   UNL A   1      41.775  27.100  28.657  1.00  0.00    -0.354 N 
ATOM     43  C   UNL A   1      42.762  30.822  30.596  1.00  0.00     0.074 A 
ATOM     44  C   UNL A   1      41.635  31.729  30.580  1.00  0.00     0.031 C 
ATOM     45  C   UNL A   1      40.464  25.631  27.597  1.00  0.00     0.029 A 
ATOM     46  C   UNL A   1      41.818  25.846  28.097  1.00  0.00     0.049 A 
ATOM     47  H   UNL A   1      42.558  27.533  29.070  1.00  0.00     0.167 HD
ATOM     48  C   UNL A   1      43.976  31.117  31.120  1.00  0.00     0.037 A 
ATOM     49  C   UNL A   1      42.830  24.965  28.003  1.00  0.00     0.037 A 
ATOM     50  C   UNL A   1      45.092  30.206  31.144  1.00  0.00     0.049 A 
ATOM     51  C   UNL A   1      44.170  25.319  28.587  1.00  0.00     0.074 A 
ATOM     52  C   UNL A   1      46.339  30.383  31.719  1.00  0.00     0.029 A 
ATOM     53  N   UNL A   1      45.101  28.950  30.555  1.00  0.00    -0.354 N 
ATOM     54  N   UNL A   1      44.534  26.404  29.224  1.00  0.00    -0.248 NA
ATOM     55  C   UNL A   1      45.235  24.319  28.442  1.00  0.00     0.031 C 
ATOM     56  C   UNL A   1      47.122  29.261  31.425  1.00  0.00     0.029 A 
ATOM     57  C   UNL A   1      46.344  28.357  30.720  1.00  0.00     0.049 A 
ATOM     58  H   UNL A   1      44.337  28.539  30.089  1.00  0.00     0.167 HD
ATOM     59  C   UNL A   1      45.863  26.211  29.576  1.00  0.00     0.074 A 
ATOM     60  C   UNL A   1      46.231  24.891  29.103  1.00  0.00     0.031 C 
ATOM     61  C   UNL A   1      46.704  27.049  30.232  1.00  0.00     0.037 A 
BRANCH  48  62
ATOM     62  C   UNL A   1      44.163  32.491  31.702  1.00  0.00     0.057 A 
ATOM     63  C   UNL A   1      44.645  33.564  30.939  1.00  0.00     0.134 A 
ATOM     64  C   UNL A   1      43.836  32.751  33.039  1.00  0.00     0.134 A 
ATOM     65  F   UNL A   1      44.987  33.384  29.654  1.00  0.00    -0.206 F 
ATOM     66  C   UNL A   1      44.826  34.833  31.491  1.00  0.00     0.040 A 
ATOM     67  C   UNL A   1      43.983  34.023  33.594  1.00  0.00     0.040 A 
ATOM     68  F   UNL A   1      43.361  31.775  33.827  1.00  0.00    -0.206 F 
ATOM     69  C   UNL A   1      44.489  35.066  32.823  1.00  0.00     0.006 A 
ENDBRANCH  48  62
BRANCH  49  70
ATOM     70  C   UNL A   1      42.606  23.642  27.365  1.00  0.00     0.057 A 
ATOM     71  C   UNL A   1      42.259  22.523  28.132  1.00  0.00     0.134 A 
ATOM     72  C   UNL A   1      42.732  23.463  25.983  1.00  0.00     0.134 A 
ATOM     73  F   UNL A   1      42.142  22.628  29.463  1.00  0.00    -0.206 F 
ATOM     74  C   UNL A   1      42.063  21.270  27.550  1.00  0.00     0.040 A 
ATOM     75  C   UNL A   1      42.511  22.222  25.383  1.00  0.00     0.040 A 
ATOM     76  F   UNL A   1      43.054  24.498  25.193  1.00  0.00    -0.206 F 
ATOM     77  C   UNL A   1      42.182  21.120  26.169  1.00  0.00     0.006 A 
ENDBRANCH  49  70
BRANCH  61  78
ATOM     78  C   UNL A   1      48.099  26.550  30.489  1.00  0.00     0.057 A 
ATOM     79  C   UNL A   1      49.138  26.752  29.572  1.00  0.00     0.134 A 
ATOM     80  C   UNL A   1      48.405  25.861  31.669  1.00  0.00     0.134 A 
ATOM     81  F   UNL A   1      48.911  27.391  28.414  1.00  0.00    -0.206 F 
ATOM     82  C   UNL A   1      50.423  26.254  29.802  1.00  0.00     0.040 A 
ATOM     83  C   UNL A   1      49.693  25.387  31.926  1.00  0.00     0.040 A 
ATOM     84  F   UNL A   1      47.461  25.641  32.596  1.00  0.00    -0.206 F 
ATOM     85  C   UNL A   1      50.703  25.573  30.985  1.00  0.00     0.006 A 
ENDBRANCH  61  78
ENDBRANCH  35  36
ENDBRANCH  27  30
ENDBRANCH  25  26
ENDBRANCH  24  25
ENDBRANCH  23  24
ENDBRANCH   1  23
TORSDOF 15
ENDMDL
MODEL 3
REMARK VINA RESULT:     -10.9      4.769      9.468
REMARK SMILES O=C(C[C@@H]1C(=O)NC(=S)N1c1ccccc1)NCCCCCCNC(=O)c1ccc(-c2c3nc(c(-c4c(F)cccc4F)c4ccc([nH]4)c(-c4c(F)cccc4F)c4nc(c(-c5c(F)cccc5F)c5ccc2[nH]5)C=C4)C=C3)cc1
REMARK SMILES IDX 20 1 19 2 18 3 17 4 1 5 2 6 3 8 4 9 5 10 10 11 6 12 7 13
REMARK SMILES IDX 8 14 9 16 11 17 12 18 16 19 13 20 15 21 14 22 21 23 22 24
REMARK SMILES IDX 23 25 24 26 25 27 26 29 27 30 28 31 80 32 29 33 79 34 30 35
REMARK SMILES IDX 31 36 32 37 73 38 33 39 78 40 72 41 74 42 34 43 77 44 71 45
REMARK SMILES IDX 70 46 35 48 61 49 44 50 60 51 45 52 48 53 59 54 75 55 46 56
REMARK SMILES IDX 47 57 58 59 76 60 49 61 36 62 37 63 42 64 38 65 39 66 41 67
REMARK SMILES IDX 43 68 40 69 62 70 63 71 68 72 64 73 65 74 67 75 69 76 66 77
REMARK SMILES IDX 50 78 51 79 56 80 52 81 53 82 55 83 57 84 54 85
REMARK H PARENT 17 7 7 15 24 28 74 47 48 58
REMARK Flexibility Score: inf
ROOT
ATOM      1  C   UNL A   1      30.979  30.216  24.669  1.00  0.00     0.002 C 
ENDROOT
BRANCH   1   2
ATOM      2  C   UNL A   1      29.840  29.797  23.726  1.00  0.00     0.021 C 
BRANCH   2   3
ATOM      3  C   UNL A   1      30.293  29.311  22.347  1.00  0.00     0.116 C 
BRANCH   3   4
ATOM      4  N   UNL A   1      30.647  27.908  22.390  1.00  0.00    -0.356 N 
ATOM      5  O   UNL A   1      32.933  28.132  22.441  1.00  0.00    -0.275 OA
ATOM      6  C   UNL A   1      31.933  27.428  22.371  1.00  0.00     0.222 C 
ATOM      7  H   UNL A   1      29.914  27.252  22.435  1.00  0.00     0.163 HD
BRANCH   6   8
ATOM      8  C   UNL A   1      32.012  25.925  22.199  1.00  0.00     0.135 C 
BRANCH   8   9
ATOM      9  C   UNL A   1      32.939  25.198  23.163  1.00  0.00     0.188 C 
ATOM     10  C   UNL A   1      33.225  23.760  22.735  1.00  0.00     0.249 C 
ATOM     11  N   UNL A   1      32.470  24.978  24.531  1.00  0.00    -0.306 N 
ATOM     12  O   UNL A   1      33.653  23.421  21.644  1.00  0.00    -0.272 OA
ATOM     13  N   UNL A   1      32.927  22.923  23.761  1.00  0.00    -0.301 N 
ATOM     14  C   UNL A   1      32.508  23.615  24.856  1.00  0.00     0.180 C 
ATOM     15  H   UNL A   1      33.004  21.943  23.719  1.00  0.00     0.172 HD
ATOM     16  S   UNL A   1      32.116  22.848  26.276  1.00  0.00    -0.040 S 
BRANCH  11  17
ATOM     17  C   UNL A   1      32.520  26.041  25.465  1.00  0.00     0.044 A 
ATOM     18  C   UNL A   1      33.711  26.748  25.675  1.00  0.00     0.026 A 
ATOM     19  C   UNL A   1      31.367  26.426  26.152  1.00  0.00     0.026 A 
ATOM     20  C   UNL A   1      33.743  27.828  26.559  1.00  0.00     0.002 A 
ATOM     21  C   UNL A   1      31.402  27.504  27.039  1.00  0.00     0.002 A 
ATOM     22  C   UNL A   1      32.589  28.207  27.241  1.00  0.00     0.000 A 
ENDBRANCH  11  17
ENDBRANCH   8   9
ENDBRANCH   6   8
ENDBRANCH   3   4
ENDBRANCH   2   3
ENDBRANCH   1   2
BRANCH   1  23
ATOM     23  C   UNL A   1      30.755  31.525  25.430  1.00  0.00     0.002 C 
BRANCH  23  24
ATOM     24  C   UNL A   1      31.403  31.591  26.814  1.00  0.00     0.021 C 
BRANCH  24  25
ATOM     25  C   UNL A   1      32.680  32.423  26.890  1.00  0.00     0.116 C 
BRANCH  25  26
ATOM     26  N   UNL A   1      32.439  33.777  27.362  1.00  0.00    -0.352 N 
ATOM     27  C   UNL A   1      33.048  34.472  28.377  1.00  0.00     0.251 C 
ATOM     28  H   UNL A   1      31.734  34.269  26.882  1.00  0.00     0.163 HD
ATOM     29  O   UNL A   1      32.597  35.557  28.732  1.00  0.00    -0.269 OA
BRANCH  27  30
ATOM     30  C   UNL A   1      34.229  33.908  29.068  1.00  0.00     0.039 A 
ATOM     31  C   UNL A   1      34.029  32.912  30.028  1.00  0.00     0.014 A 
ATOM     32  C   UNL A   1      35.522  34.355  28.786  1.00  0.00     0.014 A 
ATOM     33  C   UNL A   1      35.127  32.323  30.656  1.00  0.00     0.010 A 
ATOM     34  C   UNL A   1      36.621  33.714  29.356  1.00  0.00     0.010 A 
ATOM     35  C   UNL A   1      36.436  32.690  30.297  1.00  0.00    -0.014 A 
BRANCH  35  36
ATOM     36  C   UNL A   1      37.605  31.981  30.877  1.00  0.00     0.031 A 
ATOM     37  C   UNL A   1      38.084  32.288  32.269  1.00  0.00     0.074 A 
ATOM     38  C   UNL A   1      38.264  31.077  30.126  1.00  0.00     0.049 A 
ATOM     39  N   UNL A   1      39.068  31.745  32.941  1.00  0.00    -0.248 NA
ATOM     40  C   UNL A   1      37.384  33.360  32.991  1.00  0.00     0.031 C 
ATOM     41  C   UNL A   1      37.937  30.732  28.741  1.00  0.00     0.029 A 
ATOM     42  N   UNL A   1      39.339  30.278  30.421  1.00  0.00    -0.354 N 
ATOM     43  C   UNL A   1      39.111  32.413  34.159  1.00  0.00     0.074 A 
ATOM     44  C   UNL A   1      38.090  33.438  34.110  1.00  0.00     0.031 C 
ATOM     45  C   UNL A   1      38.763  29.760  28.323  1.00  0.00     0.029 A 
ATOM     46  C   UNL A   1      39.701  29.440  29.395  1.00  0.00     0.049 A 
ATOM     47  H   UNL A   1      39.809  30.304  31.287  1.00  0.00     0.167 HD
ATOM     48  C   UNL A   1      39.911  32.180  35.227  1.00  0.00     0.037 A 
ATOM     49  C   UNL A   1      40.672  28.511  29.325  1.00  0.00     0.037 A 
ATOM     50  C   UNL A   1      40.918  31.151  35.277  1.00  0.00     0.049 A 
ATOM     51  C   UNL A   1      41.551  28.276  30.522  1.00  0.00     0.074 A 
ATOM     52  C   UNL A   1      41.728  30.786  36.338  1.00  0.00     0.029 A 
ATOM     53  N   UNL A   1      41.264  30.331  34.213  1.00  0.00    -0.354 N 
ATOM     54  N   UNL A   1      41.517  28.851  31.699  1.00  0.00    -0.248 NA
ATOM     55  C   UNL A   1      42.599  27.258  30.378  1.00  0.00     0.031 C 
ATOM     56  C   UNL A   1      42.605  29.787  35.899  1.00  0.00     0.029 A 
ATOM     57  C   UNL A   1      42.301  29.486  34.581  1.00  0.00     0.049 A 
ATOM     58  H   UNL A   1      40.836  30.344  33.327  1.00  0.00     0.167 HD
ATOM     59  C   UNL A   1      42.523  28.249  32.445  1.00  0.00     0.074 A 
ATOM     60  C   UNL A   1      43.130  27.247  31.592  1.00  0.00     0.031 C 
ATOM     61  C   UNL A   1      42.909  28.503  33.720  1.00  0.00     0.037 A 
BRANCH  48  62
ATOM     62  C   UNL A   1      39.735  33.066  36.430  1.00  0.00     0.057 A 
ATOM     63  C   UNL A   1      40.477  34.243  36.603  1.00  0.00     0.134 A 
ATOM     64  C   UNL A   1      38.796  32.748  37.420  1.00  0.00     0.134 A 
ATOM     65  F   UNL A   1      41.401  34.603  35.699  1.00  0.00    -0.206 F 
ATOM     66  C   UNL A   1      40.315  35.052  37.728  1.00  0.00     0.040 A 
ATOM     67  C   UNL A   1      38.603  33.566  38.534  1.00  0.00     0.040 A 
ATOM     68  F   UNL A   1      38.044  31.642  37.317  1.00  0.00    -0.206 F 
ATOM     69  C   UNL A   1      39.370  34.717  38.696  1.00  0.00     0.006 A 
ENDBRANCH  48  62
BRANCH  49  70
ATOM     70  C   UNL A   1      40.840  27.703  28.090  1.00  0.00     0.057 A 
ATOM     71  C   UNL A   1      40.210  26.461  27.952  1.00  0.00     0.134 A 
ATOM     72  C   UNL A   1      41.629  28.149  27.023  1.00  0.00     0.134 A 
ATOM     73  F   UNL A   1      39.457  25.972  28.947  1.00  0.00    -0.206 F 
ATOM     74  C   UNL A   1      40.372  25.682  26.806  1.00  0.00     0.040 A 
ATOM     75  C   UNL A   1      41.777  27.393  25.859  1.00  0.00     0.040 A 
ATOM     76  F   UNL A   1      42.252  29.335  27.090  1.00  0.00    -0.206 F 
ATOM     77  C   UNL A   1      41.153  26.152  25.751  1.00  0.00     0.006 A 
ENDBRANCH  49  70
BRANCH  61  78
ATOM     78  C   UNL A   1      44.030  27.667  34.270  1.00  0.00     0.057 A 
ATOM     79  C   UNL A   1      45.353  28.128  34.300  1.00  0.00     0.134 A 
ATOM     80  C   UNL A   1      43.783  26.386  34.780  1.00  0.00     0.134 A 
ATOM     81  F   UNL A   1      45.661  29.341  33.815  1.00  0.00    -0.206 F 
ATOM     82  C   UNL A   1      46.394  27.331  34.780  1.00  0.00     0.040 A 
ATOM     83  C   UNL A   1      44.811  25.592  35.293  1.00  0.00     0.040 A 
ATOM     84  F   UNL A   1      42.539  25.884  34.793  1.00  0.00    -0.206 F 
ATOM     85  C   UNL A   1      46.123  26.061  35.283  1.00  0.00     0.006 A 
ENDBRANCH  61  78
ENDBRANCH  35  36
ENDBRANCH  27  30
ENDBRANCH  25  26
ENDBRANCH  24  25
ENDBRANCH  23  24
ENDBRANCH   1  23
TORSDOF 15
ENDMDL
