MODEL 1
REMARK VINA RESULT:     -10.8      0.000      0.000
REMARK SMILES CC(C)(C)N(CC(=O)NCCCCCCNC(=O)c1ccc(-c2c3nc(c(-c4c(F)cccc4F)c4ccc([nH]4)c(-c4c(F)cccc4F)c4nc(c(-c5c(F)cccc5F)c5ccc2[nH]5)C=C4)C=C3)cc1)C(=O)c1cc2ccccc2o1
REMARK SMILES IDX 12 1 11 2 10 3 9 4 7 5 8 6 6 8 5 9 2 10 1 11 3 12 4 13 73 14
REMARK SMILES IDX 74 15 75 16 76 17 83 18 77 19 82 20 78 21 81 22 79 23 80 24
REMARK SMILES IDX 13 25 14 26 15 27 16 28 17 29 18 31 19 32 20 33 72 34 21 35
REMARK SMILES IDX 71 36 22 37 23 38 24 39 65 40 25 41 70 42 64 43 66 44 26 45
REMARK SMILES IDX 69 46 63 47 62 48 27 50 53 51 36 52 52 53 37 54 40 55 51 56
REMARK SMILES IDX 67 57 38 58 39 59 50 61 68 62 41 63 28 64 29 65 34 66 30 67
REMARK SMILES IDX 31 68 33 69 35 70 32 71 54 72 55 73 60 74 56 75 57 76 59 77
REMARK SMILES IDX 61 78 58 79 42 80 43 81 48 82 44 83 45 84 47 85 49 86 46 87
REMARK H PARENT 9 7 16 30 66 49 40 60
REMARK Flexibility Score: inf
ROOT
ATOM      1  C   UNL A   1      38.343  22.444  25.763  1.00  0.00     0.002 C 
ENDROOT
BRANCH   1   2
ATOM      2  C   UNL A   1      37.590  23.750  26.028  1.00  0.00     0.021 C 
BRANCH   2   3
ATOM      3  C   UNL A   1      36.086  23.710  25.753  1.00  0.00     0.116 C 
BRANCH   3   4
ATOM      4  N   UNL A   1      35.372  22.970  26.777  1.00  0.00    -0.355 N 
ATOM      5  C   UNL A   1      34.184  22.301  26.737  1.00  0.00     0.239 C 
ATOM      6  O   UNL A   1      33.867  21.675  27.755  1.00  0.00    -0.273 OA
ATOM      7  H   UNL A   1      35.824  22.945  27.651  1.00  0.00     0.163 HD
BRANCH   5   8
ATOM      8  C   UNL A   1      33.348  22.136  25.447  1.00  0.00     0.220 C 
BRANCH   8   9
ATOM      9  N   UNL A   1      32.657  23.327  24.937  1.00  0.00    -0.322 N 
BRANCH   9  10
ATOM     10  C   UNL A   1      32.264  23.420  23.486  1.00  0.00     0.035 C 
ATOM     11  C   UNL A   1      32.241  22.051  22.768  1.00  0.00     0.034 C 
ATOM     12  C   UNL A   1      33.226  24.312  22.664  1.00  0.00     0.034 C 
ATOM     13  C   UNL A   1      30.849  24.027  23.397  1.00  0.00     0.034 C 
ENDBRANCH   9  10
BRANCH   9  14
ATOM     14  C   UNL A   1      31.959  24.135  25.852  1.00  0.00     0.290 C 
ATOM     15  O   UNL A   1      30.883  23.771  26.326  1.00  0.00    -0.265 OA
BRANCH  14  16
ATOM     16  C   UNL A   1      32.551  25.377  26.297  1.00  0.00     0.192 A 
ATOM     17  C   UNL A   1      33.597  26.119  25.782  1.00  0.00     0.065 A 
ATOM     18  O   UNL A   1      31.775  26.163  27.105  1.00  0.00    -0.451 OA
ATOM     19  C   UNL A   1      33.317  27.475  26.109  1.00  0.00     0.021 A 
ATOM     20  C   UNL A   1      32.186  27.446  26.915  1.00  0.00     0.135 A 
ATOM     21  C   UNL A   1      33.837  28.725  25.730  1.00  0.00     0.012 A 
ATOM     22  C   UNL A   1      31.518  28.578  27.374  1.00  0.00     0.048 A 
ATOM     23  C   UNL A   1      33.155  29.884  26.132  1.00  0.00     0.001 A 
ATOM     24  C   UNL A   1      32.015  29.810  26.937  1.00  0.00     0.004 A 
ENDBRANCH  14  16
ENDBRANCH   9  14
ENDBRANCH   8   9
ENDBRANCH   5   8
ENDBRANCH   3   4
ENDBRANCH   2   3
ENDBRANCH   1   2
BRANCH   1  25
ATOM     25  C   UNL A   1      37.653  21.449  24.826  1.00  0.00     0.002 C 
BRANCH  25  26
ATOM     26  C   UNL A   1      38.211  20.021  24.817  1.00  0.00     0.021 C 
BRANCH  26  27
ATOM     27  C   UNL A   1      38.941  19.573  26.085  1.00  0.00     0.116 C 
BRANCH  27  28
ATOM     28  N   UNL A   1      40.240  18.991  25.804  1.00  0.00    -0.352 N 
ATOM     29  C   UNL A   1      41.499  19.522  25.915  1.00  0.00     0.251 C 
ATOM     30  H   UNL A   1      40.213  18.061  25.480  1.00  0.00     0.163 HD
ATOM     31  O   UNL A   1      42.458  18.882  25.486  1.00  0.00    -0.269 OA
BRANCH  29  32
ATOM     32  C   UNL A   1      41.739  20.851  26.529  1.00  0.00     0.039 A 
ATOM     33  C   UNL A   1      42.085  21.914  25.684  1.00  0.00     0.014 A 
ATOM     34  C   UNL A   1      41.727  21.049  27.913  1.00  0.00     0.014 A 
ATOM     35  C   UNL A   1      42.393  23.169  26.216  1.00  0.00     0.010 A 
ATOM     36  C   UNL A   1      41.995  22.315  28.443  1.00  0.00     0.010 A 
ATOM     37  C   UNL A   1      42.346  23.381  27.600  1.00  0.00    -0.014 A 
BRANCH  37  38
ATOM     38  C   UNL A   1      42.715  24.699  28.177  1.00  0.00     0.031 A 
ATOM     39  C   UNL A   1      41.659  25.745  28.406  1.00  0.00     0.074 A 
ATOM     40  C   UNL A   1      44.001  24.973  28.470  1.00  0.00     0.049 A 
ATOM     41  N   UNL A   1      41.790  26.972  28.847  1.00  0.00    -0.248 NA
ATOM     42  C   UNL A   1      40.275  25.367  28.081  1.00  0.00     0.031 C 
ATOM     43  C   UNL A   1      45.127  24.063  28.270  1.00  0.00     0.029 A 
ATOM     44  N   UNL A   1      44.574  26.106  28.991  1.00  0.00    -0.354 N 
ATOM     45  C   UNL A   1      40.514  27.521  28.822  1.00  0.00     0.074 A 
ATOM     46  C   UNL A   1      39.625  26.500  28.312  1.00  0.00     0.031 C 
ATOM     47  C   UNL A   1      46.258  24.670  28.672  1.00  0.00     0.029 A 
ATOM     48  C   UNL A   1      45.936  26.014  29.141  1.00  0.00     0.049 A 
ATOM     49  H   UNL A   1      44.058  26.908  29.234  1.00  0.00     0.167 HD
ATOM     50  C   UNL A   1      40.119  28.761  29.195  1.00  0.00     0.037 A 
ATOM     51  C   UNL A   1      46.824  26.913  29.607  1.00  0.00     0.037 A 
ATOM     52  C   UNL A   1      40.986  29.767  29.745  1.00  0.00     0.049 A 
ATOM     53  C   UNL A   1      46.348  28.255  30.084  1.00  0.00     0.074 A 
ATOM     54  C   UNL A   1      40.666  31.042  30.180  1.00  0.00     0.029 A 
ATOM     55  N   UNL A   1      42.347  29.606  29.948  1.00  0.00    -0.354 N 
ATOM     56  N   UNL A   1      45.133  28.749  30.080  1.00  0.00    -0.248 NA
ATOM     57  C   UNL A   1      47.363  29.161  30.643  1.00  0.00     0.031 C 
ATOM     58  C   UNL A   1      41.835  31.655  30.643  1.00  0.00     0.029 A 
ATOM     59  C   UNL A   1      42.878  30.754  30.511  1.00  0.00     0.049 A 
ATOM     60  H   UNL A   1      42.859  28.795  29.726  1.00  0.00     0.167 HD
ATOM     61  C   UNL A   1      45.235  30.008  30.655  1.00  0.00     0.074 A 
ATOM     62  C   UNL A   1      46.628  30.203  31.002  1.00  0.00     0.031 C 
ATOM     63  C   UNL A   1      44.259  30.922  30.874  1.00  0.00     0.037 A 
BRANCH  50  64
ATOM     64  C   UNL A   1      38.671  29.099  29.019  1.00  0.00     0.057 A 
ATOM     65  C   UNL A   1      37.767  29.040  30.086  1.00  0.00     0.134 A 
ATOM     66  C   UNL A   1      38.183  29.519  27.775  1.00  0.00     0.134 A 
ATOM     67  F   UNL A   1      38.174  28.632  31.298  1.00  0.00    -0.206 F 
ATOM     68  C   UNL A   1      36.422  29.373  29.920  1.00  0.00     0.040 A 
ATOM     69  C   UNL A   1      36.844  29.869  27.600  1.00  0.00     0.040 A 
ATOM     70  F   UNL A   1      39.001  29.598  26.715  1.00  0.00    -0.206 F 
ATOM     71  C   UNL A   1      35.959  29.794  28.674  1.00  0.00     0.006 A 
ENDBRANCH  50  64
BRANCH  51  72
ATOM     72  C   UNL A   1      48.260  26.561  29.678  1.00  0.00     0.057 A 
ATOM     73  C   UNL A   1      49.134  26.897  28.639  1.00  0.00     0.134 A 
ATOM     74  C   UNL A   1      48.788  25.873  30.776  1.00  0.00     0.134 A 
ATOM     75  F   UNL A   1      48.677  27.539  27.554  1.00  0.00    -0.206 F 
ATOM     76  C   UNL A   1      50.485  26.549  28.683  1.00  0.00     0.040 A 
ATOM     77  C   UNL A   1      50.139  25.532  30.839  1.00  0.00     0.040 A 
ATOM     78  F   UNL A   1      47.997  25.527  31.802  1.00  0.00    -0.206 F 
ATOM     79  C   UNL A   1      50.991  25.867  29.787  1.00  0.00     0.006 A 
ENDBRANCH  51  72
BRANCH  63  80
ATOM     80  C   UNL A   1      44.655  32.193  31.557  1.00  0.00     0.057 A 
ATOM     81  C   UNL A   1      44.625  32.318  32.950  1.00  0.00     0.134 A 
ATOM     82  C   UNL A   1      45.103  33.290  30.812  1.00  0.00     0.134 A 
ATOM     83  F   UNL A   1      44.195  31.303  33.714  1.00  0.00    -0.206 F 
ATOM     84  C   UNL A   1      45.017  33.499  33.582  1.00  0.00     0.040 A 
ATOM     85  C   UNL A   1      45.508  34.472  31.432  1.00  0.00     0.040 A 
ATOM     86  F   UNL A   1      45.154  33.229  29.473  1.00  0.00    -0.206 F 
ATOM     87  C   UNL A   1      45.464  34.579  32.821  1.00  0.00     0.006 A 
ENDBRANCH  63  80
ENDBRANCH  37  38
ENDBRANCH  29  32
ENDBRANCH  27  28
ENDBRANCH  26  27
ENDBRANCH  25  26
ENDBRANCH   1  25
TORSDOF 17
ENDMDL
MODEL 2
REMARK VINA RESULT:     -10.7      5.015      9.978
REMARK SMILES CC(C)(C)N(CC(=O)NCCCCCCNC(=O)c1ccc(-c2c3nc(c(-c4c(F)cccc4F)c4ccc([nH]4)c(-c4c(F)cccc4F)c4nc(c(-c5c(F)cccc5F)c5ccc2[nH]5)C=C4)C=C3)cc1)C(=O)c1cc2ccccc2o1
REMARK SMILES IDX 12 1 11 2 10 3 9 4 7 5 8 6 6 8 5 9 2 10 1 11 3 12 4 13 73 14
REMARK SMILES IDX 74 15 75 16 76 17 83 18 77 19 82 20 78 21 81 22 79 23 80 24
REMARK SMILES IDX 13 25 14 26 15 27 16 28 17 29 18 31 19 32 20 33 72 34 21 35
REMARK SMILES IDX 71 36 22 37 23 38 24 39 65 40 25 41 70 42 64 43 66 44 26 45
REMARK SMILES IDX 69 46 63 47 62 48 27 50 53 51 36 52 52 53 37 54 40 55 51 56
REMARK SMILES IDX 67 57 38 58 39 59 50 61 68 62 41 63 28 64 29 65 34 66 30 67
REMARK SMILES IDX 31 68 33 69 35 70 32 71 54 72 55 73 60 74 56 75 57 76 59 77
REMARK SMILES IDX 61 78 58 79 42 80 43 81 48 82 44 83 45 84 47 85 49 86 46 87
REMARK H PARENT 9 7 16 30 66 49 40 60
REMARK Flexibility Score: inf
ROOT
ATOM      1  C   UNL A   1      34.459  32.171  28.829  1.00  0.00     0.002 C 
ENDROOT
BRANCH   1   2
ATOM      2  C   UNL A   1      33.676  31.625  27.632  1.00  0.00     0.021 C 
BRANCH   2   3
ATOM      3  C   UNL A   1      34.038  30.203  27.202  1.00  0.00     0.116 C 
BRANCH   3   4
ATOM      4  N   UNL A   1      33.065  29.236  27.676  1.00  0.00    -0.355 N 
ATOM      5  C   UNL A   1      31.958  28.710  27.077  1.00  0.00     0.239 C 
ATOM      6  O   UNL A   1      31.363  27.822  27.698  1.00  0.00    -0.273 OA
ATOM      7  H   UNL A   1      33.233  28.900  28.586  1.00  0.00     0.163 HD
BRANCH   5   8
ATOM      8  C   UNL A   1      31.553  29.027  25.619  1.00  0.00     0.220 C 
BRANCH   8   9
ATOM      9  N   UNL A   1      31.754  27.968  24.621  1.00  0.00    -0.322 N 
BRANCH   9  10
ATOM     10  C   UNL A   1      30.805  27.821  23.461  1.00  0.00     0.035 C 
ATOM     11  C   UNL A   1      31.441  27.135  22.230  1.00  0.00     0.034 C 
ATOM     12  C   UNL A   1      30.269  29.183  22.954  1.00  0.00     0.034 C 
ATOM     13  C   UNL A   1      29.602  26.968  23.912  1.00  0.00     0.034 C 
ENDBRANCH   9  10
BRANCH   9  14
ATOM     14  C   UNL A   1      33.042  27.421  24.480  1.00  0.00     0.290 C 
ATOM     15  O   UNL A   1      34.008  28.136  24.217  1.00  0.00    -0.265 OA
BRANCH  14  16
ATOM     16  C   UNL A   1      33.243  26.010  24.720  1.00  0.00     0.192 A 
ATOM     17  C   UNL A   1      34.401  25.259  24.798  1.00  0.00     0.065 A 
ATOM     18  O   UNL A   1      32.215  25.346  25.334  1.00  0.00    -0.451 OA
ATOM     19  C   UNL A   1      34.120  24.194  25.697  1.00  0.00     0.021 A 
ATOM     20  C   UNL A   1      32.769  24.297  26.000  1.00  0.00     0.135 A 
ATOM     21  C   UNL A   1      34.882  23.217  26.363  1.00  0.00     0.012 A 
ATOM     22  C   UNL A   1      32.108  23.500  26.931  1.00  0.00     0.048 A 
ATOM     23  C   UNL A   1      34.257  22.434  27.346  1.00  0.00     0.001 A 
ATOM     24  C   UNL A   1      32.895  22.577  27.626  1.00  0.00     0.004 A 
ENDBRANCH  14  16
ENDBRANCH   9  14
ENDBRANCH   8   9
ENDBRANCH   5   8
ENDBRANCH   3   4
ENDBRANCH   2   3
ENDBRANCH   1   2
BRANCH   1  25
ATOM     25  C   UNL A   1      34.569  33.696  28.921  1.00  0.00     0.002 C 
BRANCH  25  26
ATOM     26  C   UNL A   1      33.251  34.478  28.886  1.00  0.00     0.021 C 
BRANCH  26  27
ATOM     27  C   UNL A   1      33.329  35.952  29.290  1.00  0.00     0.116 C 
BRANCH  27  28
ATOM     28  N   UNL A   1      32.503  36.257  30.443  1.00  0.00    -0.352 N 
ATOM     29  C   UNL A   1      32.611  35.855  31.750  1.00  0.00     0.251 C 
ATOM     30  H   UNL A   1      31.741  36.852  30.258  1.00  0.00     0.163 HD
ATOM     31  O   UNL A   1      31.707  36.134  32.537  1.00  0.00    -0.269 OA
BRANCH  29  32
ATOM     32  C   UNL A   1      33.780  35.085  32.241  1.00  0.00     0.039 A 
ATOM     33  C   UNL A   1      35.048  35.669  32.127  1.00  0.00     0.014 A 
ATOM     34  C   UNL A   1      33.665  33.774  32.714  1.00  0.00     0.014 A 
ATOM     35  C   UNL A   1      36.190  34.958  32.505  1.00  0.00     0.010 A 
ATOM     36  C   UNL A   1      34.804  33.078  33.131  1.00  0.00     0.010 A 
ATOM     37  C   UNL A   1      36.077  33.657  33.016  1.00  0.00    -0.014 A 
BRANCH  37  38
ATOM     38  C   UNL A   1      37.289  32.878  33.378  1.00  0.00     0.031 A 
ATOM     39  C   UNL A   1      37.991  33.139  34.682  1.00  0.00     0.074 A 
ATOM     40  C   UNL A   1      37.780  31.957  32.528  1.00  0.00     0.049 A 
ATOM     41  N   UNL A   1      39.091  32.605  35.153  1.00  0.00    -0.248 NA
ATOM     42  C   UNL A   1      37.386  34.146  35.568  1.00  0.00     0.031 C 
ATOM     43  C   UNL A   1      37.216  31.626  31.220  1.00  0.00     0.029 A 
ATOM     44  N   UNL A   1      38.875  31.136  32.638  1.00  0.00    -0.354 N 
ATOM     45  C   UNL A   1      39.326  33.230  36.369  1.00  0.00     0.074 A 
ATOM     46  C   UNL A   1      38.263  34.193  36.562  1.00  0.00     0.031 C 
ATOM     47  C   UNL A   1      37.964  30.664  30.651  1.00  0.00     0.029 A 
ATOM     48  C   UNL A   1      39.066  30.325  31.547  1.00  0.00     0.049 A 
ATOM     49  H   UNL A   1      39.466  31.129  33.425  1.00  0.00     0.167 HD
ATOM     50  C   UNL A   1      40.332  33.019  37.250  1.00  0.00     0.037 A 
ATOM     51  C   UNL A   1      40.022  29.410  31.299  1.00  0.00     0.037 A 
ATOM     52  C   UNL A   1      41.368  32.034  37.091  1.00  0.00     0.049 A 
ATOM     53  C   UNL A   1      41.085  29.143  32.326  1.00  0.00     0.074 A 
ATOM     54  C   UNL A   1      42.412  31.730  37.948  1.00  0.00     0.029 A 
ATOM     55  N   UNL A   1      41.482  31.183  36.004  1.00  0.00    -0.354 N 
ATOM     56  N   UNL A   1      41.277  29.724  33.485  1.00  0.00    -0.248 NA
ATOM     57  C   UNL A   1      42.056  28.082  32.017  1.00  0.00     0.031 C 
ATOM     58  C   UNL A   1      43.161  30.695  37.377  1.00  0.00     0.029 A 
ATOM     59  C   UNL A   1      42.572  30.347  36.173  1.00  0.00     0.049 A 
ATOM     60  H   UNL A   1      40.877  31.174  35.227  1.00  0.00     0.167 HD
ATOM     61  C   UNL A   1      42.372  29.086  34.052  1.00  0.00     0.074 A 
ATOM     62  C   UNL A   1      42.801  28.070  33.113  1.00  0.00     0.031 C 
ATOM     63  C   UNL A   1      42.969  29.324  35.243  1.00  0.00     0.037 A 
BRANCH  50  64
ATOM     64  C   UNL A   1      40.360  33.879  38.476  1.00  0.00     0.057 A 
ATOM     65  C   UNL A   1      39.652  33.531  39.632  1.00  0.00     0.134 A 
ATOM     66  C   UNL A   1      41.130  35.048  38.510  1.00  0.00     0.134 A 
ATOM     67  F   UNL A   1      38.888  32.429  39.655  1.00  0.00    -0.206 F 
ATOM     68  C   UNL A   1      39.696  34.327  40.778  1.00  0.00     0.040 A 
ATOM     69  C   UNL A   1      41.193  35.844  39.654  1.00  0.00     0.040 A 
ATOM     70  F   UNL A   1      41.832  35.432  37.433  1.00  0.00    -0.206 F 
ATOM     71  C   UNL A   1      40.473  35.485  40.792  1.00  0.00     0.006 A 
ENDBRANCH  50  64
BRANCH  51  72
ATOM     72  C   UNL A   1      40.001  28.648  30.030  1.00  0.00     0.057 A 
ATOM     73  C   UNL A   1      39.274  27.458  29.918  1.00  0.00     0.134 A 
ATOM     74  C   UNL A   1      40.714  29.083  28.907  1.00  0.00     0.134 A 
ATOM     75  F   UNL A   1      38.590  26.985  30.969  1.00  0.00    -0.206 F 
ATOM     76  C   UNL A   1      39.267  26.717  28.735  1.00  0.00     0.040 A 
ATOM     77  C   UNL A   1      40.703  28.360  27.714  1.00  0.00     0.040 A 
ATOM     78  F   UNL A   1      41.426  30.218  28.956  1.00  0.00    -0.206 F 
ATOM     79  C   UNL A   1      39.981  27.171  27.628  1.00  0.00     0.006 A 
ENDBRANCH  51  72
BRANCH  63  80
ATOM     80  C   UNL A   1      44.120  28.444  35.618  1.00  0.00     0.057 A 
ATOM     81  C   UNL A   1      45.439  28.787  35.302  1.00  0.00     0.134 A 
ATOM     82  C   UNL A   1      43.906  27.260  36.332  1.00  0.00     0.134 A 
ATOM     83  F   UNL A   1      45.704  29.905  34.609  1.00  0.00    -0.206 F 
ATOM     84  C   UNL A   1      46.510  27.972  35.674  1.00  0.00     0.040 A 
ATOM     85  C   UNL A   1      44.969  26.443  36.720  1.00  0.00     0.040 A 
ATOM     86  F   UNL A   1      42.663  26.880  36.664  1.00  0.00    -0.206 F 
ATOM     87  C   UNL A   1      46.275  26.798  36.389  1.00  0.00     0.006 A 
ENDBRANCH  63  80
ENDBRANCH  37  38
ENDBRANCH  29  32
ENDBRANCH  27  28
ENDBRANCH  26  27
ENDBRANCH  25  26
ENDBRANCH   1  25
TORSDOF 17
ENDMDL
MODEL 3
REMARK VINA RESULT:     -10.7      1.074      2.015
REMARK SMILES CC(C)(C)N(CC(=O)NCCCCCCNC(=O)c1ccc(-c2c3nc(c(-c4c(F)cccc4F)c4ccc([nH]4)c(-c4c(F)cccc4F)c4nc(c(-c5c(F)cccc5F)c5ccc2[nH]5)C=C4)C=C3)cc1)C(=O)c1cc2ccccc2o1
REMARK SMILES IDX 12 1 11 2 10 3 9 4 7 5 8 6 6 8 5 9 2 10 1 11 3 12 4 13 73 14
REMARK SMILES IDX 74 15 75 16 76 17 83 18 77 19 82 20 78 21 81 22 79 23 80 24
REMARK SMILES IDX 13 25 14 26 15 27 16 28 17 29 18 31 19 32 20 33 72 34 21 35
REMARK SMILES IDX 71 36 22 37 23 38 24 39 65 40 25 41 70 42 64 43 66 44 26 45
REMARK SMILES IDX 69 46 63 47 62 48 27 50 53 51 36 52 52 53 37 54 40 55 51 56
REMARK SMILES IDX 67 57 38 58 39 59 50 61 68 62 41 63 28 64 29 65 34 66 30 67
REMARK SMILES IDX 31 68 33 69 35 70 32 71 54 72 55 73 60 74 56 75 57 76 59 77
REMARK SMILES IDX 61 78 58 79 42 80 43 81 48 82 44 83 45 84 47 85 49 86 46 87
REMARK H PARENT 9 7 16 30 66 49 40 60
REMARK Flexibility Score: inf
ROOT
ATOM      1  C   UNL A   1      35.785  21.547  26.108  1.00  0.00     0.002 C 
ENDROOT
BRANCH   1   2
ATOM      2  C   UNL A   1      34.378  21.379  26.686  1.00  0.00     0.021 C 
BRANCH   2   3
ATOM      3  C   UNL A   1      33.685  22.671  27.117  1.00  0.00     0.116 C 
BRANCH   3   4
ATOM      4  N   UNL A   1      32.241  22.523  27.142  1.00  0.00    -0.355 N 
ATOM      5  C   UNL A   1      31.316  22.571  26.141  1.00  0.00     0.239 C 
ATOM      6  O   UNL A   1      30.148  22.312  26.454  1.00  0.00    -0.273 OA
ATOM      7  H   UNL A   1      31.864  22.357  28.036  1.00  0.00     0.163 HD
BRANCH   5   8
ATOM      8  C   UNL A   1      31.690  22.731  24.649  1.00  0.00     0.220 C 
BRANCH   8   9
ATOM      9  N   UNL A   1      31.973  24.090  24.170  1.00  0.00    -0.322 N 
BRANCH   9  10
ATOM     10  C   UNL A   1      33.255  24.391  23.438  1.00  0.00     0.035 C 
ATOM     11  C   UNL A   1      34.302  25.121  24.310  1.00  0.00     0.034 C 
ATOM     12  C   UNL A   1      33.035  25.293  22.199  1.00  0.00     0.034 C 
ATOM     13  C   UNL A   1      33.875  23.062  22.963  1.00  0.00     0.034 C 
ENDBRANCH   9  10
BRANCH   9  14
ATOM     14  C   UNL A   1      30.890  24.966  23.971  1.00  0.00     0.290 C 
ATOM     15  O   UNL A   1      30.010  24.708  23.151  1.00  0.00    -0.265 OA
BRANCH  14  16
ATOM     16  C   UNL A   1      30.774  26.148  24.794  1.00  0.00     0.192 A 
ATOM     17  C   UNL A   1      30.819  26.307  26.166  1.00  0.00     0.065 A 
ATOM     18  O   UNL A   1      31.030  27.344  24.178  1.00  0.00    -0.451 OA
ATOM     19  C   UNL A   1      31.351  27.606  26.396  1.00  0.00     0.021 A 
ATOM     20  C   UNL A   1      31.468  28.196  25.144  1.00  0.00     0.135 A 
ATOM     21  C   UNL A   1      31.838  28.307  27.514  1.00  0.00     0.012 A 
ATOM     22  C   UNL A   1      32.045  29.442  24.912  1.00  0.00     0.048 A 
ATOM     23  C   UNL A   1      32.474  29.540  27.307  1.00  0.00     0.001 A 
ATOM     24  C   UNL A   1      32.577  30.095  26.028  1.00  0.00     0.004 A 
ENDBRANCH  14  16
ENDBRANCH   9  14
ENDBRANCH   8   9
ENDBRANCH   5   8
ENDBRANCH   3   4
ENDBRANCH   2   3
ENDBRANCH   1   2
BRANCH   1  25
ATOM     25  C   UNL A   1      36.061  20.823  24.787  1.00  0.00     0.002 C 
BRANCH  25  26
ATOM     26  C   UNL A   1      37.356  20.006  24.714  1.00  0.00     0.021 C 
BRANCH  26  27
ATOM     27  C   UNL A   1      38.513  20.495  25.586  1.00  0.00     0.116 C 
BRANCH  27  28
ATOM     28  N   UNL A   1      39.599  19.535  25.661  1.00  0.00    -0.352 N 
ATOM     29  C   UNL A   1      40.914  19.700  26.013  1.00  0.00     0.251 C 
ATOM     30  H   UNL A   1      39.350  18.613  25.419  1.00  0.00     0.163 HD
ATOM     31  O   UNL A   1      41.692  18.758  25.870  1.00  0.00    -0.269 OA
BRANCH  29  32
ATOM     32  C   UNL A   1      41.427  20.983  26.551  1.00  0.00     0.039 A 
ATOM     33  C   UNL A   1      41.328  21.206  27.930  1.00  0.00     0.014 A 
ATOM     34  C   UNL A   1      41.909  22.001  25.722  1.00  0.00     0.014 A 
ATOM     35  C   UNL A   1      41.729  22.427  28.480  1.00  0.00     0.010 A 
ATOM     36  C   UNL A   1      42.348  23.208  26.276  1.00  0.00     0.010 A 
ATOM     37  C   UNL A   1      42.247  23.437  27.658  1.00  0.00    -0.014 A 
BRANCH  37  38
ATOM     38  C   UNL A   1      42.634  24.753  28.227  1.00  0.00     0.031 A 
ATOM     39  C   UNL A   1      41.591  25.814  28.450  1.00  0.00     0.074 A 
ATOM     40  C   UNL A   1      43.923  25.012  28.517  1.00  0.00     0.049 A 
ATOM     41  N   UNL A   1      41.738  27.041  28.884  1.00  0.00    -0.248 NA
ATOM     42  C   UNL A   1      40.202  25.452  28.128  1.00  0.00     0.031 C 
ATOM     43  C   UNL A   1      45.038  24.086  28.322  1.00  0.00     0.029 A 
ATOM     44  N   UNL A   1      44.511  26.141  29.031  1.00  0.00    -0.354 N 
ATOM     45  C   UNL A   1      40.470  27.606  28.857  1.00  0.00     0.074 A 
ATOM     46  C   UNL A   1      39.567  26.594  28.353  1.00  0.00     0.031 C 
ATOM     47  C   UNL A   1      46.176  24.680  28.720  1.00  0.00     0.029 A 
ATOM     48  C   UNL A   1      45.872  26.032  29.182  1.00  0.00     0.049 A 
ATOM     49  H   UNL A   1      44.006  26.951  29.270  1.00  0.00     0.167 HD
ATOM     50  C   UNL A   1      40.091  28.854  29.223  1.00  0.00     0.037 A 
ATOM     51  C   UNL A   1      46.772  26.921  29.642  1.00  0.00     0.037 A 
ATOM     52  C   UNL A   1      40.972  29.852  29.766  1.00  0.00     0.049 A 
ATOM     53  C   UNL A   1      46.313  28.273  30.111  1.00  0.00     0.074 A 
ATOM     54  C   UNL A   1      40.668  31.134  30.194  1.00  0.00     0.029 A 
ATOM     55  N   UNL A   1      42.330  29.674  29.970  1.00  0.00    -0.354 N 
ATOM     56  N   UNL A   1      45.105  28.782  30.105  1.00  0.00    -0.248 NA
ATOM     57  C   UNL A   1      47.340  29.168  30.665  1.00  0.00     0.031 C 
ATOM     58  C   UNL A   1      41.845  31.734  30.652  1.00  0.00     0.029 A 
ATOM     59  C   UNL A   1      42.877  30.819  30.525  1.00  0.00     0.049 A 
ATOM     60  H   UNL A   1      42.832  28.855  29.752  1.00  0.00     0.167 HD
ATOM     61  C   UNL A   1      45.223  30.043  30.673  1.00  0.00     0.074 A 
ATOM     62  C   UNL A   1      46.619  30.222  31.018  1.00  0.00     0.031 C 
ATOM     63  C   UNL A   1      44.260  30.971  30.887  1.00  0.00     0.037 A 
BRANCH  50  64
ATOM     64  C   UNL A   1      38.647  29.210  29.045  1.00  0.00     0.057 A 
ATOM     65  C   UNL A   1      38.136  29.602  27.802  1.00  0.00     0.134 A 
ATOM     66  C   UNL A   1      37.754  29.128  30.121  1.00  0.00     0.134 A 
ATOM     67  F   UNL A   1      38.946  29.711  26.738  1.00  0.00    -0.206 F 
ATOM     68  C   UNL A   1      36.785  29.916  27.638  1.00  0.00     0.040 A 
ATOM     69  C   UNL A   1      36.400  29.425  29.966  1.00  0.00     0.040 A 
ATOM     70  F   UNL A   1      38.185  28.756  31.336  1.00  0.00    -0.206 F 
ATOM     71  C   UNL A   1      35.913  29.822  28.722  1.00  0.00     0.006 A 
ENDBRANCH  50  64
BRANCH  51  72
ATOM     72  C   UNL A   1      48.203  26.552  29.715  1.00  0.00     0.057 A 
ATOM     73  C   UNL A   1      49.083  26.880  28.678  1.00  0.00     0.134 A 
ATOM     74  C   UNL A   1      48.720  25.853  30.811  1.00  0.00     0.134 A 
ATOM     75  F   UNL A   1      48.637  27.531  27.594  1.00  0.00    -0.206 F 
ATOM     76  C   UNL A   1      50.430  26.515  28.723  1.00  0.00     0.040 A 
ATOM     77  C   UNL A   1      50.067  25.496  30.875  1.00  0.00     0.040 A 
ATOM     78  F   UNL A   1      47.923  25.514  31.834  1.00  0.00    -0.206 F 
ATOM     79  C   UNL A   1      50.925  25.823  29.826  1.00  0.00     0.006 A 
ENDBRANCH  51  72
BRANCH  63  80
ATOM     80  C   UNL A   1      44.673  32.240  31.562  1.00  0.00     0.057 A 
ATOM     81  C   UNL A   1      45.097  33.356  30.831  1.00  0.00     0.134 A 
ATOM     82  C   UNL A   1      44.612  32.358  32.955  1.00  0.00     0.134 A 
ATOM     83  F   UNL A   1      45.186  33.298  29.494  1.00  0.00    -0.206 F 
ATOM     84  C   UNL A   1      45.460  34.545  31.466  1.00  0.00     0.040 A 
ATOM     85  C   UNL A   1      44.961  33.544  33.600  1.00  0.00     0.040 A 
ATOM     86  F   UNL A   1      44.213  31.322  33.709  1.00  0.00    -0.206 F 
ATOM     87  C   UNL A   1      45.388  34.642  32.855  1.00  0.00     0.006 A 
ENDBRANCH  63  80
ENDBRANCH  37  38
ENDBRANCH  29  32
ENDBRANCH  27  28
ENDBRANCH  26  27
ENDBRANCH  25  26
ENDBRANCH   1  25
TORSDOF 17
ENDMDL
