MODEL 1
REMARK VINA RESULT:     -11.9      0.000      0.000
REMARK SMILES COc1cc(C)cc2c1O[C@H](C(F)(F)F)C(C(=O)NCCCCCCNC(=O)c1ccc(-c3c4nc(c(-c5c(F)cccc5F)c5ccc([nH]5)c(-c5c(F)cccc5F)c5nc(c(-c6c(F)cccc6F)c6ccc3[nH]6)C=C5)C=C4)cc1)=C2
REMARK SMILES IDX 23 1 22 2 21 3 20 4 19 5 17 6 18 7 16 9 3 10 4 11 9 12 5 13
REMARK SMILES IDX 8 14 10 15 6 16 7 17 83 18 11 19 2 20 1 21 12 22 13 23 14 24
REMARK SMILES IDX 15 25 24 26 25 27 26 28 27 29 28 31 29 32 30 33 82 34 31 35
REMARK SMILES IDX 81 36 32 37 33 38 34 39 75 40 35 41 80 42 74 43 76 44 36 45
REMARK SMILES IDX 79 46 73 47 72 48 37 50 63 51 46 52 62 53 47 54 50 55 61 56
REMARK SMILES IDX 77 57 48 58 49 59 60 61 78 62 51 63 38 64 39 65 44 66 40 67
REMARK SMILES IDX 41 68 43 69 45 70 42 71 64 72 65 73 70 74 66 75 67 76 69 77
REMARK SMILES IDX 71 78 68 79 52 80 53 81 58 82 54 83 55 84 57 85 59 86 56 87
REMARK H PARENT 19 8 26 30 76 49 50 60
REMARK Flexibility Score: inf
ROOT
ATOM      1  C   UNL A   1      35.846  20.914  25.471  1.00  0.00     0.002 C 
ENDROOT
BRANCH   1   2
ATOM      2  C   UNL A   1      34.601  20.895  24.574  1.00  0.00     0.002 C 
BRANCH   2   3
ATOM      3  C   UNL A   1      33.267  20.675  25.296  1.00  0.00     0.021 C 
BRANCH   3   4
ATOM      4  C   UNL A   1      32.179  21.679  24.921  1.00  0.00     0.116 C 
BRANCH   4   5
ATOM      5  N   UNL A   1      31.340  22.019  26.055  1.00  0.00    -0.352 N 
ATOM      6  C   UNL A   1      30.885  23.147  26.649  1.00  0.00     0.251 C 
ATOM      7  O   UNL A   1      30.136  22.961  27.614  1.00  0.00    -0.270 OA
ATOM      8  H   UNL A   1      31.012  21.213  26.515  1.00  0.00     0.163 HD
BRANCH   6   9
ATOM      9  C   UNL A   1      31.217  24.544  26.233  1.00  0.00     0.067 C 
ATOM     10  C   UNL A   1      31.882  28.523  25.054  1.00  0.00     0.161 A 
ATOM     11  C   UNL A   1      31.073  29.107  24.078  1.00  0.00     0.054 A 
ATOM     12  C   UNL A   1      31.641  27.212  25.474  1.00  0.00     0.169 A 
ATOM     13  C   UNL A   1      29.993  28.392  23.545  1.00  0.00    -0.047 A 
ATOM     14  C   UNL A   1      30.572  26.488  24.948  1.00  0.00     0.021 A 
ATOM     15  O   UNL A   1      32.449  26.710  26.452  1.00  0.00    -0.471 OA
ATOM     16  C   UNL A   1      29.113  29.003  22.494  1.00  0.00     0.044 C 
ATOM     17  C   UNL A   1      29.749  27.082  23.986  1.00  0.00     0.015 A 
ATOM     18  C   UNL A   1      30.314  25.136  25.429  1.00  0.00     0.025 C 
ATOM     19  C   UNL A   1      32.474  25.271  26.619  1.00  0.00     0.314 C 
BRANCH  10  20
ATOM     20  O   UNL A   1      32.981  29.173  25.557  1.00  0.00    -0.493 OA
ATOM     21  C   UNL A   1      32.629  30.343  26.290  1.00  0.00     0.278 C 
ENDBRANCH  10  20
BRANCH  19  22
ATOM     22  C   UNL A   1      33.731  24.711  25.929  1.00  0.00     0.429 C 
ATOM     23  F   UNL A   1      34.710  25.650  25.887  1.00  0.00    -0.167 F 
ATOM     24  F   UNL A   1      34.256  23.652  26.590  1.00  0.00    -0.167 F 
ATOM     25  F   UNL A   1      33.495  24.306  24.662  1.00  0.00    -0.167 F 
ENDBRANCH  19  22
ENDBRANCH   6   9
ENDBRANCH   4   5
ENDBRANCH   3   4
ENDBRANCH   2   3
ENDBRANCH   1   2
BRANCH   1  26
ATOM     26  C   UNL A   1      37.115  20.318  24.859  1.00  0.00     0.021 C 
BRANCH  26  27
ATOM     27  C   UNL A   1      38.414  20.737  25.538  1.00  0.00     0.116 C 
BRANCH  27  28
ATOM     28  N   UNL A   1      39.409  19.677  25.544  1.00  0.00    -0.352 N 
ATOM     29  C   UNL A   1      40.731  19.727  25.920  1.00  0.00     0.251 C 
ATOM     30  H   UNL A   1      39.092  18.798  25.236  1.00  0.00     0.163 HD
ATOM     31  O   UNL A   1      41.468  18.767  25.721  1.00  0.00    -0.269 OA
BRANCH  29  32
ATOM     32  C   UNL A   1      41.271  20.958  26.534  1.00  0.00     0.039 A 
ATOM     33  C   UNL A   1      41.104  21.207  27.898  1.00  0.00     0.014 A 
ATOM     34  C   UNL A   1      41.935  21.886  25.726  1.00  0.00     0.014 A 
ATOM     35  C   UNL A   1      41.454  22.449  28.419  1.00  0.00     0.010 A 
ATOM     36  C   UNL A   1      42.361  23.100  26.271  1.00  0.00     0.010 A 
ATOM     37  C   UNL A   1      42.079  23.411  27.611  1.00  0.00    -0.014 A 
BRANCH  37  38
ATOM     38  C   UNL A   1      42.410  24.742  28.185  1.00  0.00     0.031 A 
ATOM     39  C   UNL A   1      43.833  25.098  28.525  1.00  0.00     0.074 A 
ATOM     40  C   UNL A   1      41.431  25.652  28.347  1.00  0.00     0.049 A 
ATOM     41  N   UNL A   1      44.310  26.216  29.012  1.00  0.00    -0.248 NA
ATOM     42  C   UNL A   1      44.853  24.064  28.294  1.00  0.00     0.031 C 
ATOM     43  C   UNL A   1      40.015  25.431  28.045  1.00  0.00     0.029 A 
ATOM     44  N   UNL A   1      41.479  26.951  28.782  1.00  0.00    -0.354 N 
ATOM     45  C   UNL A   1      45.677  26.016  29.159  1.00  0.00     0.074 A 
ATOM     46  C   UNL A   1      45.950  24.658  28.742  1.00  0.00     0.031 C 
ATOM     47  C   UNL A   1      39.338  26.569  28.257  1.00  0.00     0.029 A 
ATOM     48  C   UNL A   1      40.259  27.581  28.765  1.00  0.00     0.049 A 
ATOM     49  H   UNL A   1      42.309  27.391  29.080  1.00  0.00     0.167 HD
ATOM     50  C   UNL A   1      46.622  26.887  29.589  1.00  0.00     0.037 A 
ATOM     51  C   UNL A   1      39.916  28.829  29.129  1.00  0.00     0.037 A 
ATOM     52  C   UNL A   1      46.353  28.245  29.987  1.00  0.00     0.049 A 
ATOM     53  C   UNL A   1      40.974  29.756  29.655  1.00  0.00     0.074 A 
ATOM     54  C   UNL A   1      47.247  29.213  30.412  1.00  0.00     0.029 A 
ATOM     55  N   UNL A   1      45.094  28.825  30.012  1.00  0.00    -0.354 N 
ATOM     56  N   UNL A   1      42.265  29.558  29.769  1.00  0.00    -0.248 NA
ATOM     57  C   UNL A   1      40.524  31.078  30.113  1.00  0.00     0.031 C 
ATOM     58  C   UNL A   1      46.522  30.368  30.733  1.00  0.00     0.029 A 
ATOM     59  C   UNL A   1      45.183  30.130  30.469  1.00  0.00     0.049 A 
ATOM     60  H   UNL A   1      44.260  28.376  29.745  1.00  0.00     0.167 HD
ATOM     61  C   UNL A   1      42.783  30.731  30.300  1.00  0.00     0.074 A 
ATOM     62  C   UNL A   1      41.671  31.644  30.462  1.00  0.00     0.031 C 
ATOM     63  C   UNL A   1      44.065  31.024  30.628  1.00  0.00     0.037 A 
BRANCH  50  64
ATOM     64  C   UNL A   1      48.036  26.389  29.666  1.00  0.00     0.057 A 
ATOM     65  C   UNL A   1      48.888  26.481  28.558  1.00  0.00     0.134 A 
ATOM     66  C   UNL A   1      48.551  25.798  30.828  1.00  0.00     0.134 A 
ATOM     67  F   UNL A   1      48.457  27.030  27.412  1.00  0.00    -0.206 F 
ATOM     68  C   UNL A   1      50.200  26.006  28.602  1.00  0.00     0.040 A 
ATOM     69  C   UNL A   1      49.869  25.341  30.892  1.00  0.00     0.040 A 
ATOM     70  F   UNL A   1      47.792  25.690  31.929  1.00  0.00    -0.206 F 
ATOM     71  C   UNL A   1      50.696  25.440  29.774  1.00  0.00     0.006 A 
ENDBRANCH  50  64
BRANCH  51  72
ATOM     72  C   UNL A   1      38.503  29.273  29.025  1.00  0.00     0.057 A 
ATOM     73  C   UNL A   1      37.649  29.253  30.132  1.00  0.00     0.134 A 
ATOM     74  C   UNL A   1      37.980  29.739  27.813  1.00  0.00     0.134 A 
ATOM     75  F   UNL A   1      38.089  28.814  31.321  1.00  0.00    -0.206 F 
ATOM     76  C   UNL A   1      36.321  29.671  30.039  1.00  0.00     0.040 A 
ATOM     77  C   UNL A   1      36.662  30.184  27.710  1.00  0.00     0.040 A 
ATOM     78  F   UNL A   1      38.758  29.799  26.721  1.00  0.00    -0.206 F 
ATOM     79  C   UNL A   1      35.826  30.145  28.825  1.00  0.00     0.006 A 
ENDBRANCH  51  72
BRANCH  63  80
ATOM     80  C   UNL A   1      44.328  32.395  31.177  1.00  0.00     0.057 A 
ATOM     81  C   UNL A   1      44.295  32.630  32.557  1.00  0.00     0.134 A 
ATOM     82  C   UNL A   1      44.595  33.484  30.339  1.00  0.00     0.134 A 
ATOM     83  F   UNL A   1      44.041  31.629  33.414  1.00  0.00    -0.206 F 
ATOM     84  C   UNL A   1      44.516  33.903  33.084  1.00  0.00     0.040 A 
ATOM     85  C   UNL A   1      44.842  34.757  30.856  1.00  0.00     0.040 A 
ATOM     86  F   UNL A   1      44.658  33.319  29.009  1.00  0.00    -0.206 F 
ATOM     87  C   UNL A   1      44.797  34.970  32.232  1.00  0.00     0.006 A 
ENDBRANCH  63  80
ENDBRANCH  37  38
ENDBRANCH  29  32
ENDBRANCH  27  28
ENDBRANCH  26  27
ENDBRANCH   1  26
TORSDOF 15
ENDMDL
MODEL 2
REMARK VINA RESULT:     -11.7      4.063      9.343
REMARK SMILES COc1cc(C)cc2c1O[C@H](C(F)(F)F)C(C(=O)NCCCCCCNC(=O)c1ccc(-c3c4nc(c(-c5c(F)cccc5F)c5ccc([nH]5)c(-c5c(F)cccc5F)c5nc(c(-c6c(F)cccc6F)c6ccc3[nH]6)C=C5)C=C4)cc1)=C2
REMARK SMILES IDX 23 1 22 2 21 3 20 4 19 5 17 6 18 7 16 9 3 10 4 11 9 12 5 13
REMARK SMILES IDX 8 14 10 15 6 16 7 17 83 18 11 19 2 20 1 21 12 22 13 23 14 24
REMARK SMILES IDX 15 25 24 26 25 27 26 28 27 29 28 31 29 32 30 33 82 34 31 35
REMARK SMILES IDX 81 36 32 37 33 38 34 39 75 40 35 41 80 42 74 43 76 44 36 45
REMARK SMILES IDX 79 46 73 47 72 48 37 50 63 51 46 52 62 53 47 54 50 55 61 56
REMARK SMILES IDX 77 57 48 58 49 59 60 61 78 62 51 63 38 64 39 65 44 66 40 67
REMARK SMILES IDX 41 68 43 69 45 70 42 71 64 72 65 73 70 74 66 75 67 76 69 77
REMARK SMILES IDX 71 78 68 79 52 80 53 81 58 82 54 83 55 84 57 85 59 86 56 87
REMARK H PARENT 19 8 26 30 76 49 50 60
REMARK Flexibility Score: inf
ROOT
ATOM      1  C   UNL A   1      31.644  30.783  26.222  1.00  0.00     0.002 C 
ENDROOT
BRANCH   1   2
ATOM      2  C   UNL A   1      32.358  29.885  27.242  1.00  0.00     0.002 C 
BRANCH   2   3
ATOM      3  C   UNL A   1      33.836  30.207  27.487  1.00  0.00     0.021 C 
BRANCH   3   4
ATOM      4  C   UNL A   1      34.807  29.252  26.796  1.00  0.00     0.116 C 
BRANCH   4   5
ATOM      5  N   UNL A   1      34.443  29.015  25.411  1.00  0.00    -0.352 N 
ATOM      6  C   UNL A   1      33.817  28.047  24.702  1.00  0.00     0.251 C 
ATOM      7  O   UNL A   1      33.691  28.283  23.496  1.00  0.00    -0.270 OA
ATOM      8  H   UNL A   1      34.727  29.758  24.831  1.00  0.00     0.163 HD
BRANCH   6   9
ATOM      9  C   UNL A   1      33.290  26.763  25.259  1.00  0.00     0.067 C 
ATOM     10  C   UNL A   1      32.069  23.075  26.864  1.00  0.00     0.161 A 
ATOM     11  C   UNL A   1      32.756  21.907  26.531  1.00  0.00     0.054 A 
ATOM     12  C   UNL A   1      32.494  24.307  26.360  1.00  0.00     0.169 A 
ATOM     13  C   UNL A   1      33.898  21.972  25.722  1.00  0.00    -0.047 A 
ATOM     14  C   UNL A   1      33.626  24.386  25.550  1.00  0.00     0.021 A 
ATOM     15  O   UNL A   1      31.798  25.416  26.747  1.00  0.00    -0.471 OA
ATOM     16  C   UNL A   1      34.648  20.727  25.353  1.00  0.00     0.044 C 
ATOM     17  C   UNL A   1      34.327  23.217  25.235  1.00  0.00     0.015 A 
ATOM     18  C   UNL A   1      34.076  25.687  25.069  1.00  0.00     0.025 C 
ATOM     19  C   UNL A   1      31.966  26.615  25.954  1.00  0.00     0.314 C 
BRANCH  10  20
ATOM     20  O   UNL A   1      30.916  23.042  27.608  1.00  0.00    -0.493 OA
ATOM     21  C   UNL A   1      29.784  22.656  26.833  1.00  0.00     0.278 C 
ENDBRANCH  10  20
BRANCH  19  22
ATOM     22  C   UNL A   1      30.766  26.755  25.000  1.00  0.00     0.429 C 
ATOM     23  F   UNL A   1      30.999  26.090  23.840  1.00  0.00    -0.167 F 
ATOM     24  F   UNL A   1      29.631  26.225  25.514  1.00  0.00    -0.167 F 
ATOM     25  F   UNL A   1      30.493  28.041  24.688  1.00  0.00    -0.167 F 
ENDBRANCH  19  22
ENDBRANCH   6   9
ENDBRANCH   4   5
ENDBRANCH   3   4
ENDBRANCH   2   3
ENDBRANCH   1   2
BRANCH   1  26
ATOM     26  C   UNL A   1      31.392  32.225  26.667  1.00  0.00     0.021 C 
BRANCH  26  27
ATOM     27  C   UNL A   1      32.593  32.927  27.288  1.00  0.00     0.116 C 
BRANCH  27  28
ATOM     28  N   UNL A   1      32.303  34.298  27.675  1.00  0.00    -0.352 N 
ATOM     29  C   UNL A   1      32.927  35.088  28.610  1.00  0.00     0.251 C 
ATOM     30  H   UNL A   1      31.553  34.721  27.199  1.00  0.00     0.163 HD
ATOM     31  O   UNL A   1      32.455  36.179  28.914  1.00  0.00    -0.269 OA
BRANCH  29  32
ATOM     32  C   UNL A   1      34.154  34.603  29.277  1.00  0.00     0.039 A 
ATOM     33  C   UNL A   1      35.395  34.695  28.643  1.00  0.00     0.014 A 
ATOM     34  C   UNL A   1      34.055  34.029  30.547  1.00  0.00     0.014 A 
ATOM     35  C   UNL A   1      36.503  34.070  29.204  1.00  0.00     0.010 A 
ATOM     36  C   UNL A   1      35.189  33.473  31.147  1.00  0.00     0.010 A 
ATOM     37  C   UNL A   1      36.412  33.445  30.458  1.00  0.00    -0.014 A 
BRANCH  37  38
ATOM     38  C   UNL A   1      37.602  32.754  31.018  1.00  0.00     0.031 A 
ATOM     39  C   UNL A   1      38.204  33.199  32.325  1.00  0.00     0.074 A 
ATOM     40  C   UNL A   1      38.109  31.686  30.372  1.00  0.00     0.049 A 
ATOM     41  N   UNL A   1      39.226  32.702  32.974  1.00  0.00    -0.248 NA
ATOM     42  C   UNL A   1      37.579  34.354  32.987  1.00  0.00     0.031 C 
ATOM     43  C   UNL A   1      37.609  31.153  29.103  1.00  0.00     0.029 A 
ATOM     44  N   UNL A   1      39.139  30.845  30.704  1.00  0.00    -0.354 N 
ATOM     45  C   UNL A   1      39.378  33.490  34.109  1.00  0.00     0.074 A 
ATOM     46  C   UNL A   1      38.363  34.519  34.043  1.00  0.00     0.031 C 
ATOM     47  C   UNL A   1      38.300  30.046  28.790  1.00  0.00     0.029 A 
ATOM     48  C   UNL A   1      39.328  29.827  29.802  1.00  0.00     0.049 A 
ATOM     49  H   UNL A   1      39.691  30.959  31.512  1.00  0.00     0.167 HD
ATOM     50  C   UNL A   1      40.270  33.361  35.120  1.00  0.00     0.037 A 
ATOM     51  C   UNL A   1      40.236  28.835  29.784  1.00  0.00     0.037 A 
ATOM     52  C   UNL A   1      41.269  32.325  35.194  1.00  0.00     0.049 A 
ATOM     53  C   UNL A   1      41.250  28.748  30.889  1.00  0.00     0.074 A 
ATOM     54  C   UNL A   1      42.202  32.095  36.190  1.00  0.00     0.029 A 
ATOM     55  N   UNL A   1      41.466  31.349  34.228  1.00  0.00    -0.354 N 
ATOM     56  N   UNL A   1      41.366  29.489  31.963  1.00  0.00    -0.248 NA
ATOM     57  C   UNL A   1      42.265  27.693  30.770  1.00  0.00     0.031 C 
ATOM     58  C   UNL A   1      42.991  31.003  35.808  1.00  0.00     0.029 A 
ATOM     59  C   UNL A   1      42.522  30.529  34.593  1.00  0.00     0.049 A 
ATOM     60  H   UNL A   1      40.935  31.254  33.405  1.00  0.00     0.167 HD
ATOM     61  C   UNL A   1      42.458  28.983  32.655  1.00  0.00     0.074 A 
ATOM     62  C   UNL A   1      42.954  27.858  31.890  1.00  0.00     0.031 C 
ATOM     63  C   UNL A   1      43.005  29.416  33.818  1.00  0.00     0.037 A 
BRANCH  50  64
ATOM     64  C   UNL A   1      40.217  34.378  36.222  1.00  0.00     0.057 A 
ATOM     65  C   UNL A   1      39.405  34.173  37.345  1.00  0.00     0.134 A 
ATOM     66  C   UNL A   1      40.949  35.572  36.166  1.00  0.00     0.134 A 
ATOM     67  F   UNL A   1      38.672  33.054  37.459  1.00  0.00    -0.206 F 
ATOM     68  C   UNL A   1      39.324  35.115  38.372  1.00  0.00     0.040 A 
ATOM     69  C   UNL A   1      40.896  36.511  37.198  1.00  0.00     0.040 A 
ATOM     70  F   UNL A   1      41.756  35.825  35.124  1.00  0.00    -0.206 F 
ATOM     71  C   UNL A   1      40.077  36.285  38.304  1.00  0.00     0.006 A 
ENDBRANCH  50  64
BRANCH  51  72
ATOM     72  C   UNL A   1      40.239  27.851  28.673  1.00  0.00     0.057 A 
ATOM     73  C   UNL A   1      40.934  28.096  27.483  1.00  0.00     0.134 A 
ATOM     74  C   UNL A   1      39.556  26.634  28.783  1.00  0.00     0.134 A 
ATOM     75  F   UNL A   1      41.605  29.244  27.315  1.00  0.00    -0.206 F 
ATOM     76  C   UNL A   1      40.941  27.173  26.437  1.00  0.00     0.040 A 
ATOM     77  C   UNL A   1      39.575  25.690  27.757  1.00  0.00     0.040 A 
ATOM     78  F   UNL A   1      38.888  26.335  29.908  1.00  0.00    -0.206 F 
ATOM     79  C   UNL A   1      40.265  25.962  26.576  1.00  0.00     0.006 A 
ENDBRANCH  51  72
BRANCH  63  80
ATOM     80  C   UNL A   1      44.188  28.654  34.336  1.00  0.00     0.057 A 
ATOM     81  C   UNL A   1      44.013  27.540  35.166  1.00  0.00     0.134 A 
ATOM     82  C   UNL A   1      45.500  29.033  34.027  1.00  0.00     0.134 A 
ATOM     83  F   UNL A   1      42.782  27.127  35.503  1.00  0.00    -0.206 F 
ATOM     84  C   UNL A   1      45.103  26.832  35.674  1.00  0.00     0.040 A 
ATOM     85  C   UNL A   1      46.598  28.319  34.509  1.00  0.00     0.040 A 
ATOM     86  F   UNL A   1      45.733  30.081  33.222  1.00  0.00    -0.206 F 
ATOM     87  C   UNL A   1      46.400  27.218  35.340  1.00  0.00     0.006 A 
ENDBRANCH  63  80
ENDBRANCH  37  38
ENDBRANCH  29  32
ENDBRANCH  27  28
ENDBRANCH  26  27
ENDBRANCH   1  26
TORSDOF 15
ENDMDL
MODEL 3
REMARK VINA RESULT:     -11.7      2.145      7.553
REMARK SMILES COc1cc(C)cc2c1O[C@H](C(F)(F)F)C(C(=O)NCCCCCCNC(=O)c1ccc(-c3c4nc(c(-c5c(F)cccc5F)c5ccc([nH]5)c(-c5c(F)cccc5F)c5nc(c(-c6c(F)cccc6F)c6ccc3[nH]6)C=C5)C=C4)cc1)=C2
REMARK SMILES IDX 23 1 22 2 21 3 20 4 19 5 17 6 18 7 16 9 3 10 4 11 9 12 5 13
REMARK SMILES IDX 8 14 10 15 6 16 7 17 83 18 11 19 2 20 1 21 12 22 13 23 14 24
REMARK SMILES IDX 15 25 24 26 25 27 26 28 27 29 28 31 29 32 30 33 82 34 31 35
REMARK SMILES IDX 81 36 32 37 33 38 34 39 75 40 35 41 80 42 74 43 76 44 36 45
REMARK SMILES IDX 79 46 73 47 72 48 37 50 63 51 46 52 62 53 47 54 50 55 61 56
REMARK SMILES IDX 77 57 48 58 49 59 60 61 78 62 51 63 38 64 39 65 44 66 40 67
REMARK SMILES IDX 41 68 43 69 45 70 42 71 64 72 65 73 70 74 66 75 67 76 69 77
REMARK SMILES IDX 71 78 68 79 52 80 53 81 58 82 54 83 55 84 57 85 59 86 56 87
REMARK H PARENT 19 8 26 30 76 49 50 60
REMARK Flexibility Score: inf
ROOT
ATOM      1  C   UNL A   1      31.789  28.863  25.718  1.00  0.00     0.002 C 
ENDROOT
BRANCH   1   2
ATOM      2  C   UNL A   1      31.289  28.024  24.534  1.00  0.00     0.002 C 
BRANCH   2   3
ATOM      3  C   UNL A   1      30.863  26.591  24.870  1.00  0.00     0.021 C 
BRANCH   3   4
ATOM      4  C   UNL A   1      30.574  25.721  23.649  1.00  0.00     0.116 C 
BRANCH   4   5
ATOM      5  N   UNL A   1      31.575  25.890  22.612  1.00  0.00    -0.352 N 
ATOM      6  C   UNL A   1      32.738  25.300  22.250  1.00  0.00     0.251 C 
ATOM      7  O   UNL A   1      33.268  25.769  21.238  1.00  0.00    -0.270 OA
ATOM      8  H   UNL A   1      31.347  26.635  22.009  1.00  0.00     0.163 HD
BRANCH   6   9
ATOM      9  C   UNL A   1      33.396  24.165  22.966  1.00  0.00     0.067 C 
ATOM     10  C   UNL A   1      35.142  20.805  24.793  1.00  0.00     0.161 A 
ATOM     11  C   UNL A   1      34.419  19.616  24.903  1.00  0.00     0.054 A 
ATOM     12  C   UNL A   1      34.578  21.913  24.154  1.00  0.00     0.169 A 
ATOM     13  C   UNL A   1      33.140  19.519  24.340  1.00  0.00    -0.047 A 
ATOM     14  C   UNL A   1      33.304  21.831  23.593  1.00  0.00     0.021 A 
ATOM     15  O   UNL A   1      35.347  23.036  24.053  1.00  0.00    -0.471 OA
ATOM     16  C   UNL A   1      32.349  18.250  24.451  1.00  0.00     0.044 C 
ATOM     17  C   UNL A   1      32.589  20.632  23.686  1.00  0.00     0.015 A 
ATOM     18  C   UNL A   1      32.750  22.986  22.897  1.00  0.00     0.025 C 
ATOM     19  C   UNL A   1      34.667  24.281  23.760  1.00  0.00     0.314 C 
BRANCH  10  20
ATOM     20  O   UNL A   1      36.373  20.954  25.381  1.00  0.00    -0.493 OA
ATOM     21  C   UNL A   1      37.323  20.010  24.893  1.00  0.00     0.278 C 
ENDBRANCH  10  20
BRANCH  19  22
ATOM     22  C   UNL A   1      34.492  25.073  25.067  1.00  0.00     0.429 C 
ATOM     23  F   UNL A   1      33.360  24.688  25.709  1.00  0.00    -0.167 F 
ATOM     24  F   UNL A   1      35.507  24.866  25.939  1.00  0.00    -0.167 F 
ATOM     25  F   UNL A   1      34.415  26.407  24.864  1.00  0.00    -0.167 F 
ENDBRANCH  19  22
ENDBRANCH   6   9
ENDBRANCH   4   5
ENDBRANCH   3   4
ENDBRANCH   2   3
ENDBRANCH   1   2
BRANCH   1  26
ATOM     26  C   UNL A   1      32.421  28.079  26.869  1.00  0.00     0.021 C 
BRANCH  26  27
ATOM     27  C   UNL A   1      33.797  28.569  27.303  1.00  0.00     0.116 C 
BRANCH  27  28
ATOM     28  N   UNL A   1      33.771  29.930  27.814  1.00  0.00    -0.352 N 
ATOM     29  C   UNL A   1      34.764  30.641  28.445  1.00  0.00     0.251 C 
ATOM     30  H   UNL A   1      32.923  30.412  27.689  1.00  0.00     0.163 HD
ATOM     31  O   UNL A   1      34.521  31.735  28.945  1.00  0.00    -0.269 OA
BRANCH  29  32
ATOM     32  C   UNL A   1      36.121  30.065  28.553  1.00  0.00     0.039 A 
ATOM     33  C   UNL A   1      36.532  29.420  29.722  1.00  0.00     0.014 A 
ATOM     34  C   UNL A   1      37.001  30.192  27.474  1.00  0.00     0.014 A 
ATOM     35  C   UNL A   1      37.865  29.051  29.872  1.00  0.00     0.010 A 
ATOM     36  C   UNL A   1      38.319  29.744  27.598  1.00  0.00     0.010 A 
ATOM     37  C   UNL A   1      38.775  29.215  28.816  1.00  0.00    -0.014 A 
BRANCH  37  38
ATOM     38  C   UNL A   1      40.200  28.844  29.016  1.00  0.00     0.031 A 
ATOM     39  C   UNL A   1      40.710  27.496  28.580  1.00  0.00     0.074 A 
ATOM     40  C   UNL A   1      41.049  29.747  29.542  1.00  0.00     0.049 A 
ATOM     41  N   UNL A   1      41.924  27.009  28.655  1.00  0.00    -0.248 NA
ATOM     42  C   UNL A   1      39.732  26.572  27.987  1.00  0.00     0.031 C 
ATOM     43  C   UNL A   1      40.678  31.090  29.994  1.00  0.00     0.029 A 
ATOM     44  N   UNL A   1      42.400  29.683  29.764  1.00  0.00    -0.354 N 
ATOM     45  C   UNL A   1      41.852  25.722  28.136  1.00  0.00     0.074 A 
ATOM     46  C   UNL A   1      40.468  25.490  27.780  1.00  0.00     0.031 C 
ATOM     47  C   UNL A   1      41.781  31.739  30.392  1.00  0.00     0.029 A 
ATOM     48  C   UNL A   1      42.927  30.841  30.280  1.00  0.00     0.049 A 
ATOM     49  H   UNL A   1      42.942  28.883  29.572  1.00  0.00     0.167 HD
ATOM     50  C   UNL A   1      42.847  24.820  27.959  1.00  0.00     0.037 A 
ATOM     51  C   UNL A   1      44.188  31.144  30.636  1.00  0.00     0.037 A 
ATOM     52  C   UNL A   1      44.227  25.058  28.297  1.00  0.00     0.049 A 
ATOM     53  C   UNL A   1      45.262  30.106  30.481  1.00  0.00     0.074 A 
ATOM     54  C   UNL A   1      45.314  24.217  28.131  1.00  0.00     0.029 A 
ATOM     55  N   UNL A   1      44.708  26.223  28.874  1.00  0.00    -0.354 N 
ATOM     56  N   UNL A   1      45.181  28.902  29.971  1.00  0.00    -0.248 NA
ATOM     57  C   UNL A   1      46.602  30.468  30.963  1.00  0.00     0.031 C 
ATOM     58  C   UNL A   1      46.447  24.858  28.646  1.00  0.00     0.029 A 
ATOM     59  C   UNL A   1      46.072  26.115  29.094  1.00  0.00     0.049 A 
ATOM     60  H   UNL A   1      44.162  27.011  29.096  1.00  0.00     0.167 HD
ATOM     61  C   UNL A   1      46.458  28.366  30.058  1.00  0.00     0.074 A 
ATOM     62  C   UNL A   1      47.300  29.386  30.649  1.00  0.00     0.031 C 
ATOM     63  C   UNL A   1      46.894  27.137  29.687  1.00  0.00     0.037 A 
BRANCH  50  64
ATOM     64  C   UNL A   1      42.474  23.484  27.386  1.00  0.00     0.057 A 
ATOM     65  C   UNL A   1      42.034  22.447  28.219  1.00  0.00     0.134 A 
ATOM     66  C   UNL A   1      42.572  23.212  26.015  1.00  0.00     0.134 A 
ATOM     67  F   UNL A   1      41.924  22.637  29.542  1.00  0.00    -0.206 F 
ATOM     68  C   UNL A   1      41.702  21.190  27.709  1.00  0.00     0.040 A 
ATOM     69  C   UNL A   1      42.220  21.967  25.490  1.00  0.00     0.040 A 
ATOM     70  F   UNL A   1      42.975  24.165  25.161  1.00  0.00    -0.206 F 
ATOM     71  C   UNL A   1      41.788  20.949  26.340  1.00  0.00     0.006 A 
ENDBRANCH  50  64
BRANCH  51  72
ATOM     72  C   UNL A   1      44.503  32.485  31.190  1.00  0.00     0.057 A 
ATOM     73  C   UNL A   1      44.915  33.536  30.364  1.00  0.00     0.134 A 
ATOM     74  C   UNL A   1      44.386  32.746  32.560  1.00  0.00     0.134 A 
ATOM     75  F   UNL A   1      45.049  33.348  29.043  1.00  0.00    -0.206 F 
ATOM     76  C   UNL A   1      45.210  34.798  30.880  1.00  0.00     0.040 A 
ATOM     77  C   UNL A   1      44.653  34.010  33.087  1.00  0.00     0.040 A 
ATOM     78  F   UNL A   1      43.977  31.782  33.399  1.00  0.00    -0.206 F 
ATOM     79  C   UNL A   1      45.073  35.039  32.246  1.00  0.00     0.006 A 
ENDBRANCH  51  72
BRANCH  63  80
ATOM     80  C   UNL A   1      48.350  26.843  29.895  1.00  0.00     0.057 A 
ATOM     81  C   UNL A   1      48.792  26.221  31.069  1.00  0.00     0.134 A 
ATOM     82  C   UNL A   1      49.314  27.191  28.942  1.00  0.00     0.134 A 
ATOM     83  F   UNL A   1      47.919  25.866  32.024  1.00  0.00    -0.206 F 
ATOM     84  C   UNL A   1      50.145  25.959  31.289  1.00  0.00     0.040 A 
ATOM     85  C   UNL A   1      50.667  26.912  29.139  1.00  0.00     0.040 A 
ATOM     86  F   UNL A   1      48.951  27.773  27.789  1.00  0.00    -0.206 F 
ATOM     87  C   UNL A   1      51.086  26.300  30.319  1.00  0.00     0.006 A 
ENDBRANCH  63  80
ENDBRANCH  37  38
ENDBRANCH  29  32
ENDBRANCH  27  28
ENDBRANCH  26  27
ENDBRANCH   1  26
TORSDOF 15
ENDMDL
