MODEL 1
REMARK VINA RESULT:      -9.2      0.000      0.000
REMARK SMILES N#C/C(=C\c1cccn1-c1cccc(C(=O)NCCCCCCNC(=O)c2ccc(-c3c4nc(c(-c5c(F)cccc5F)c5ccc([nH]5)c(-c5c(F)cccc5F)c5nc(c(-c6c(F)cccc6F)c6ccc3[nH]6)C=C5)C=C4)cc2)c1)C(=O)Nc1cccc(Cl)c1
REMARK SMILES IDX 19 1 18 2 17 3 15 4 16 5 14 7 10 8 11 9 81 10 12 11 13 12
REMARK SMILES IDX 9 13 5 14 6 15 7 16 8 17 4 18 3 19 2 20 1 21 82 22 83 23
REMARK SMILES IDX 84 24 85 26 86 27 91 28 87 29 89 30 88 31 90 32 20 33 21 34
REMARK SMILES IDX 22 35 23 36 24 37 25 38 26 40 27 41 28 42 80 43 29 44 79 45
REMARK SMILES IDX 30 46 31 47 32 48 73 49 33 50 78 51 72 52 74 53 34 54 77 55
REMARK SMILES IDX 71 56 70 57 35 59 61 60 44 61 60 62 45 63 48 64 59 65 75 66
REMARK SMILES IDX 46 67 47 68 58 70 76 71 49 72 36 73 37 74 42 75 38 76 39 77
REMARK SMILES IDX 41 78 43 79 40 80 62 81 63 82 68 83 64 84 65 85 67 86 69 87
REMARK SMILES IDX 66 88 50 89 51 90 56 91 52 92 53 93 55 94 57 95 54 96
REMARK H PARENT 17 6 84 25 24 39 74 58 48 69
REMARK Flexibility Score: inf
ROOT
ATOM      1  C   UNL A   1      45.373  33.238  26.357  1.00  0.00     0.021 C 
ENDROOT
BRANCH   1   2
ATOM      2  C   UNL A   1      45.752  31.844  26.835  1.00  0.00     0.116 C 
BRANCH   2   3
ATOM      3  N   UNL A   1      46.197  30.918  25.801  1.00  0.00    -0.352 N 
ATOM      4  C   UNL A   1      46.440  29.556  25.814  1.00  0.00     0.251 C 
ATOM      5  O   UNL A   1      46.798  29.013  24.770  1.00  0.00    -0.269 OA
ATOM      6  H   UNL A   1      46.354  31.343  24.926  1.00  0.00     0.163 HD
BRANCH   4   7
ATOM      7  C   UNL A   1      46.333  28.725  27.051  1.00  0.00     0.041 A 
ATOM      8  C   UNL A   1      45.028  27.238  28.464  1.00  0.00     0.046 A 
ATOM      9  C   UNL A   1      45.919  27.465  29.519  1.00  0.00     0.026 A 
ATOM     10  C   UNL A   1      45.325  27.781  27.212  1.00  0.00     0.040 A 
ATOM     11  C   UNL A   1      47.046  28.267  29.322  1.00  0.00     0.003 A 
ATOM     12  C   UNL A   1      47.233  28.926  28.102  1.00  0.00     0.014 A 
BRANCH   8  13
ATOM     13  N   UNL A   1      43.750  26.624  28.694  1.00  0.00    -0.317 N 
ATOM     14  C   UNL A   1      43.109  25.578  27.996  1.00  0.00     0.047 A 
ATOM     15  C   UNL A   1      41.816  25.487  28.501  1.00  0.00     0.028 A 
ATOM     16  C   UNL A   1      41.639  26.479  29.481  1.00  0.00     0.020 A 
ATOM     17  C   UNL A   1      42.837  27.131  29.608  1.00  0.00     0.092 A 
BRANCH  14  18
ATOM     18  C   UNL A   1      43.826  24.739  27.077  1.00  0.00     0.052 C 
ATOM     19  C   UNL A   1      43.742  24.735  25.723  1.00  0.00     0.119 C 
BRANCH  19  20
ATOM     20  C   UNL A   1      43.061  25.963  25.142  1.00  0.00     0.105 C 
ATOM     21  N   UNL A   1      42.497  26.982  24.659  1.00  0.00    -0.192 NA
ENDBRANCH  19  20
BRANCH  19  22
ATOM     22  C   UNL A   1      44.453  23.748  24.859  1.00  0.00     0.266 C 
ATOM     23  O   UNL A   1      43.796  22.876  24.287  1.00  0.00    -0.268 OA
ATOM     24  N   UNL A   1      45.804  23.836  24.572  1.00  0.00    -0.321 N 
ATOM     25  H   UNL A   1      46.105  23.217  23.869  1.00  0.00     0.170 HD
BRANCH  24  26
ATOM     26  C   UNL A   1      46.828  24.649  25.102  1.00  0.00     0.042 A 
ATOM     27  C   UNL A   1      47.147  24.475  26.454  1.00  0.00     0.026 A 
ATOM     28  C   UNL A   1      47.617  25.496  24.314  1.00  0.00     0.046 A 
ATOM     29  C   UNL A   1      48.334  25.005  26.970  1.00  0.00     0.004 A 
ATOM     30  C   UNL A   1      48.810  26.010  24.834  1.00  0.00     0.043 A 
ATOM     31  C   UNL A   1      49.184  25.747  26.150  1.00  0.00     0.020 A 
ATOM     32  Cl  UNL A   1      49.884  26.877  23.805  1.00  0.00    -0.084 Cl
ENDBRANCH  24  26
ENDBRANCH  19  22
ENDBRANCH  14  18
ENDBRANCH   8  13
ENDBRANCH   4   7
ENDBRANCH   2   3
ENDBRANCH   1   2
BRANCH   1  33
ATOM     33  C   UNL A   1      46.374  34.355  26.625  1.00  0.00     0.002 C 
BRANCH  33  34
ATOM     34  C   UNL A   1      46.308  35.572  25.696  1.00  0.00     0.002 C 
BRANCH  34  35
ATOM     35  C   UNL A   1      47.020  36.849  26.170  1.00  0.00     0.021 C 
BRANCH  35  36
ATOM     36  C   UNL A   1      46.511  37.427  27.493  1.00  0.00     0.116 C 
BRANCH  36  37
ATOM     37  N   UNL A   1      45.333  38.251  27.292  1.00  0.00    -0.352 N 
ATOM     38  C   UNL A   1      44.000  37.933  27.323  1.00  0.00     0.251 C 
ATOM     39  H   UNL A   1      45.524  39.197  27.100  1.00  0.00     0.163 HD
ATOM     40  O   UNL A   1      43.208  38.691  26.773  1.00  0.00    -0.269 OA
BRANCH  38  41
ATOM     41  C   UNL A   1      43.480  36.715  27.990  1.00  0.00     0.039 A 
ATOM     42  C   UNL A   1      43.729  36.585  29.365  1.00  0.00     0.014 A 
ATOM     43  C   UNL A   1      42.875  35.662  27.296  1.00  0.00     0.014 A 
ATOM     44  C   UNL A   1      43.329  35.441  30.046  1.00  0.00     0.010 A 
ATOM     45  C   UNL A   1      42.456  34.517  27.977  1.00  0.00     0.010 A 
ATOM     46  C   UNL A   1      42.663  34.418  29.357  1.00  0.00    -0.014 A 
BRANCH  46  47
ATOM     47  C   UNL A   1      41.967  33.388  30.168  1.00  0.00     0.031 A 
ATOM     48  C   UNL A   1      40.543  33.874  30.537  1.00  0.00     0.074 A 
ATOM     49  C   UNL A   1      42.666  32.259  30.503  1.00  0.00     0.049 A 
ATOM     50  N   UNL A   1      39.824  33.663  31.597  1.00  0.00    -0.248 NA
ATOM     51  C   UNL A   1      39.850  34.818  29.611  1.00  0.00     0.031 C 
ATOM     52  C   UNL A   1      44.010  31.920  29.988  1.00  0.00     0.029 A 
ATOM     53  N   UNL A   1      42.417  31.174  31.328  1.00  0.00    -0.354 N 
ATOM     54  C   UNL A   1      38.552  34.251  31.375  1.00  0.00     0.074 A 
ATOM     55  C   UNL A   1      38.682  35.062  30.207  1.00  0.00     0.031 C 
ATOM     56  C   UNL A   1      44.485  30.794  30.567  1.00  0.00     0.029 A 
ATOM     57  C   UNL A   1      43.513  30.280  31.512  1.00  0.00     0.049 A 
ATOM     58  H   UNL A   1      41.543  31.030  31.758  1.00  0.00     0.167 HD
ATOM     59  C   UNL A   1      37.430  33.899  32.074  1.00  0.00     0.037 A 
ATOM     60  C   UNL A   1      43.649  29.242  32.401  1.00  0.00     0.037 A 
ATOM     61  C   UNL A   1      37.774  32.956  33.080  1.00  0.00     0.049 A 
ATOM     62  C   UNL A   1      42.342  29.129  33.058  1.00  0.00     0.074 A 
ATOM     63  C   UNL A   1      38.455  33.060  34.262  1.00  0.00     0.029 A 
ATOM     64  N   UNL A   1      37.694  31.634  32.717  1.00  0.00    -0.354 N 
ATOM     65  N   UNL A   1      41.280  28.626  32.507  1.00  0.00    -0.248 NA
ATOM     66  C   UNL A   1      42.172  29.723  34.390  1.00  0.00     0.031 C 
ATOM     67  C   UNL A   1      39.187  31.856  34.315  1.00  0.00     0.029 A 
ATOM     68  C   UNL A   1      38.747  30.988  33.308  1.00  0.00     0.049 A 
ATOM     69  H   UNL A   1      37.009  31.228  32.138  1.00  0.00     0.167 HD
ATOM     70  C   UNL A   1      40.278  29.162  33.280  1.00  0.00     0.074 A 
ATOM     71  C   UNL A   1      40.871  29.507  34.551  1.00  0.00     0.031 C 
ATOM     72  C   UNL A   1      39.230  29.781  32.683  1.00  0.00     0.037 A 
BRANCH  59  73
ATOM     73  C   UNL A   1      35.958  34.066  31.786  1.00  0.00     0.057 A 
ATOM     74  C   UNL A   1      35.478  33.636  30.522  1.00  0.00     0.134 A 
ATOM     75  C   UNL A   1      35.122  34.947  32.478  1.00  0.00     0.134 A 
ATOM     76  F   UNL A   1      36.159  32.738  29.790  1.00  0.00    -0.206 F 
ATOM     77  C   UNL A   1      34.341  34.182  29.920  1.00  0.00     0.040 A 
ATOM     78  C   UNL A   1      33.949  35.459  31.903  1.00  0.00     0.040 A 
ATOM     79  F   UNL A   1      35.448  35.423  33.684  1.00  0.00    -0.206 F 
ATOM     80  C   UNL A   1      33.586  35.121  30.604  1.00  0.00     0.006 A 
ENDBRANCH  59  73
BRANCH  60  81
ATOM     81  C   UNL A   1      44.740  28.323  32.925  1.00  0.00     0.057 A 
ATOM     82  C   UNL A   1      44.728  26.927  32.904  1.00  0.00     0.134 A 
ATOM     83  C   UNL A   1      45.943  28.866  33.467  1.00  0.00     0.134 A 
ATOM     84  F   UNL A   1      43.623  26.248  32.578  1.00  0.00    -0.206 F 
ATOM     85  C   UNL A   1      45.857  26.152  33.258  1.00  0.00     0.040 A 
ATOM     86  C   UNL A   1      47.083  28.117  33.778  1.00  0.00     0.040 A 
ATOM     87  F   UNL A   1      46.079  30.171  33.737  1.00  0.00    -0.206 F 
ATOM     88  C   UNL A   1      47.052  26.746  33.652  1.00  0.00     0.006 A 
ENDBRANCH  60  81
BRANCH  72  89
ATOM     89  C   UNL A   1      38.975  29.343  31.252  1.00  0.00     0.057 A 
ATOM     90  C   UNL A   1      38.616  28.016  30.981  1.00  0.00     0.134 A 
ATOM     91  C   UNL A   1      39.190  30.152  30.126  1.00  0.00     0.134 A 
ATOM     92  F   UNL A   1      38.371  27.167  31.990  1.00  0.00    -0.206 F 
ATOM     93  C   UNL A   1      38.504  27.523  29.673  1.00  0.00     0.040 A 
ATOM     94  C   UNL A   1      39.077  29.679  28.811  1.00  0.00     0.040 A 
ATOM     95  F   UNL A   1      39.527  31.432  30.259  1.00  0.00    -0.206 F 
ATOM     96  C   UNL A   1      38.741  28.353  28.581  1.00  0.00     0.006 A 
ENDBRANCH  72  89
ENDBRANCH  46  47
ENDBRANCH  38  41
ENDBRANCH  36  37
ENDBRANCH  35  36
ENDBRANCH  34  35
ENDBRANCH  33  34
ENDBRANCH   1  33
TORSDOF 18
ENDMDL
MODEL 2
REMARK VINA RESULT:      -9.1      3.909     11.182
REMARK SMILES N#C/C(=C\c1cccn1-c1cccc(C(=O)NCCCCCCNC(=O)c2ccc(-c3c4nc(c(-c5c(F)cccc5F)c5ccc([nH]5)c(-c5c(F)cccc5F)c5nc(c(-c6c(F)cccc6F)c6ccc3[nH]6)C=C5)C=C4)cc2)c1)C(=O)Nc1cccc(Cl)c1
REMARK SMILES IDX 19 1 18 2 17 3 15 4 16 5 14 7 10 8 11 9 81 10 12 11 13 12
REMARK SMILES IDX 9 13 5 14 6 15 7 16 8 17 4 18 3 19 2 20 1 21 82 22 83 23
REMARK SMILES IDX 84 24 85 26 86 27 91 28 87 29 89 30 88 31 90 32 20 33 21 34
REMARK SMILES IDX 22 35 23 36 24 37 25 38 26 40 27 41 28 42 80 43 29 44 79 45
REMARK SMILES IDX 30 46 31 47 32 48 73 49 33 50 78 51 72 52 74 53 34 54 77 55
REMARK SMILES IDX 71 56 70 57 35 59 61 60 44 61 60 62 45 63 48 64 59 65 75 66
REMARK SMILES IDX 46 67 47 68 58 70 76 71 49 72 36 73 37 74 42 75 38 76 39 77
REMARK SMILES IDX 41 78 43 79 40 80 62 81 63 82 68 83 64 84 65 85 67 86 69 87
REMARK SMILES IDX 66 88 50 89 51 90 56 91 52 92 53 93 55 94 57 95 54 96
REMARK H PARENT 17 6 84 25 24 39 74 58 48 69
REMARK Flexibility Score: inf
ROOT
ATOM      1  C   UNL A   1      43.489  28.079  36.093  1.00  0.00     0.021 C 
ENDROOT
BRANCH   1   2
ATOM      2  C   UNL A   1      41.980  27.882  36.101  1.00  0.00     0.116 C 
BRANCH   2   3
ATOM      3  N   UNL A   1      41.349  27.767  34.792  1.00  0.00    -0.352 N 
ATOM      4  C   UNL A   1      40.808  28.710  33.934  1.00  0.00     0.251 C 
ATOM      5  O   UNL A   1      40.346  28.329  32.859  1.00  0.00    -0.269 OA
ATOM      6  H   UNL A   1      41.296  26.844  34.454  1.00  0.00     0.163 HD
BRANCH   4   7
ATOM      7  C   UNL A   1      40.717  30.160  34.277  1.00  0.00     0.041 A 
ATOM      8  C   UNL A   1      39.370  32.171  34.520  1.00  0.00     0.046 A 
ATOM      9  C   UNL A   1      40.535  32.945  34.528  1.00  0.00     0.026 A 
ATOM     10  C   UNL A   1      39.495  30.780  34.516  1.00  0.00     0.040 A 
ATOM     11  C   UNL A   1      41.788  32.326  34.476  1.00  0.00     0.003 A 
ATOM     12  C   UNL A   1      41.878  30.940  34.312  1.00  0.00     0.014 A 
BRANCH   8  13
ATOM     13  N   UNL A   1      38.081  32.775  34.333  1.00  0.00    -0.317 N 
ATOM     14  C   UNL A   1      37.488  33.303  33.166  1.00  0.00     0.047 A 
ATOM     15  C   UNL A   1      36.314  33.936  33.559  1.00  0.00     0.028 A 
ATOM     16  C   UNL A   1      36.186  33.833  34.955  1.00  0.00     0.020 A 
ATOM     17  C   UNL A   1      37.250  33.092  35.398  1.00  0.00     0.092 A 
BRANCH  14  18
ATOM     18  C   UNL A   1      38.020  33.023  31.862  1.00  0.00     0.052 C 
ATOM     19  C   UNL A   1      38.027  31.834  31.209  1.00  0.00     0.119 C 
BRANCH  19  20
ATOM     20  C   UNL A   1      37.087  30.797  31.803  1.00  0.00     0.105 C 
ATOM     21  N   UNL A   1      36.307  29.937  32.295  1.00  0.00    -0.192 NA
ENDBRANCH  19  20
BRANCH  19  22
ATOM     22  C   UNL A   1      38.701  31.622  29.895  1.00  0.00     0.266 C 
ATOM     23  O   UNL A   1      39.887  31.289  29.881  1.00  0.00    -0.268 OA
ATOM     24  N   UNL A   1      38.026  31.666  28.688  1.00  0.00    -0.321 N 
ATOM     25  H   UNL A   1      38.556  31.354  27.920  1.00  0.00     0.170 HD
BRANCH  24  26
ATOM     26  C   UNL A   1      36.717  32.076  28.355  1.00  0.00     0.042 A 
ATOM     27  C   UNL A   1      35.738  31.078  28.265  1.00  0.00     0.026 A 
ATOM     28  C   UNL A   1      36.336  33.419  28.260  1.00  0.00     0.046 A 
ATOM     29  C   UNL A   1      34.383  31.422  28.250  1.00  0.00     0.004 A 
ATOM     30  C   UNL A   1      34.978  33.755  28.260  1.00  0.00     0.043 A 
ATOM     31  C   UNL A   1      34.000  32.762  28.280  1.00  0.00     0.020 A 
ATOM     32  Cl  UNL A   1      34.508  35.408  28.354  1.00  0.00    -0.084 Cl
ENDBRANCH  24  26
ENDBRANCH  19  22
ENDBRANCH  14  18
ENDBRANCH   8  13
ENDBRANCH   4   7
ENDBRANCH   2   3
ENDBRANCH   1   2
BRANCH   1  33
ATOM     33  C   UNL A   1      44.247  27.641  37.340  1.00  0.00     0.002 C 
BRANCH  33  34
ATOM     34  C   UNL A   1      45.614  26.985  37.115  1.00  0.00     0.002 C 
BRANCH  34  35
ATOM     35  C   UNL A   1      45.917  25.714  37.924  1.00  0.00     0.021 C 
BRANCH  35  36
ATOM     36  C   UNL A   1      47.132  24.912  37.450  1.00  0.00     0.116 C 
BRANCH  36  37
ATOM     37  N   UNL A   1      46.763  23.554  37.093  1.00  0.00    -0.352 N 
ATOM     38  C   UNL A   1      45.888  23.082  36.149  1.00  0.00     0.251 C 
ATOM     39  H   UNL A   1      47.217  22.856  37.617  1.00  0.00     0.163 HD
ATOM     40  O   UNL A   1      45.468  21.936  36.268  1.00  0.00    -0.269 OA
BRANCH  38  41
ATOM     41  C   UNL A   1      45.433  23.896  34.997  1.00  0.00     0.039 A 
ATOM     42  C   UNL A   1      46.405  24.273  34.057  1.00  0.00     0.014 A 
ATOM     43  C   UNL A   1      44.129  24.393  34.879  1.00  0.00     0.014 A 
ATOM     44  C   UNL A   1      46.064  25.090  32.985  1.00  0.00     0.010 A 
ATOM     45  C   UNL A   1      43.778  25.200  33.795  1.00  0.00     0.010 A 
ATOM     46  C   UNL A   1      44.741  25.530  32.836  1.00  0.00    -0.014 A 
BRANCH  46  47
ATOM     47  C   UNL A   1      44.356  26.106  31.524  1.00  0.00     0.031 A 
ATOM     48  C   UNL A   1      44.171  24.976  30.480  1.00  0.00     0.074 A 
ATOM     49  C   UNL A   1      44.288  27.470  31.421  1.00  0.00     0.049 A 
ATOM     50  N   UNL A   1      44.399  24.957  29.202  1.00  0.00    -0.248 NA
ATOM     51  C   UNL A   1      43.745  23.628  30.958  1.00  0.00     0.031 C 
ATOM     52  C   UNL A   1      44.422  28.406  32.558  1.00  0.00     0.029 A 
ATOM     53  N   UNL A   1      44.102  28.355  30.371  1.00  0.00    -0.354 N 
ATOM     54  C   UNL A   1      43.954  23.705  28.707  1.00  0.00     0.074 A 
ATOM     55  C   UNL A   1      43.700  22.888  29.850  1.00  0.00     0.031 C 
ATOM     56  C   UNL A   1      44.407  29.691  32.138  1.00  0.00     0.029 A 
ATOM     57  C   UNL A   1      44.263  29.734  30.696  1.00  0.00     0.049 A 
ATOM     58  H   UNL A   1      43.875  28.051  29.462  1.00  0.00     0.167 HD
ATOM     59  C   UNL A   1      43.665  23.479  27.389  1.00  0.00     0.037 A 
ATOM     60  C   UNL A   1      44.336  30.822  29.861  1.00  0.00     0.037 A 
ATOM     61  C   UNL A   1      43.971  24.641  26.630  1.00  0.00     0.049 A 
ATOM     62  C   UNL A   1      44.062  30.292  28.520  1.00  0.00     0.074 A 
ATOM     63  C   UNL A   1      45.150  25.224  26.252  1.00  0.00     0.029 A 
ATOM     64  N   UNL A   1      42.948  25.542  26.472  1.00  0.00    -0.354 N 
ATOM     65  N   UNL A   1      42.889  29.938  28.091  1.00  0.00    -0.248 NA
ATOM     66  C   UNL A   1      45.196  30.028  27.624  1.00  0.00     0.031 C 
ATOM     67  C   UNL A   1      44.870  26.602  26.350  1.00  0.00     0.029 A 
ATOM     68  C   UNL A   1      43.497  26.795  26.547  1.00  0.00     0.049 A 
ATOM     69  H   UNL A   1      41.997  25.328  26.332  1.00  0.00     0.167 HD
ATOM     70  C   UNL A   1      43.207  29.107  27.044  1.00  0.00     0.074 A 
ATOM     71  C   UNL A   1      44.538  29.471  26.613  1.00  0.00     0.031 C 
ATOM     72  C   UNL A   1      42.642  27.877  26.969  1.00  0.00     0.037 A 
BRANCH  59  73
ATOM     73  C   UNL A   1      42.840  22.423  26.696  1.00  0.00     0.057 A 
ATOM     74  C   UNL A   1      41.486  22.274  27.090  1.00  0.00     0.134 A 
ATOM     75  C   UNL A   1      43.384  21.339  26.000  1.00  0.00     0.134 A 
ATOM     76  F   UNL A   1      40.830  23.272  27.708  1.00  0.00    -0.206 F 
ATOM     77  C   UNL A   1      40.788  21.071  26.961  1.00  0.00     0.040 A 
ATOM     78  C   UNL A   1      42.672  20.145  25.816  1.00  0.00     0.040 A 
ATOM     79  F   UNL A   1      44.647  21.350  25.560  1.00  0.00    -0.206 F 
ATOM     80  C   UNL A   1      41.394  19.989  26.343  1.00  0.00     0.006 A 
ENDBRANCH  59  73
BRANCH  60  81
ATOM     81  C   UNL A   1      44.706  32.293  29.932  1.00  0.00     0.057 A 
ATOM     82  C   UNL A   1      45.995  32.820  30.037  1.00  0.00     0.134 A 
ATOM     83  C   UNL A   1      43.695  33.297  29.846  1.00  0.00     0.134 A 
ATOM     84  F   UNL A   1      47.048  32.033  30.284  1.00  0.00    -0.206 F 
ATOM     85  C   UNL A   1      46.262  34.205  29.927  1.00  0.00     0.040 A 
ATOM     86  C   UNL A   1      43.945  34.665  29.691  1.00  0.00     0.040 A 
ATOM     87  F   UNL A   1      42.390  33.004  29.918  1.00  0.00    -0.206 F 
ATOM     88  C   UNL A   1      45.242  35.127  29.707  1.00  0.00     0.006 A 
ENDBRANCH  60  81
BRANCH  72  89
ATOM     89  C   UNL A   1      41.321  27.749  27.706  1.00  0.00     0.057 A 
ATOM     90  C   UNL A   1      40.205  28.474  27.271  1.00  0.00     0.134 A 
ATOM     91  C   UNL A   1      41.146  27.030  28.898  1.00  0.00     0.134 A 
ATOM     92  F   UNL A   1      40.264  29.180  26.132  1.00  0.00    -0.206 F 
ATOM     93  C   UNL A   1      39.002  28.501  27.991  1.00  0.00     0.040 A 
ATOM     94  C   UNL A   1      39.950  27.039  29.629  1.00  0.00     0.040 A 
ATOM     95  F   UNL A   1      42.134  26.297  29.405  1.00  0.00    -0.206 F 
ATOM     96  C   UNL A   1      38.872  27.788  29.179  1.00  0.00     0.006 A 
ENDBRANCH  72  89
ENDBRANCH  46  47
ENDBRANCH  38  41
ENDBRANCH  36  37
ENDBRANCH  35  36
ENDBRANCH  34  35
ENDBRANCH  33  34
ENDBRANCH   1  33
TORSDOF 18
ENDMDL
MODEL 3
REMARK VINA RESULT:      -9.0      4.079     10.306
REMARK SMILES N#C/C(=C\c1cccn1-c1cccc(C(=O)NCCCCCCNC(=O)c2ccc(-c3c4nc(c(-c5c(F)cccc5F)c5ccc([nH]5)c(-c5c(F)cccc5F)c5nc(c(-c6c(F)cccc6F)c6ccc3[nH]6)C=C5)C=C4)cc2)c1)C(=O)Nc1cccc(Cl)c1
REMARK SMILES IDX 19 1 18 2 17 3 15 4 16 5 14 7 10 8 11 9 81 10 12 11 13 12
REMARK SMILES IDX 9 13 5 14 6 15 7 16 8 17 4 18 3 19 2 20 1 21 82 22 83 23
REMARK SMILES IDX 84 24 85 26 86 27 91 28 87 29 89 30 88 31 90 32 20 33 21 34
REMARK SMILES IDX 22 35 23 36 24 37 25 38 26 40 27 41 28 42 80 43 29 44 79 45
REMARK SMILES IDX 30 46 31 47 32 48 73 49 33 50 78 51 72 52 74 53 34 54 77 55
REMARK SMILES IDX 71 56 70 57 35 59 61 60 44 61 60 62 45 63 48 64 59 65 75 66
REMARK SMILES IDX 46 67 47 68 58 70 76 71 49 72 36 73 37 74 42 75 38 76 39 77
REMARK SMILES IDX 41 78 43 79 40 80 62 81 63 82 68 83 64 84 65 85 67 86 69 87
REMARK SMILES IDX 66 88 50 89 51 90 56 91 52 92 53 93 55 94 57 95 54 96
REMARK H PARENT 17 6 84 25 24 39 74 58 48 69
REMARK Flexibility Score: inf
ROOT
ATOM      1  C   UNL A   1      45.749  31.660  34.245  1.00  0.00     0.021 C 
ENDROOT
BRANCH   1   2
ATOM      2  C   UNL A   1      44.318  31.964  33.828  1.00  0.00     0.116 C 
BRANCH   2   3
ATOM      3  N   UNL A   1      43.295  31.089  34.388  1.00  0.00    -0.352 N 
ATOM      4  C   UNL A   1      42.148  30.534  33.848  1.00  0.00     0.251 C 
ATOM      5  O   UNL A   1      41.460  29.801  34.557  1.00  0.00    -0.269 OA
ATOM      6  H   UNL A   1      43.450  30.847  35.331  1.00  0.00     0.163 HD
BRANCH   4   7
ATOM      7  C   UNL A   1      41.684  30.824  32.459  1.00  0.00     0.041 A 
ATOM      8  C   UNL A   1      40.769  30.027  30.351  1.00  0.00     0.046 A 
ATOM      9  C   UNL A   1      41.161  31.220  29.735  1.00  0.00     0.026 A 
ATOM     10  C   UNL A   1      40.932  29.906  31.733  1.00  0.00     0.040 A 
ATOM     11  C   UNL A   1      41.753  32.236  30.490  1.00  0.00     0.003 A 
ATOM     12  C   UNL A   1      42.049  32.024  31.841  1.00  0.00     0.014 A 
BRANCH   8  13
ATOM     13  N   UNL A   1      40.381  28.884  29.572  1.00  0.00    -0.317 N 
ATOM     14  C   UNL A   1      39.217  28.662  28.806  1.00  0.00     0.047 A 
ATOM     15  C   UNL A   1      39.243  27.331  28.405  1.00  0.00     0.028 A 
ATOM     16  C   UNL A   1      40.391  26.718  28.935  1.00  0.00     0.020 A 
ATOM     17  C   UNL A   1      41.086  27.689  29.608  1.00  0.00     0.092 A 
BRANCH  14  18
ATOM     18  C   UNL A   1      38.338  29.740  28.448  1.00  0.00     0.052 C 
ATOM     19  C   UNL A   1      37.216  30.142  29.095  1.00  0.00     0.119 C 
BRANCH  19  20
ATOM     20  C   UNL A   1      37.084  29.590  30.505  1.00  0.00     0.105 C 
ATOM     21  N   UNL A   1      36.974  29.133  31.675  1.00  0.00    -0.192 NA
ENDBRANCH  19  20
BRANCH  19  22
ATOM     22  C   UNL A   1      36.309  31.210  28.582  1.00  0.00     0.266 C 
ATOM     23  O   UNL A   1      35.653  30.994  27.561  1.00  0.00    -0.268 OA
ATOM     24  N   UNL A   1      36.078  32.392  29.264  1.00  0.00    -0.321 N 
ATOM     25  H   UNL A   1      35.344  32.932  28.893  1.00  0.00     0.170 HD
BRANCH  24  26
ATOM     26  C   UNL A   1      36.701  32.965  30.393  1.00  0.00     0.042 A 
ATOM     27  C   UNL A   1      38.042  33.346  30.258  1.00  0.00     0.026 A 
ATOM     28  C   UNL A   1      36.009  33.295  31.564  1.00  0.00     0.046 A 
ATOM     29  C   UNL A   1      38.632  34.190  31.205  1.00  0.00     0.004 A 
ATOM     30  C   UNL A   1      36.602  34.150  32.499  1.00  0.00     0.043 A 
ATOM     31  C   UNL A   1      37.900  34.619  32.311  1.00  0.00     0.020 A 
ATOM     32  Cl  UNL A   1      35.679  34.724  33.834  1.00  0.00    -0.084 Cl
ENDBRANCH  24  26
ENDBRANCH  19  22
ENDBRANCH  14  18
ENDBRANCH   8  13
ENDBRANCH   4   7
ENDBRANCH   2   3
ENDBRANCH   1   2
BRANCH   1  33
ATOM     33  C   UNL A   1      46.144  30.191  34.336  1.00  0.00     0.002 C 
BRANCH  33  34
ATOM     34  C   UNL A   1      47.183  29.825  35.401  1.00  0.00     0.002 C 
BRANCH  34  35
ATOM     35  C   UNL A   1      46.650  29.261  36.728  1.00  0.00     0.021 C 
BRANCH  35  36
ATOM     36  C   UNL A   1      45.127  29.293  36.887  1.00  0.00     0.116 C 
BRANCH  36  37
ATOM     37  N   UNL A   1      44.618  28.017  37.357  1.00  0.00    -0.352 N 
ATOM     38  C   UNL A   1      44.028  26.982  36.679  1.00  0.00     0.251 C 
ATOM     39  H   UNL A   1      44.712  27.872  38.326  1.00  0.00     0.163 HD
ATOM     40  O   UNL A   1      43.358  26.176  37.316  1.00  0.00    -0.269 OA
BRANCH  38  41
ATOM     41  C   UNL A   1      44.167  26.799  35.215  1.00  0.00     0.039 A 
ATOM     42  C   UNL A   1      43.016  26.994  34.436  1.00  0.00     0.014 A 
ATOM     43  C   UNL A   1      45.339  26.332  34.610  1.00  0.00     0.014 A 
ATOM     44  C   UNL A   1      43.053  26.778  33.062  1.00  0.00     0.010 A 
ATOM     45  C   UNL A   1      45.387  26.129  33.229  1.00  0.00     0.010 A 
ATOM     46  C   UNL A   1      44.250  26.375  32.453  1.00  0.00    -0.014 A 
BRANCH  46  47
ATOM     47  C   UNL A   1      44.334  26.482  30.975  1.00  0.00     0.031 A 
ATOM     48  C   UNL A   1      44.501  27.965  30.557  1.00  0.00     0.074 A 
ATOM     49  C   UNL A   1      44.195  25.333  30.243  1.00  0.00     0.049 A 
ATOM     50  N   UNL A   1      44.074  28.604  29.512  1.00  0.00    -0.248 NA
ATOM     51  C   UNL A   1      45.181  28.898  31.503  1.00  0.00     0.031 C 
ATOM     52  C   UNL A   1      44.120  23.973  30.819  1.00  0.00     0.029 A 
ATOM     53  N   UNL A   1      44.084  25.053  28.890  1.00  0.00    -0.354 N 
ATOM     54  C   UNL A   1      44.601  29.919  29.570  1.00  0.00     0.074 A 
ATOM     55  C   UNL A   1      45.147  30.076  30.880  1.00  0.00     0.031 C 
ATOM     56  C   UNL A   1      43.889  23.048  29.861  1.00  0.00     0.029 A 
ATOM     57  C   UNL A   1      43.789  23.696  28.568  1.00  0.00     0.049 A 
ATOM     58  H   UNL A   1      44.201  25.745  28.199  1.00  0.00     0.167 HD
ATOM     59  C   UNL A   1      44.701  30.737  28.477  1.00  0.00     0.037 A 
ATOM     60  C   UNL A   1      43.433  23.146  27.360  1.00  0.00     0.037 A 
ATOM     61  C   UNL A   1      44.118  30.096  27.350  1.00  0.00     0.049 A 
ATOM     62  C   UNL A   1      43.556  24.242  26.392  1.00  0.00     0.074 A 
ATOM     63  C   UNL A   1      42.825  29.819  27.001  1.00  0.00     0.029 A 
ATOM     64  N   UNL A   1      44.968  29.337  26.585  1.00  0.00    -0.354 N 
ATOM     65  N   UNL A   1      44.681  24.706  25.941  1.00  0.00    -0.248 NA
ATOM     66  C   UNL A   1      42.339  24.952  25.977  1.00  0.00     0.031 C 
ATOM     67  C   UNL A   1      42.924  28.552  26.392  1.00  0.00     0.029 A 
ATOM     68  C   UNL A   1      44.271  28.228  26.186  1.00  0.00     0.049 A 
ATOM     69  H   UNL A   1      45.904  29.550  26.366  1.00  0.00     0.167 HD
ATOM     70  C   UNL A   1      44.315  25.950  25.488  1.00  0.00     0.074 A 
ATOM     71  C   UNL A   1      42.895  25.897  25.225  1.00  0.00     0.031 C 
ATOM     72  C   UNL A   1      45.025  27.039  25.872  1.00  0.00     0.037 A 
BRANCH  59  73
ATOM     73  C   UNL A   1      45.540  31.959  28.195  1.00  0.00     0.057 A 
ATOM     74  C   UNL A   1      44.877  33.128  27.744  1.00  0.00     0.134 A 
ATOM     75  C   UNL A   1      46.918  31.923  27.963  1.00  0.00     0.134 A 
ATOM     76  F   UNL A   1      43.565  33.312  27.967  1.00  0.00    -0.206 F 
ATOM     77  C   UNL A   1      45.507  34.101  26.963  1.00  0.00     0.040 A 
ATOM     78  C   UNL A   1      47.571  32.923  27.226  1.00  0.00     0.040 A 
ATOM     79  F   UNL A   1      47.668  30.884  28.346  1.00  0.00    -0.206 F 
ATOM     80  C   UNL A   1      46.858  33.984  26.679  1.00  0.00     0.006 A 
ENDBRANCH  59  73
BRANCH  60  81
ATOM     81  C   UNL A   1      42.880  21.839  26.820  1.00  0.00     0.057 A 
ATOM     82  C   UNL A   1      43.486  21.011  25.873  1.00  0.00     0.134 A 
ATOM     83  C   UNL A   1      41.645  21.318  27.311  1.00  0.00     0.134 A 
ATOM     84  F   UNL A   1      44.565  21.411  25.192  1.00  0.00    -0.206 F 
ATOM     85  C   UNL A   1      42.984  19.728  25.551  1.00  0.00     0.040 A 
ATOM     86  C   UNL A   1      41.159  20.035  27.038  1.00  0.00     0.040 A 
ATOM     87  F   UNL A   1      40.825  22.039  28.088  1.00  0.00    -0.206 F 
ATOM     88  C   UNL A   1      41.844  19.218  26.167  1.00  0.00     0.006 A 
ENDBRANCH  60  81
BRANCH  72  89
ATOM     89  C   UNL A   1      46.453  26.740  26.292  1.00  0.00     0.057 A 
ATOM     90  C   UNL A   1      47.383  26.300  25.342  1.00  0.00     0.134 A 
ATOM     91  C   UNL A   1      46.908  26.754  27.619  1.00  0.00     0.134 A 
ATOM     92  F   UNL A   1      47.052  26.267  24.042  1.00  0.00    -0.206 F 
ATOM     93  C   UNL A   1      48.673  25.879  25.695  1.00  0.00     0.040 A 
ATOM     94  C   UNL A   1      48.195  26.343  27.992  1.00  0.00     0.040 A 
ATOM     95  F   UNL A   1      46.115  27.160  28.608  1.00  0.00    -0.206 F 
ATOM     96  C   UNL A   1      49.083  25.892  27.025  1.00  0.00     0.006 A 
ENDBRANCH  72  89
ENDBRANCH  46  47
ENDBRANCH  38  41
ENDBRANCH  36  37
ENDBRANCH  35  36
ENDBRANCH  34  35
ENDBRANCH  33  34
ENDBRANCH   1  33
TORSDOF 18
ENDMDL
