MODEL 1
REMARK VINA RESULT:     -13.7      0.000      0.000
REMARK SMILES Cc1c(NC(=O)c2cccc(-c3cc4ccccc4oc3=O)c2)cccc1C(=O)NCCCCCCNC(=O)c1ccc(-c2c3nc(c(-c4c(F)cccc4F)c4ccc([nH]4)c(-c4c(F)cccc4F)c4nc(c(-c5c(F)cccc5F)c5ccc2[nH]5)C=C4)C=C3)cc1
REMARK SMILES IDX 33 1 32 2 31 3 30 4 28 5 29 6 27 8 1 9 2 10 3 11 24 12 26 13
REMARK SMILES IDX 25 14 4 15 5 16 6 18 7 19 8 20 23 21 9 22 11 23 10 24 12 25
REMARK SMILES IDX 13 26 21 27 14 28 20 29 22 30 15 31 19 32 16 33 18 34 17 35
REMARK SMILES IDX 34 36 35 37 36 38 37 39 38 40 39 42 40 43 41 44 93 45 42 46
REMARK SMILES IDX 92 47 43 48 44 49 45 50 86 51 46 52 91 53 85 54 87 55 47 56
REMARK SMILES IDX 90 57 84 58 83 59 48 61 74 62 57 63 73 64 58 65 61 66 72 67
REMARK SMILES IDX 88 68 59 69 60 70 71 72 89 73 62 74 49 75 50 76 55 77 51 78
REMARK SMILES IDX 52 79 54 80 56 81 53 82 75 83 76 84 81 85 77 86 78 87 80 88
REMARK SMILES IDX 82 89 79 90 63 91 64 92 69 93 65 94 66 95 68 96 70 97 67 98
REMARK H PARENT 30 7 4 17 37 41 87 60 61 71
REMARK Flexibility Score: inf
ROOT
ATOM      1  C   UNL A   1      37.634  22.358  25.057  1.00  0.00     0.002 C 
ENDROOT
BRANCH   1   2
ATOM      2  C   UNL A   1      37.471  20.844  24.868  1.00  0.00     0.021 C 
BRANCH   2   3
ATOM      3  C   UNL A   1      36.045  20.291  25.048  1.00  0.00     0.116 C 
BRANCH   3   4
ATOM      4  N   UNL A   1      35.344  21.038  26.073  1.00  0.00    -0.352 N 
ATOM      5  C   UNL A   1      34.287  21.901  26.136  1.00  0.00     0.251 C 
ATOM      6  O   UNL A   1      34.070  22.330  27.278  1.00  0.00    -0.269 OA
ATOM      7  H   UNL A   1      35.736  20.882  26.962  1.00  0.00     0.163 HD
BRANCH   5   8
ATOM      8  C   UNL A   1      33.363  22.366  25.040  1.00  0.00     0.044 A 
ATOM      9  C   UNL A   1      35.043  23.291  23.330  1.00  0.00     0.047 C 
ATOM     10  C   UNL A   1      33.651  22.990  23.802  1.00  0.00    -0.015 A 
ATOM     11  C   UNL A   1      32.573  23.477  23.000  1.00  0.00     0.045 A 
ATOM     12  C   UNL A   1      31.250  23.393  23.440  1.00  0.00     0.026 A 
ATOM     13  C   UNL A   1      32.003  22.298  25.437  1.00  0.00     0.014 A 
ATOM     14  C   UNL A   1      30.965  22.814  24.663  1.00  0.00     0.003 A 
BRANCH  11  15
ATOM     15  N   UNL A   1      32.852  24.034  21.735  1.00  0.00    -0.322 N 
ATOM     16  C   UNL A   1      32.878  25.343  21.303  1.00  0.00     0.255 C 
ATOM     17  H   UNL A   1      33.066  23.373  21.038  1.00  0.00     0.170 HD
ATOM     18  O   UNL A   1      32.789  25.572  20.096  1.00  0.00    -0.269 OA
BRANCH  16  19
ATOM     19  C   UNL A   1      33.172  26.477  22.229  1.00  0.00     0.040 A 
ATOM     20  C   UNL A   1      33.820  27.608  21.720  1.00  0.00     0.014 A 
ATOM     21  C   UNL A   1      32.968  26.375  23.611  1.00  0.00     0.022 A 
ATOM     22  C   UNL A   1      34.219  28.635  22.577  1.00  0.00     0.001 A 
ATOM     23  C   UNL A   1      33.356  27.402  24.486  1.00  0.00    -0.010 A 
ATOM     24  C   UNL A   1      33.983  28.535  23.950  1.00  0.00     0.009 A 
BRANCH  23  25
ATOM     25  C   UNL A   1      33.258  27.283  25.966  1.00  0.00     0.068 A 
ATOM     26  C   UNL A   1      34.092  27.936  26.806  1.00  0.00     0.028 A 
ATOM     27  C   UNL A   1      31.853  27.310  26.485  1.00  0.00     0.344 A 
ATOM     28  C   UNL A   1      33.664  29.328  27.076  1.00  0.00     0.018 A 
ATOM     29  O   UNL A   1      31.369  28.598  26.720  1.00  0.00    -0.422 OA
ATOM     30  O   UNL A   1      31.169  26.300  26.590  1.00  0.00    -0.246 OA
ATOM     31  C   UNL A   1      34.560  30.335  27.416  1.00  0.00     0.012 A 
ATOM     32  C   UNL A   1      32.305  29.634  26.930  1.00  0.00     0.138 A 
ATOM     33  C   UNL A   1      34.092  31.645  27.556  1.00  0.00     0.001 A 
ATOM     34  C   UNL A   1      31.840  30.939  27.019  1.00  0.00     0.048 A 
ATOM     35  C   UNL A   1      32.746  31.952  27.324  1.00  0.00     0.004 A 
ENDBRANCH  23  25
ENDBRANCH  16  19
ENDBRANCH  11  15
ENDBRANCH   5   8
ENDBRANCH   3   4
ENDBRANCH   2   3
ENDBRANCH   1   2
BRANCH   1  36
ATOM     36  C   UNL A   1      38.609  22.813  26.155  1.00  0.00     0.002 C 
BRANCH  36  37
ATOM     37  C   UNL A   1      39.698  21.809  26.540  1.00  0.00     0.021 C 
BRANCH  37  38
ATOM     38  C   UNL A   1      40.897  22.438  27.241  1.00  0.00     0.116 C 
BRANCH  38  39
ATOM     39  N   UNL A   1      41.872  23.012  26.320  1.00  0.00    -0.352 N 
ATOM     40  C   UNL A   1      42.068  24.327  25.952  1.00  0.00     0.251 C 
ATOM     41  H   UNL A   1      42.481  22.364  25.898  1.00  0.00     0.163 HD
ATOM     42  O   UNL A   1      42.943  24.612  25.135  1.00  0.00    -0.269 OA
BRANCH  40  43
ATOM     43  C   UNL A   1      41.315  25.406  26.632  1.00  0.00     0.039 A 
ATOM     44  C   UNL A   1      41.227  26.649  25.994  1.00  0.00     0.014 A 
ATOM     45  C   UNL A   1      40.854  25.256  27.938  1.00  0.00     0.014 A 
ATOM     46  C   UNL A   1      40.907  27.781  26.741  1.00  0.00     0.010 A 
ATOM     47  C   UNL A   1      40.615  26.386  28.699  1.00  0.00     0.010 A 
ATOM     48  C   UNL A   1      40.711  27.652  28.116  1.00  0.00    -0.014 A 
BRANCH  48  49
ATOM     49  C   UNL A   1      40.726  28.788  29.031  1.00  0.00     0.031 A 
ATOM     50  C   UNL A   1      39.574  29.708  29.121  1.00  0.00     0.074 A 
ATOM     51  C   UNL A   1      41.796  28.968  29.837  1.00  0.00     0.049 A 
ATOM     52  N   UNL A   1      39.645  30.916  29.572  1.00  0.00    -0.248 NA
ATOM     53  C   UNL A   1      38.240  29.336  28.669  1.00  0.00     0.031 C 
ATOM     54  C   UNL A   1      41.920  29.890  30.962  1.00  0.00     0.029 A 
ATOM     55  N   UNL A   1      43.100  28.498  29.626  1.00  0.00    -0.354 N 
ATOM     56  C   UNL A   1      38.363  31.402  29.683  1.00  0.00     0.074 A 
ATOM     57  C   UNL A   1      37.526  30.389  29.079  1.00  0.00     0.031 C 
ATOM     58  C   UNL A   1      43.221  30.166  31.147  1.00  0.00     0.029 A 
ATOM     59  C   UNL A   1      43.954  29.535  30.062  1.00  0.00     0.049 A 
ATOM     60  H   UNL A   1      43.364  27.626  29.253  1.00  0.00     0.167 HD
ATOM     61  C   UNL A   1      38.137  32.564  30.360  1.00  0.00     0.037 A 
ATOM     62  C   UNL A   1      44.771  30.180  29.180  1.00  0.00     0.037 A 
ATOM     63  C   UNL A   1      39.379  33.186  30.803  1.00  0.00     0.049 A 
ATOM     64  C   UNL A   1      44.509  31.664  29.040  1.00  0.00     0.074 A 
ATOM     65  C   UNL A   1      40.101  33.165  31.986  1.00  0.00     0.029 A 
ATOM     66  N   UNL A   1      40.216  33.740  29.853  1.00  0.00    -0.354 N 
ATOM     67  N   UNL A   1      43.520  32.295  29.609  1.00  0.00    -0.248 NA
ATOM     68  C   UNL A   1      45.292  32.535  28.159  1.00  0.00     0.031 C 
ATOM     69  C   UNL A   1      41.404  33.669  31.718  1.00  0.00     0.029 A 
ATOM     70  C   UNL A   1      41.467  34.002  30.378  1.00  0.00     0.049 A 
ATOM     71  H   UNL A   1      39.955  33.923  28.922  1.00  0.00     0.167 HD
ATOM     72  C   UNL A   1      43.488  33.584  29.151  1.00  0.00     0.074 A 
ATOM     73  C   UNL A   1      44.621  33.695  28.254  1.00  0.00     0.031 C 
ATOM     74  C   UNL A   1      42.515  34.470  29.494  1.00  0.00     0.037 A 
BRANCH  61  75
ATOM     75  C   UNL A   1      36.771  33.015  30.804  1.00  0.00     0.057 A 
ATOM     76  C   UNL A   1      35.942  33.759  29.943  1.00  0.00     0.134 A 
ATOM     77  C   UNL A   1      36.231  32.783  32.080  1.00  0.00     0.134 A 
ATOM     78  F   UNL A   1      36.274  33.982  28.665  1.00  0.00    -0.206 F 
ATOM     79  C   UNL A   1      34.729  34.325  30.357  1.00  0.00     0.040 A 
ATOM     80  C   UNL A   1      35.048  33.391  32.527  1.00  0.00     0.040 A 
ATOM     81  F   UNL A   1      36.803  31.921  32.933  1.00  0.00    -0.206 F 
ATOM     82  C   UNL A   1      34.299  34.179  31.666  1.00  0.00     0.006 A 
ENDBRANCH  61  75
BRANCH  62  83
ATOM     83  C   UNL A   1      45.253  29.302  28.081  1.00  0.00     0.057 A 
ATOM     84  C   UNL A   1      46.322  28.422  28.334  1.00  0.00     0.134 A 
ATOM     85  C   UNL A   1      44.492  29.066  26.935  1.00  0.00     0.134 A 
ATOM     86  F   UNL A   1      47.095  28.591  29.419  1.00  0.00    -0.206 F 
ATOM     87  C   UNL A   1      46.548  27.292  27.545  1.00  0.00     0.040 A 
ATOM     88  C   UNL A   1      44.721  27.947  26.127  1.00  0.00     0.040 A 
ATOM     89  F   UNL A   1      43.443  29.847  26.637  1.00  0.00    -0.206 F 
ATOM     90  C   UNL A   1      45.725  27.037  26.453  1.00  0.00     0.006 A 
ENDBRANCH  62  83
BRANCH  74  91
ATOM     91  C   UNL A   1      42.506  35.878  29.001  1.00  0.00     0.057 A 
ATOM     92  C   UNL A   1      41.815  36.247  27.840  1.00  0.00     0.134 A 
ATOM     93  C   UNL A   1      43.292  36.871  29.607  1.00  0.00     0.134 A 
ATOM     94  F   UNL A   1      41.059  35.356  27.180  1.00  0.00    -0.206 F 
ATOM     95  C   UNL A   1      41.895  37.539  27.314  1.00  0.00     0.040 A 
ATOM     96  C   UNL A   1      43.408  38.155  29.072  1.00  0.00     0.040 A 
ATOM     97  F   UNL A   1      43.960  36.629  30.746  1.00  0.00    -0.206 F 
ATOM     98  C   UNL A   1      42.706  38.494  27.922  1.00  0.00     0.006 A 
ENDBRANCH  74  91
ENDBRANCH  48  49
ENDBRANCH  40  43
ENDBRANCH  38  39
ENDBRANCH  37  38
ENDBRANCH  36  37
ENDBRANCH   1  36
TORSDOF 16
ENDMDL
MODEL 2
REMARK VINA RESULT:     -13.6      3.606      9.229
REMARK SMILES Cc1c(NC(=O)c2cccc(-c3cc4ccccc4oc3=O)c2)cccc1C(=O)NCCCCCCNC(=O)c1ccc(-c2c3nc(c(-c4c(F)cccc4F)c4ccc([nH]4)c(-c4c(F)cccc4F)c4nc(c(-c5c(F)cccc5F)c5ccc2[nH]5)C=C4)C=C3)cc1
REMARK SMILES IDX 33 1 32 2 31 3 30 4 28 5 29 6 27 8 1 9 2 10 3 11 24 12 26 13
REMARK SMILES IDX 25 14 4 15 5 16 6 18 7 19 8 20 23 21 9 22 11 23 10 24 12 25
REMARK SMILES IDX 13 26 21 27 14 28 20 29 22 30 15 31 19 32 16 33 18 34 17 35
REMARK SMILES IDX 34 36 35 37 36 38 37 39 38 40 39 42 40 43 41 44 93 45 42 46
REMARK SMILES IDX 92 47 43 48 44 49 45 50 86 51 46 52 91 53 85 54 87 55 47 56
REMARK SMILES IDX 90 57 84 58 83 59 48 61 74 62 57 63 73 64 58 65 61 66 72 67
REMARK SMILES IDX 88 68 59 69 60 70 71 72 89 73 62 74 49 75 50 76 55 77 51 78
REMARK SMILES IDX 52 79 54 80 56 81 53 82 75 83 76 84 81 85 77 86 78 87 80 88
REMARK SMILES IDX 82 89 79 90 63 91 64 92 69 93 65 94 66 95 68 96 70 97 67 98
REMARK H PARENT 30 7 4 17 37 41 87 60 61 71
REMARK Flexibility Score: inf
ROOT
ATOM      1  C   UNL A   1      33.906  29.920  27.152  1.00  0.00     0.002 C 
ENDROOT
BRANCH   1   2
ATOM      2  C   UNL A   1      32.425  30.320  27.116  1.00  0.00     0.021 C 
BRANCH   2   3
ATOM      3  C   UNL A   1      31.774  30.372  25.722  1.00  0.00     0.116 C 
BRANCH   3   4
ATOM      4  N   UNL A   1      32.631  29.731  24.745  1.00  0.00    -0.352 N 
ATOM      5  C   UNL A   1      32.702  28.520  24.117  1.00  0.00     0.251 C 
ATOM      6  O   UNL A   1      33.675  28.417  23.356  1.00  0.00    -0.269 OA
ATOM      7  H   UNL A   1      33.357  30.329  24.457  1.00  0.00     0.163 HD
BRANCH   5   8
ATOM      8  C   UNL A   1      31.770  27.339  24.204  1.00  0.00     0.044 A 
ATOM      9  C   UNL A   1      31.737  26.916  26.738  1.00  0.00     0.047 C 
ATOM     10  C   UNL A   1      31.331  26.600  25.329  1.00  0.00    -0.015 A 
ATOM     11  C   UNL A   1      30.559  25.414  25.126  1.00  0.00     0.045 A 
ATOM     12  C   UNL A   1      30.276  24.948  23.840  1.00  0.00     0.026 A 
ATOM     13  C   UNL A   1      31.448  26.828  22.921  1.00  0.00     0.014 A 
ATOM     14  C   UNL A   1      30.730  25.648  22.737  1.00  0.00     0.003 A 
BRANCH  11  15
ATOM     15  N   UNL A   1      30.060  24.715  26.245  1.00  0.00    -0.322 N 
ATOM     16  C   UNL A   1      30.505  23.574  26.877  1.00  0.00     0.255 C 
ATOM     17  H   UNL A   1      29.253  25.112  26.645  1.00  0.00     0.170 HD
ATOM     18  O   UNL A   1      29.723  22.950  27.595  1.00  0.00    -0.269 OA
BRANCH  16  19
ATOM     19  C   UNL A   1      31.940  23.161  26.850  1.00  0.00     0.040 A 
ATOM     20  C   UNL A   1      32.449  22.438  27.933  1.00  0.00     0.014 A 
ATOM     21  C   UNL A   1      32.821  23.614  25.859  1.00  0.00     0.022 A 
ATOM     22  C   UNL A   1      33.812  22.139  28.001  1.00  0.00     0.001 A 
ATOM     23  C   UNL A   1      34.192  23.316  25.908  1.00  0.00    -0.010 A 
ATOM     24  C   UNL A   1      34.675  22.570  26.991  1.00  0.00     0.009 A 
BRANCH  23  25
ATOM     25  C   UNL A   1      35.174  23.871  24.938  1.00  0.00     0.068 A 
ATOM     26  C   UNL A   1      36.331  24.454  25.325  1.00  0.00     0.028 A 
ATOM     27  C   UNL A   1      35.392  23.006  23.734  1.00  0.00     0.344 A 
ATOM     28  C   UNL A   1      37.413  23.475  25.577  1.00  0.00     0.018 A 
ATOM     29  O   UNL A   1      36.372  22.029  23.918  1.00  0.00    -0.422 OA
ATOM     30  O   UNL A   1      34.700  23.089  22.728  1.00  0.00    -0.246 OA
ATOM     31  C   UNL A   1      38.454  23.720  26.466  1.00  0.00     0.012 A 
ATOM     32  C   UNL A   1      37.342  22.239  24.922  1.00  0.00     0.138 A 
ATOM     33  C   UNL A   1      39.381  22.707  26.725  1.00  0.00     0.001 A 
ATOM     34  C   UNL A   1      38.230  21.211  25.210  1.00  0.00     0.048 A 
ATOM     35  C   UNL A   1      39.250  21.447  26.129  1.00  0.00     0.004 A 
ENDBRANCH  23  25
ENDBRANCH  16  19
ENDBRANCH  11  15
ENDBRANCH   5   8
ENDBRANCH   3   4
ENDBRANCH   2   3
ENDBRANCH   1   2
BRANCH   1  36
ATOM     36  C   UNL A   1      34.898  30.993  27.630  1.00  0.00     0.002 C 
BRANCH  36  37
ATOM     37  C   UNL A   1      34.284  32.202  28.339  1.00  0.00     0.021 C 
BRANCH  37  38
ATOM     38  C   UNL A   1      35.293  33.038  29.119  1.00  0.00     0.116 C 
BRANCH  38  39
ATOM     39  N   UNL A   1      35.286  32.766  30.552  1.00  0.00    -0.352 N 
ATOM     40  C   UNL A   1      35.945  31.788  31.267  1.00  0.00     0.251 C 
ATOM     41  H   UNL A   1      34.726  33.372  31.091  1.00  0.00     0.163 HD
ATOM     42  O   UNL A   1      35.794  31.711  32.486  1.00  0.00    -0.269 OA
BRANCH  40  43
ATOM     43  C   UNL A   1      36.930  30.914  30.590  1.00  0.00     0.039 A 
ATOM     44  C   UNL A   1      37.020  29.580  31.004  1.00  0.00     0.014 A 
ATOM     45  C   UNL A   1      37.862  31.431  29.693  1.00  0.00     0.014 A 
ATOM     46  C   UNL A   1      38.168  28.847  30.712  1.00  0.00     0.010 A 
ATOM     47  C   UNL A   1      39.037  30.737  29.470  1.00  0.00     0.010 A 
ATOM     48  C   UNL A   1      39.218  29.473  30.038  1.00  0.00    -0.014 A 
BRANCH  48  49
ATOM     49  C   UNL A   1      40.571  28.930  29.996  1.00  0.00     0.031 A 
ATOM     50  C   UNL A   1      40.856  27.648  29.321  1.00  0.00     0.074 A 
ATOM     51  C   UNL A   1      41.580  29.640  30.547  1.00  0.00     0.049 A 
ATOM     52  N   UNL A   1      41.889  26.913  29.568  1.00  0.00    -0.248 NA
ATOM     53  C   UNL A   1      39.963  27.075  28.322  1.00  0.00     0.031 C 
ATOM     54  C   UNL A   1      43.015  29.395  30.423  1.00  0.00     0.029 A 
ATOM     55  N   UNL A   1      41.479  30.610  31.553  1.00  0.00    -0.354 N 
ATOM     56  C   UNL A   1      41.925  25.906  28.631  1.00  0.00     0.074 A 
ATOM     57  C   UNL A   1      40.686  26.034  27.897  1.00  0.00     0.031 C 
ATOM     58  C   UNL A   1      43.632  29.929  31.488  1.00  0.00     0.029 A 
ATOM     59  C   UNL A   1      42.600  30.412  32.389  1.00  0.00     0.049 A 
ATOM     60  H   UNL A   1      40.772  31.289  31.655  1.00  0.00     0.167 HD
ATOM     61  C   UNL A   1      43.042  25.131  28.514  1.00  0.00     0.037 A 
ATOM     62  C   UNL A   1      42.439  30.026  33.688  1.00  0.00     0.037 A 
ATOM     63  C   UNL A   1      44.040  25.460  29.524  1.00  0.00     0.049 A 
ATOM     64  C   UNL A   1      43.063  28.691  34.035  1.00  0.00     0.074 A 
ATOM     65  C   UNL A   1      45.158  26.278  29.546  1.00  0.00     0.029 A 
ATOM     66  N   UNL A   1      43.781  25.130  30.841  1.00  0.00    -0.354 N 
ATOM     67  N   UNL A   1      43.618  27.889  33.169  1.00  0.00    -0.248 NA
ATOM     68  C   UNL A   1      43.018  28.113  35.380  1.00  0.00     0.031 C 
ATOM     69  C   UNL A   1      45.536  26.474  30.904  1.00  0.00     0.029 A 
ATOM     70  C   UNL A   1      44.653  25.770  31.700  1.00  0.00     0.049 A 
ATOM     71  H   UNL A   1      43.065  24.518  31.130  1.00  0.00     0.167 HD
ATOM     72  C   UNL A   1      43.938  26.713  33.789  1.00  0.00     0.074 A 
ATOM     73  C   UNL A   1      43.555  26.899  35.175  1.00  0.00     0.031 C 
ATOM     74  C   UNL A   1      44.452  25.640  33.129  1.00  0.00     0.037 A 
BRANCH  61  75
ATOM     75  C   UNL A   1      43.306  24.227  27.339  1.00  0.00     0.057 A 
ATOM     76  C   UNL A   1      43.894  24.727  26.162  1.00  0.00     0.134 A 
ATOM     77  C   UNL A   1      42.967  22.864  27.291  1.00  0.00     0.134 A 
ATOM     78  F   UNL A   1      44.357  25.981  26.084  1.00  0.00    -0.206 F 
ATOM     79  C   UNL A   1      44.025  23.964  24.995  1.00  0.00     0.040 A 
ATOM     80  C   UNL A   1      43.037  22.105  26.114  1.00  0.00     0.040 A 
ATOM     81  F   UNL A   1      42.596  22.199  28.394  1.00  0.00    -0.206 F 
ATOM     82  C   UNL A   1      43.556  22.661  24.954  1.00  0.00     0.006 A 
ENDBRANCH  61  75
BRANCH  62  83
ATOM     83  C   UNL A   1      41.200  30.563  34.308  1.00  0.00     0.057 A 
ATOM     84  C   UNL A   1      41.216  31.865  34.841  1.00  0.00     0.134 A 
ATOM     85  C   UNL A   1      39.950  29.982  34.087  1.00  0.00     0.134 A 
ATOM     86  F   UNL A   1      42.384  32.485  35.078  1.00  0.00    -0.206 F 
ATOM     87  C   UNL A   1      40.043  32.598  35.034  1.00  0.00     0.040 A 
ATOM     88  C   UNL A   1      38.767  30.699  34.295  1.00  0.00     0.040 A 
ATOM     89  F   UNL A   1      39.850  28.752  33.562  1.00  0.00    -0.206 F 
ATOM     90  C   UNL A   1      38.813  32.022  34.731  1.00  0.00     0.006 A 
ENDBRANCH  62  83
BRANCH  74  91
ATOM     91  C   UNL A   1      44.813  24.371  33.824  1.00  0.00     0.057 A 
ATOM     92  C   UNL A   1      46.146  23.976  33.992  1.00  0.00     0.134 A 
ATOM     93  C   UNL A   1      43.829  23.453  34.229  1.00  0.00     0.134 A 
ATOM     94  F   UNL A   1      47.151  24.779  33.611  1.00  0.00    -0.206 F 
ATOM     95  C   UNL A   1      46.484  22.737  34.543  1.00  0.00     0.040 A 
ATOM     96  C   UNL A   1      44.154  22.199  34.748  1.00  0.00     0.040 A 
ATOM     97  F   UNL A   1      42.524  23.752  34.146  1.00  0.00    -0.206 F 
ATOM     98  C   UNL A   1      45.487  21.838  34.908  1.00  0.00     0.006 A 
ENDBRANCH  74  91
ENDBRANCH  48  49
ENDBRANCH  40  43
ENDBRANCH  38  39
ENDBRANCH  37  38
ENDBRANCH  36  37
ENDBRANCH   1  36
TORSDOF 16
ENDMDL
MODEL 3
REMARK VINA RESULT:     -13.3      3.239      9.038
REMARK SMILES Cc1c(NC(=O)c2cccc(-c3cc4ccccc4oc3=O)c2)cccc1C(=O)NCCCCCCNC(=O)c1ccc(-c2c3nc(c(-c4c(F)cccc4F)c4ccc([nH]4)c(-c4c(F)cccc4F)c4nc(c(-c5c(F)cccc5F)c5ccc2[nH]5)C=C4)C=C3)cc1
REMARK SMILES IDX 33 1 32 2 31 3 30 4 28 5 29 6 27 8 1 9 2 10 3 11 24 12 26 13
REMARK SMILES IDX 25 14 4 15 5 16 6 18 7 19 8 20 23 21 9 22 11 23 10 24 12 25
REMARK SMILES IDX 13 26 21 27 14 28 20 29 22 30 15 31 19 32 16 33 18 34 17 35
REMARK SMILES IDX 34 36 35 37 36 38 37 39 38 40 39 42 40 43 41 44 93 45 42 46
REMARK SMILES IDX 92 47 43 48 44 49 45 50 86 51 46 52 91 53 85 54 87 55 47 56
REMARK SMILES IDX 90 57 84 58 83 59 48 61 74 62 57 63 73 64 58 65 61 66 72 67
REMARK SMILES IDX 88 68 59 69 60 70 71 72 89 73 62 74 49 75 50 76 55 77 51 78
REMARK SMILES IDX 52 79 54 80 56 81 53 82 75 83 76 84 81 85 77 86 78 87 80 88
REMARK SMILES IDX 82 89 79 90 63 91 64 92 69 93 65 94 66 95 68 96 70 97 67 98
REMARK H PARENT 30 7 4 17 37 41 87 60 61 71
REMARK Flexibility Score: inf
ROOT
ATOM      1  C   UNL A   1      33.011  31.086  27.061  1.00  0.00     0.002 C 
ENDROOT
BRANCH   1   2
ATOM      2  C   UNL A   1      31.641  31.521  26.524  1.00  0.00     0.021 C 
BRANCH   2   3
ATOM      3  C   UNL A   1      31.040  30.638  25.415  1.00  0.00     0.116 C 
BRANCH   3   4
ATOM      4  N   UNL A   1      32.095  30.034  24.628  1.00  0.00    -0.352 N 
ATOM      5  C   UNL A   1      32.391  28.796  24.132  1.00  0.00     0.251 C 
ATOM      6  O   UNL A   1      33.470  28.754  23.525  1.00  0.00    -0.269 OA
ATOM      7  H   UNL A   1      32.786  30.692  24.388  1.00  0.00     0.163 HD
BRANCH   5   8
ATOM      8  C   UNL A   1      31.591  27.520  24.201  1.00  0.00     0.044 A 
ATOM      9  C   UNL A   1      31.410  27.183  26.742  1.00  0.00     0.047 C 
ATOM     10  C   UNL A   1      31.151  26.775  25.321  1.00  0.00    -0.015 A 
ATOM     11  C   UNL A   1      30.534  25.502  25.113  1.00  0.00     0.045 A 
ATOM     12  C   UNL A   1      30.404  24.964  23.831  1.00  0.00     0.026 A 
ATOM     13  C   UNL A   1      31.428  26.932  22.921  1.00  0.00     0.014 A 
ATOM     14  C   UNL A   1      30.862  25.673  22.735  1.00  0.00     0.003 A 
BRANCH  11  15
ATOM     15  N   UNL A   1      30.030  24.790  26.221  1.00  0.00    -0.322 N 
ATOM     16  C   UNL A   1      30.476  23.646  26.845  1.00  0.00     0.255 C 
ATOM     17  H   UNL A   1      29.218  25.179  26.619  1.00  0.00     0.170 HD
ATOM     18  O   UNL A   1      29.691  23.010  27.551  1.00  0.00    -0.269 OA
BRANCH  16  19
ATOM     19  C   UNL A   1      31.913  23.240  26.825  1.00  0.00     0.040 A 
ATOM     20  C   UNL A   1      32.419  22.510  27.906  1.00  0.00     0.014 A 
ATOM     21  C   UNL A   1      32.798  23.706  25.844  1.00  0.00     0.022 A 
ATOM     22  C   UNL A   1      33.782  22.218  27.980  1.00  0.00     0.001 A 
ATOM     23  C   UNL A   1      34.171  23.414  25.900  1.00  0.00    -0.010 A 
ATOM     24  C   UNL A   1      34.650  22.662  26.981  1.00  0.00     0.009 A 
BRANCH  23  25
ATOM     25  C   UNL A   1      35.157  23.983  24.942  1.00  0.00     0.068 A 
ATOM     26  C   UNL A   1      36.322  24.541  25.340  1.00  0.00     0.028 A 
ATOM     27  C   UNL A   1      35.360  23.148  23.714  1.00  0.00     0.344 A 
ATOM     28  C   UNL A   1      37.392  23.542  25.563  1.00  0.00     0.018 A 
ATOM     29  O   UNL A   1      36.328  22.154  23.869  1.00  0.00    -0.422 OA
ATOM     30  O   UNL A   1      34.666  23.266  22.713  1.00  0.00    -0.246 OA
ATOM     31  C   UNL A   1      38.439  23.751  26.454  1.00  0.00     0.012 A 
ATOM     32  C   UNL A   1      37.304  22.325  24.875  1.00  0.00     0.138 A 
ATOM     33  C   UNL A   1      39.354  22.719  26.683  1.00  0.00     0.001 A 
ATOM     34  C   UNL A   1      38.180  21.279  25.132  1.00  0.00     0.048 A 
ATOM     35  C   UNL A   1      39.206  21.478  26.054  1.00  0.00     0.004 A 
ENDBRANCH  23  25
ENDBRANCH  16  19
ENDBRANCH  11  15
ENDBRANCH   5   8
ENDBRANCH   3   4
ENDBRANCH   2   3
ENDBRANCH   1   2
BRANCH   1  36
ATOM     36  C   UNL A   1      33.811  32.141  27.842  1.00  0.00     0.002 C 
BRANCH  36  37
ATOM     37  C   UNL A   1      33.112  33.485  28.056  1.00  0.00     0.021 C 
BRANCH  37  38
ATOM     38  C   UNL A   1      34.064  34.630  28.387  1.00  0.00     0.116 C 
BRANCH  38  39
ATOM     39  N   UNL A   1      34.223  34.858  29.819  1.00  0.00    -0.352 N 
ATOM     40  C   UNL A   1      35.024  34.204  30.731  1.00  0.00     0.251 C 
ATOM     41  H   UNL A   1      33.675  35.588  30.190  1.00  0.00     0.163 HD
ATOM     42  O   UNL A   1      35.002  34.537  31.916  1.00  0.00    -0.269 OA
BRANCH  40  43
ATOM     43  C   UNL A   1      36.000  33.192  30.268  1.00  0.00     0.039 A 
ATOM     44  C   UNL A   1      36.060  31.972  30.953  1.00  0.00     0.014 A 
ATOM     45  C   UNL A   1      36.953  33.495  29.297  1.00  0.00     0.014 A 
ATOM     46  C   UNL A   1      37.197  31.176  30.838  1.00  0.00     0.010 A 
ATOM     47  C   UNL A   1      38.116  32.750  29.242  1.00  0.00     0.010 A 
ATOM     48  C   UNL A   1      38.266  31.631  30.065  1.00  0.00    -0.014 A 
BRANCH  48  49
ATOM     49  C   UNL A   1      39.609  31.069  30.159  1.00  0.00     0.031 A 
ATOM     50  C   UNL A   1      39.955  29.806  29.477  1.00  0.00     0.074 A 
ATOM     51  C   UNL A   1      40.557  31.745  30.845  1.00  0.00     0.049 A 
ATOM     52  N   UNL A   1      40.945  29.047  29.815  1.00  0.00    -0.248 NA
ATOM     53  C   UNL A   1      39.176  29.279  28.364  1.00  0.00     0.031 C 
ATOM     54  C   UNL A   1      41.993  31.483  30.877  1.00  0.00     0.029 A 
ATOM     55  N   UNL A   1      40.352  32.684  31.866  1.00  0.00    -0.354 N 
ATOM     56  C   UNL A   1      41.076  28.071  28.855  1.00  0.00     0.074 A 
ATOM     57  C   UNL A   1      39.931  28.242  27.988  1.00  0.00     0.031 C 
ATOM     58  C   UNL A   1      42.491  31.972  32.024  1.00  0.00     0.029 A 
ATOM     59  C   UNL A   1      41.368  32.441  32.817  1.00  0.00     0.049 A 
ATOM     60  H   UNL A   1      39.646  33.369  31.910  1.00  0.00     0.167 HD
ATOM     61  C   UNL A   1      42.190  27.284  28.838  1.00  0.00     0.037 A 
ATOM     62  C   UNL A   1      41.055  32.015  34.075  1.00  0.00     0.037 A 
ATOM     63  C   UNL A   1      43.070  27.564  29.967  1.00  0.00     0.049 A 
ATOM     64  C   UNL A   1      41.620  30.660  34.445  1.00  0.00     0.074 A 
ATOM     65  C   UNL A   1      44.188  28.364  30.144  1.00  0.00     0.029 A 
ATOM     66  N   UNL A   1      42.659  27.195  31.233  1.00  0.00    -0.354 N 
ATOM     67  N   UNL A   1      42.261  29.879  33.621  1.00  0.00    -0.248 NA
ATOM     68  C   UNL A   1      41.415  30.039  35.756  1.00  0.00     0.031 C 
ATOM     69  C   UNL A   1      44.410  28.510  31.542  1.00  0.00     0.029 A 
ATOM     70  C   UNL A   1      43.434  27.794  32.208  1.00  0.00     0.049 A 
ATOM     71  H   UNL A   1      41.908  26.585  31.418  1.00  0.00     0.167 HD
ATOM     72  C   UNL A   1      42.495  28.678  34.233  1.00  0.00     0.074 A 
ATOM     73  C   UNL A   1      41.959  28.824  35.571  1.00  0.00     0.031 C 
ATOM     74  C   UNL A   1      43.070  27.620  33.599  1.00  0.00     0.037 A 
BRANCH  61  75
ATOM     75  C   UNL A   1      42.577  26.415  27.672  1.00  0.00     0.057 A 
ATOM     76  C   UNL A   1      43.293  26.947  26.582  1.00  0.00     0.134 A 
ATOM     77  C   UNL A   1      42.239  25.057  27.542  1.00  0.00     0.134 A 
ATOM     78  F   UNL A   1      43.768  28.198  26.596  1.00  0.00    -0.206 F 
ATOM     79  C   UNL A   1      43.547  26.220  25.412  1.00  0.00     0.040 A 
ATOM     80  C   UNL A   1      42.434  24.335  26.356  1.00  0.00     0.040 A 
ATOM     81  F   UNL A   1      41.746  24.360  28.576  1.00  0.00    -0.206 F 
ATOM     82  C   UNL A   1      43.079  24.922  25.278  1.00  0.00     0.006 A 
ENDBRANCH  61  75
BRANCH  62  83
ATOM     83  C   UNL A   1      39.759  32.550  34.568  1.00  0.00     0.057 A 
ATOM     84  C   UNL A   1      39.709  33.870  35.053  1.00  0.00     0.134 A 
ATOM     85  C   UNL A   1      38.542  31.938  34.263  1.00  0.00     0.134 A 
ATOM     86  F   UNL A   1      40.843  34.519  35.365  1.00  0.00    -0.206 F 
ATOM     87  C   UNL A   1      38.513  34.587  35.119  1.00  0.00     0.040 A 
ATOM     88  C   UNL A   1      37.334  32.640  34.344  1.00  0.00     0.040 A 
ATOM     89  F   UNL A   1      38.506  30.689  33.776  1.00  0.00    -0.206 F 
ATOM     90  C   UNL A   1      37.322  33.978  34.734  1.00  0.00     0.006 A 
ENDBRANCH  62  83
BRANCH  74  91
ATOM     91  C   UNL A   1      43.334  26.323  34.286  1.00  0.00     0.057 A 
ATOM     92  C   UNL A   1      42.304  25.575  34.869  1.00  0.00     0.134 A 
ATOM     93  C   UNL A   1      44.643  25.857  34.491  1.00  0.00     0.134 A 
ATOM     94  F   UNL A   1      41.024  25.960  34.747  1.00  0.00    -0.206 F 
ATOM     95  C   UNL A   1      42.561  24.418  35.609  1.00  0.00     0.040 A 
ATOM     96  C   UNL A   1      44.916  24.722  35.257  1.00  0.00     0.040 A 
ATOM     97  F   UNL A   1      45.697  26.480  33.941  1.00  0.00    -0.206 F 
ATOM     98  C   UNL A   1      43.871  23.996  35.818  1.00  0.00     0.006 A 
ENDBRANCH  74  91
ENDBRANCH  48  49
ENDBRANCH  40  43
ENDBRANCH  38  39
ENDBRANCH  37  38
ENDBRANCH  36  37
ENDBRANCH   1  36
TORSDOF 16
ENDMDL
