MODEL 1
REMARK VINA RESULT:     -13.4      0.000      0.000
REMARK SMILES COc1ccc(-c2cc(CC3(C(=O)NCCCCCCNC(=O)c4ccc(-c5c6nc(c(-c7c(F)cccc7F)c7ccc([nH]7)c(-c7c(F)cccc7F)c7nc(c(-c8c(F)cccc8F)c8ccc5[nH]8)C=C7)C=C6)cc4)CCN(C(=O)C4CCCC4)CC3)on2)cc1
REMARK SMILES IDX 16 1 15 2 14 3 12 4 13 5 11 7 78 8 89 9 79 10 88 11 80 12
REMARK SMILES IDX 81 13 82 14 10 15 9 16 7 17 8 18 91 19 90 20 6 21 3 22 4 23
REMARK SMILES IDX 93 24 5 25 92 26 2 27 1 28 83 29 84 30 87 31 85 32 86 33
REMARK SMILES IDX 17 34 18 35 19 36 20 37 21 38 22 39 23 41 24 42 25 43 77 44
REMARK SMILES IDX 26 45 76 46 27 47 28 48 29 49 70 50 30 51 75 52 69 53 71 54
REMARK SMILES IDX 31 55 74 56 68 57 67 58 32 60 58 61 41 62 57 63 42 64 45 65
REMARK SMILES IDX 56 66 72 67 43 68 44 69 55 71 73 72 46 73 33 74 34 75 39 76
REMARK SMILES IDX 35 77 36 78 38 79 40 80 37 81 59 82 60 83 65 84 61 85 62 86
REMARK SMILES IDX 64 87 66 88 63 89 47 90 48 91 53 92 49 93 50 94 52 95 54 96
REMARK SMILES IDX 51 97
REMARK H PARENT 14 6 21 40 71 59 45 70
REMARK Flexibility Score: inf
ROOT
ATOM      1  C   UNL A   1      33.793  29.156  26.084  1.00  0.00     0.021 C 
ENDROOT
BRANCH   1   2
ATOM      2  C   UNL A   1      33.112  28.059  25.275  1.00  0.00     0.116 C 
BRANCH   2   3
ATOM      3  N   UNL A   1      32.455  27.119  26.160  1.00  0.00    -0.356 N 
ATOM      4  C   UNL A   1      31.433  26.252  25.972  1.00  0.00     0.226 C 
ATOM      5  O   UNL A   1      31.112  25.599  26.971  1.00  0.00    -0.274 OA
ATOM      6  H   UNL A   1      32.822  27.110  27.073  1.00  0.00     0.163 HD
BRANCH   4   7
ATOM      7  C   UNL A   1      30.743  26.048  24.601  1.00  0.00     0.060 C 
ATOM      8  C   UNL A   1      29.201  26.088  24.784  1.00  0.00     0.039 C 
ATOM      9  C   UNL A   1      31.325  27.117  23.627  1.00  0.00     0.039 C 
ATOM     10  C   UNL A   1      28.426  26.658  23.599  1.00  0.00     0.120 C 
ATOM     11  C   UNL A   1      30.365  27.738  22.613  1.00  0.00     0.120 C 
ATOM     12  N   UNL A   1      29.019  27.905  23.133  1.00  0.00    -0.342 N 
ATOM     13  C   UNL A   1      28.202  29.022  23.048  1.00  0.00     0.225 C 
ATOM     14  O   UNL A   1      27.002  28.951  23.343  1.00  0.00    -0.275 OA
BRANCH   7  15
ATOM     15  C   UNL A   1      31.185  24.613  24.177  1.00  0.00     0.095 C 
BRANCH  15  16
ATOM     16  C   UNL A   1      32.637  24.352  24.140  1.00  0.00     0.138 A 
ATOM     17  C   UNL A   1      34.730  23.711  24.323  1.00  0.00     0.114 A 
ATOM     18  C   UNL A   1      33.520  23.823  25.044  1.00  0.00     0.077 A 
ATOM     19  N   UNL A   1      34.598  24.191  23.080  1.00  0.00    -0.080 NA
ATOM     20  O   UNL A   1      33.269  24.543  22.954  1.00  0.00    -0.361 OA
BRANCH  17  21
ATOM     21  C   UNL A   1      35.954  23.092  24.772  1.00  0.00     0.004 A 
ATOM     22  C   UNL A   1      38.313  21.856  25.593  1.00  0.00     0.118 A 
ATOM     23  C   UNL A   1      38.031  23.162  25.999  1.00  0.00     0.047 A 
ATOM     24  C   UNL A   1      37.399  21.151  24.810  1.00  0.00     0.047 A 
ATOM     25  C   UNL A   1      36.857  23.789  25.578  1.00  0.00     0.014 A 
ATOM     26  C   UNL A   1      36.221  21.770  24.397  1.00  0.00     0.014 A 
BRANCH  22  27
ATOM     27  O   UNL A   1      39.487  21.319  26.046  1.00  0.00    -0.497 OA
ATOM     28  C   UNL A   1      40.158  22.151  26.990  1.00  0.00     0.278 C 
ENDBRANCH  22  27
ENDBRANCH  17  21
ENDBRANCH  15  16
ENDBRANCH   7  15
BRANCH  13  29
ATOM     29  C   UNL A   1      28.739  30.402  22.680  1.00  0.00     0.078 C 
ATOM     30  C   UNL A   1      27.997  31.071  21.530  1.00  0.00     0.013 C 
ATOM     31  C   UNL A   1      28.851  31.457  23.776  1.00  0.00     0.013 C 
ATOM     32  C   UNL A   1      28.487  32.506  21.586  1.00  0.00     0.001 C 
ATOM     33  C   UNL A   1      28.662  32.805  23.072  1.00  0.00     0.001 C 
ENDBRANCH  13  29
ENDBRANCH   4   7
ENDBRANCH   2   3
ENDBRANCH   1   2
BRANCH   1  34
ATOM     34  C   UNL A   1      32.820  29.969  26.949  1.00  0.00     0.002 C 
BRANCH  34  35
ATOM     35  C   UNL A   1      31.705  30.673  26.169  1.00  0.00     0.002 C 
BRANCH  35  36
ATOM     36  C   UNL A   1      31.432  32.113  26.605  1.00  0.00     0.021 C 
BRANCH  36  37
ATOM     37  C   UNL A   1      32.595  32.780  27.328  1.00  0.00     0.116 C 
BRANCH  37  38
ATOM     38  N   UNL A   1      32.338  34.182  27.606  1.00  0.00    -0.352 N 
ATOM     39  C   UNL A   1      32.937  35.003  28.529  1.00  0.00     0.251 C 
ATOM     40  H   UNL A   1      31.637  34.601  27.057  1.00  0.00     0.163 HD
ATOM     41  O   UNL A   1      32.485  36.116  28.757  1.00  0.00    -0.269 OA
BRANCH  39  42
ATOM     42  C   UNL A   1      34.120  34.513  29.266  1.00  0.00     0.039 A 
ATOM     43  C   UNL A   1      33.938  33.957  30.533  1.00  0.00     0.014 A 
ATOM     44  C   UNL A   1      35.396  34.586  28.700  1.00  0.00     0.014 A 
ATOM     45  C   UNL A   1      35.034  33.424  31.212  1.00  0.00     0.010 A 
ATOM     46  C   UNL A   1      36.471  33.983  29.343  1.00  0.00     0.010 A 
ATOM     47  C   UNL A   1      36.302  33.400  30.608  1.00  0.00    -0.014 A 
BRANCH  47  48
ATOM     48  C   UNL A   1      37.462  32.773  31.287  1.00  0.00     0.031 A 
ATOM     49  C   UNL A   1      38.131  31.570  30.683  1.00  0.00     0.074 A 
ATOM     50  C   UNL A   1      37.878  33.255  32.475  1.00  0.00     0.049 A 
ATOM     51  N   UNL A   1      39.119  30.852  31.151  1.00  0.00    -0.248 NA
ATOM     52  C   UNL A   1      37.606  31.098  29.392  1.00  0.00     0.031 C 
ATOM     53  C   UNL A   1      37.283  34.389  33.185  1.00  0.00     0.029 A 
ATOM     54  N   UNL A   1      38.896  32.847  33.298  1.00  0.00    -0.354 N 
ATOM     55  C   UNL A   1      39.327  29.842  30.221  1.00  0.00     0.074 A 
ATOM     56  C   UNL A   1      38.325  30.004  29.189  1.00  0.00     0.031 C 
ATOM     57  C   UNL A   1      37.962  34.601  34.324  1.00  0.00     0.029 A 
ATOM     58  C   UNL A   1      39.010  33.594  34.447  1.00  0.00     0.049 A 
ATOM     59  H   UNL A   1      39.490  32.090  33.088  1.00  0.00     0.167 HD
ATOM     60  C   UNL A   1      40.281  28.882  30.212  1.00  0.00     0.037 A 
ATOM     61  C   UNL A   1      39.858  33.472  35.486  1.00  0.00     0.037 A 
ATOM     62  C   UNL A   1      41.286  28.733  31.233  1.00  0.00     0.049 A 
ATOM     63  C   UNL A   1      40.893  32.380  35.463  1.00  0.00     0.074 A 
ATOM     64  C   UNL A   1      42.327  27.823  31.290  1.00  0.00     0.029 A 
ATOM     65  N   UNL A   1      41.373  29.514  32.375  1.00  0.00    -0.354 N 
ATOM     66  N   UNL A   1      41.121  31.475  34.542  1.00  0.00    -0.248 NA
ATOM     67  C   UNL A   1      41.792  32.297  36.622  1.00  0.00     0.031 C 
ATOM     68  C   UNL A   1      43.012  28.019  32.493  1.00  0.00     0.029 A 
ATOM     69  C   UNL A   1      42.436  29.091  33.156  1.00  0.00     0.049 A 
ATOM     70  H   UNL A   1      40.769  30.259  32.598  1.00  0.00     0.167 HD
ATOM     71  C   UNL A   1      42.208  30.738  34.994  1.00  0.00     0.074 A 
ATOM     72  C   UNL A   1      42.604  31.313  36.263  1.00  0.00     0.031 C 
ATOM     73  C   UNL A   1      42.824  29.681  34.411  1.00  0.00     0.037 A 
BRANCH  60  74
ATOM     74  C   UNL A   1      40.290  27.918  29.061  1.00  0.00     0.057 A 
ATOM     75  C   UNL A   1      39.528  26.741  29.077  1.00  0.00     0.134 A 
ATOM     76  C   UNL A   1      41.029  28.190  27.903  1.00  0.00     0.134 A 
ATOM     77  F   UNL A   1      38.806  26.414  30.161  1.00  0.00    -0.206 F 
ATOM     78  C   UNL A   1      39.519  25.860  27.995  1.00  0.00     0.040 A 
ATOM     79  C   UNL A   1      41.005  27.332  26.803  1.00  0.00     0.040 A 
ATOM     80  F   UNL A   1      41.775  29.301  27.817  1.00  0.00    -0.206 F 
ATOM     81  C   UNL A   1      40.252  26.160  26.848  1.00  0.00     0.006 A 
ENDBRANCH  60  74
BRANCH  61  82
ATOM     82  C   UNL A   1      39.776  34.413  36.633  1.00  0.00     0.057 A 
ATOM     83  C   UNL A   1      40.453  35.638  36.614  1.00  0.00     0.134 A 
ATOM     84  C   UNL A   1      39.047  34.100  37.786  1.00  0.00     0.134 A 
ATOM     85  F   UNL A   1      41.185  35.988  35.546  1.00  0.00    -0.206 F 
ATOM     86  C   UNL A   1      40.433  36.504  37.708  1.00  0.00     0.040 A 
ATOM     87  C   UNL A   1      38.992  34.971  38.876  1.00  0.00     0.040 A 
ATOM     88  F   UNL A   1      38.366  32.947  37.866  1.00  0.00    -0.206 F 
ATOM     89  C   UNL A   1      39.698  36.172  38.844  1.00  0.00     0.006 A 
ENDBRANCH  61  82
BRANCH  73  90
ATOM     90  C   UNL A   1      44.019  29.106  35.116  1.00  0.00     0.057 A 
ATOM     91  C   UNL A   1      43.900  28.088  36.070  1.00  0.00     0.134 A 
ATOM     92  C   UNL A   1      45.311  29.551  34.803  1.00  0.00     0.134 A 
ATOM     93  F   UNL A   1      42.692  27.625  36.425  1.00  0.00    -0.206 F 
ATOM     94  C   UNL A   1      45.021  27.553  36.709  1.00  0.00     0.040 A 
ATOM     95  C   UNL A   1      46.440  29.003  35.411  1.00  0.00     0.040 A 
ATOM     96  F   UNL A   1      45.497  30.517  33.890  1.00  0.00    -0.206 F 
ATOM     97  C   UNL A   1      46.296  28.004  36.373  1.00  0.00     0.006 A 
ENDBRANCH  73  90
ENDBRANCH  47  48
ENDBRANCH  39  42
ENDBRANCH  37  38
ENDBRANCH  36  37
ENDBRANCH  35  36
ENDBRANCH  34  35
ENDBRANCH   1  34
TORSDOF 18
ENDMDL
MODEL 2
REMARK VINA RESULT:     -13.3      0.740      5.869
REMARK SMILES COc1ccc(-c2cc(CC3(C(=O)NCCCCCCNC(=O)c4ccc(-c5c6nc(c(-c7c(F)cccc7F)c7ccc([nH]7)c(-c7c(F)cccc7F)c7nc(c(-c8c(F)cccc8F)c8ccc5[nH]8)C=C7)C=C6)cc4)CCN(C(=O)C4CCCC4)CC3)on2)cc1
REMARK SMILES IDX 16 1 15 2 14 3 12 4 13 5 11 7 78 8 89 9 79 10 88 11 80 12
REMARK SMILES IDX 81 13 82 14 10 15 9 16 7 17 8 18 91 19 90 20 6 21 3 22 4 23
REMARK SMILES IDX 93 24 5 25 92 26 2 27 1 28 83 29 84 30 87 31 85 32 86 33
REMARK SMILES IDX 17 34 18 35 19 36 20 37 21 38 22 39 23 41 24 42 25 43 77 44
REMARK SMILES IDX 26 45 76 46 27 47 28 48 29 49 70 50 30 51 75 52 69 53 71 54
REMARK SMILES IDX 31 55 74 56 68 57 67 58 32 60 58 61 41 62 57 63 42 64 45 65
REMARK SMILES IDX 56 66 72 67 43 68 44 69 55 71 73 72 46 73 33 74 34 75 39 76
REMARK SMILES IDX 35 77 36 78 38 79 40 80 37 81 59 82 60 83 65 84 61 85 62 86
REMARK SMILES IDX 64 87 66 88 63 89 47 90 48 91 53 92 49 93 50 94 52 95 54 96
REMARK SMILES IDX 51 97
REMARK H PARENT 14 6 21 40 71 59 45 70
REMARK Flexibility Score: inf
ROOT
ATOM      1  C   UNL A   1      33.558  29.431  25.777  1.00  0.00     0.021 C 
ENDROOT
BRANCH   1   2
ATOM      2  C   UNL A   1      33.179  28.116  25.108  1.00  0.00     0.116 C 
BRANCH   2   3
ATOM      3  N   UNL A   1      32.527  27.240  26.059  1.00  0.00    -0.356 N 
ATOM      4  C   UNL A   1      31.478  26.392  25.948  1.00  0.00     0.226 C 
ATOM      5  O   UNL A   1      31.173  25.799  26.988  1.00  0.00    -0.274 OA
ATOM      6  H   UNL A   1      32.923  27.267  26.960  1.00  0.00     0.163 HD
BRANCH   4   7
ATOM      7  C   UNL A   1      30.740  26.137  24.610  1.00  0.00     0.060 C 
ATOM      8  C   UNL A   1      29.205  26.183  24.847  1.00  0.00     0.039 C 
ATOM      9  C   UNL A   1      31.284  27.171  23.578  1.00  0.00     0.039 C 
ATOM     10  C   UNL A   1      28.387  26.709  23.671  1.00  0.00     0.120 C 
ATOM     11  C   UNL A   1      30.287  27.754  22.578  1.00  0.00     0.120 C 
ATOM     12  N   UNL A   1      28.960  27.939  23.139  1.00  0.00    -0.342 N 
ATOM     13  C   UNL A   1      28.138  29.051  23.044  1.00  0.00     0.225 C 
ATOM     14  O   UNL A   1      26.949  28.989  23.384  1.00  0.00    -0.275 OA
BRANCH   7  15
ATOM     15  C   UNL A   1      31.169  24.688  24.223  1.00  0.00     0.095 C 
BRANCH  15  16
ATOM     16  C   UNL A   1      32.620  24.421  24.171  1.00  0.00     0.138 A 
ATOM     17  C   UNL A   1      34.711  23.766  24.330  1.00  0.00     0.114 A 
ATOM     18  C   UNL A   1      33.507  23.876  25.062  1.00  0.00     0.077 A 
ATOM     19  N   UNL A   1      34.571  24.262  23.094  1.00  0.00    -0.080 NA
ATOM     20  O   UNL A   1      33.244  24.622  22.983  1.00  0.00    -0.361 OA
BRANCH  17  21
ATOM     21  C   UNL A   1      35.935  23.135  24.762  1.00  0.00     0.004 A 
ATOM     22  C   UNL A   1      38.302  21.955  25.642  1.00  0.00     0.118 A 
ATOM     23  C   UNL A   1      37.479  21.280  24.738  1.00  0.00     0.047 A 
ATOM     24  C   UNL A   1      37.965  23.237  26.076  1.00  0.00     0.047 A 
ATOM     25  C   UNL A   1      36.285  21.862  24.306  1.00  0.00     0.014 A 
ATOM     26  C   UNL A   1      36.780  23.826  25.639  1.00  0.00     0.014 A 
BRANCH  22  27
ATOM     27  O   UNL A   1      39.448  21.311  26.018  1.00  0.00    -0.497 OA
ATOM     28  C   UNL A   1      40.475  22.201  26.452  1.00  0.00     0.278 C 
ENDBRANCH  22  27
ENDBRANCH  17  21
ENDBRANCH  15  16
ENDBRANCH   7  15
BRANCH  13  29
ATOM     29  C   UNL A   1      28.658  30.418  22.607  1.00  0.00     0.078 C 
ATOM     30  C   UNL A   1      27.948  30.992  21.389  1.00  0.00     0.013 C 
ATOM     31  C   UNL A   1      28.703  31.543  23.635  1.00  0.00     0.013 C 
ATOM     32  C   UNL A   1      28.403  32.439  21.369  1.00  0.00     0.001 C 
ATOM     33  C   UNL A   1      28.512  32.838  22.838  1.00  0.00     0.001 C 
ENDBRANCH  13  29
ENDBRANCH   4   7
ENDBRANCH   2   3
ENDBRANCH   1   2
BRANCH   1  34
ATOM     34  C   UNL A   1      32.461  29.986  26.696  1.00  0.00     0.002 C 
BRANCH  34  35
ATOM     35  C   UNL A   1      31.397  30.830  25.986  1.00  0.00     0.002 C 
BRANCH  35  36
ATOM     36  C   UNL A   1      31.232  32.246  26.538  1.00  0.00     0.021 C 
BRANCH  36  37
ATOM     37  C   UNL A   1      32.486  32.815  27.189  1.00  0.00     0.116 C 
BRANCH  37  38
ATOM     38  N   UNL A   1      32.315  34.199  27.596  1.00  0.00    -0.352 N 
ATOM     39  C   UNL A   1      32.987  34.904  28.563  1.00  0.00     0.251 C 
ATOM     40  H   UNL A   1      31.620  34.700  27.110  1.00  0.00     0.163 HD
ATOM     41  O   UNL A   1      32.604  36.015  28.901  1.00  0.00    -0.269 OA
BRANCH  39  42
ATOM     42  C   UNL A   1      34.164  34.291  29.211  1.00  0.00     0.039 A 
ATOM     43  C   UNL A   1      33.992  33.633  30.430  1.00  0.00     0.014 A 
ATOM     44  C   UNL A   1      35.424  34.352  28.609  1.00  0.00     0.014 A 
ATOM     45  C   UNL A   1      35.078  32.986  31.020  1.00  0.00     0.010 A 
ATOM     46  C   UNL A   1      36.485  33.640  29.158  1.00  0.00     0.010 A 
ATOM     47  C   UNL A   1      36.324  32.954  30.372  1.00  0.00    -0.014 A 
BRANCH  47  48
ATOM     48  C   UNL A   1      37.469  32.211  30.952  1.00  0.00     0.031 A 
ATOM     49  C   UNL A   1      37.972  32.552  32.328  1.00  0.00     0.074 A 
ATOM     50  C   UNL A   1      38.089  31.265  30.219  1.00  0.00     0.049 A 
ATOM     51  N   UNL A   1      38.990  32.056  32.981  1.00  0.00    -0.248 NA
ATOM     52  C   UNL A   1      37.248  33.607  33.056  1.00  0.00     0.031 C 
ATOM     53  C   UNL A   1      37.724  30.875  28.856  1.00  0.00     0.029 A 
ATOM     54  N   UNL A   1      39.164  30.466  30.516  1.00  0.00    -0.354 N 
ATOM     55  C   UNL A   1      39.035  32.741  34.189  1.00  0.00     0.074 A 
ATOM     56  C   UNL A   1      37.978  33.728  34.155  1.00  0.00     0.031 C 
ATOM     57  C   UNL A   1      38.543  29.894  28.444  1.00  0.00     0.029 A 
ATOM     58  C   UNL A   1      39.517  29.616  29.494  1.00  0.00     0.049 A 
ATOM     59  H   UNL A   1      39.638  30.497  31.378  1.00  0.00     0.167 HD
ATOM     60  C   UNL A   1      39.863  32.548  35.242  1.00  0.00     0.037 A 
ATOM     61  C   UNL A   1      40.521  28.722  29.411  1.00  0.00     0.037 A 
ATOM     62  C   UNL A   1      40.904  31.553  35.279  1.00  0.00     0.049 A 
ATOM     63  C   UNL A   1      41.444  28.546  30.587  1.00  0.00     0.074 A 
ATOM     64  C   UNL A   1      41.765  31.246  36.317  1.00  0.00     0.029 A 
ATOM     65  N   UNL A   1      41.225  30.707  34.228  1.00  0.00    -0.354 N 
ATOM     66  N   UNL A   1      41.430  29.153  31.749  1.00  0.00    -0.248 NA
ATOM     67  C   UNL A   1      42.519  27.555  30.441  1.00  0.00     0.031 C 
ATOM     68  C   UNL A   1      42.642  30.251  35.877  1.00  0.00     0.029 A 
ATOM     69  C   UNL A   1      42.288  29.894  34.586  1.00  0.00     0.049 A 
ATOM     70  H   UNL A   1      40.766  30.687  33.358  1.00  0.00     0.167 HD
ATOM     71  C   UNL A   1      42.469  28.595  32.482  1.00  0.00     0.074 A 
ATOM     72  C   UNL A   1      43.082  27.590  31.640  1.00  0.00     0.031 C 
ATOM     73  C   UNL A   1      42.879  28.889  33.740  1.00  0.00     0.037 A 
BRANCH  60  74
ATOM     74  C   UNL A   1      39.677  33.426  36.446  1.00  0.00     0.057 A 
ATOM     75  C   UNL A   1      38.818  33.070  37.494  1.00  0.00     0.134 A 
ATOM     76  C   UNL A   1      40.400  34.618  36.582  1.00  0.00     0.134 A 
ATOM     77  F   UNL A   1      38.087  31.946  37.422  1.00  0.00    -0.206 F 
ATOM     78  C   UNL A   1      38.668  33.876  38.623  1.00  0.00     0.040 A 
ATOM     79  C   UNL A   1      40.280  35.418  37.719  1.00  0.00     0.040 A 
ATOM     80  F   UNL A   1      41.244  35.016  35.619  1.00  0.00    -0.206 F 
ATOM     81  C   UNL A   1      39.408  35.051  38.742  1.00  0.00     0.006 A 
ENDBRANCH  60  74
BRANCH  61  82
ATOM     82  C   UNL A   1      40.704  27.914  28.178  1.00  0.00     0.057 A 
ATOM     83  C   UNL A   1      40.113  26.653  28.044  1.00  0.00     0.134 A 
ATOM     84  C   UNL A   1      41.497  28.367  27.117  1.00  0.00     0.134 A 
ATOM     85  F   UNL A   1      39.356  26.154  29.033  1.00  0.00    -0.206 F 
ATOM     86  C   UNL A   1      40.325  25.859  26.916  1.00  0.00     0.040 A 
ATOM     87  C   UNL A   1      41.694  27.598  25.969  1.00  0.00     0.040 A 
ATOM     88  F   UNL A   1      42.085  29.572  27.176  1.00  0.00    -0.206 F 
ATOM     89  C   UNL A   1      41.116  26.333  25.872  1.00  0.00     0.006 A 
ENDBRANCH  61  82
BRANCH  73  90
ATOM     90  C   UNL A   1      44.016  28.082  34.299  1.00  0.00     0.057 A 
ATOM     91  C   UNL A   1      45.346  28.510  34.209  1.00  0.00     0.134 A 
ATOM     92  C   UNL A   1      43.767  26.879  34.975  1.00  0.00     0.134 A 
ATOM     93  F   UNL A   1      45.654  29.645  33.564  1.00  0.00    -0.206 F 
ATOM     94  C   UNL A   1      46.392  27.756  34.745  1.00  0.00     0.040 A 
ATOM     95  C   UNL A   1      44.801  26.134  35.542  1.00  0.00     0.040 A 
ATOM     96  F   UNL A   1      42.515  26.418  35.107  1.00  0.00    -0.206 F 
ATOM     97  C   UNL A   1      46.120  26.568  35.421  1.00  0.00     0.006 A 
ENDBRANCH  73  90
ENDBRANCH  47  48
ENDBRANCH  39  42
ENDBRANCH  37  38
ENDBRANCH  36  37
ENDBRANCH  35  36
ENDBRANCH  34  35
ENDBRANCH   1  34
TORSDOF 18
ENDMDL
MODEL 3
REMARK VINA RESULT:     -12.9      4.415      7.987
REMARK SMILES COc1ccc(-c2cc(CC3(C(=O)NCCCCCCNC(=O)c4ccc(-c5c6nc(c(-c7c(F)cccc7F)c7ccc([nH]7)c(-c7c(F)cccc7F)c7nc(c(-c8c(F)cccc8F)c8ccc5[nH]8)C=C7)C=C6)cc4)CCN(C(=O)C4CCCC4)CC3)on2)cc1
REMARK SMILES IDX 16 1 15 2 14 3 12 4 13 5 11 7 78 8 89 9 79 10 88 11 80 12
REMARK SMILES IDX 81 13 82 14 10 15 9 16 7 17 8 18 91 19 90 20 6 21 3 22 4 23
REMARK SMILES IDX 93 24 5 25 92 26 2 27 1 28 83 29 84 30 87 31 85 32 86 33
REMARK SMILES IDX 17 34 18 35 19 36 20 37 21 38 22 39 23 41 24 42 25 43 77 44
REMARK SMILES IDX 26 45 76 46 27 47 28 48 29 49 70 50 30 51 75 52 69 53 71 54
REMARK SMILES IDX 31 55 74 56 68 57 67 58 32 60 58 61 41 62 57 63 42 64 45 65
REMARK SMILES IDX 56 66 72 67 43 68 44 69 55 71 73 72 46 73 33 74 34 75 39 76
REMARK SMILES IDX 35 77 36 78 38 79 40 80 37 81 59 82 60 83 65 84 61 85 62 86
REMARK SMILES IDX 64 87 66 88 63 89 47 90 48 91 53 92 49 93 50 94 52 95 54 96
REMARK SMILES IDX 51 97
REMARK H PARENT 14 6 21 40 71 59 45 70
REMARK Flexibility Score: inf
ROOT
ATOM      1  C   UNL A   1      35.067  30.431  27.829  1.00  0.00     0.021 C 
ENDROOT
BRANCH   1   2
ATOM      2  C   UNL A   1      34.466  29.298  27.007  1.00  0.00     0.116 C 
BRANCH   2   3
ATOM      3  N   UNL A   1      33.272  28.790  27.650  1.00  0.00    -0.356 N 
ATOM      4  C   UNL A   1      32.245  28.031  27.201  1.00  0.00     0.226 C 
ATOM      5  O   UNL A   1      31.367  27.793  28.036  1.00  0.00    -0.274 OA
ATOM      6  H   UNL A   1      33.192  29.046  28.598  1.00  0.00     0.163 HD
BRANCH   4   7
ATOM      7  C   UNL A   1      32.189  27.458  25.763  1.00  0.00     0.060 C 
ATOM      8  C   UNL A   1      30.818  26.764  25.533  1.00  0.00     0.039 C 
ATOM      9  C   UNL A   1      32.514  28.628  24.786  1.00  0.00     0.039 C 
ATOM     10  C   UNL A   1      30.291  26.838  24.103  1.00  0.00     0.120 C 
ATOM     11  C   UNL A   1      31.754  28.667  23.461  1.00  0.00     0.120 C 
ATOM     12  N   UNL A   1      30.386  28.193  23.576  1.00  0.00    -0.342 N 
ATOM     13  C   UNL A   1      29.234  28.778  23.074  1.00  0.00     0.225 C 
ATOM     14  O   UNL A   1      28.164  28.156  23.059  1.00  0.00    -0.275 OA
BRANCH   7  15
ATOM     15  C   UNL A   1      33.327  26.391  25.748  1.00  0.00     0.095 C 
BRANCH  15  16
ATOM     16  C   UNL A   1      32.908  24.977  25.686  1.00  0.00     0.138 A 
ATOM     17  C   UNL A   1      32.555  22.833  25.368  1.00  0.00     0.114 A 
ATOM     18  C   UNL A   1      33.040  23.999  24.736  1.00  0.00     0.077 A 
ATOM     19  N   UNL A   1      32.110  23.102  26.603  1.00  0.00    -0.080 NA
ATOM     20  O   UNL A   1      32.382  24.438  26.815  1.00  0.00    -0.361 OA
BRANCH  17  21
ATOM     21  C   UNL A   1      32.587  21.486  24.850  1.00  0.00     0.004 A 
ATOM     22  C   UNL A   1      32.652  18.908  23.793  1.00  0.00     0.118 A 
ATOM     23  C   UNL A   1      32.941  19.116  25.143  1.00  0.00     0.047 A 
ATOM     24  C   UNL A   1      32.291  19.981  22.977  1.00  0.00     0.047 A 
ATOM     25  C   UNL A   1      32.923  20.408  25.672  1.00  0.00     0.014 A 
ATOM     26  C   UNL A   1      32.262  21.270  23.505  1.00  0.00     0.014 A 
BRANCH  22  27
ATOM     27  O   UNL A   1      32.698  17.613  23.354  1.00  0.00    -0.497 OA
ATOM     28  C   UNL A   1      34.021  17.082  23.311  1.00  0.00     0.278 C 
ENDBRANCH  22  27
ENDBRANCH  17  21
ENDBRANCH  15  16
ENDBRANCH   7  15
BRANCH  13  29
ATOM     29  C   UNL A   1      29.192  30.228  22.599  1.00  0.00     0.078 C 
ATOM     30  C   UNL A   1      28.241  30.474  21.436  1.00  0.00     0.013 C 
ATOM     31  C   UNL A   1      28.896  31.321  23.622  1.00  0.00     0.013 C 
ATOM     32  C   UNL A   1      28.138  31.987  21.383  1.00  0.00     0.001 C 
ATOM     33  C   UNL A   1      28.195  32.437  22.840  1.00  0.00     0.001 C 
ENDBRANCH  13  29
ENDBRANCH   4   7
ENDBRANCH   2   3
ENDBRANCH   1   2
BRANCH   1  34
ATOM     34  C   UNL A   1      34.204  31.701  27.839  1.00  0.00     0.002 C 
BRANCH  34  35
ATOM     35  C   UNL A   1      34.897  32.941  28.413  1.00  0.00     0.002 C 
BRANCH  35  36
ATOM     36  C   UNL A   1      34.448  33.329  29.822  1.00  0.00     0.021 C 
BRANCH  36  37
ATOM     37  C   UNL A   1      34.757  32.286  30.888  1.00  0.00     0.116 C 
BRANCH  37  38
ATOM     38  N   UNL A   1      35.230  32.886  32.123  1.00  0.00    -0.352 N 
ATOM     39  C   UNL A   1      36.460  32.773  32.722  1.00  0.00     0.251 C 
ATOM     40  H   UNL A   1      34.578  33.452  32.596  1.00  0.00     0.163 HD
ATOM     41  O   UNL A   1      36.643  33.204  33.852  1.00  0.00    -0.269 OA
BRANCH  39  42
ATOM     42  C   UNL A   1      37.554  32.099  31.996  1.00  0.00     0.039 A 
ATOM     43  C   UNL A   1      37.721  32.364  30.635  1.00  0.00     0.014 A 
ATOM     44  C   UNL A   1      38.421  31.225  32.659  1.00  0.00     0.014 A 
ATOM     45  C   UNL A   1      38.794  31.794  29.951  1.00  0.00     0.010 A 
ATOM     46  C   UNL A   1      39.534  30.721  31.995  1.00  0.00     0.010 A 
ATOM     47  C   UNL A   1      39.729  30.996  30.632  1.00  0.00    -0.014 A 
BRANCH  47  48
ATOM     48  C   UNL A   1      40.913  30.440  29.934  1.00  0.00     0.031 A 
ATOM     49  C   UNL A   1      42.104  31.314  29.654  1.00  0.00     0.074 A 
ATOM     50  C   UNL A   1      40.894  29.162  29.506  1.00  0.00     0.049 A 
ATOM     51  N   UNL A   1      43.206  31.027  29.010  1.00  0.00    -0.248 NA
ATOM     52  C   UNL A   1      42.038  32.701  30.142  1.00  0.00     0.031 C 
ATOM     53  C   UNL A   1      39.781  28.227  29.679  1.00  0.00     0.029 A 
ATOM     54  N   UNL A   1      41.839  28.431  28.831  1.00  0.00    -0.354 N 
ATOM     55  C   UNL A   1      43.958  32.195  29.008  1.00  0.00     0.074 A 
ATOM     56  C   UNL A   1      43.164  33.211  29.663  1.00  0.00     0.031 C 
ATOM     57  C   UNL A   1      40.116  27.041  29.146  1.00  0.00     0.029 A 
ATOM     58  C   UNL A   1      41.447  27.142  28.558  1.00  0.00     0.049 A 
ATOM     59  H   UNL A   1      42.715  28.795  28.567  1.00  0.00     0.167 HD
ATOM     60  C   UNL A   1      45.207  32.396  28.528  1.00  0.00     0.037 A 
ATOM     61  C   UNL A   1      42.086  26.158  27.898  1.00  0.00     0.037 A 
ATOM     62  C   UNL A   1      46.002  31.378  27.890  1.00  0.00     0.049 A 
ATOM     63  C   UNL A   1      43.464  26.417  27.351  1.00  0.00     0.074 A 
ATOM     64  C   UNL A   1      47.297  31.470  27.414  1.00  0.00     0.029 A 
ATOM     65  N   UNL A   1      45.572  30.084  27.640  1.00  0.00    -0.354 N 
ATOM     66  N   UNL A   1      44.190  27.507  27.418  1.00  0.00    -0.248 NA
ATOM     67  C   UNL A   1      44.114  25.306  26.642  1.00  0.00     0.031 C 
ATOM     68  C   UNL A   1      47.634  30.247  26.827  1.00  0.00     0.029 A 
ATOM     69  C   UNL A   1      46.570  29.374  26.992  1.00  0.00     0.049 A 
ATOM     70  H   UNL A   1      44.690  29.723  27.885  1.00  0.00     0.167 HD
ATOM     71  C   UNL A   1      45.391  27.202  26.791  1.00  0.00     0.074 A 
ATOM     72  C   UNL A   1      45.303  25.821  26.366  1.00  0.00     0.031 C 
ATOM     73  C   UNL A   1      46.471  27.995  26.587  1.00  0.00     0.037 A 
BRANCH  60  74
ATOM     74  C   UNL A   1      45.798  33.769  28.676  1.00  0.00     0.057 A 
ATOM     75  C   UNL A   1      46.572  34.124  29.790  1.00  0.00     0.134 A 
ATOM     76  C   UNL A   1      45.633  34.733  27.673  1.00  0.00     0.134 A 
ATOM     77  F   UNL A   1      46.759  33.252  30.793  1.00  0.00    -0.206 F 
ATOM     78  C   UNL A   1      47.140  35.392  29.912  1.00  0.00     0.040 A 
ATOM     79  C   UNL A   1      46.221  35.994  27.769  1.00  0.00     0.040 A 
ATOM     80  F   UNL A   1      44.910  34.458  26.577  1.00  0.00    -0.206 F 
ATOM     81  C   UNL A   1      46.974  36.330  28.894  1.00  0.00     0.006 A 
ENDBRANCH  60  74
BRANCH  61  82
ATOM     82  C   UNL A   1      41.440  24.831  27.723  1.00  0.00     0.057 A 
ATOM     83  C   UNL A   1      41.829  23.730  28.494  1.00  0.00     0.134 A 
ATOM     84  C   UNL A   1      40.442  24.623  26.764  1.00  0.00     0.134 A 
ATOM     85  F   UNL A   1      42.793  23.859  29.418  1.00  0.00    -0.206 F 
ATOM     86  C   UNL A   1      41.272  22.464  28.300  1.00  0.00     0.040 A 
ATOM     87  C   UNL A   1      39.854  23.371  26.579  1.00  0.00     0.040 A 
ATOM     88  F   UNL A   1      40.015  25.638  25.998  1.00  0.00    -0.206 F 
ATOM     89  C   UNL A   1      40.278  22.284  27.340  1.00  0.00     0.006 A 
ENDBRANCH  61  82
BRANCH  73  90
ATOM     90  C   UNL A   1      47.662  27.376  25.912  1.00  0.00     0.057 A 
ATOM     91  C   UNL A   1      47.829  27.408  24.522  1.00  0.00     0.134 A 
ATOM     92  C   UNL A   1      48.675  26.775  26.672  1.00  0.00     0.134 A 
ATOM     93  F   UNL A   1      46.890  27.956  23.736  1.00  0.00    -0.206 F 
ATOM     94  C   UNL A   1      48.947  26.840  23.909  1.00  0.00     0.040 A 
ATOM     95  C   UNL A   1      49.812  26.232  26.073  1.00  0.00     0.040 A 
ATOM     96  F   UNL A   1      48.583  26.720  28.009  1.00  0.00    -0.206 F 
ATOM     97  C   UNL A   1      49.947  26.257  24.686  1.00  0.00     0.006 A 
ENDBRANCH  73  90
ENDBRANCH  47  48
ENDBRANCH  39  42
ENDBRANCH  37  38
ENDBRANCH  36  37
ENDBRANCH  35  36
ENDBRANCH  34  35
ENDBRANCH   1  34
TORSDOF 18
ENDMDL
