MODEL 1
REMARK VINA RESULT:     -10.9      0.000      0.000
REMARK SMILES C[C@@H]1[C@@H](C(=O)NCCCCCCNC(=O)c2ccc(-c3c4nc(c(-c5c(F)cccc5F)c5ccc([nH]5)c(-c5c(F)cccc5F)c5nc(c(-c6c(F)cccc6F)c6ccc3[nH]6)C=C5)C=C4)cc2)CCN1C(=O)CCCSc1ccccc1
REMARK SMILES IDX 7 1 6 2 4 3 5 4 3 6 1 7 2 8 72 9 70 10 71 11 73 12 74 13
REMARK SMILES IDX 75 14 76 15 77 16 78 17 79 18 80 19 84 20 81 21 83 22 82 23
REMARK SMILES IDX 8 24 9 25 10 26 11 27 12 28 13 29 14 30 15 32 16 33 17 34
REMARK SMILES IDX 69 35 18 36 68 37 19 38 20 39 21 40 62 41 22 42 67 43 61 44
REMARK SMILES IDX 63 45 23 46 66 47 60 48 59 49 24 51 50 52 33 53 49 54 34 55
REMARK SMILES IDX 37 56 48 57 64 58 35 59 36 60 47 62 65 63 38 64 25 65 26 66
REMARK SMILES IDX 31 67 27 68 28 69 30 70 32 71 29 72 51 73 52 74 57 75 53 76
REMARK SMILES IDX 54 77 56 78 58 79 55 80 39 81 40 82 45 83 41 84 42 85 44 86
REMARK SMILES IDX 46 87 43 88
REMARK H PARENT 6 5 13 31 63 50 37 61
REMARK Flexibility Score: inf
ROOT
ATOM      1  C   UNL A   1      33.617  30.705  27.068  1.00  0.00     0.116 C 
ENDROOT
BRANCH   1   2
ATOM      2  N   UNL A   1      32.826  29.705  27.743  1.00  0.00    -0.356 N 
ATOM      3  C   UNL A   1      32.209  28.625  27.187  1.00  0.00     0.225 C 
ATOM      4  O   UNL A   1      31.543  27.896  27.920  1.00  0.00    -0.275 OA
ATOM      5  H   UNL A   1      32.720  29.815  28.715  1.00  0.00     0.163 HD
BRANCH   3   6
ATOM      6  C   UNL A   1      32.331  28.424  25.679  1.00  0.00     0.102 C 
ATOM      7  C   UNL A   1      30.990  27.593  23.723  1.00  0.00     0.032 C 
ATOM      8  C   UNL A   1      31.322  27.381  25.196  1.00  0.00     0.094 C 
ATOM      9  N   UNL A   1      32.006  26.112  25.445  1.00  0.00    -0.339 N 
ATOM     10  C   UNL A   1      33.657  27.780  25.251  1.00  0.00     0.037 C 
ATOM     11  C   UNL A   1      33.439  26.301  25.537  1.00  0.00     0.120 C 
BRANCH   9  12
ATOM     12  C   UNL A   1      31.427  24.948  25.914  1.00  0.00     0.222 C 
ATOM     13  O   UNL A   1      31.366  24.684  27.115  1.00  0.00    -0.275 OA
BRANCH  12  14
ATOM     14  C   UNL A   1      30.974  23.938  24.877  1.00  0.00     0.101 C 
BRANCH  14  15
ATOM     15  C   UNL A   1      31.935  22.805  24.522  1.00  0.00     0.021 C 
BRANCH  15  16
ATOM     16  C   UNL A   1      32.050  21.651  25.535  1.00  0.00     0.075 C 
BRANCH  16  17
ATOM     17  S   UNL A   1      33.658  20.760  25.743  1.00  0.00    -0.126 SA
BRANCH  17  18
ATOM     18  C   UNL A   1      33.569  19.375  24.626  1.00  0.00     0.007 A 
ATOM     19  C   UNL A   1      34.526  18.354  24.624  1.00  0.00     0.015 A 
ATOM     20  C   UNL A   1      32.540  19.337  23.679  1.00  0.00     0.015 A 
ATOM     21  C   UNL A   1      34.403  17.272  23.739  1.00  0.00     0.001 A 
ATOM     22  C   UNL A   1      32.395  18.242  22.824  1.00  0.00     0.001 A 
ATOM     23  C   UNL A   1      33.322  17.204  22.860  1.00  0.00     0.000 A 
ENDBRANCH  17  18
ENDBRANCH  16  17
ENDBRANCH  15  16
ENDBRANCH  14  15
ENDBRANCH  12  14
ENDBRANCH   9  12
ENDBRANCH   3   6
ENDBRANCH   1   2
BRANCH   1  24
ATOM     24  C   UNL A   1      34.782  31.191  27.909  1.00  0.00     0.021 C 
BRANCH  24  25
ATOM     25  C   UNL A   1      34.405  32.199  28.997  1.00  0.00     0.002 C 
BRANCH  25  26
ATOM     26  C   UNL A   1      34.501  33.678  28.608  1.00  0.00     0.002 C 
BRANCH  26  27
ATOM     27  C   UNL A   1      33.206  34.487  28.707  1.00  0.00     0.021 C 
BRANCH  27  28
ATOM     28  C   UNL A   1      33.362  35.901  29.245  1.00  0.00     0.116 C 
BRANCH  28  29
ATOM     29  N   UNL A   1      32.526  36.151  30.404  1.00  0.00    -0.352 N 
ATOM     30  C   UNL A   1      32.685  35.722  31.692  1.00  0.00     0.251 C 
ATOM     31  H   UNL A   1      31.731  36.710  30.239  1.00  0.00     0.163 HD
ATOM     32  O   UNL A   1      31.791  35.909  32.519  1.00  0.00    -0.269 OA
BRANCH  30  33
ATOM     33  C   UNL A   1      33.915  35.009  32.088  1.00  0.00     0.039 A 
ATOM     34  C   UNL A   1      33.827  33.649  32.394  1.00  0.00     0.014 A 
ATOM     35  C   UNL A   1      35.144  35.671  32.174  1.00  0.00     0.014 A 
ATOM     36  C   UNL A   1      34.977  32.946  32.751  1.00  0.00     0.010 A 
ATOM     37  C   UNL A   1      36.303  34.951  32.452  1.00  0.00     0.010 A 
ATOM     38  C   UNL A   1      36.228  33.585  32.760  1.00  0.00    -0.014 A 
BRANCH  38  39
ATOM     39  C   UNL A   1      37.456  32.834  33.118  1.00  0.00     0.031 A 
ATOM     40  C   UNL A   1      38.176  33.128  34.405  1.00  0.00     0.074 A 
ATOM     41  C   UNL A   1      37.936  31.906  32.270  1.00  0.00     0.049 A 
ATOM     42  N   UNL A   1      39.263  32.580  34.887  1.00  0.00    -0.248 NA
ATOM     43  C   UNL A   1      37.617  34.194  35.252  1.00  0.00     0.031 C 
ATOM     44  C   UNL A   1      37.354  31.564  30.970  1.00  0.00     0.029 A 
ATOM     45  N   UNL A   1      39.023  31.075  32.375  1.00  0.00    -0.354 N 
ATOM     46  C   UNL A   1      39.517  33.236  36.085  1.00  0.00     0.074 A 
ATOM     47  C   UNL A   1      38.509  34.264  36.227  1.00  0.00     0.031 C 
ATOM     48  C   UNL A   1      38.070  30.573  30.414  1.00  0.00     0.029 A 
ATOM     49  C   UNL A   1      39.180  30.234  31.300  1.00  0.00     0.049 A 
ATOM     50  H   UNL A   1      39.634  31.082  33.147  1.00  0.00     0.167 HD
ATOM     51  C   UNL A   1      40.484  32.986  36.998  1.00  0.00     0.037 A 
ATOM     52  C   UNL A   1      40.113  29.294  31.057  1.00  0.00     0.037 A 
ATOM     53  C   UNL A   1      41.472  31.948  36.864  1.00  0.00     0.049 A 
ATOM     54  C   UNL A   1      41.184  29.044  32.082  1.00  0.00     0.074 A 
ATOM     55  C   UNL A   1      42.461  31.577  37.759  1.00  0.00     0.029 A 
ATOM     56  N   UNL A   1      41.599  31.117  35.761  1.00  0.00    -0.354 N 
ATOM     57  N   UNL A   1      41.369  29.623  33.244  1.00  0.00    -0.248 NA
ATOM     58  C   UNL A   1      42.173  28.005  31.764  1.00  0.00     0.031 C 
ATOM     59  C   UNL A   1      43.216  30.553  37.176  1.00  0.00     0.029 A 
ATOM     60  C   UNL A   1      42.664  30.251  35.941  1.00  0.00     0.049 A 
ATOM     61  H   UNL A   1      41.016  31.139  34.968  1.00  0.00     0.167 HD
ATOM     62  C   UNL A   1      42.475  29.001  33.807  1.00  0.00     0.074 A 
ATOM     63  C   UNL A   1      42.908  27.988  32.866  1.00  0.00     0.031 C 
ATOM     64  C   UNL A   1      43.081  29.247  34.995  1.00  0.00     0.037 A 
BRANCH  51  65
ATOM     65  C   UNL A   1      40.518  33.850  38.227  1.00  0.00     0.057 A 
ATOM     66  C   UNL A   1      41.285  35.022  38.285  1.00  0.00     0.134 A 
ATOM     67  C   UNL A   1      39.749  33.527  39.351  1.00  0.00     0.134 A 
ATOM     68  F   UNL A   1      42.055  35.383  37.248  1.00  0.00    -0.206 F 
ATOM     69  C   UNL A   1      41.308  35.824  39.428  1.00  0.00     0.040 A 
ATOM     70  C   UNL A   1      39.740  34.337  40.488  1.00  0.00     0.040 A 
ATOM     71  F   UNL A   1      38.986  32.422  39.361  1.00  0.00    -0.206 F 
ATOM     72  C   UNL A   1      40.527  35.485  40.531  1.00  0.00     0.006 A 
ENDBRANCH  51  65
BRANCH  52  73
ATOM     73  C   UNL A   1      40.063  28.503  29.802  1.00  0.00     0.057 A 
ATOM     74  C   UNL A   1      39.307  27.328  29.716  1.00  0.00     0.134 A 
ATOM     75  C   UNL A   1      40.778  28.892  28.663  1.00  0.00     0.134 A 
ATOM     76  F   UNL A   1      38.614  26.894  30.780  1.00  0.00    -0.206 F 
ATOM     77  C   UNL A   1      39.281  26.556  28.553  1.00  0.00     0.040 A 
ATOM     78  C   UNL A   1      40.741  28.146  27.484  1.00  0.00     0.040 A 
ATOM     79  F   UNL A   1      41.516  30.013  28.676  1.00  0.00    -0.206 F 
ATOM     80  C   UNL A   1      39.997  26.968  27.431  1.00  0.00     0.006 A 
ENDBRANCH  52  73
BRANCH  64  81
ATOM     81  C   UNL A   1      44.259  28.389  35.354  1.00  0.00     0.057 A 
ATOM     82  C   UNL A   1      44.112  27.189  36.062  1.00  0.00     0.134 A 
ATOM     83  C   UNL A   1      45.553  28.752  34.959  1.00  0.00     0.134 A 
ATOM     84  F   UNL A   1      42.901  26.791  36.480  1.00  0.00    -0.206 F 
ATOM     85  C   UNL A   1      45.213  26.395  36.387  1.00  0.00     0.040 A 
ATOM     86  C   UNL A   1      46.657  27.952  35.252  1.00  0.00     0.040 A 
ATOM     87  F   UNL A   1      45.763  29.884  34.270  1.00  0.00    -0.206 F 
ATOM     88  C   UNL A   1      46.489  26.773  35.976  1.00  0.00     0.006 A 
ENDBRANCH  64  81
ENDBRANCH  38  39
ENDBRANCH  30  33
ENDBRANCH  28  29
ENDBRANCH  27  28
ENDBRANCH  26  27
ENDBRANCH  25  26
ENDBRANCH  24  25
ENDBRANCH   1  24
TORSDOF 19
ENDMDL
MODEL 2
REMARK VINA RESULT:     -10.7      2.308      4.651
REMARK SMILES C[C@@H]1[C@@H](C(=O)NCCCCCCNC(=O)c2ccc(-c3c4nc(c(-c5c(F)cccc5F)c5ccc([nH]5)c(-c5c(F)cccc5F)c5nc(c(-c6c(F)cccc6F)c6ccc3[nH]6)C=C5)C=C4)cc2)CCN1C(=O)CCCSc1ccccc1
REMARK SMILES IDX 7 1 6 2 4 3 5 4 3 6 1 7 2 8 72 9 70 10 71 11 73 12 74 13
REMARK SMILES IDX 75 14 76 15 77 16 78 17 79 18 80 19 84 20 81 21 83 22 82 23
REMARK SMILES IDX 8 24 9 25 10 26 11 27 12 28 13 29 14 30 15 32 16 33 17 34
REMARK SMILES IDX 69 35 18 36 68 37 19 38 20 39 21 40 62 41 22 42 67 43 61 44
REMARK SMILES IDX 63 45 23 46 66 47 60 48 59 49 24 51 50 52 33 53 49 54 34 55
REMARK SMILES IDX 37 56 48 57 64 58 35 59 36 60 47 62 65 63 38 64 25 65 26 66
REMARK SMILES IDX 31 67 27 68 28 69 30 70 32 71 29 72 51 73 52 74 57 75 53 76
REMARK SMILES IDX 54 77 56 78 58 79 55 80 39 81 40 82 45 83 41 84 42 85 44 86
REMARK SMILES IDX 46 87 43 88
REMARK H PARENT 6 5 13 31 63 50 37 61
REMARK Flexibility Score: inf
ROOT
ATOM      1  C   UNL A   1      33.678  27.504  26.322  1.00  0.00     0.116 C 
ENDROOT
BRANCH   1   2
ATOM      2  N   UNL A   1      32.398  26.865  26.506  1.00  0.00    -0.356 N 
ATOM      3  C   UNL A   1      32.138  25.529  26.544  1.00  0.00     0.225 C 
ATOM      4  O   UNL A   1      30.970  25.168  26.675  1.00  0.00    -0.275 OA
ATOM      5  H   UNL A   1      31.624  27.464  26.617  1.00  0.00     0.163 HD
BRANCH   3   6
ATOM      6  C   UNL A   1      33.306  24.564  26.359  1.00  0.00     0.102 C 
ATOM      7  C   UNL A   1      34.956  23.835  24.609  1.00  0.00     0.032 C 
ATOM      8  C   UNL A   1      33.514  24.256  24.875  1.00  0.00     0.094 C 
ATOM      9  N   UNL A   1      32.555  23.181  24.619  1.00  0.00    -0.339 N 
ATOM     10  C   UNL A   1      33.040  23.162  26.923  1.00  0.00     0.037 C 
ATOM     11  C   UNL A   1      32.188  22.505  25.846  1.00  0.00     0.120 C 
BRANCH   9  12
ATOM     12  C   UNL A   1      31.782  23.027  23.484  1.00  0.00     0.222 C 
ATOM     13  O   UNL A   1      31.988  22.129  22.668  1.00  0.00    -0.275 OA
BRANCH  12  14
ATOM     14  C   UNL A   1      30.737  24.093  23.212  1.00  0.00     0.101 C 
BRANCH  14  15
ATOM     15  C   UNL A   1      31.209  25.412  22.604  1.00  0.00     0.021 C 
BRANCH  15  16
ATOM     16  C   UNL A   1      30.780  26.701  23.328  1.00  0.00     0.075 C 
BRANCH  16  17
ATOM     17  S   UNL A   1      31.009  28.344  22.507  1.00  0.00    -0.126 SA
BRANCH  17  18
ATOM     18  C   UNL A   1      29.547  29.275  22.918  1.00  0.00     0.007 A 
ATOM     19  C   UNL A   1      28.266  28.713  22.870  1.00  0.00     0.015 A 
ATOM     20  C   UNL A   1      29.677  30.629  23.242  1.00  0.00     0.015 A 
ATOM     21  C   UNL A   1      27.144  29.479  23.223  1.00  0.00     0.001 A 
ATOM     22  C   UNL A   1      28.567  31.382  23.630  1.00  0.00     0.001 A 
ATOM     23  C   UNL A   1      27.300  30.805  23.629  1.00  0.00     0.000 A 
ENDBRANCH  17  18
ENDBRANCH  16  17
ENDBRANCH  15  16
ENDBRANCH  14  15
ENDBRANCH  12  14
ENDBRANCH   9  12
ENDBRANCH   3   6
ENDBRANCH   1   2
BRANCH   1  24
ATOM     24  C   UNL A   1      33.658  28.972  26.705  1.00  0.00     0.021 C 
BRANCH  24  25
ATOM     25  C   UNL A   1      32.287  29.497  27.139  1.00  0.00     0.002 C 
BRANCH  25  26
ATOM     26  C   UNL A   1      31.640  30.535  26.217  1.00  0.00     0.002 C 
BRANCH  26  27
ATOM     27  C   UNL A   1      31.461  31.938  26.802  1.00  0.00     0.021 C 
BRANCH  27  28
ATOM     28  C   UNL A   1      32.743  32.738  26.975  1.00  0.00     0.116 C 
BRANCH  28  29
ATOM     29  N   UNL A   1      32.517  34.022  27.610  1.00  0.00    -0.352 N 
ATOM     30  C   UNL A   1      33.167  34.584  28.673  1.00  0.00     0.251 C 
ATOM     31  H   UNL A   1      31.792  34.564  27.221  1.00  0.00     0.163 HD
ATOM     32  O   UNL A   1      32.740  35.626  29.175  1.00  0.00    -0.269 OA
BRANCH  30  33
ATOM     33  C   UNL A   1      34.365  33.933  29.238  1.00  0.00     0.039 A 
ATOM     34  C   UNL A   1      34.187  32.895  30.155  1.00  0.00     0.014 A 
ATOM     35  C   UNL A   1      35.654  34.347  28.884  1.00  0.00     0.014 A 
ATOM     36  C   UNL A   1      35.301  32.248  30.689  1.00  0.00     0.010 A 
ATOM     37  C   UNL A   1      36.761  33.647  29.356  1.00  0.00     0.010 A 
ATOM     38  C   UNL A   1      36.596  32.602  30.276  1.00  0.00    -0.014 A 
BRANCH  38  39
ATOM     39  C   UNL A   1      37.782  31.900  30.826  1.00  0.00     0.031 A 
ATOM     40  C   UNL A   1      38.293  32.237  32.199  1.00  0.00     0.074 A 
ATOM     41  C   UNL A   1      38.413  30.977  30.076  1.00  0.00     0.049 A 
ATOM     42  N   UNL A   1      39.314  31.735  32.847  1.00  0.00    -0.248 NA
ATOM     43  C   UNL A   1      37.579  33.295  32.934  1.00  0.00     0.031 C 
ATOM     44  C   UNL A   1      38.041  30.597  28.711  1.00  0.00     0.029 A 
ATOM     45  N   UNL A   1      39.499  30.187  30.356  1.00  0.00    -0.354 N 
ATOM     46  C   UNL A   1      39.365  32.416  34.056  1.00  0.00     0.074 A 
ATOM     47  C   UNL A   1      38.315  33.409  34.028  1.00  0.00     0.031 C 
ATOM     48  C   UNL A   1      38.864  29.624  28.286  1.00  0.00     0.029 A 
ATOM     49  C   UNL A   1      39.840  29.337  29.332  1.00  0.00     0.049 A 
ATOM     50  H   UNL A   1      39.988  30.226  31.210  1.00  0.00     0.167 HD
ATOM     51  C   UNL A   1      40.195  32.213  35.107  1.00  0.00     0.037 A 
ATOM     52  C   UNL A   1      40.829  28.427  29.248  1.00  0.00     0.037 A 
ATOM     53  C   UNL A   1      41.225  31.209  35.140  1.00  0.00     0.049 A 
ATOM     54  C   UNL A   1      41.744  28.230  30.425  1.00  0.00     0.074 A 
ATOM     55  C   UNL A   1      42.082  30.886  36.178  1.00  0.00     0.029 A 
ATOM     56  N   UNL A   1      41.541  30.367  34.084  1.00  0.00    -0.354 N 
ATOM     57  N   UNL A   1      41.736  28.831  31.589  1.00  0.00    -0.248 NA
ATOM     58  C   UNL A   1      42.803  27.221  30.276  1.00  0.00     0.031 C 
ATOM     59  C   UNL A   1      42.948  29.881  35.733  1.00  0.00     0.029 A 
ATOM     60  C   UNL A   1      42.596  29.543  34.436  1.00  0.00     0.049 A 
ATOM     61  H   UNL A   1      41.082  30.357  33.213  1.00  0.00     0.167 HD
ATOM     62  C   UNL A   1      42.767  28.256  32.322  1.00  0.00     0.074 A 
ATOM     63  C   UNL A   1      43.367  27.246  31.475  1.00  0.00     0.031 C 
ATOM     64  C   UNL A   1      43.181  28.540  33.581  1.00  0.00     0.037 A 
BRANCH  51  65
ATOM     65  C   UNL A   1      40.017  33.095  36.310  1.00  0.00     0.057 A 
ATOM     66  C   UNL A   1      40.742  34.285  36.468  1.00  0.00     0.134 A 
ATOM     67  C   UNL A   1      39.088  32.770  37.306  1.00  0.00     0.134 A 
ATOM     68  F   UNL A   1      41.657  34.649  35.557  1.00  0.00    -0.206 F 
ATOM     69  C   UNL A   1      40.568  35.104  37.585  1.00  0.00     0.040 A 
ATOM     70  C   UNL A   1      38.885  33.596  38.414  1.00  0.00     0.040 A 
ATOM     71  F   UNL A   1      38.357  31.648  37.216  1.00  0.00    -0.206 F 
ATOM     72  C   UNL A   1      39.631  34.763  38.558  1.00  0.00     0.006 A 
ENDBRANCH  51  65
BRANCH  52  73
ATOM     73  C   UNL A   1      40.992  27.617  28.014  1.00  0.00     0.057 A 
ATOM     74  C   UNL A   1      41.780  28.070  26.950  1.00  0.00     0.134 A 
ATOM     75  C   UNL A   1      40.356  26.379  27.863  1.00  0.00     0.134 A 
ATOM     76  F   UNL A   1      42.401  29.257  27.029  1.00  0.00    -0.206 F 
ATOM     77  C   UNL A   1      41.913  27.334  25.771  1.00  0.00     0.040 A 
ATOM     78  C   UNL A   1      40.501  25.619  26.701  1.00  0.00     0.040 A 
ATOM     79  F   UNL A   1      39.593  25.883  28.850  1.00  0.00    -0.206 F 
ATOM     80  C   UNL A   1      41.274  26.102  25.647  1.00  0.00     0.006 A 
ENDBRANCH  52  73
BRANCH  64  81
ATOM     81  C   UNL A   1      44.320  27.729  34.127  1.00  0.00     0.057 A 
ATOM     82  C   UNL A   1      45.645  28.180  34.066  1.00  0.00     0.134 A 
ATOM     83  C   UNL A   1      44.084  26.496  34.749  1.00  0.00     0.134 A 
ATOM     84  F   UNL A   1      45.940  29.346  33.472  1.00  0.00    -0.206 F 
ATOM     85  C   UNL A   1      46.697  27.421  34.580  1.00  0.00     0.040 A 
ATOM     86  C   UNL A   1      45.124  25.743  35.293  1.00  0.00     0.040 A 
ATOM     87  F   UNL A   1      42.837  26.012  34.849  1.00  0.00    -0.206 F 
ATOM     88  C   UNL A   1      46.437  26.202  35.203  1.00  0.00     0.006 A 
ENDBRANCH  64  81
ENDBRANCH  38  39
ENDBRANCH  30  33
ENDBRANCH  28  29
ENDBRANCH  27  28
ENDBRANCH  26  27
ENDBRANCH  25  26
ENDBRANCH  24  25
ENDBRANCH   1  24
TORSDOF 19
ENDMDL
MODEL 3
REMARK VINA RESULT:     -10.4      1.857      2.579
REMARK SMILES C[C@@H]1[C@@H](C(=O)NCCCCCCNC(=O)c2ccc(-c3c4nc(c(-c5c(F)cccc5F)c5ccc([nH]5)c(-c5c(F)cccc5F)c5nc(c(-c6c(F)cccc6F)c6ccc3[nH]6)C=C5)C=C4)cc2)CCN1C(=O)CCCSc1ccccc1
REMARK SMILES IDX 7 1 6 2 4 3 5 4 3 6 1 7 2 8 72 9 70 10 71 11 73 12 74 13
REMARK SMILES IDX 75 14 76 15 77 16 78 17 79 18 80 19 84 20 81 21 83 22 82 23
REMARK SMILES IDX 8 24 9 25 10 26 11 27 12 28 13 29 14 30 15 32 16 33 17 34
REMARK SMILES IDX 69 35 18 36 68 37 19 38 20 39 21 40 62 41 22 42 67 43 61 44
REMARK SMILES IDX 63 45 23 46 66 47 60 48 59 49 24 51 50 52 33 53 49 54 34 55
REMARK SMILES IDX 37 56 48 57 64 58 35 59 36 60 47 62 65 63 38 64 25 65 26 66
REMARK SMILES IDX 31 67 27 68 28 69 30 70 32 71 29 72 51 73 52 74 57 75 53 76
REMARK SMILES IDX 54 77 56 78 58 79 55 80 39 81 40 82 45 83 41 84 42 85 44 86
REMARK SMILES IDX 46 87 43 88
REMARK H PARENT 6 5 13 31 63 50 37 61
REMARK Flexibility Score: inf
ROOT
ATOM      1  C   UNL A   1      34.838  31.199  28.062  1.00  0.00     0.116 C 
ENDROOT
BRANCH   1   2
ATOM      2  N   UNL A   1      33.475  31.277  27.597  1.00  0.00    -0.356 N 
ATOM      3  C   UNL A   1      32.869  30.481  26.673  1.00  0.00     0.225 C 
ATOM      4  O   UNL A   1      31.701  30.721  26.375  1.00  0.00    -0.275 OA
ATOM      5  H   UNL A   1      32.919  31.986  27.994  1.00  0.00     0.163 HD
BRANCH   3   6
ATOM      6  C   UNL A   1      33.699  29.379  26.019  1.00  0.00     0.102 C 
ATOM      7  C   UNL A   1      34.147  28.378  23.758  1.00  0.00     0.032 C 
ATOM      8  C   UNL A   1      33.087  28.975  24.677  1.00  0.00     0.094 C 
ATOM      9  N   UNL A   1      32.057  28.008  25.056  1.00  0.00    -0.339 N 
ATOM     10  C   UNL A   1      33.659  28.047  26.780  1.00  0.00     0.037 C 
ATOM     11  C   UNL A   1      32.328  27.440  26.360  1.00  0.00     0.120 C 
BRANCH   9  12
ATOM     12  C   UNL A   1      30.800  27.889  24.494  1.00  0.00     0.222 C 
ATOM     13  O   UNL A   1      30.221  28.843  23.973  1.00  0.00    -0.275 OA
BRANCH  12  14
ATOM     14  C   UNL A   1      30.098  26.553  24.653  1.00  0.00     0.101 C 
BRANCH  14  15
ATOM     15  C   UNL A   1      30.579  25.391  23.787  1.00  0.00     0.021 C 
BRANCH  15  16
ATOM     16  C   UNL A   1      31.788  25.660  22.874  1.00  0.00     0.075 C 
BRANCH  16  17
ATOM     17  S   UNL A   1      32.774  24.246  22.201  1.00  0.00    -0.126 SA
BRANCH  17  18
ATOM     18  C   UNL A   1      34.105  24.015  23.362  1.00  0.00     0.007 A 
ATOM     19  C   UNL A   1      35.102  23.052  23.174  1.00  0.00     0.015 A 
ATOM     20  C   UNL A   1      34.121  24.782  24.532  1.00  0.00     0.015 A 
ATOM     21  C   UNL A   1      36.143  22.920  24.106  1.00  0.00     0.001 A 
ATOM     22  C   UNL A   1      35.177  24.678  25.441  1.00  0.00     0.001 A 
ATOM     23  C   UNL A   1      36.193  23.752  25.224  1.00  0.00     0.000 A 
ENDBRANCH  17  18
ENDBRANCH  16  17
ENDBRANCH  15  16
ENDBRANCH  14  15
ENDBRANCH  12  14
ENDBRANCH   9  12
ENDBRANCH   3   6
ENDBRANCH   1   2
BRANCH   1  24
ATOM     24  C   UNL A   1      35.543  32.542  28.031  1.00  0.00     0.021 C 
BRANCH  24  25
ATOM     25  C   UNL A   1      34.908  33.614  28.919  1.00  0.00     0.002 C 
BRANCH  25  26
ATOM     26  C   UNL A   1      34.778  35.011  28.302  1.00  0.00     0.002 C 
BRANCH  26  27
ATOM     27  C   UNL A   1      33.670  35.899  28.873  1.00  0.00     0.021 C 
BRANCH  27  28
ATOM     28  C   UNL A   1      32.683  35.197  29.793  1.00  0.00     0.116 C 
BRANCH  28  29
ATOM     29  N   UNL A   1      32.330  36.001  30.948  1.00  0.00    -0.352 N 
ATOM     30  C   UNL A   1      32.869  35.989  32.204  1.00  0.00     0.251 C 
ATOM     31  H   UNL A   1      31.599  36.646  30.807  1.00  0.00     0.163 HD
ATOM     32  O   UNL A   1      32.341  36.642  33.107  1.00  0.00    -0.269 OA
BRANCH  30  33
ATOM     33  C   UNL A   1      34.067  35.175  32.489  1.00  0.00     0.039 A 
ATOM     34  C   UNL A   1      35.322  35.709  32.186  1.00  0.00     0.014 A 
ATOM     35  C   UNL A   1      33.961  33.892  33.034  1.00  0.00     0.014 A 
ATOM     36  C   UNL A   1      36.471  34.971  32.464  1.00  0.00     0.010 A 
ATOM     37  C   UNL A   1      35.112  33.190  33.384  1.00  0.00     0.010 A 
ATOM     38  C   UNL A   1      36.377  33.715  33.087  1.00  0.00    -0.014 A 
BRANCH  38  39
ATOM     39  C   UNL A   1      37.600  32.937  33.404  1.00  0.00     0.031 A 
ATOM     40  C   UNL A   1      38.363  33.209  34.671  1.00  0.00     0.074 A 
ATOM     41  C   UNL A   1      38.035  32.003  32.537  1.00  0.00     0.049 A 
ATOM     42  N   UNL A   1      39.452  32.636  35.118  1.00  0.00    -0.248 NA
ATOM     43  C   UNL A   1      37.851  34.281  35.539  1.00  0.00     0.031 C 
ATOM     44  C   UNL A   1      37.408  31.681  31.254  1.00  0.00     0.029 A 
ATOM     45  N   UNL A   1      39.107  31.150  32.606  1.00  0.00    -0.354 N 
ATOM     46  C   UNL A   1      39.754  33.280  36.311  1.00  0.00     0.074 A 
ATOM     47  C   UNL A   1      38.773  34.327  36.488  1.00  0.00     0.031 C 
ATOM     48  C   UNL A   1      38.087  30.679  30.672  1.00  0.00     0.029 A 
ATOM     49  C   UNL A   1      39.215  30.312  31.523  1.00  0.00     0.049 A 
ATOM     50  H   UNL A   1      39.741  31.140  33.360  1.00  0.00     0.167 HD
ATOM     51  C   UNL A   1      40.743  33.005  37.194  1.00  0.00     0.037 A 
ATOM     52  C   UNL A   1      40.121  29.354  31.248  1.00  0.00     0.037 A 
ATOM     53  C   UNL A   1      41.705  31.948  37.025  1.00  0.00     0.049 A 
ATOM     54  C   UNL A   1      41.216  29.077  32.240  1.00  0.00     0.074 A 
ATOM     55  C   UNL A   1      42.711  31.551  37.889  1.00  0.00     0.029 A 
ATOM     56  N   UNL A   1      41.782  31.120  35.915  1.00  0.00    -0.354 N 
ATOM     57  N   UNL A   1      41.447  29.645  33.399  1.00  0.00    -0.248 NA
ATOM     58  C   UNL A   1      42.173  28.019  31.888  1.00  0.00     0.031 C 
ATOM     59  C   UNL A   1      43.427  30.516  37.280  1.00  0.00     0.029 A 
ATOM     60  C   UNL A   1      42.834  30.232  36.059  1.00  0.00     0.049 A 
ATOM     61  H   UNL A   1      41.177  31.158  35.140  1.00  0.00     0.167 HD
ATOM     62  C   UNL A   1      42.557  28.997  33.926  1.00  0.00     0.074 A 
ATOM     63  C   UNL A   1      42.940  27.981  32.968  1.00  0.00     0.031 C 
ATOM     64  C   UNL A   1      43.202  29.224  35.096  1.00  0.00     0.037 A 
BRANCH  51  65
ATOM     65  C   UNL A   1      40.831  33.861  38.426  1.00  0.00     0.057 A 
ATOM     66  C   UNL A   1      41.661  34.988  38.484  1.00  0.00     0.134 A 
ATOM     67  C   UNL A   1      40.050  33.576  39.552  1.00  0.00     0.134 A 
ATOM     68  F   UNL A   1      42.445  35.311  37.443  1.00  0.00    -0.206 F 
ATOM     69  C   UNL A   1      41.734  35.784  39.629  1.00  0.00     0.040 A 
ATOM     70  C   UNL A   1      40.093  34.381  40.693  1.00  0.00     0.040 A 
ATOM     71  F   UNL A   1      39.228  32.515  39.563  1.00  0.00    -0.206 F 
ATOM     72  C   UNL A   1      40.942  35.485  40.735  1.00  0.00     0.006 A 
ENDBRANCH  51  65
BRANCH  52  73
ATOM     73  C   UNL A   1      40.018  28.571  29.991  1.00  0.00     0.057 A 
ATOM     74  C   UNL A   1      40.659  28.994  28.821  1.00  0.00     0.134 A 
ATOM     75  C   UNL A   1      39.267  27.391  29.924  1.00  0.00     0.134 A 
ATOM     76  F   UNL A   1      41.379  30.126  28.818  1.00  0.00    -0.206 F 
ATOM     77  C   UNL A   1      40.542  28.285  27.624  1.00  0.00     0.040 A 
ATOM     78  C   UNL A   1      39.162  26.657  28.741  1.00  0.00     0.040 A 
ATOM     79  F   UNL A   1      38.634  26.927  31.012  1.00  0.00    -0.206 F 
ATOM     80  C   UNL A   1      39.794  27.110  27.584  1.00  0.00     0.006 A 
ENDBRANCH  52  73
BRANCH  64  81
ATOM     81  C   UNL A   1      44.372  28.340  35.416  1.00  0.00     0.057 A 
ATOM     82  C   UNL A   1      45.688  28.720  35.123  1.00  0.00     0.134 A 
ATOM     83  C   UNL A   1      44.181  27.107  36.054  1.00  0.00     0.134 A 
ATOM     84  F   UNL A   1      45.938  29.882  34.501  1.00  0.00    -0.206 F 
ATOM     85  C   UNL A   1      46.770  27.893  35.429  1.00  0.00     0.040 A 
ATOM     86  C   UNL A   1      45.256  26.286  36.392  1.00  0.00     0.040 A 
ATOM     87  F   UNL A   1      42.946  26.689  36.372  1.00  0.00    -0.206 F 
ATOM     88  C   UNL A   1      46.556  26.675  36.072  1.00  0.00     0.006 A 
ENDBRANCH  64  81
ENDBRANCH  38  39
ENDBRANCH  30  33
ENDBRANCH  28  29
ENDBRANCH  27  28
ENDBRANCH  26  27
ENDBRANCH  25  26
ENDBRANCH  24  25
ENDBRANCH   1  24
TORSDOF 19
ENDMDL
