MODEL 1
REMARK VINA RESULT:     -10.7      0.000      0.000
REMARK SMILES CCNS(=O)(=O)c1ccc(CC(=O)NCCCCCCNC(=O)c2ccc(-c3c4nc(c(-c5c(F)cccc5F)c5ccc([nH]5)c(-c5c(F)cccc5F)c5nc(c(-c6c(F)cccc6F)c6ccc3[nH]6)C=C5)C=C4)cc2)cc1
REMARK SMILES IDX 16 1 15 2 14 3 12 4 13 5 11 7 10 8 7 9 8 10 79 11 9 12 78 13
REMARK SMILES IDX 4 14 5 15 6 16 3 17 2 19 1 20 17 21 18 22 19 23 20 24 21 25
REMARK SMILES IDX 22 26 23 28 24 29 25 30 77 31 26 32 76 33 27 34 28 35 29 36
REMARK SMILES IDX 70 37 30 38 75 39 69 40 71 41 31 42 74 43 68 44 67 45 32 47
REMARK SMILES IDX 58 48 41 49 57 50 42 51 45 52 56 53 72 54 43 55 44 56 55 58
REMARK SMILES IDX 73 59 46 60 33 61 34 62 39 63 35 64 36 65 38 66 40 67 37 68
REMARK SMILES IDX 59 69 60 70 65 71 61 72 62 73 64 74 66 75 63 76 47 77 48 78
REMARK SMILES IDX 53 79 49 80 50 81 52 82 54 83 51 84
REMARK H PARENT 14 6 3 18 21 27 71 46 45 57
REMARK Flexibility Score: inf
ROOT
ATOM      1  C   UNL A   1      32.988  28.617  27.063  1.00  0.00     0.021 C 
ENDROOT
BRANCH   1   2
ATOM      2  C   UNL A   1      32.782  27.159  26.644  1.00  0.00     0.116 C 
BRANCH   2   3
ATOM      3  N   UNL A   1      33.569  26.829  25.471  1.00  0.00    -0.356 N 
ATOM      4  C   UNL A   1      33.238  26.067  24.389  1.00  0.00     0.224 C 
ATOM      5  O   UNL A   1      34.115  25.829  23.555  1.00  0.00    -0.275 OA
ATOM      6  H   UNL A   1      34.475  27.212  25.454  1.00  0.00     0.163 HD
BRANCH   4   7
ATOM      7  C   UNL A   1      31.810  25.587  24.186  1.00  0.00     0.135 C 
BRANCH   7   8
ATOM      8  C   UNL A   1      30.861  26.639  23.662  1.00  0.00    -0.039 A 
ATOM      9  C   UNL A   1      29.197  28.716  22.796  1.00  0.00     0.082 A 
ATOM     10  C   UNL A   1      28.725  27.793  23.735  1.00  0.00     0.022 A 
ATOM     11  C   UNL A   1      30.471  28.574  22.250  1.00  0.00     0.022 A 
ATOM     12  C   UNL A   1      29.560  26.760  24.171  1.00  0.00     0.005 A 
ATOM     13  C   UNL A   1      31.288  27.526  22.665  1.00  0.00     0.005 A 
BRANCH   9  14
ATOM     14  S   UNL A   1      28.193  30.112  22.360  1.00  0.00     0.240 S 
ATOM     15  O   UNL A   1      27.118  30.192  23.320  1.00  0.00    -0.207 OA
ATOM     16  O   UNL A   1      27.949  30.045  20.933  1.00  0.00    -0.207 OA
BRANCH  14  17
ATOM     17  N   UNL A   1      29.210  31.448  22.557  1.00  0.00    -0.211 NA
ATOM     18  H   UNL A   1      29.506  31.463  23.533  1.00  0.00     0.141 HD
BRANCH  17  19
ATOM     19  C   UNL A   1      28.666  32.779  22.244  1.00  0.00     0.095 C 
ATOM     20  C   UNL A   1      29.108  33.767  23.309  1.00  0.00     0.022 C 
ENDBRANCH  17  19
ENDBRANCH  14  17
ENDBRANCH   9  14
ENDBRANCH   7   8
ENDBRANCH   4   7
ENDBRANCH   2   3
ENDBRANCH   1   2
BRANCH   1  21
ATOM     21  C   UNL A   1      31.705  29.461  27.029  1.00  0.00     0.002 C 
BRANCH  21  22
ATOM     22  C   UNL A   1      31.673  30.561  25.962  1.00  0.00     0.002 C 
BRANCH  22  23
ATOM     23  C   UNL A   1      31.483  31.985  26.494  1.00  0.00     0.021 C 
BRANCH  23  24
ATOM     24  C   UNL A   1      32.715  32.590  27.163  1.00  0.00     0.116 C 
BRANCH  24  25
ATOM     25  N   UNL A   1      32.491  33.962  27.593  1.00  0.00    -0.352 N 
ATOM     26  C   UNL A   1      33.118  34.687  28.574  1.00  0.00     0.251 C 
ATOM     27  H   UNL A   1      31.781  34.441  27.109  1.00  0.00     0.163 HD
ATOM     28  O   UNL A   1      32.671  35.778  28.915  1.00  0.00    -0.269 OA
BRANCH  26  29
ATOM     29  C   UNL A   1      34.326  34.151  29.242  1.00  0.00     0.039 A 
ATOM     30  C   UNL A   1      34.168  33.372  30.392  1.00  0.00     0.014 A 
ATOM     31  C   UNL A   1      35.606  34.434  28.757  1.00  0.00     0.014 A 
ATOM     32  C   UNL A   1      35.290  32.825  31.021  1.00  0.00     0.010 A 
ATOM     33  C   UNL A   1      36.718  33.841  29.350  1.00  0.00     0.010 A 
ATOM     34  C   UNL A   1      36.572  33.031  30.486  1.00  0.00    -0.014 A 
BRANCH  34  35
ATOM     35  C   UNL A   1      37.768  32.399  31.096  1.00  0.00     0.031 A 
ATOM     36  C   UNL A   1      38.487  31.289  30.383  1.00  0.00     0.074 A 
ATOM     37  C   UNL A   1      38.165  32.777  32.327  1.00  0.00     0.049 A 
ATOM     38  N   UNL A   1      39.498  30.564  30.790  1.00  0.00    -0.248 NA
ATOM     39  C   UNL A   1      37.988  30.929  29.047  1.00  0.00     0.031 C 
ATOM     40  C   UNL A   1      37.524  33.810  33.142  1.00  0.00     0.029 A 
ATOM     41  N   UNL A   1      39.195  32.325  33.112  1.00  0.00    -0.354 N 
ATOM     42  C   UNL A   1      39.744  29.653  29.771  1.00  0.00     0.074 A 
ATOM     43  C   UNL A   1      38.750  29.889  28.744  1.00  0.00     0.031 C 
ATOM     44  C   UNL A   1      38.185  33.923  34.307  1.00  0.00     0.029 A 
ATOM     45  C   UNL A   1      39.273  32.950  34.332  1.00  0.00     0.049 A 
ATOM     46  H   UNL A   1      39.820  31.619  32.828  1.00  0.00     0.167 HD
ATOM     47  C   UNL A   1      40.718  28.716  29.690  1.00  0.00     0.037 A 
ATOM     48  C   UNL A   1      40.122  32.758  35.359  1.00  0.00     0.037 A 
ATOM     49  C   UNL A   1      41.725  28.501  30.696  1.00  0.00     0.049 A 
ATOM     50  C   UNL A   1      41.203  31.722  35.239  1.00  0.00     0.074 A 
ATOM     51  C   UNL A   1      42.794  27.623  30.674  1.00  0.00     0.029 A 
ATOM     52  N   UNL A   1      41.786  29.175  31.907  1.00  0.00    -0.354 N 
ATOM     53  N   UNL A   1      41.461  30.909  34.244  1.00  0.00    -0.248 NA
ATOM     54  C   UNL A   1      42.114  31.580  36.384  1.00  0.00     0.031 C 
ATOM     55  C   UNL A   1      43.483  27.741  31.886  1.00  0.00     0.029 A 
ATOM     56  C   UNL A   1      42.865  28.718  32.647  1.00  0.00     0.049 A 
ATOM     57  H   UNL A   1      41.157  29.874  32.197  1.00  0.00     0.167 HD
ATOM     58  C   UNL A   1      42.575  30.177  34.630  1.00  0.00     0.074 A 
ATOM     59  C   UNL A   1      42.952  30.649  35.947  1.00  0.00     0.031 C 
ATOM     60  C   UNL A   1      43.228  29.201  33.954  1.00  0.00     0.037 A 
BRANCH  47  61
ATOM     61  C   UNL A   1      40.744  27.851  28.464  1.00  0.00     0.057 A 
ATOM     62  C   UNL A   1      40.056  26.632  28.408  1.00  0.00     0.134 A 
ATOM     63  C   UNL A   1      41.438  28.257  27.317  1.00  0.00     0.134 A 
ATOM     64  F   UNL A   1      39.382  26.183  29.477  1.00  0.00    -0.206 F 
ATOM     65  C   UNL A   1      40.078  25.834  27.262  1.00  0.00     0.040 A 
ATOM     66  C   UNL A   1      41.448  27.479  26.158  1.00  0.00     0.040 A 
ATOM     67  F   UNL A   1      42.113  29.416  27.303  1.00  0.00    -0.206 F 
ATOM     68  C   UNL A   1      40.770  26.261  26.131  1.00  0.00     0.006 A 
ENDBRANCH  47  61
BRANCH  48  69
ATOM     69  C   UNL A   1      39.997  33.584  36.586  1.00  0.00     0.057 A 
ATOM     70  C   UNL A   1      40.715  34.776  36.725  1.00  0.00     0.134 A 
ATOM     71  C   UNL A   1      39.162  33.203  37.642  1.00  0.00     0.134 A 
ATOM     72  F   UNL A   1      41.546  35.181  35.753  1.00  0.00    -0.206 F 
ATOM     73  C   UNL A   1      40.619  35.556  37.878  1.00  0.00     0.040 A 
ATOM     74  C   UNL A   1      39.039  33.984  38.792  1.00  0.00     0.040 A 
ATOM     75  F   UNL A   1      38.443  32.075  37.564  1.00  0.00    -0.206 F 
ATOM     76  C   UNL A   1      39.774  35.162  38.913  1.00  0.00     0.006 A 
ENDBRANCH  48  69
BRANCH  60  77
ATOM     77  C   UNL A   1      44.432  28.599  34.615  1.00  0.00     0.057 A 
ATOM     78  C   UNL A   1      44.337  27.452  35.412  1.00  0.00     0.134 A 
ATOM     79  C   UNL A   1      45.704  29.152  34.420  1.00  0.00     0.134 A 
ATOM     80  F   UNL A   1      43.144  26.884  35.647  1.00  0.00    -0.206 F 
ATOM     81  C   UNL A   1      45.464  26.886  36.009  1.00  0.00     0.040 A 
ATOM     82  C   UNL A   1      46.840  28.583  34.994  1.00  0.00     0.040 A 
ATOM     83  F   UNL A   1      45.861  30.247  33.662  1.00  0.00    -0.206 F 
ATOM     84  C   UNL A   1      46.722  27.448  35.795  1.00  0.00     0.006 A 
ENDBRANCH  60  77
ENDBRANCH  34  35
ENDBRANCH  26  29
ENDBRANCH  24  25
ENDBRANCH  23  24
ENDBRANCH  22  23
ENDBRANCH  21  22
ENDBRANCH   1  21
TORSDOF 17
ENDMDL
MODEL 2
REMARK VINA RESULT:     -10.6      3.903      7.325
REMARK SMILES CCNS(=O)(=O)c1ccc(CC(=O)NCCCCCCNC(=O)c2ccc(-c3c4nc(c(-c5c(F)cccc5F)c5ccc([nH]5)c(-c5c(F)cccc5F)c5nc(c(-c6c(F)cccc6F)c6ccc3[nH]6)C=C5)C=C4)cc2)cc1
REMARK SMILES IDX 16 1 15 2 14 3 12 4 13 5 11 7 10 8 7 9 8 10 79 11 9 12 78 13
REMARK SMILES IDX 4 14 5 15 6 16 3 17 2 19 1 20 17 21 18 22 19 23 20 24 21 25
REMARK SMILES IDX 22 26 23 28 24 29 25 30 77 31 26 32 76 33 27 34 28 35 29 36
REMARK SMILES IDX 70 37 30 38 75 39 69 40 71 41 31 42 74 43 68 44 67 45 32 47
REMARK SMILES IDX 58 48 41 49 57 50 42 51 45 52 56 53 72 54 43 55 44 56 55 58
REMARK SMILES IDX 73 59 46 60 33 61 34 62 39 63 35 64 36 65 38 66 40 67 37 68
REMARK SMILES IDX 59 69 60 70 65 71 61 72 62 73 64 74 66 75 63 76 47 77 48 78
REMARK SMILES IDX 53 79 49 80 50 81 52 82 54 83 51 84
REMARK H PARENT 14 6 3 18 21 27 71 46 45 57
REMARK Flexibility Score: inf
ROOT
ATOM      1  C   UNL A   1      32.369  21.926  23.863  1.00  0.00     0.021 C 
ENDROOT
BRANCH   1   2
ATOM      2  C   UNL A   1      32.392  21.402  25.302  1.00  0.00     0.116 C 
BRANCH   2   3
ATOM      3  N   UNL A   1      31.233  21.856  26.048  1.00  0.00    -0.356 N 
ATOM      4  C   UNL A   1      31.087  22.956  26.841  1.00  0.00     0.224 C 
ATOM      5  O   UNL A   1      30.035  23.082  27.473  1.00  0.00    -0.275 OA
ATOM      6  H   UNL A   1      30.436  21.285  25.970  1.00  0.00     0.163 HD
BRANCH   4   7
ATOM      7  C   UNL A   1      32.164  24.028  26.886  1.00  0.00     0.135 C 
BRANCH   7   8
ATOM      8  C   UNL A   1      31.911  25.213  25.985  1.00  0.00    -0.039 A 
ATOM      9  C   UNL A   1      31.471  27.293  24.164  1.00  0.00     0.082 A 
ATOM     10  C   UNL A   1      32.678  27.230  24.868  1.00  0.00     0.022 A 
ATOM     11  C   UNL A   1      30.467  26.357  24.405  1.00  0.00     0.022 A 
ATOM     12  C   UNL A   1      32.898  26.186  25.772  1.00  0.00     0.005 A 
ATOM     13  C   UNL A   1      30.679  25.338  25.329  1.00  0.00     0.005 A 
BRANCH   9  14
ATOM     14  S   UNL A   1      31.253  28.526  22.908  1.00  0.00     0.240 S 
ATOM     15  O   UNL A   1      30.385  27.969  21.897  1.00  0.00    -0.207 OA
ATOM     16  O   UNL A   1      32.561  29.060  22.590  1.00  0.00    -0.207 OA
BRANCH  14  17
ATOM     17  N   UNL A   1      30.451  29.795  23.686  1.00  0.00    -0.211 NA
ATOM     18  H   UNL A   1      30.130  29.443  24.588  1.00  0.00     0.141 HD
BRANCH  17  19
ATOM     19  C   UNL A   1      29.289  30.391  23.010  1.00  0.00     0.095 C 
ATOM     20  C   UNL A   1      28.877  31.658  23.740  1.00  0.00     0.022 C 
ENDBRANCH  17  19
ENDBRANCH  14  17
ENDBRANCH   9  14
ENDBRANCH   7   8
ENDBRANCH   4   7
ENDBRANCH   2   3
ENDBRANCH   1   2
BRANCH   1  21
ATOM     21  C   UNL A   1      33.526  22.879  23.529  1.00  0.00     0.002 C 
BRANCH  21  22
ATOM     22  C   UNL A   1      34.845  22.588  24.254  1.00  0.00     0.002 C 
BRANCH  22  23
ATOM     23  C   UNL A   1      35.615  23.823  24.732  1.00  0.00     0.021 C 
BRANCH  23  24
ATOM     24  C   UNL A   1      36.320  23.660  26.076  1.00  0.00     0.116 C 
BRANCH  24  25
ATOM     25  N   UNL A   1      37.365  22.649  26.031  1.00  0.00    -0.352 N 
ATOM     26  C   UNL A   1      38.714  22.772  26.251  1.00  0.00     0.251 C 
ATOM     27  H   UNL A   1      37.059  21.741  25.808  1.00  0.00     0.163 HD
ATOM     28  O   UNL A   1      39.467  21.838  25.993  1.00  0.00    -0.269 OA
BRANCH  26  29
ATOM     29  C   UNL A   1      39.272  24.037  26.781  1.00  0.00     0.039 A 
ATOM     30  C   UNL A   1      39.947  24.893  25.905  1.00  0.00     0.014 A 
ATOM     31  C   UNL A   1      39.156  24.367  28.134  1.00  0.00     0.014 A 
ATOM     32  C   UNL A   1      40.452  26.109  26.373  1.00  0.00     0.010 A 
ATOM     33  C   UNL A   1      39.608  25.605  28.586  1.00  0.00     0.010 A 
ATOM     34  C   UNL A   1      40.260  26.487  27.711  1.00  0.00    -0.014 A 
BRANCH  34  35
ATOM     35  C   UNL A   1      40.724  27.806  28.210  1.00  0.00     0.031 A 
ATOM     36  C   UNL A   1      42.193  28.100  28.324  1.00  0.00     0.074 A 
ATOM     37  C   UNL A   1      39.822  28.714  28.628  1.00  0.00     0.049 A 
ATOM     38  N   UNL A   1      42.790  29.160  28.808  1.00  0.00    -0.248 NA
ATOM     39  C   UNL A   1      43.115  27.054  27.854  1.00  0.00     0.031 C 
ATOM     40  C   UNL A   1      38.369  28.532  28.612  1.00  0.00     0.029 A 
ATOM     41  N   UNL A   1      39.994  29.967  29.160  1.00  0.00    -0.354 N 
ATOM     42  C   UNL A   1      44.151  28.902  28.719  1.00  0.00     0.074 A 
ATOM     43  C   UNL A   1      44.294  27.569  28.172  1.00  0.00     0.031 C 
ATOM     44  C   UNL A   1      37.783  29.639  29.098  1.00  0.00     0.029 A 
ATOM     45  C   UNL A   1      38.817  30.593  29.488  1.00  0.00     0.049 A 
ATOM     46  H   UNL A   1      40.879  30.378  29.294  1.00  0.00     0.167 HD
ATOM     47  C   UNL A   1      45.188  29.708  29.047  1.00  0.00     0.037 A 
ATOM     48  C   UNL A   1      38.595  31.797  30.047  1.00  0.00     0.037 A 
ATOM     49  C   UNL A   1      45.047  31.045  29.563  1.00  0.00     0.049 A 
ATOM     50  C   UNL A   1      39.762  32.679  30.389  1.00  0.00     0.074 A 
ATOM     51  C   UNL A   1      46.038  31.964  29.861  1.00  0.00     0.029 A 
ATOM     52  N   UNL A   1      43.836  31.654  29.856  1.00  0.00    -0.354 N 
ATOM     53  N   UNL A   1      41.044  32.446  30.242  1.00  0.00    -0.248 NA
ATOM     54  C   UNL A   1      39.452  33.992  30.971  1.00  0.00     0.031 C 
ATOM     55  C   UNL A   1      45.428  33.117  30.366  1.00  0.00     0.029 A 
ATOM     56  C   UNL A   1      44.056  32.930  30.348  1.00  0.00     0.049 A 
ATOM     57  H   UNL A   1      42.951  31.240  29.732  1.00  0.00     0.167 HD
ATOM     58  C   UNL A   1      41.691  33.589  30.690  1.00  0.00     0.074 A 
ATOM     59  C   UNL A   1      40.662  34.521  31.103  1.00  0.00     0.031 C 
ATOM     60  C   UNL A   1      43.021  33.845  30.752  1.00  0.00     0.037 A 
BRANCH  47  61
ATOM     61  C   UNL A   1      46.573  29.165  28.855  1.00  0.00     0.057 A 
ATOM     62  C   UNL A   1      47.224  28.435  29.858  1.00  0.00     0.134 A 
ATOM     63  C   UNL A   1      47.250  29.345  27.642  1.00  0.00     0.134 A 
ATOM     64  F   UNL A   1      46.634  28.237  31.046  1.00  0.00    -0.206 F 
ATOM     65  C   UNL A   1      48.511  27.925  29.670  1.00  0.00     0.040 A 
ATOM     66  C   UNL A   1      48.527  28.819  27.434  1.00  0.00     0.040 A 
ATOM     67  F   UNL A   1      46.680  30.029  26.638  1.00  0.00    -0.206 F 
ATOM     68  C   UNL A   1      49.162  28.111  28.453  1.00  0.00     0.006 A 
ENDBRANCH  47  61
BRANCH  48  69
ATOM     69  C   UNL A   1      37.205  32.251  30.296  1.00  0.00     0.057 A 
ATOM     70  C   UNL A   1      36.522  33.025  29.352  1.00  0.00     0.134 A 
ATOM     71  C   UNL A   1      36.529  31.923  31.476  1.00  0.00     0.134 A 
ATOM     72  F   UNL A   1      37.126  33.386  28.210  1.00  0.00    -0.206 F 
ATOM     73  C   UNL A   1      35.219  33.472  29.578  1.00  0.00     0.040 A 
ATOM     74  C   UNL A   1      35.218  32.345  31.707  1.00  0.00     0.040 A 
ATOM     75  F   UNL A   1      37.128  31.178  32.416  1.00  0.00    -0.206 F 
ATOM     76  C   UNL A   1      34.562  33.126  30.757  1.00  0.00     0.006 A 
ENDBRANCH  48  69
BRANCH  60  77
ATOM     77  C   UNL A   1      43.434  35.193  31.259  1.00  0.00     0.057 A 
ATOM     78  C   UNL A   1      43.625  36.278  30.395  1.00  0.00     0.134 A 
ATOM     79  C   UNL A   1      43.605  35.418  32.631  1.00  0.00     0.134 A 
ATOM     80  F   UNL A   1      43.489  36.123  29.068  1.00  0.00    -0.206 F 
ATOM     81  C   UNL A   1      43.991  37.536  30.875  1.00  0.00     0.040 A 
ATOM     82  C   UNL A   1      43.950  36.676  33.125  1.00  0.00     0.040 A 
ATOM     83  F   UNL A   1      43.432  34.421  33.511  1.00  0.00    -0.206 F 
ATOM     84  C   UNL A   1      44.148  37.739  32.245  1.00  0.00     0.006 A 
ENDBRANCH  60  77
ENDBRANCH  34  35
ENDBRANCH  26  29
ENDBRANCH  24  25
ENDBRANCH  23  24
ENDBRANCH  22  23
ENDBRANCH  21  22
ENDBRANCH   1  21
TORSDOF 17
ENDMDL
MODEL 3
REMARK VINA RESULT:     -10.5      4.205      8.403
REMARK SMILES CCNS(=O)(=O)c1ccc(CC(=O)NCCCCCCNC(=O)c2ccc(-c3c4nc(c(-c5c(F)cccc5F)c5ccc([nH]5)c(-c5c(F)cccc5F)c5nc(c(-c6c(F)cccc6F)c6ccc3[nH]6)C=C5)C=C4)cc2)cc1
REMARK SMILES IDX 16 1 15 2 14 3 12 4 13 5 11 7 10 8 7 9 8 10 79 11 9 12 78 13
REMARK SMILES IDX 4 14 5 15 6 16 3 17 2 19 1 20 17 21 18 22 19 23 20 24 21 25
REMARK SMILES IDX 22 26 23 28 24 29 25 30 77 31 26 32 76 33 27 34 28 35 29 36
REMARK SMILES IDX 70 37 30 38 75 39 69 40 71 41 31 42 74 43 68 44 67 45 32 47
REMARK SMILES IDX 58 48 41 49 57 50 42 51 45 52 56 53 72 54 43 55 44 56 55 58
REMARK SMILES IDX 73 59 46 60 33 61 34 62 39 63 35 64 36 65 38 66 40 67 37 68
REMARK SMILES IDX 59 69 60 70 65 71 61 72 62 73 64 74 66 75 63 76 47 77 48 78
REMARK SMILES IDX 53 79 49 80 50 81 52 82 54 83 51 84
REMARK H PARENT 14 6 3 18 21 27 71 46 45 57
REMARK Flexibility Score: inf
ROOT
ATOM      1  C   UNL A   1      32.575  21.702  23.846  1.00  0.00     0.021 C 
ENDROOT
BRANCH   1   2
ATOM      2  C   UNL A   1      32.537  21.252  25.308  1.00  0.00     0.116 C 
BRANCH   2   3
ATOM      3  N   UNL A   1      31.395  21.814  26.004  1.00  0.00    -0.356 N 
ATOM      4  C   UNL A   1      31.328  22.896  26.833  1.00  0.00     0.224 C 
ATOM      5  O   UNL A   1      30.261  23.124  27.407  1.00  0.00    -0.275 OA
ATOM      6  H   UNL A   1      30.542  21.345  25.857  1.00  0.00     0.163 HD
BRANCH   4   7
ATOM      7  C   UNL A   1      32.518  23.830  26.986  1.00  0.00     0.135 C 
BRANCH   7   8
ATOM      8  C   UNL A   1      32.593  24.929  25.952  1.00  0.00    -0.039 A 
ATOM      9  C   UNL A   1      32.775  26.831  23.907  1.00  0.00     0.082 A 
ATOM     10  C   UNL A   1      33.800  26.728  24.854  1.00  0.00     0.022 A 
ATOM     11  C   UNL A   1      31.641  26.027  24.009  1.00  0.00     0.022 A 
ATOM     12  C   UNL A   1      33.710  25.773  25.870  1.00  0.00     0.005 A 
ATOM     13  C   UNL A   1      31.542  25.099  25.041  1.00  0.00     0.005 A 
BRANCH   9  14
ATOM     14  S   UNL A   1      32.961  27.935  22.531  1.00  0.00     0.240 S 
ATOM     15  O   UNL A   1      33.739  27.249  21.526  1.00  0.00    -0.207 OA
ATOM     16  O   UNL A   1      33.350  29.226  23.058  1.00  0.00    -0.207 OA
BRANCH  14  17
ATOM     17  N   UNL A   1      31.390  28.166  21.951  1.00  0.00    -0.211 NA
ATOM     18  H   UNL A   1      31.452  28.267  20.938  1.00  0.00     0.141 HD
BRANCH  17  19
ATOM     19  C   UNL A   1      30.631  29.318  22.462  1.00  0.00     0.095 C 
ATOM     20  C   UNL A   1      29.149  28.984  22.464  1.00  0.00     0.022 C 
ENDBRANCH  17  19
ENDBRANCH  14  17
ENDBRANCH   9  14
ENDBRANCH   7   8
ENDBRANCH   4   7
ENDBRANCH   2   3
ENDBRANCH   1   2
BRANCH   1  21
ATOM     21  C   UNL A   1      33.786  22.580  23.496  1.00  0.00     0.002 C 
BRANCH  21  22
ATOM     22  C   UNL A   1      35.081  22.238  24.242  1.00  0.00     0.002 C 
BRANCH  22  23
ATOM     23  C   UNL A   1      35.999  23.428  24.539  1.00  0.00     0.021 C 
BRANCH  23  24
ATOM     24  C   UNL A   1      36.632  23.420  25.928  1.00  0.00     0.116 C 
BRANCH  24  25
ATOM     25  N   UNL A   1      37.756  22.501  26.016  1.00  0.00    -0.352 N 
ATOM     26  C   UNL A   1      39.069  22.749  26.328  1.00  0.00     0.251 C 
ATOM     27  H   UNL A   1      37.544  21.560  25.822  1.00  0.00     0.163 HD
ATOM     28  O   UNL A   1      39.914  21.872  26.179  1.00  0.00    -0.269 OA
BRANCH  26  29
ATOM     29  C   UNL A   1      39.479  24.081  26.828  1.00  0.00     0.039 A 
ATOM     30  C   UNL A   1      39.297  24.377  28.182  1.00  0.00     0.014 A 
ATOM     31  C   UNL A   1      40.013  25.044  25.966  1.00  0.00     0.014 A 
ATOM     32  C   UNL A   1      39.707  25.614  28.685  1.00  0.00     0.010 A 
ATOM     33  C   UNL A   1      40.475  26.254  26.480  1.00  0.00     0.010 A 
ATOM     34  C   UNL A   1      40.327  26.550  27.843  1.00  0.00    -0.014 A 
BRANCH  34  35
ATOM     35  C   UNL A   1      40.836  27.840  28.372  1.00  0.00     0.031 A 
ATOM     36  C   UNL A   1      39.879  28.893  28.854  1.00  0.00     0.074 A 
ATOM     37  C   UNL A   1      42.159  28.091  28.353  1.00  0.00     0.049 A 
ATOM     38  N   UNL A   1      40.129  30.107  29.276  1.00  0.00    -0.248 NA
ATOM     39  C   UNL A   1      38.450  28.546  28.837  1.00  0.00     0.031 C 
ATOM     40  C   UNL A   1      43.188  27.169  27.867  1.00  0.00     0.029 A 
ATOM     41  N   UNL A   1      42.865  29.203  28.739  1.00  0.00    -0.354 N 
ATOM     42  C   UNL A   1      38.893  30.673  29.555  1.00  0.00     0.074 A 
ATOM     43  C   UNL A   1      37.890  29.685  29.217  1.00  0.00     0.031 C 
ATOM     44  C   UNL A   1      44.393  27.748  27.999  1.00  0.00     0.029 A 
ATOM     45  C   UNL A   1      44.219  29.090  28.547  1.00  0.00     0.049 A 
ATOM     46  H   UNL A   1      42.440  30.005  29.119  1.00  0.00     0.167 HD
ATOM     47  C   UNL A   1      38.617  31.898  30.063  1.00  0.00     0.037 A 
ATOM     48  C   UNL A   1      45.210  29.971  28.779  1.00  0.00     0.037 A 
ATOM     49  C   UNL A   1      39.615  32.869  30.429  1.00  0.00     0.049 A 
ATOM     50  C   UNL A   1      44.881  31.318  29.355  1.00  0.00     0.074 A 
ATOM     51  C   UNL A   1      39.437  34.111  31.014  1.00  0.00     0.029 A 
ATOM     52  N   UNL A   1      40.979  32.706  30.243  1.00  0.00    -0.354 N 
ATOM     53  N   UNL A   1      43.710  31.817  29.672  1.00  0.00    -0.248 NA
ATOM     54  C   UNL A   1      46.010  32.224  29.611  1.00  0.00     0.031 C 
ATOM     55  C   UNL A   1      40.692  34.713  31.152  1.00  0.00     0.029 A 
ATOM     56  C   UNL A   1      41.654  33.832  30.687  1.00  0.00     0.049 A 
ATOM     57  H   UNL A   1      41.406  31.909  29.854  1.00  0.00     0.167 HD
ATOM     58  C   UNL A   1      43.963  33.082  30.185  1.00  0.00     0.074 A 
ATOM     59  C   UNL A   1      45.398  33.271  30.149  1.00  0.00     0.031 C 
ATOM     60  C   UNL A   1      43.083  34.004  30.647  1.00  0.00     0.037 A 
BRANCH  47  61
ATOM     61  C   UNL A   1      37.174  32.256  30.258  1.00  0.00     0.057 A 
ATOM     62  C   UNL A   1      36.495  31.959  31.447  1.00  0.00     0.134 A 
ATOM     63  C   UNL A   1      36.464  32.934  29.259  1.00  0.00     0.134 A 
ATOM     64  F   UNL A   1      37.116  31.302  32.438  1.00  0.00    -0.206 F 
ATOM     65  C   UNL A   1      35.153  32.302  31.626  1.00  0.00     0.040 A 
ATOM     66  C   UNL A   1      35.129  33.303  29.436  1.00  0.00     0.040 A 
ATOM     67  F   UNL A   1      37.056  33.253  28.099  1.00  0.00    -0.206 F 
ATOM     68  C   UNL A   1      34.469  32.981  30.620  1.00  0.00     0.006 A 
ENDBRANCH  47  61
BRANCH  48  69
ATOM     69  C   UNL A   1      46.616  29.596  28.487  1.00  0.00     0.057 A 
ATOM     70  C   UNL A   1      47.400  28.945  29.445  1.00  0.00     0.134 A 
ATOM     71  C   UNL A   1      47.206  29.877  27.249  1.00  0.00     0.134 A 
ATOM     72  F   UNL A   1      46.893  28.667  30.656  1.00  0.00    -0.206 F 
ATOM     73  C   UNL A   1      48.728  28.598  29.190  1.00  0.00     0.040 A 
ATOM     74  C   UNL A   1      48.527  29.517  26.973  1.00  0.00     0.040 A 
ATOM     75  F   UNL A   1      46.504  30.493  26.288  1.00  0.00    -0.206 F 
ATOM     76  C   UNL A   1      49.292  28.881  27.948  1.00  0.00     0.006 A 
ENDBRANCH  48  69
BRANCH  60  77
ATOM     77  C   UNL A   1      43.651  35.287  31.173  1.00  0.00     0.057 A 
ATOM     78  C   UNL A   1      43.842  36.401  30.347  1.00  0.00     0.134 A 
ATOM     79  C   UNL A   1      43.974  35.420  32.529  1.00  0.00     0.134 A 
ATOM     80  F   UNL A   1      43.564  36.331  29.036  1.00  0.00    -0.206 F 
ATOM     81  C   UNL A   1      44.354  37.598  30.848  1.00  0.00     0.040 A 
ATOM     82  C   UNL A   1      44.466  36.619  33.046  1.00  0.00     0.040 A 
ATOM     83  F   UNL A   1      43.808  34.392  33.374  1.00  0.00    -0.206 F 
ATOM     84  C   UNL A   1      44.662  37.712  32.202  1.00  0.00     0.006 A 
ENDBRANCH  60  77
ENDBRANCH  34  35
ENDBRANCH  26  29
ENDBRANCH  24  25
ENDBRANCH  23  24
ENDBRANCH  22  23
ENDBRANCH  21  22
ENDBRANCH   1  21
TORSDOF 17
ENDMDL
