MODEL 1
REMARK VINA RESULT:      -9.9      0.000      0.000
REMARK SMILES O=C(NCCCCCCNC(=O)[C@H](c1ccccc1)N1C(=O)/C(=C/c2ccc(-c3nc4ccccc4s3)o2)SC1=S)c1ccc(-c2c3nc(c(-c4c(F)cccc4F)c4ccc([nH]4)c(-c4c(F)cccc4F)c4nc(c(-c5c(F)cccc5F)c5ccc2[nH]5)C=C4)C=C3)cc1
REMARK SMILES IDX 7 1 6 2 5 3 4 4 3 5 1 6 2 7 42 9 43 10 95 11 44 12 94 13
REMARK SMILES IDX 45 14 46 15 47 16 88 17 48 18 93 19 87 20 89 21 49 22 92 23
REMARK SMILES IDX 86 24 85 25 50 27 76 28 59 29 75 30 60 31 63 32 74 33 90 34
REMARK SMILES IDX 61 35 62 36 73 38 91 39 64 40 51 41 52 42 57 43 53 44 54 45
REMARK SMILES IDX 56 46 58 47 55 48 77 49 78 50 83 51 79 52 80 53 82 54 84 55
REMARK SMILES IDX 81 56 65 57 66 58 71 59 67 60 68 61 70 62 72 63 69 64 8 65
REMARK SMILES IDX 9 66 10 67 11 68 12 70 13 71 20 72 21 73 40 74 22 75 23 76
REMARK SMILES IDX 39 77 41 78 24 79 25 80 26 81 38 82 27 83 28 84 29 85 30 86
REMARK SMILES IDX 37 87 31 88 36 89 32 90 35 91 33 92 34 93 14 94 15 95 19 96
REMARK SMILES IDX 16 97 18 98 17 99
REMARK H PARENT 3 8 89 26 63 37 10 69
REMARK Flexibility Score: inf
ROOT
ATOM      1  C   UNL A   1      37.841  33.039  29.552  1.00  0.00     0.002 C 
ENDROOT
BRANCH   1   2
ATOM      2  C   UNL A   1      37.003  33.668  28.436  1.00  0.00     0.002 C 
BRANCH   2   3
ATOM      3  C   UNL A   1      35.489  33.578  28.631  1.00  0.00     0.021 C 
BRANCH   3   4
ATOM      4  C   UNL A   1      35.028  32.418  29.504  1.00  0.00     0.116 C 
BRANCH   4   5
ATOM      5  N   UNL A   1      34.318  31.402  28.747  1.00  0.00    -0.352 N 
ATOM      6  O   UNL A   1      34.112  29.607  27.391  1.00  0.00    -0.269 OA
ATOM      7  C   UNL A   1      34.816  30.273  28.132  1.00  0.00     0.251 C 
ATOM      8  H   UNL A   1      33.348  31.538  28.662  1.00  0.00     0.163 HD
BRANCH   7   9
ATOM      9  C   UNL A   1      36.225  29.887  28.367  1.00  0.00     0.039 A 
ATOM     10  C   UNL A   1      37.186  30.081  27.374  1.00  0.00     0.014 A 
ATOM     11  C   UNL A   1      36.587  29.328  29.597  1.00  0.00     0.014 A 
ATOM     12  C   UNL A   1      38.471  29.589  27.554  1.00  0.00     0.010 A 
ATOM     13  C   UNL A   1      37.906  28.917  29.813  1.00  0.00     0.010 A 
ATOM     14  C   UNL A   1      38.854  29.021  28.782  1.00  0.00    -0.014 A 
BRANCH  14  15
ATOM     15  C   UNL A   1      40.274  28.631  28.970  1.00  0.00     0.031 A 
ATOM     16  C   UNL A   1      40.791  27.294  28.522  1.00  0.00     0.074 A 
ATOM     17  C   UNL A   1      41.114  29.543  29.497  1.00  0.00     0.049 A 
ATOM     18  N   UNL A   1      42.021  26.845  28.537  1.00  0.00    -0.248 NA
ATOM     19  C   UNL A   1      39.809  26.333  27.997  1.00  0.00     0.031 C 
ATOM     20  C   UNL A   1      40.715  30.862  29.995  1.00  0.00     0.029 A 
ATOM     21  N   UNL A   1      42.473  29.519  29.671  1.00  0.00    -0.354 N 
ATOM     22  C   UNL A   1      41.962  25.551  28.035  1.00  0.00     0.074 A 
ATOM     23  C   UNL A   1      40.570  25.276  27.749  1.00  0.00     0.031 C 
ATOM     24  C   UNL A   1      41.810  31.545  30.355  1.00  0.00     0.029 A 
ATOM     25  C   UNL A   1      42.980  30.695  30.170  1.00  0.00     0.049 A 
ATOM     26  H   UNL A   1      43.032  28.737  29.458  1.00  0.00     0.167 HD
ATOM     27  C   UNL A   1      42.979  24.681  27.824  1.00  0.00     0.037 A 
ATOM     28  C   UNL A   1      44.245  31.050  30.453  1.00  0.00     0.037 A 
ATOM     29  C   UNL A   1      44.365  24.963  28.107  1.00  0.00     0.049 A 
ATOM     30  C   UNL A   1      45.349  30.070  30.196  1.00  0.00     0.074 A 
ATOM     31  C   UNL A   1      45.468  24.147  27.924  1.00  0.00     0.029 A 
ATOM     32  N   UNL A   1      44.837  26.157  28.631  1.00  0.00    -0.354 N 
ATOM     33  N   UNL A   1      45.277  28.858  29.701  1.00  0.00    -0.248 NA
ATOM     34  C   UNL A   1      46.709  30.504  30.539  1.00  0.00     0.031 C 
ATOM     35  C   UNL A   1      46.604  24.835  28.366  1.00  0.00     0.029 A 
ATOM     36  C   UNL A   1      46.213  26.095  28.787  1.00  0.00     0.049 A 
ATOM     37  H   UNL A   1      44.277  26.934  28.861  1.00  0.00     0.167 HD
ATOM     38  C   UNL A   1      46.579  28.383  29.675  1.00  0.00     0.074 A 
ATOM     39  C   UNL A   1      47.425  29.452  30.167  1.00  0.00     0.031 C 
ATOM     40  C   UNL A   1      47.034  27.166  29.290  1.00  0.00     0.037 A 
BRANCH  27  41
ATOM     41  C   UNL A   1      42.636  23.331  27.263  1.00  0.00     0.057 A 
ATOM     42  C   UNL A   1      42.716  23.063  25.890  1.00  0.00     0.134 A 
ATOM     43  C   UNL A   1      42.279  22.273  28.107  1.00  0.00     0.134 A 
ATOM     44  F   UNL A   1      43.042  24.036  25.026  1.00  0.00    -0.206 F 
ATOM     45  C   UNL A   1      42.444  21.794  25.377  1.00  0.00     0.040 A 
ATOM     46  C   UNL A   1      42.024  20.994  27.608  1.00  0.00     0.040 A 
ATOM     47  F   UNL A   1      42.190  22.460  29.433  1.00  0.00    -0.206 F 
ATOM     48  C   UNL A   1      42.104  20.752  26.239  1.00  0.00     0.006 A 
ENDBRANCH  27  41
BRANCH  28  49
ATOM     49  C   UNL A   1      44.524  32.394  31.015  1.00  0.00     0.057 A 
ATOM     50  C   UNL A   1      44.640  32.597  32.394  1.00  0.00     0.134 A 
ATOM     51  C   UNL A   1      44.698  33.505  30.180  1.00  0.00     0.134 A 
ATOM     52  F   UNL A   1      44.470  31.575  33.244  1.00  0.00    -0.206 F 
ATOM     53  C   UNL A   1      44.902  33.861  32.925  1.00  0.00     0.040 A 
ATOM     54  C   UNL A   1      44.989  34.768  30.696  1.00  0.00     0.040 A 
ATOM     55  F   UNL A   1      44.610  33.371  28.849  1.00  0.00    -0.206 F 
ATOM     56  C   UNL A   1      45.085  34.949  32.073  1.00  0.00     0.006 A 
ENDBRANCH  28  49
BRANCH  40  57
ATOM     57  C   UNL A   1      48.512  26.941  29.391  1.00  0.00     0.057 A 
ATOM     58  C   UNL A   1      49.092  26.381  30.538  1.00  0.00     0.134 A 
ATOM     59  C   UNL A   1      49.364  27.289  28.337  1.00  0.00     0.134 A 
ATOM     60  F   UNL A   1      48.329  26.042  31.588  1.00  0.00    -0.206 F 
ATOM     61  C   UNL A   1      50.472  26.204  30.643  1.00  0.00     0.040 A 
ATOM     62  C   UNL A   1      50.743  27.095  28.421  1.00  0.00     0.040 A 
ATOM     63  F   UNL A   1      48.871  27.825  27.211  1.00  0.00    -0.206 F 
ATOM     64  C   UNL A   1      51.302  26.559  29.581  1.00  0.00     0.006 A 
ENDBRANCH  40  57
ENDBRANCH  14  15
ENDBRANCH   7   9
ENDBRANCH   4   5
ENDBRANCH   3   4
ENDBRANCH   2   3
ENDBRANCH   1   2
BRANCH   1  65
ATOM     65  C   UNL A   1      38.722  34.014  30.341  1.00  0.00     0.021 C 
BRANCH  65  66
ATOM     66  C   UNL A   1      38.101  34.507  31.647  1.00  0.00     0.116 C 
BRANCH  66  67
ATOM     67  N   UNL A   1      37.192  33.519  32.186  1.00  0.00    -0.354 N 
ATOM     68  C   UNL A   1      37.391  32.477  33.039  1.00  0.00     0.247 C 
ATOM     69  H   UNL A   1      36.260  33.617  31.880  1.00  0.00     0.163 HD
ATOM     70  O   UNL A   1      36.386  31.791  33.275  1.00  0.00    -0.272 OA
BRANCH  68  71
ATOM     71  C   UNL A   1      38.699  32.242  33.827  1.00  0.00     0.211 C 
BRANCH  71  72
ATOM     72  N   UNL A   1      38.505  32.594  35.255  1.00  0.00    -0.276 N 
ATOM     73  C   UNL A   1      38.081  31.593  36.118  1.00  0.00     0.267 C 
ATOM     74  C   UNL A   1      38.806  33.800  35.856  1.00  0.00     0.149 C 
ATOM     75  O   UNL A   1      37.864  30.425  35.827  1.00  0.00    -0.268 OA
ATOM     76  C   UNL A   1      37.865  32.137  37.486  1.00  0.00     0.084 C 
ATOM     77  S   UNL A   1      38.154  33.828  37.488  1.00  0.00    -0.054 SA
ATOM     78  S   UNL A   1      39.681  35.109  35.304  1.00  0.00    -0.052 S 
ATOM     79  C   UNL A   1      37.459  31.382  38.515  1.00  0.00     0.068 C 
BRANCH  79  80
ATOM     80  C   UNL A   1      36.996  31.974  39.722  1.00  0.00     0.129 A 
ATOM     81  C   UNL A   1      37.781  32.375  40.793  1.00  0.00     0.051 A 
ATOM     82  O   UNL A   1      35.679  32.229  40.038  1.00  0.00    -0.454 OA
ATOM     83  C   UNL A   1      36.923  32.874  41.785  1.00  0.00     0.054 A 
ATOM     84  C   UNL A   1      35.631  32.772  41.302  1.00  0.00     0.163 A 
BRANCH  84  85
ATOM     85  C   UNL A   1      34.445  33.161  42.018  1.00  0.00     0.160 A 
ATOM     86  N   UNL A   1      33.318  33.367  41.369  1.00  0.00    -0.233 NA
ATOM     87  S   UNL A   1      34.399  33.460  43.701  1.00  0.00    -0.111 S 
ATOM     88  C   UNL A   1      32.348  33.827  42.235  1.00  0.00     0.082 A 
ATOM     89  C   UNL A   1      32.753  33.971  43.564  1.00  0.00     0.055 A 
ATOM     90  C   UNL A   1      31.028  34.165  41.878  1.00  0.00     0.030 A 
ATOM     91  C   UNL A   1      31.878  34.468  44.545  1.00  0.00     0.021 A 
ATOM     92  C   UNL A   1      30.150  34.656  42.847  1.00  0.00     0.002 A 
ATOM     93  C   UNL A   1      30.575  34.811  44.162  1.00  0.00     0.002 A 
ENDBRANCH  84  85
ENDBRANCH  79  80
ENDBRANCH  71  72
BRANCH  71  94
ATOM     94  C   UNL A   1      39.547  30.983  33.619  1.00  0.00    -0.016 A 
ATOM     95  C   UNL A   1      39.059  29.786  33.080  1.00  0.00     0.006 A 
ATOM     96  C   UNL A   1      40.915  31.013  33.969  1.00  0.00     0.006 A 
ATOM     97  C   UNL A   1      39.888  28.677  32.878  1.00  0.00     0.000 A 
ATOM     98  C   UNL A   1      41.752  29.914  33.745  1.00  0.00     0.000 A 
ATOM     99  C   UNL A   1      41.237  28.743  33.200  1.00  0.00     0.000 A 
ENDBRANCH  71  94
ENDBRANCH  68  71
ENDBRANCH  66  67
ENDBRANCH  65  66
ENDBRANCH   1  65
TORSDOF 17
ENDMDL
MODEL 2
REMARK VINA RESULT:      -9.8      0.814      5.729
REMARK SMILES O=C(NCCCCCCNC(=O)[C@H](c1ccccc1)N1C(=O)/C(=C/c2ccc(-c3nc4ccccc4s3)o2)SC1=S)c1ccc(-c2c3nc(c(-c4c(F)cccc4F)c4ccc([nH]4)c(-c4c(F)cccc4F)c4nc(c(-c5c(F)cccc5F)c5ccc2[nH]5)C=C4)C=C3)cc1
REMARK SMILES IDX 7 1 6 2 5 3 4 4 3 5 1 6 2 7 42 9 43 10 95 11 44 12 94 13
REMARK SMILES IDX 45 14 46 15 47 16 88 17 48 18 93 19 87 20 89 21 49 22 92 23
REMARK SMILES IDX 86 24 85 25 50 27 76 28 59 29 75 30 60 31 63 32 74 33 90 34
REMARK SMILES IDX 61 35 62 36 73 38 91 39 64 40 51 41 52 42 57 43 53 44 54 45
REMARK SMILES IDX 56 46 58 47 55 48 77 49 78 50 83 51 79 52 80 53 82 54 84 55
REMARK SMILES IDX 81 56 65 57 66 58 71 59 67 60 68 61 70 62 72 63 69 64 8 65
REMARK SMILES IDX 9 66 10 67 11 68 12 70 13 71 20 72 21 73 40 74 22 75 23 76
REMARK SMILES IDX 39 77 41 78 24 79 25 80 26 81 38 82 27 83 28 84 29 85 30 86
REMARK SMILES IDX 37 87 31 88 36 89 32 90 35 91 33 92 34 93 14 94 15 95 19 96
REMARK SMILES IDX 16 97 18 98 17 99
REMARK H PARENT 3 8 89 26 63 37 10 69
REMARK Flexibility Score: inf
ROOT
ATOM      1  C   UNL A   1      37.588  33.130  29.170  1.00  0.00     0.002 C 
ENDROOT
BRANCH   1   2
ATOM      2  C   UNL A   1      36.707  33.696  28.054  1.00  0.00     0.002 C 
BRANCH   2   3
ATOM      3  C   UNL A   1      35.207  33.457  28.226  1.00  0.00     0.021 C 
BRANCH   3   4
ATOM      4  C   UNL A   1      34.846  32.417  29.278  1.00  0.00     0.116 C 
BRANCH   4   5
ATOM      5  N   UNL A   1      34.121  31.289  28.719  1.00  0.00    -0.352 N 
ATOM      6  O   UNL A   1      33.884  29.331  27.618  1.00  0.00    -0.269 OA
ATOM      7  C   UNL A   1      34.616  30.110  28.204  1.00  0.00     0.251 C 
ATOM      8  H   UNL A   1      33.142  31.378  28.707  1.00  0.00     0.163 HD
BRANCH   7   9
ATOM      9  C   UNL A   1      36.058  29.807  28.356  1.00  0.00     0.039 A 
ATOM     10  C   UNL A   1      36.554  29.321  29.566  1.00  0.00     0.014 A 
ATOM     11  C   UNL A   1      36.917  30.008  27.272  1.00  0.00     0.014 A 
ATOM     12  C   UNL A   1      37.923  29.173  29.738  1.00  0.00     0.010 A 
ATOM     13  C   UNL A   1      38.288  29.768  27.418  1.00  0.00     0.010 A 
ATOM     14  C   UNL A   1      38.805  29.373  28.662  1.00  0.00    -0.014 A 
BRANCH  14  15
ATOM     15  C   UNL A   1      40.245  29.073  28.862  1.00  0.00     0.031 A 
ATOM     16  C   UNL A   1      41.159  30.031  29.573  1.00  0.00     0.074 A 
ATOM     17  C   UNL A   1      40.705  27.878  28.444  1.00  0.00     0.049 A 
ATOM     18  N   UNL A   1      42.417  29.871  29.902  1.00  0.00    -0.248 NA
ATOM     19  C   UNL A   1      40.600  31.334  29.960  1.00  0.00     0.031 C 
ATOM     20  C   UNL A   1      39.913  26.883  27.716  1.00  0.00     0.029 A 
ATOM     21  N   UNL A   1      41.928  27.280  28.601  1.00  0.00    -0.354 N 
ATOM     22  C   UNL A   1      42.803  31.051  30.524  1.00  0.00     0.074 A 
ATOM     23  C   UNL A   1      41.653  31.930  30.503  1.00  0.00     0.031 C 
ATOM     24  C   UNL A   1      40.648  25.775  27.547  1.00  0.00     0.029 A 
ATOM     25  C   UNL A   1      41.977  26.001  28.101  1.00  0.00     0.049 A 
ATOM     26  H   UNL A   1      42.696  27.723  29.029  1.00  0.00     0.167 HD
ATOM     27  C   UNL A   1      44.003  31.364  31.069  1.00  0.00     0.037 A 
ATOM     28  C   UNL A   1      42.983  25.108  28.085  1.00  0.00     0.037 A 
ATOM     29  C   UNL A   1      45.143  30.482  31.090  1.00  0.00     0.049 A 
ATOM     30  C   UNL A   1      44.294  25.479  28.709  1.00  0.00     0.074 A 
ATOM     31  C   UNL A   1      46.401  30.707  31.622  1.00  0.00     0.029 A 
ATOM     32  N   UNL A   1      45.162  29.202  30.555  1.00  0.00    -0.354 N 
ATOM     33  N   UNL A   1      44.634  26.593  29.311  1.00  0.00    -0.248 NA
ATOM     34  C   UNL A   1      45.361  24.473  28.648  1.00  0.00     0.031 C 
ATOM     35  C   UNL A   1      47.190  29.576  31.384  1.00  0.00     0.029 A 
ATOM     36  C   UNL A   1      46.411  28.630  30.738  1.00  0.00     0.049 A 
ATOM     37  H   UNL A   1      44.400  28.764  30.111  1.00  0.00     0.167 HD
ATOM     38  C   UNL A   1      45.954  26.424  29.699  1.00  0.00     0.074 A 
ATOM     39  C   UNL A   1      46.340  25.085  29.299  1.00  0.00     0.031 C 
ATOM     40  C   UNL A   1      46.779  27.302  30.320  1.00  0.00     0.037 A 
BRANCH  27  41
ATOM     41  C   UNL A   1      44.154  32.724  31.687  1.00  0.00     0.057 A 
ATOM     42  C   UNL A   1      44.260  33.881  30.903  1.00  0.00     0.134 A 
ATOM     43  C   UNL A   1      44.133  32.886  33.077  1.00  0.00     0.134 A 
ATOM     44  F   UNL A   1      44.297  33.793  29.565  1.00  0.00    -0.206 F 
ATOM     45  C   UNL A   1      44.351  35.148  31.481  1.00  0.00     0.040 A 
ATOM     46  C   UNL A   1      44.203  34.150  33.667  1.00  0.00     0.040 A 
ATOM     47  F   UNL A   1      44.027  31.820  33.886  1.00  0.00    -0.206 F 
ATOM     48  C   UNL A   1      44.314  35.286  32.868  1.00  0.00     0.006 A 
ENDBRANCH  27  41
BRANCH  28  49
ATOM     49  C   UNL A   1      42.780  23.782  27.451  1.00  0.00     0.057 A 
ATOM     50  C   UNL A   1      42.423  22.661  28.207  1.00  0.00     0.134 A 
ATOM     51  C   UNL A   1      42.923  23.612  26.068  1.00  0.00     0.134 A 
ATOM     52  F   UNL A   1      42.286  22.759  29.538  1.00  0.00    -0.206 F 
ATOM     53  C   UNL A   1      42.231  21.412  27.614  1.00  0.00     0.040 A 
ATOM     54  C   UNL A   1      42.706  22.377  25.459  1.00  0.00     0.040 A 
ATOM     55  F   UNL A   1      43.251  24.652  25.289  1.00  0.00    -0.206 F 
ATOM     56  C   UNL A   1      42.366  21.271  26.233  1.00  0.00     0.006 A 
ENDBRANCH  28  49
BRANCH  40  57
ATOM     57  C   UNL A   1      48.173  26.829  30.598  1.00  0.00     0.057 A 
ATOM     58  C   UNL A   1      48.503  26.179  31.795  1.00  0.00     0.134 A 
ATOM     59  C   UNL A   1      49.197  27.030  29.665  1.00  0.00     0.134 A 
ATOM     60  F   UNL A   1      47.568  25.972  32.735  1.00  0.00    -0.206 F 
ATOM     61  C   UNL A   1      49.809  25.771  32.065  1.00  0.00     0.040 A 
ATOM     62  C   UNL A   1      50.502  26.605  29.914  1.00  0.00     0.040 A 
ATOM     63  F   UNL A   1      48.946  27.643  28.498  1.00  0.00    -0.206 F 
ATOM     64  C   UNL A   1      50.813  25.981  31.122  1.00  0.00     0.006 A 
ENDBRANCH  40  57
ENDBRANCH  14  15
ENDBRANCH   7   9
ENDBRANCH   4   5
ENDBRANCH   3   4
ENDBRANCH   2   3
ENDBRANCH   1   2
BRANCH   1  65
ATOM     65  C   UNL A   1      38.414  34.163  29.943  1.00  0.00     0.021 C 
BRANCH  65  66
ATOM     66  C   UNL A   1      38.105  34.225  31.438  1.00  0.00     0.116 C 
BRANCH  66  67
ATOM     67  N   UNL A   1      37.296  33.094  31.840  1.00  0.00    -0.354 N 
ATOM     68  C   UNL A   1      37.573  32.019  32.627  1.00  0.00     0.247 C 
ATOM     69  H   UNL A   1      36.380  33.103  31.478  1.00  0.00     0.163 HD
ATOM     70  O   UNL A   1      36.651  31.200  32.743  1.00  0.00    -0.272 OA
BRANCH  68  71
ATOM     71  C   UNL A   1      38.851  31.882  33.486  1.00  0.00     0.211 C 
BRANCH  71  72
ATOM     72  N   UNL A   1      38.583  32.327  34.875  1.00  0.00    -0.276 N 
ATOM     73  C   UNL A   1      38.156  31.376  35.791  1.00  0.00     0.267 C 
ATOM     74  C   UNL A   1      38.814  33.584  35.398  1.00  0.00     0.149 C 
ATOM     75  O   UNL A   1      37.993  30.182  35.578  1.00  0.00    -0.268 OA
ATOM     76  C   UNL A   1      37.862  32.008  37.105  1.00  0.00     0.084 C 
ATOM     77  S   UNL A   1      38.092  33.704  36.996  1.00  0.00    -0.054 SA
ATOM     78  S   UNL A   1      39.667  34.883  34.788  1.00  0.00    -0.052 S 
ATOM     79  C   UNL A   1      37.439  31.313  38.169  1.00  0.00     0.068 C 
BRANCH  79  80
ATOM     80  C   UNL A   1      36.903  31.973  39.310  1.00  0.00     0.129 A 
ATOM     81  C   UNL A   1      37.626  32.469  40.385  1.00  0.00     0.051 A 
ATOM     82  O   UNL A   1      35.566  32.209  39.548  1.00  0.00    -0.454 OA
ATOM     83  C   UNL A   1      36.708  33.008  41.300  1.00  0.00     0.054 A 
ATOM     84  C   UNL A   1      35.444  32.835  40.767  1.00  0.00     0.163 A 
BRANCH  84  85
ATOM     85  C   UNL A   1      34.215  33.236  41.399  1.00  0.00     0.160 A 
ATOM     86  N   UNL A   1      33.998  32.951  42.666  1.00  0.00    -0.233 NA
ATOM     87  S   UNL A   1      32.933  34.022  40.584  1.00  0.00    -0.111 S 
ATOM     88  C   UNL A   1      32.725  33.338  43.029  1.00  0.00     0.082 A 
ATOM     89  C   UNL A   1      31.967  33.927  42.014  1.00  0.00     0.055 A 
ATOM     90  C   UNL A   1      32.153  33.170  44.305  1.00  0.00     0.030 A 
ATOM     91  C   UNL A   1      30.640  34.333  42.234  1.00  0.00     0.021 A 
ATOM     92  C   UNL A   1      30.835  33.574  44.534  1.00  0.00     0.002 A 
ATOM     93  C   UNL A   1      30.089  34.142  43.508  1.00  0.00     0.002 A 
ENDBRANCH  84  85
ENDBRANCH  79  80
ENDBRANCH  71  72
BRANCH  71  94
ATOM     94  C   UNL A   1      39.743  30.638  33.406  1.00  0.00    -0.016 A 
ATOM     95  C   UNL A   1      39.351  29.425  32.826  1.00  0.00     0.006 A 
ATOM     96  C   UNL A   1      41.054  30.702  33.927  1.00  0.00     0.006 A 
ATOM     97  C   UNL A   1      40.220  28.332  32.747  1.00  0.00     0.000 A 
ATOM     98  C   UNL A   1      41.934  29.618  33.828  1.00  0.00     0.000 A 
ATOM     99  C   UNL A   1      41.516  28.430  33.238  1.00  0.00     0.000 A 
ENDBRANCH  71  94
ENDBRANCH  68  71
ENDBRANCH  66  67
ENDBRANCH  65  66
ENDBRANCH   1  65
TORSDOF 17
ENDMDL
MODEL 3
REMARK VINA RESULT:      -9.5      5.068     10.464
REMARK SMILES O=C(NCCCCCCNC(=O)[C@H](c1ccccc1)N1C(=O)/C(=C/c2ccc(-c3nc4ccccc4s3)o2)SC1=S)c1ccc(-c2c3nc(c(-c4c(F)cccc4F)c4ccc([nH]4)c(-c4c(F)cccc4F)c4nc(c(-c5c(F)cccc5F)c5ccc2[nH]5)C=C4)C=C3)cc1
REMARK SMILES IDX 7 1 6 2 5 3 4 4 3 5 1 6 2 7 42 9 43 10 95 11 44 12 94 13
REMARK SMILES IDX 45 14 46 15 47 16 88 17 48 18 93 19 87 20 89 21 49 22 92 23
REMARK SMILES IDX 86 24 85 25 50 27 76 28 59 29 75 30 60 31 63 32 74 33 90 34
REMARK SMILES IDX 61 35 62 36 73 38 91 39 64 40 51 41 52 42 57 43 53 44 54 45
REMARK SMILES IDX 56 46 58 47 55 48 77 49 78 50 83 51 79 52 80 53 82 54 84 55
REMARK SMILES IDX 81 56 65 57 66 58 71 59 67 60 68 61 70 62 72 63 69 64 8 65
REMARK SMILES IDX 9 66 10 67 11 68 12 70 13 71 20 72 21 73 40 74 22 75 23 76
REMARK SMILES IDX 39 77 41 78 24 79 25 80 26 81 38 82 27 83 28 84 29 85 30 86
REMARK SMILES IDX 37 87 31 88 36 89 32 90 35 91 33 92 34 93 14 94 15 95 19 96
REMARK SMILES IDX 16 97 18 98 17 99
REMARK H PARENT 3 8 89 26 63 37 10 69
REMARK Flexibility Score: inf
ROOT
ATOM      1  C   UNL A   1      35.636  22.991  23.740  1.00  0.00     0.002 C 
ENDROOT
BRANCH   1   2
ATOM      2  C   UNL A   1      35.885  21.853  24.733  1.00  0.00     0.002 C 
BRANCH   2   3
ATOM      3  C   UNL A   1      37.191  21.086  24.528  1.00  0.00     0.021 C 
BRANCH   3   4
ATOM      4  C   UNL A   1      38.234  21.304  25.616  1.00  0.00     0.116 C 
BRANCH   4   5
ATOM      5  N   UNL A   1      39.182  20.207  25.706  1.00  0.00    -0.352 N 
ATOM      6  O   UNL A   1      41.219  19.253  25.908  1.00  0.00    -0.269 OA
ATOM      7  C   UNL A   1      40.518  20.242  26.044  1.00  0.00     0.251 C 
ATOM      8  H   UNL A   1      38.821  19.317  25.496  1.00  0.00     0.163 HD
BRANCH   7   9
ATOM      9  C   UNL A   1      41.099  21.503  26.557  1.00  0.00     0.039 A 
ATOM     10  C   UNL A   1      41.279  21.690  27.928  1.00  0.00     0.014 A 
ATOM     11  C   UNL A   1      41.471  22.504  25.655  1.00  0.00     0.014 A 
ATOM     12  C   UNL A   1      41.693  22.926  28.405  1.00  0.00     0.010 A 
ATOM     13  C   UNL A   1      41.978  23.717  26.132  1.00  0.00     0.010 A 
ATOM     14  C   UNL A   1      42.069  23.947  27.514  1.00  0.00    -0.014 A 
BRANCH  14  15
ATOM     15  C   UNL A   1      42.631  25.202  28.073  1.00  0.00     0.031 A 
ATOM     16  C   UNL A   1      41.775  26.188  28.816  1.00  0.00     0.074 A 
ATOM     17  C   UNL A   1      43.957  25.408  27.954  1.00  0.00     0.049 A 
ATOM     18  N   UNL A   1      42.138  27.283  29.436  1.00  0.00    -0.248 NA
ATOM     19  C   UNL A   1      40.330  25.921  28.867  1.00  0.00     0.031 C 
ATOM     20  C   UNL A   1      44.880  24.532  27.227  1.00  0.00     0.029 A 
ATOM     21  N   UNL A   1      44.765  26.388  28.467  1.00  0.00    -0.354 N 
ATOM     22  C   UNL A   1      40.970  27.841  29.942  1.00  0.00     0.074 A 
ATOM     23  C   UNL A   1      39.883  26.977  29.533  1.00  0.00     0.031 C 
ATOM     24  C   UNL A   1      46.133  24.976  27.395  1.00  0.00     0.029 A 
ATOM     25  C   UNL A   1      46.097  26.197  28.191  1.00  0.00     0.049 A 
ATOM     26  H   UNL A   1      44.424  27.154  28.984  1.00  0.00     0.167 HD
ATOM     27  C   UNL A   1      40.826  28.963  30.687  1.00  0.00     0.037 A 
ATOM     28  C   UNL A   1      47.174  26.927  28.534  1.00  0.00     0.037 A 
ATOM     29  C   UNL A   1      41.914  29.816  31.095  1.00  0.00     0.049 A 
ATOM     30  C   UNL A   1      46.981  28.155  29.370  1.00  0.00     0.074 A 
ATOM     31  C   UNL A   1      41.868  30.974  31.854  1.00  0.00     0.029 A 
ATOM     32  N   UNL A   1      43.248  29.602  30.778  1.00  0.00    -0.354 N 
ATOM     33  N   UNL A   1      45.872  28.655  29.858  1.00  0.00    -0.248 NA
ATOM     34  C   UNL A   1      48.189  28.922  29.702  1.00  0.00     0.031 C 
ATOM     35  C   UNL A   1      43.169  31.476  31.971  1.00  0.00     0.029 A 
ATOM     36  C   UNL A   1      44.030  30.610  31.318  1.00  0.00     0.049 A 
ATOM     37  H   UNL A   1      43.587  28.846  30.247  1.00  0.00     0.167 HD
ATOM     38  C   UNL A   1      46.246  29.797  30.551  1.00  0.00     0.074 A 
ATOM     39  C   UNL A   1      47.688  29.892  30.454  1.00  0.00     0.031 C 
ATOM     40  C   UNL A   1      45.464  30.693  31.199  1.00  0.00     0.037 A 
BRANCH  27  41
ATOM     41  C   UNL A   1      39.436  29.344  31.110  1.00  0.00     0.057 A 
ATOM     42  C   UNL A   1      38.823  28.764  32.229  1.00  0.00     0.134 A 
ATOM     43  C   UNL A   1      38.726  30.340  30.429  1.00  0.00     0.134 A 
ATOM     44  F   UNL A   1      39.445  27.796  32.919  1.00  0.00    -0.206 F 
ATOM     45  C   UNL A   1      37.550  29.156  32.649  1.00  0.00     0.040 A 
ATOM     46  C   UNL A   1      37.461  30.754  30.851  1.00  0.00     0.040 A 
ATOM     47  F   UNL A   1      39.258  30.940  29.353  1.00  0.00    -0.206 F 
ATOM     48  C   UNL A   1      36.869  30.160  31.963  1.00  0.00     0.006 A 
ENDBRANCH  27  41
BRANCH  28  49
ATOM     49  C   UNL A   1      48.522  26.507  28.080  1.00  0.00     0.057 A 
ATOM     50  C   UNL A   1      49.333  25.685  28.868  1.00  0.00     0.134 A 
ATOM     51  C   UNL A   1      49.023  26.910  26.835  1.00  0.00     0.134 A 
ATOM     52  F   UNL A   1      48.913  25.279  30.075  1.00  0.00    -0.206 F 
ATOM     53  C   UNL A   1      50.602  25.289  28.442  1.00  0.00     0.040 A 
ATOM     54  C   UNL A   1      50.278  26.499  26.386  1.00  0.00     0.040 A 
ATOM     55  F   UNL A   1      48.288  27.690  26.030  1.00  0.00    -0.206 F 
ATOM     56  C   UNL A   1      51.074  25.691  27.193  1.00  0.00     0.006 A 
ENDBRANCH  28  49
BRANCH  40  57
ATOM     57  C   UNL A   1      46.165  31.848  31.849  1.00  0.00     0.057 A 
ATOM     58  C   UNL A   1      46.626  31.776  33.170  1.00  0.00     0.134 A 
ATOM     59  C   UNL A   1      46.376  33.042  31.151  1.00  0.00     0.134 A 
ATOM     60  F   UNL A   1      46.438  30.663  33.896  1.00  0.00    -0.206 F 
ATOM     61  C   UNL A   1      47.248  32.864  33.783  1.00  0.00     0.040 A 
ATOM     62  C   UNL A   1      47.018  34.129  31.746  1.00  0.00     0.040 A 
ATOM     63  F   UNL A   1      45.962  33.173  29.882  1.00  0.00    -0.206 F 
ATOM     64  C   UNL A   1      47.448  34.044  33.069  1.00  0.00     0.006 A 
ENDBRANCH  40  57
ENDBRANCH  14  15
ENDBRANCH   7   9
ENDBRANCH   4   5
ENDBRANCH   3   4
ENDBRANCH   2   3
ENDBRANCH   1   2
BRANCH   1  65
ATOM     65  C   UNL A   1      34.870  24.195  24.300  1.00  0.00     0.021 C 
BRANCH  65  66
ATOM     66  C   UNL A   1      33.350  24.058  24.238  1.00  0.00     0.116 C 
BRANCH  66  67
ATOM     67  N   UNL A   1      32.839  24.596  22.996  1.00  0.00    -0.354 N 
ATOM     68  C   UNL A   1      31.852  25.499  22.740  1.00  0.00     0.247 C 
ATOM     69  H   UNL A   1      33.284  24.246  22.190  1.00  0.00     0.163 HD
ATOM     70  O   UNL A   1      31.639  25.719  21.540  1.00  0.00    -0.272 OA
BRANCH  68  71
ATOM     71  C   UNL A   1      31.159  26.353  23.826  1.00  0.00     0.211 C 
BRANCH  71  72
ATOM     72  N   UNL A   1      32.108  27.354  24.371  1.00  0.00    -0.276 N 
ATOM     73  C   UNL A   1      32.375  27.322  25.732  1.00  0.00     0.267 C 
ATOM     74  C   UNL A   1      32.851  28.266  23.648  1.00  0.00     0.149 C 
ATOM     75  O   UNL A   1      31.919  26.529  26.545  1.00  0.00    -0.268 OA
ATOM     76  C   UNL A   1      33.281  28.438  26.116  1.00  0.00     0.084 C 
ATOM     77  S   UNL A   1      33.616  29.409  24.742  1.00  0.00    -0.054 SA
ATOM     78  S   UNL A   1      33.141  28.386  22.009  1.00  0.00    -0.052 S 
ATOM     79  C   UNL A   1      33.703  28.635  27.372  1.00  0.00     0.068 C 
BRANCH  79  80
ATOM     80  C   UNL A   1      34.329  29.854  27.752  1.00  0.00     0.129 A 
ATOM     81  C   UNL A   1      35.675  30.162  27.619  1.00  0.00     0.051 A 
ATOM     82  O   UNL A   1      33.700  30.930  28.342  1.00  0.00    -0.454 OA
ATOM     83  C   UNL A   1      35.870  31.447  28.148  1.00  0.00     0.054 A 
ATOM     84  C   UNL A   1      34.642  31.902  28.592  1.00  0.00     0.163 A 
BRANCH  84  85
ATOM     85  C   UNL A   1      34.406  33.175  29.219  1.00  0.00     0.160 A 
ATOM     86  N   UNL A   1      34.549  33.309  30.521  1.00  0.00    -0.233 NA
ATOM     87  S   UNL A   1      33.862  34.565  28.384  1.00  0.00    -0.111 S 
ATOM     88  C   UNL A   1      34.175  34.578  30.912  1.00  0.00     0.082 A 
ATOM     89  C   UNL A   1      33.740  35.417  29.883  1.00  0.00     0.055 A 
ATOM     90  C   UNL A   1      34.186  35.061  32.235  1.00  0.00     0.030 A 
ATOM     91  C   UNL A   1      33.293  36.723  30.144  1.00  0.00     0.021 A 
ATOM     92  C   UNL A   1      33.746  36.359  32.504  1.00  0.00     0.002 A 
ATOM     93  C   UNL A   1      33.299  37.176  31.470  1.00  0.00     0.002 A 
ENDBRANCH  84  85
ENDBRANCH  79  80
ENDBRANCH  71  72
BRANCH  71  94
ATOM     94  C   UNL A   1      29.740  26.899  23.633  1.00  0.00    -0.016 A 
ATOM     95  C   UNL A   1      28.581  26.257  24.086  1.00  0.00     0.006 A 
ATOM     96  C   UNL A   1      29.567  28.138  22.976  1.00  0.00     0.006 A 
ATOM     97  C   UNL A   1      27.312  26.820  23.916  1.00  0.00     0.000 A 
ATOM     98  C   UNL A   1      28.301  28.716  22.826  1.00  0.00     0.000 A 
ATOM     99  C   UNL A   1      27.171  28.054  23.296  1.00  0.00     0.000 A 
ENDBRANCH  71  94
ENDBRANCH  68  71
ENDBRANCH  66  67
ENDBRANCH  65  66
ENDBRANCH   1  65
TORSDOF 17
ENDMDL
