MODEL 1
REMARK VINA RESULT:     -10.9      0.000      0.000
REMARK SMILES O=C(CC[C@H]1CCC[N@@H+](Cc2cccc(C3CC3)c2)C1)NCCCCCCNC(=O)c1ccc(-c2c3nc(c(-c4c(F)cccc4F)c4ccc([nH]4)c(-c4c(F)cccc4F)c4nc(c(-c5c(F)cccc5F)c5ccc2[nH]5)C=C4)C=C3)cc1
REMARK SMILES IDX 23 1 22 2 21 3 1 4 2 5 3 7 4 8 5 9 6 10 20 11 7 12 9 13 8 14
REMARK SMILES IDX 10 16 11 17 12 18 19 19 13 20 15 21 14 22 16 23 17 24 18 25
REMARK SMILES IDX 24 26 25 27 26 28 27 29 28 30 29 31 30 33 31 34 32 35 84 36
REMARK SMILES IDX 33 37 83 38 34 39 35 40 36 41 77 42 37 43 82 44 76 45 78 46
REMARK SMILES IDX 38 47 81 48 75 49 74 50 39 52 65 53 48 54 64 55 49 56 52 57
REMARK SMILES IDX 63 58 79 59 50 60 51 61 62 63 80 64 53 65 40 66 41 67 46 68
REMARK SMILES IDX 42 69 43 70 45 71 47 72 44 73 66 74 67 75 72 76 68 77 69 78
REMARK SMILES IDX 71 79 73 80 70 81 54 82 55 83 60 84 56 85 57 86 59 87 61 88
REMARK SMILES IDX 58 89
REMARK H PARENT 21 6 9 15 28 32 78 51 52 62
REMARK Flexibility Score: inf
ROOT
ATOM      1  C   UNL A   1      35.828  32.604  27.813  1.00  0.00     0.021 C 
ENDROOT
BRANCH   1   2
ATOM      2  C   UNL A   1      35.214  31.344  28.418  1.00  0.00     0.116 C 
BRANCH   2   3
ATOM      3  N   UNL A   1      33.962  31.012  27.779  1.00  0.00    -0.356 N 
ATOM      4  O   UNL A   1      34.374  28.765  27.535  1.00  0.00    -0.275 OA
ATOM      5  C   UNL A   1      33.614  29.723  27.459  1.00  0.00     0.220 C 
ATOM      6  H   UNL A   1      33.334  31.739  27.563  1.00  0.00     0.163 HD
BRANCH   5   7
ATOM      7  C   UNL A   1      32.156  29.585  27.073  1.00  0.00     0.100 C 
BRANCH   7   8
ATOM      8  C   UNL A   1      31.642  28.177  27.384  1.00  0.00     0.019 C 
BRANCH   8   9
ATOM      9  C   UNL A   1      31.839  27.125  26.266  1.00  0.00     0.045 C 
ATOM     10  C   UNL A   1      31.208  25.770  26.615  1.00  0.00     0.015 C 
ATOM     11  C   UNL A   1      31.226  27.658  24.965  1.00  0.00     0.265 C 
ATOM     12  C   UNL A   1      31.276  24.815  25.424  1.00  0.00     0.062 C 
ATOM     13  N   UNL A   1      31.371  26.710  23.852  1.00  0.00    -0.331 N 
ATOM     14  C   UNL A   1      30.698  25.442  24.150  1.00  0.00     0.262 C 
ATOM     15  H   UNL A   1      32.366  26.509  23.755  1.00  0.00     0.348 HD
BRANCH  13  16
ATOM     16  C   UNL A   1      30.968  27.285  22.547  1.00  0.00     0.299 C 
BRANCH  16  17
ATOM     17  C   UNL A   1      29.739  28.175  22.560  1.00  0.00     0.006 A 
ATOM     18  C   UNL A   1      28.543  27.759  23.146  1.00  0.00     0.009 A 
ATOM     19  C   UNL A   1      29.814  29.479  22.041  1.00  0.00     0.013 A 
ATOM     20  C   UNL A   1      27.478  28.652  23.259  1.00  0.00     0.001 A 
ATOM     21  C   UNL A   1      28.810  30.437  22.244  1.00  0.00    -0.044 A 
ATOM     22  C   UNL A   1      27.625  29.979  22.839  1.00  0.00     0.004 A 
BRANCH  21  23
ATOM     23  C   UNL A   1      29.005  31.909  21.921  1.00  0.00     0.019 C 
ATOM     24  C   UNL A   1      28.069  32.615  20.960  1.00  0.00     0.009 C 
ATOM     25  C   UNL A   1      28.051  32.964  22.420  1.00  0.00     0.009 C 
ENDBRANCH  21  23
ENDBRANCH  16  17
ENDBRANCH  13  16
ENDBRANCH   8   9
ENDBRANCH   7   8
ENDBRANCH   5   7
ENDBRANCH   2   3
ENDBRANCH   1   2
BRANCH   1  26
ATOM     26  C   UNL A   1      35.567  33.892  28.609  1.00  0.00     0.002 C 
BRANCH  26  27
ATOM     27  C   UNL A   1      34.319  33.882  29.496  1.00  0.00     0.002 C 
BRANCH  27  28
ATOM     28  C   UNL A   1      33.258  34.925  29.141  1.00  0.00     0.021 C 
BRANCH  28  29
ATOM     29  C   UNL A   1      33.334  36.227  29.934  1.00  0.00     0.116 C 
BRANCH  29  30
ATOM     30  N   UNL A   1      32.403  36.264  31.051  1.00  0.00    -0.352 N 
ATOM     31  C   UNL A   1      32.519  35.714  32.302  1.00  0.00     0.251 C 
ATOM     32  H   UNL A   1      31.567  36.756  30.884  1.00  0.00     0.163 HD
ATOM     33  O   UNL A   1      31.557  35.729  33.070  1.00  0.00    -0.269 OA
BRANCH  31  34
ATOM     34  C   UNL A   1      33.783  35.073  32.726  1.00  0.00     0.039 A 
ATOM     35  C   UNL A   1      33.742  33.755  33.190  1.00  0.00     0.014 A 
ATOM     36  C   UNL A   1      35.002  35.758  32.681  1.00  0.00     0.014 A 
ATOM     37  C   UNL A   1      34.926  33.107  33.547  1.00  0.00     0.010 A 
ATOM     38  C   UNL A   1      36.189  35.086  32.966  1.00  0.00     0.010 A 
ATOM     39  C   UNL A   1      36.165  33.754  33.403  1.00  0.00    -0.014 A 
BRANCH  39  40
ATOM     40  C   UNL A   1      37.434  33.029  33.682  1.00  0.00     0.031 A 
ATOM     41  C   UNL A   1      38.221  33.303  34.933  1.00  0.00     0.074 A 
ATOM     42  C   UNL A   1      37.897  32.142  32.780  1.00  0.00     0.049 A 
ATOM     43  N   UNL A   1      39.331  32.747  35.350  1.00  0.00    -0.248 NA
ATOM     44  C   UNL A   1      37.711  34.359  35.821  1.00  0.00     0.031 C 
ATOM     45  C   UNL A   1      37.259  31.828  31.500  1.00  0.00     0.029 A 
ATOM     46  N   UNL A   1      39.008  31.338  32.804  1.00  0.00    -0.354 N 
ATOM     47  C   UNL A   1      39.656  33.389  36.538  1.00  0.00     0.074 A 
ATOM     48  C   UNL A   1      38.657  34.414  36.748  1.00  0.00     0.031 C 
ATOM     49  C   UNL A   1      37.963  30.865  30.883  1.00  0.00     0.029 A 
ATOM     50  C   UNL A   1      39.119  30.520  31.705  1.00  0.00     0.049 A 
ATOM     51  H   UNL A   1      39.665  31.346  33.537  1.00  0.00     0.167 HD
ATOM     52  C   UNL A   1      40.681  33.134  37.388  1.00  0.00     0.037 A 
ATOM     53  C   UNL A   1      40.043  29.591  31.396  1.00  0.00     0.037 A 
ATOM     54  C   UNL A   1      41.666  32.101  37.184  1.00  0.00     0.049 A 
ATOM     55  C   UNL A   1      41.170  29.330  32.354  1.00  0.00     0.074 A 
ATOM     56  C   UNL A   1      42.696  31.714  38.024  1.00  0.00     0.029 A 
ATOM     57  N   UNL A   1      41.753  31.302  36.053  1.00  0.00    -0.354 N 
ATOM     58  N   UNL A   1      41.412  29.879  33.520  1.00  0.00    -0.248 NA
ATOM     59  C   UNL A   1      42.150  28.311  31.953  1.00  0.00     0.031 C 
ATOM     60  C   UNL A   1      43.440  30.721  37.377  1.00  0.00     0.029 A 
ATOM     61  C   UNL A   1      42.839  30.447  36.159  1.00  0.00     0.049 A 
ATOM     62  H   UNL A   1      41.133  31.337  35.289  1.00  0.00     0.167 HD
ATOM     63  C   UNL A   1      42.556  29.256  34.003  1.00  0.00     0.074 A 
ATOM     64  C   UNL A   1      42.943  28.272  33.014  1.00  0.00     0.031 C 
ATOM     65  C   UNL A   1      43.224  29.479  35.162  1.00  0.00     0.037 A 
BRANCH  52  66
ATOM     66  C   UNL A   1      40.793  33.996  38.613  1.00  0.00     0.057 A 
ATOM     67  C   UNL A   1      41.591  35.149  38.643  1.00  0.00     0.134 A 
ATOM     68  C   UNL A   1      40.076  33.682  39.776  1.00  0.00     0.134 A 
ATOM     69  F   UNL A   1      42.312  35.504  37.568  1.00  0.00    -0.206 F 
ATOM     70  C   UNL A   1      41.699  35.936  39.791  1.00  0.00     0.040 A 
ATOM     71  C   UNL A   1      40.152  34.479  40.920  1.00  0.00     0.040 A 
ATOM     72  F   UNL A   1      39.286  32.599  39.817  1.00  0.00    -0.206 F 
ATOM     73  C   UNL A   1      40.973  35.604  40.932  1.00  0.00     0.006 A 
ENDBRANCH  52  66
BRANCH  53  74
ATOM     74  C   UNL A   1      39.916  28.805  30.143  1.00  0.00     0.057 A 
ATOM     75  C   UNL A   1      39.218  27.591  30.125  1.00  0.00     0.134 A 
ATOM     76  C   UNL A   1      40.486  29.239  28.942  1.00  0.00     0.134 A 
ATOM     77  F   UNL A   1      38.666  27.113  31.250  1.00  0.00    -0.206 F 
ATOM     78  C   UNL A   1      39.109  26.827  28.962  1.00  0.00     0.040 A 
ATOM     79  C   UNL A   1      40.360  28.500  27.764  1.00  0.00     0.040 A 
ATOM     80  F   UNL A   1      41.160  30.398  28.891  1.00  0.00    -0.206 F 
ATOM     81  C   UNL A   1      39.676  27.286  27.774  1.00  0.00     0.006 A 
ENDBRANCH  53  74
BRANCH  65  82
ATOM     82  C   UNL A   1      44.430  28.623  35.427  1.00  0.00     0.057 A 
ATOM     83  C   UNL A   1      45.715  29.004  35.019  1.00  0.00     0.134 A 
ATOM     84  C   UNL A   1      44.304  27.400  36.099  1.00  0.00     0.134 A 
ATOM     85  F   UNL A   1      45.906  30.156  34.358  1.00  0.00    -0.206 F 
ATOM     86  C   UNL A   1      46.825  28.182  35.233  1.00  0.00     0.040 A 
ATOM     87  C   UNL A   1      45.410  26.585  36.348  1.00  0.00     0.040 A 
ATOM     88  F   UNL A   1      43.105  26.977  36.527  1.00  0.00    -0.206 F 
ATOM     89  C   UNL A   1      46.673  26.970  35.904  1.00  0.00     0.006 A 
ENDBRANCH  65  82
ENDBRANCH  39  40
ENDBRANCH  31  34
ENDBRANCH  29  30
ENDBRANCH  28  29
ENDBRANCH  27  28
ENDBRANCH  26  27
ENDBRANCH   1  26
TORSDOF 18
ENDMDL
MODEL 2
REMARK VINA RESULT:     -10.9      4.857      8.200
REMARK SMILES O=C(CC[C@H]1CCC[N@@H+](Cc2cccc(C3CC3)c2)C1)NCCCCCCNC(=O)c1ccc(-c2c3nc(c(-c4c(F)cccc4F)c4ccc([nH]4)c(-c4c(F)cccc4F)c4nc(c(-c5c(F)cccc5F)c5ccc2[nH]5)C=C4)C=C3)cc1
REMARK SMILES IDX 23 1 22 2 21 3 1 4 2 5 3 7 4 8 5 9 6 10 20 11 7 12 9 13 8 14
REMARK SMILES IDX 10 16 11 17 12 18 19 19 13 20 15 21 14 22 16 23 17 24 18 25
REMARK SMILES IDX 24 26 25 27 26 28 27 29 28 30 29 31 30 33 31 34 32 35 84 36
REMARK SMILES IDX 33 37 83 38 34 39 35 40 36 41 77 42 37 43 82 44 76 45 78 46
REMARK SMILES IDX 38 47 81 48 75 49 74 50 39 52 65 53 48 54 64 55 49 56 52 57
REMARK SMILES IDX 63 58 79 59 50 60 51 61 62 63 80 64 53 65 40 66 41 67 46 68
REMARK SMILES IDX 42 69 43 70 45 71 47 72 44 73 66 74 67 75 72 76 68 77 69 78
REMARK SMILES IDX 71 79 73 80 70 81 54 82 55 83 60 84 56 85 57 86 59 87 61 88
REMARK SMILES IDX 58 89
REMARK H PARENT 21 6 9 15 28 32 78 51 52 62
REMARK Flexibility Score: inf
ROOT
ATOM      1  C   UNL A   1      33.958  36.828  33.544  1.00  0.00     0.021 C 
ENDROOT
BRANCH   1   2
ATOM      2  C   UNL A   1      33.648  37.724  32.348  1.00  0.00     0.116 C 
BRANCH   2   3
ATOM      3  N   UNL A   1      33.944  37.055  31.102  1.00  0.00    -0.356 N 
ATOM      4  O   UNL A   1      31.796  36.380  30.644  1.00  0.00    -0.275 OA
ATOM      5  C   UNL A   1      32.969  36.502  30.310  1.00  0.00     0.220 C 
ATOM      6  H   UNL A   1      34.882  36.994  30.810  1.00  0.00     0.163 HD
BRANCH   5   7
ATOM      7  C   UNL A   1      33.473  36.123  28.933  1.00  0.00     0.100 C 
BRANCH   7   8
ATOM      8  C   UNL A   1      33.116  34.671  28.604  1.00  0.00     0.019 C 
BRANCH   8   9
ATOM      9  C   UNL A   1      34.270  33.802  28.049  1.00  0.00     0.045 C 
ATOM     10  C   UNL A   1      35.603  34.069  28.762  1.00  0.00     0.015 C 
ATOM     11  C   UNL A   1      33.896  32.322  28.193  1.00  0.00     0.265 C 
ATOM     12  C   UNL A   1      36.672  33.079  28.303  1.00  0.00     0.062 C 
ATOM     13  N   UNL A   1      34.948  31.430  27.688  1.00  0.00    -0.331 N 
ATOM     14  C   UNL A   1      36.201  31.626  28.424  1.00  0.00     0.262 C 
ATOM     15  H   UNL A   1      35.123  31.691  26.717  1.00  0.00     0.348 HD
BRANCH  13  16
ATOM     16  C   UNL A   1      34.525  30.011  27.633  1.00  0.00     0.299 C 
BRANCH  16  17
ATOM     17  C   UNL A   1      33.524  29.654  26.551  1.00  0.00     0.006 A 
ATOM     18  C   UNL A   1      32.288  30.294  26.460  1.00  0.00     0.009 A 
ATOM     19  C   UNL A   1      33.866  28.711  25.566  1.00  0.00     0.013 A 
ATOM     20  C   UNL A   1      31.451  30.036  25.375  1.00  0.00     0.001 A 
ATOM     21  C   UNL A   1      33.106  28.517  24.403  1.00  0.00    -0.044 A 
ATOM     22  C   UNL A   1      31.871  29.181  24.349  1.00  0.00     0.004 A 
BRANCH  21  23
ATOM     23  C   UNL A   1      33.609  27.704  23.222  1.00  0.00     0.019 C 
ATOM     24  C   UNL A   1      33.653  26.190  23.295  1.00  0.00     0.009 C 
ATOM     25  C   UNL A   1      32.678  26.871  22.378  1.00  0.00     0.009 C 
ENDBRANCH  21  23
ENDBRANCH  16  17
ENDBRANCH  13  16
ENDBRANCH   8   9
ENDBRANCH   7   8
ENDBRANCH   5   7
ENDBRANCH   2   3
ENDBRANCH   1   2
BRANCH   1  26
ATOM     26  C   UNL A   1      34.788  35.578  33.212  1.00  0.00     0.002 C 
BRANCH  26  27
ATOM     27  C   UNL A   1      33.998  34.273  33.082  1.00  0.00     0.002 C 
BRANCH  27  28
ATOM     28  C   UNL A   1      34.381  33.392  31.892  1.00  0.00     0.021 C 
BRANCH  28  29
ATOM     29  C   UNL A   1      35.323  32.236  32.214  1.00  0.00     0.116 C 
BRANCH  29  30
ATOM     30  N   UNL A   1      35.915  32.340  33.538  1.00  0.00    -0.352 N 
ATOM     31  C   UNL A   1      37.138  31.907  33.984  1.00  0.00     0.251 C 
ATOM     32  H   UNL A   1      35.356  32.788  34.213  1.00  0.00     0.163 HD
ATOM     33  O   UNL A   1      37.406  31.957  35.185  1.00  0.00    -0.269 OA
BRANCH  31  34
ATOM     34  C   UNL A   1      38.128  31.347  33.038  1.00  0.00     0.039 A 
ATOM     35  C   UNL A   1      38.084  31.758  31.702  1.00  0.00     0.014 A 
ATOM     36  C   UNL A   1      39.088  30.418  33.449  1.00  0.00     0.014 A 
ATOM     37  C   UNL A   1      39.037  31.286  30.799  1.00  0.00     0.010 A 
ATOM     38  C   UNL A   1      40.084  30.007  32.565  1.00  0.00     0.010 A 
ATOM     39  C   UNL A   1      40.069  30.435  31.229  1.00  0.00    -0.014 A 
BRANCH  39  40
ATOM     40  C   UNL A   1      41.146  30.017  30.293  1.00  0.00     0.031 A 
ATOM     41  C   UNL A   1      42.274  30.948  29.948  1.00  0.00     0.074 A 
ATOM     42  C   UNL A   1      41.085  28.798  29.720  1.00  0.00     0.049 A 
ATOM     43  N   UNL A   1      43.310  30.741  29.173  1.00  0.00    -0.248 NA
ATOM     44  C   UNL A   1      42.221  32.299  30.526  1.00  0.00     0.031 C 
ATOM     45  C   UNL A   1      40.013  27.822  29.926  1.00  0.00     0.029 A 
ATOM     46  N   UNL A   1      41.945  28.171  28.856  1.00  0.00    -0.354 N 
ATOM     47  C   UNL A   1      44.023  31.933  29.163  1.00  0.00     0.074 A 
ATOM     48  C   UNL A   1      43.274  32.876  29.964  1.00  0.00     0.031 C 
ATOM     49  C   UNL A   1      40.303  26.702  29.245  1.00  0.00     0.029 A 
ATOM     50  C   UNL A   1      41.559  26.893  28.528  1.00  0.00     0.049 A 
ATOM     51  H   UNL A   1      42.760  28.594  28.502  1.00  0.00     0.167 HD
ATOM     52  C   UNL A   1      45.205  32.210  28.560  1.00  0.00     0.037 A 
ATOM     53  C   UNL A   1      42.155  25.974  27.744  1.00  0.00     0.037 A 
ATOM     54  C   UNL A   1      45.957  31.264  27.775  1.00  0.00     0.049 A 
ATOM     55  C   UNL A   1      43.463  26.308  27.085  1.00  0.00     0.074 A 
ATOM     56  C   UNL A   1      47.200  31.425  27.188  1.00  0.00     0.029 A 
ATOM     57  N   UNL A   1      45.528  29.983  27.455  1.00  0.00    -0.354 N 
ATOM     58  N   UNL A   1      44.173  27.407  27.161  1.00  0.00    -0.248 NA
ATOM     59  C   UNL A   1      44.055  25.266  26.235  1.00  0.00     0.031 C 
ATOM     60  C   UNL A   1      47.498  30.263  26.465  1.00  0.00     0.029 A 
ATOM     61  C   UNL A   1      46.467  29.356  26.650  1.00  0.00     0.049 A 
ATOM     62  H   UNL A   1      44.682  29.580  27.756  1.00  0.00     0.167 HD
ATOM     63  C   UNL A   1      45.307  27.180  26.391  1.00  0.00     0.074 A 
ATOM     64  C   UNL A   1      45.198  25.831  25.877  1.00  0.00     0.031 C 
ATOM     65  C   UNL A   1      46.345  28.016  26.133  1.00  0.00     0.037 A 
BRANCH  52  66
ATOM     66  C   UNL A   1      45.752  33.601  28.718  1.00  0.00     0.057 A 
ATOM     67  C   UNL A   1      45.411  34.639  27.840  1.00  0.00     0.134 A 
ATOM     68  C   UNL A   1      46.615  33.913  29.776  1.00  0.00     0.134 A 
ATOM     69  F   UNL A   1      44.596  34.410  26.798  1.00  0.00    -0.206 F 
ATOM     70  C   UNL A   1      45.935  35.925  27.987  1.00  0.00     0.040 A 
ATOM     71  C   UNL A   1      47.121  35.203  29.952  1.00  0.00     0.040 A 
ATOM     72  F   UNL A   1      46.978  32.971  30.660  1.00  0.00    -0.206 F 
ATOM     73  C   UNL A   1      46.788  36.211  29.050  1.00  0.00     0.006 A 
ENDBRANCH  52  66
BRANCH  53  74
ATOM     74  C   UNL A   1      41.542  24.632  27.576  1.00  0.00     0.057 A 
ATOM     75  C   UNL A   1      41.985  23.541  28.334  1.00  0.00     0.134 A 
ATOM     76  C   UNL A   1      40.510  24.404  26.660  1.00  0.00     0.134 A 
ATOM     77  F   UNL A   1      42.985  23.692  29.215  1.00  0.00    -0.206 F 
ATOM     78  C   UNL A   1      41.438  22.267  28.172  1.00  0.00     0.040 A 
ATOM     79  C   UNL A   1      39.933  23.142  26.508  1.00  0.00     0.040 A 
ATOM     80  F   UNL A   1      40.035  25.410  25.910  1.00  0.00    -0.206 F 
ATOM     81  C   UNL A   1      40.403  22.067  27.261  1.00  0.00     0.006 A 
ENDBRANCH  53  74
BRANCH  65  82
ATOM     82  C   UNL A   1      47.453  27.477  25.274  1.00  0.00     0.057 A 
ATOM     83  C   UNL A   1      48.547  26.791  25.818  1.00  0.00     0.134 A 
ATOM     84  C   UNL A   1      47.426  27.647  23.884  1.00  0.00     0.134 A 
ATOM     85  F   UNL A   1      48.643  26.605  27.144  1.00  0.00    -0.206 F 
ATOM     86  C   UNL A   1      49.593  26.329  25.016  1.00  0.00     0.040 A 
ATOM     87  C   UNL A   1      48.449  27.161  23.067  1.00  0.00     0.040 A 
ATOM     88  F   UNL A   1      46.404  28.285  23.294  1.00  0.00    -0.206 F 
ATOM     89  C   UNL A   1      49.543  26.510  23.635  1.00  0.00     0.006 A 
ENDBRANCH  65  82
ENDBRANCH  39  40
ENDBRANCH  31  34
ENDBRANCH  29  30
ENDBRANCH  28  29
ENDBRANCH  27  28
ENDBRANCH  26  27
ENDBRANCH   1  26
TORSDOF 18
ENDMDL
MODEL 3
REMARK VINA RESULT:     -10.8      7.629     11.564
REMARK SMILES O=C(CC[C@H]1CCC[N@@H+](Cc2cccc(C3CC3)c2)C1)NCCCCCCNC(=O)c1ccc(-c2c3nc(c(-c4c(F)cccc4F)c4ccc([nH]4)c(-c4c(F)cccc4F)c4nc(c(-c5c(F)cccc5F)c5ccc2[nH]5)C=C4)C=C3)cc1
REMARK SMILES IDX 23 1 22 2 21 3 1 4 2 5 3 7 4 8 5 9 6 10 20 11 7 12 9 13 8 14
REMARK SMILES IDX 10 16 11 17 12 18 19 19 13 20 15 21 14 22 16 23 17 24 18 25
REMARK SMILES IDX 24 26 25 27 26 28 27 29 28 30 29 31 30 33 31 34 32 35 84 36
REMARK SMILES IDX 33 37 83 38 34 39 35 40 36 41 77 42 37 43 82 44 76 45 78 46
REMARK SMILES IDX 38 47 81 48 75 49 74 50 39 52 65 53 48 54 64 55 49 56 52 57
REMARK SMILES IDX 63 58 79 59 50 60 51 61 62 63 80 64 53 65 40 66 41 67 46 68
REMARK SMILES IDX 42 69 43 70 45 71 47 72 44 73 66 74 67 75 72 76 68 77 69 78
REMARK SMILES IDX 71 79 73 80 70 81 54 82 55 83 60 84 56 85 57 86 59 87 61 88
REMARK SMILES IDX 58 89
REMARK H PARENT 21 6 9 15 28 32 78 51 52 62
REMARK Flexibility Score: inf
ROOT
ATOM      1  C   UNL A   1      40.099  28.936  27.055  1.00  0.00     0.021 C 
ENDROOT
BRANCH   1   2
ATOM      2  C   UNL A   1      39.529  29.488  28.359  1.00  0.00     0.116 C 
BRANCH   2   3
ATOM      3  N   UNL A   1      38.098  29.666  28.271  1.00  0.00    -0.356 N 
ATOM      4  O   UNL A   1      38.027  31.743  29.250  1.00  0.00    -0.275 OA
ATOM      5  C   UNL A   1      37.472  30.825  28.658  1.00  0.00     0.220 C 
ATOM      6  H   UNL A   1      37.550  28.927  27.921  1.00  0.00     0.163 HD
BRANCH   5   7
ATOM      7  C   UNL A   1      36.028  30.894  28.207  1.00  0.00     0.100 C 
BRANCH   7   8
ATOM      8  C   UNL A   1      35.590  29.567  27.583  1.00  0.00     0.019 C 
BRANCH   8   9
ATOM      9  C   UNL A   1      34.066  29.389  27.376  1.00  0.00     0.045 C 
ATOM     10  C   UNL A   1      33.360  30.710  27.040  1.00  0.00     0.015 C 
ATOM     11  C   UNL A   1      33.828  28.377  26.249  1.00  0.00     0.265 C 
ATOM     12  C   UNL A   1      31.895  30.467  26.681  1.00  0.00     0.062 C 
ATOM     13  N   UNL A   1      32.400  28.157  25.990  1.00  0.00    -0.331 N 
ATOM     14  C   UNL A   1      31.739  29.403  25.589  1.00  0.00     0.262 C 
ATOM     15  H   UNL A   1      31.977  27.860  26.870  1.00  0.00     0.348 HD
BRANCH  13  16
ATOM     16  C   UNL A   1      32.149  27.041  25.049  1.00  0.00     0.299 C 
BRANCH  16  17
ATOM     17  C   UNL A   1      32.747  25.699  25.428  1.00  0.00     0.006 A 
ATOM     18  C   UNL A   1      32.159  24.886  26.398  1.00  0.00     0.009 A 
ATOM     19  C   UNL A   1      33.876  25.218  24.743  1.00  0.00     0.013 A 
ATOM     20  C   UNL A   1      32.658  23.604  26.623  1.00  0.00     0.001 A 
ATOM     21  C   UNL A   1      34.329  23.895  24.858  1.00  0.00    -0.044 A 
ATOM     22  C   UNL A   1      33.710  23.110  25.842  1.00  0.00     0.004 A 
BRANCH  21  23
ATOM     23  C   UNL A   1      35.372  23.302  23.926  1.00  0.00     0.019 C 
ATOM     24  C   UNL A   1      36.843  23.348  24.291  1.00  0.00     0.009 C 
ATOM     25  C   UNL A   1      36.114  22.036  24.269  1.00  0.00     0.009 C 
ENDBRANCH  21  23
ENDBRANCH  16  17
ENDBRANCH  13  16
ENDBRANCH   8   9
ENDBRANCH   7   8
ENDBRANCH   5   7
ENDBRANCH   2   3
ENDBRANCH   1   2
BRANCH   1  26
ATOM     26  C   UNL A   1      40.677  27.516  27.156  1.00  0.00     0.002 C 
BRANCH  26  27
ATOM     27  C   UNL A   1      40.208  26.694  28.360  1.00  0.00     0.002 C 
BRANCH  27  28
ATOM     28  C   UNL A   1      39.505  25.379  28.019  1.00  0.00     0.021 C 
BRANCH  28  29
ATOM     29  C   UNL A   1      39.740  24.864  26.601  1.00  0.00     0.116 C 
BRANCH  29  30
ATOM     30  N   UNL A   1      40.510  23.631  26.569  1.00  0.00    -0.352 N 
ATOM     31  C   UNL A   1      41.861  23.449  26.418  1.00  0.00     0.251 C 
ATOM     32  H   UNL A   1      39.984  22.805  26.670  1.00  0.00     0.163 HD
ATOM     33  O   UNL A   1      42.315  22.314  26.269  1.00  0.00    -0.269 OA
BRANCH  31  34
ATOM     34  C   UNL A   1      42.778  24.611  26.398  1.00  0.00     0.039 A 
ATOM     35  C   UNL A   1      43.397  24.995  27.591  1.00  0.00     0.014 A 
ATOM     36  C   UNL A   1      43.024  25.328  25.223  1.00  0.00     0.014 A 
ATOM     37  C   UNL A   1      44.306  26.054  27.592  1.00  0.00     0.010 A 
ATOM     38  C   UNL A   1      43.987  26.335  25.210  1.00  0.00     0.010 A 
ATOM     39  C   UNL A   1      44.639  26.710  26.394  1.00  0.00    -0.014 A 
BRANCH  39  40
ATOM     40  C   UNL A   1      45.685  27.767  26.376  1.00  0.00     0.031 A 
ATOM     41  C   UNL A   1      45.325  29.214  26.563  1.00  0.00     0.074 A 
ATOM     42  C   UNL A   1      46.967  27.419  26.151  1.00  0.00     0.049 A 
ATOM     43  N   UNL A   1      46.109  30.263  26.603  1.00  0.00    -0.248 NA
ATOM     44  C   UNL A   1      43.896  29.531  26.698  1.00  0.00     0.031 C 
ATOM     45  C   UNL A   1      47.441  26.057  25.896  1.00  0.00     0.029 A 
ATOM     46  N   UNL A   1      48.107  28.181  26.107  1.00  0.00    -0.354 N 
ATOM     47  C   UNL A   1      45.271  31.359  26.756  1.00  0.00     0.074 A 
ATOM     48  C   UNL A   1      43.915  30.855  26.747  1.00  0.00     0.031 C 
ATOM     49  C   UNL A   1      48.778  26.073  25.770  1.00  0.00     0.029 A 
ATOM     50  C   UNL A   1      49.251  27.448  25.898  1.00  0.00     0.049 A 
ATOM     51  H   UNL A   1      48.107  29.160  26.214  1.00  0.00     0.167 HD
ATOM     52  C   UNL A   1      45.601  32.665  26.912  1.00  0.00     0.037 A 
ATOM     53  C   UNL A   1      50.538  27.838  25.826  1.00  0.00     0.037 A 
ATOM     54  C   UNL A   1      46.953  33.163  26.936  1.00  0.00     0.049 A 
ATOM     55  C   UNL A   1      50.876  29.291  26.000  1.00  0.00     0.074 A 
ATOM     56  C   UNL A   1      47.393  34.456  27.165  1.00  0.00     0.029 A 
ATOM     57  N   UNL A   1      48.085  32.392  26.709  1.00  0.00    -0.354 N 
ATOM     58  N   UNL A   1      50.080  30.305  26.238  1.00  0.00    -0.248 NA
ATOM     59  C   UNL A   1      52.297  29.651  25.899  1.00  0.00     0.031 C 
ATOM     60  C   UNL A   1      48.785  34.478  27.019  1.00  0.00     0.029 A 
ATOM     61  C   UNL A   1      49.219  33.188  26.758  1.00  0.00     0.049 A 
ATOM     62  H   UNL A   1      48.081  31.422  26.538  1.00  0.00     0.167 HD
ATOM     63  C   UNL A   1      50.905  31.418  26.343  1.00  0.00     0.074 A 
ATOM     64  C   UNL A   1      52.263  30.949  26.164  1.00  0.00     0.031 C 
ATOM     65  C   UNL A   1      50.566  32.713  26.567  1.00  0.00     0.037 A 
BRANCH  52  66
ATOM     66  C   UNL A   1      44.475  33.650  27.058  1.00  0.00     0.057 A 
ATOM     67  C   UNL A   1      43.918  34.312  25.955  1.00  0.00     0.134 A 
ATOM     68  C   UNL A   1      43.924  33.924  28.317  1.00  0.00     0.134 A 
ATOM     69  F   UNL A   1      44.402  34.105  24.721  1.00  0.00    -0.206 F 
ATOM     70  C   UNL A   1      42.881  35.236  26.102  1.00  0.00     0.040 A 
ATOM     71  C   UNL A   1      42.866  34.822  28.473  1.00  0.00     0.040 A 
ATOM     72  F   UNL A   1      44.402  33.320  29.415  1.00  0.00    -0.206 F 
ATOM     73  C   UNL A   1      42.348  35.488  27.365  1.00  0.00     0.006 A 
ENDBRANCH  52  66
BRANCH  53  74
ATOM     74  C   UNL A   1      51.608  26.829  25.624  1.00  0.00     0.057 A 
ATOM     75  C   UNL A   1      52.109  26.561  24.344  1.00  0.00     0.134 A 
ATOM     76  C   UNL A   1      52.152  26.108  26.692  1.00  0.00     0.134 A 
ATOM     77  F   UNL A   1      51.615  27.206  23.277  1.00  0.00    -0.206 F 
ATOM     78  C   UNL A   1      53.098  25.600  24.131  1.00  0.00     0.040 A 
ATOM     79  C   UNL A   1      53.161  25.164  26.498  1.00  0.00     0.040 A 
ATOM     80  F   UNL A   1      51.720  26.323  27.944  1.00  0.00    -0.206 F 
ATOM     81  C   UNL A   1      53.632  24.902  25.213  1.00  0.00     0.006 A 
ENDBRANCH  53  74
BRANCH  65  82
ATOM     82  C   UNL A   1      51.692  33.704  26.653  1.00  0.00     0.057 A 
ATOM     83  C   UNL A   1      52.343  33.984  27.862  1.00  0.00     0.134 A 
ATOM     84  C   UNL A   1      52.132  34.388  25.512  1.00  0.00     0.134 A 
ATOM     85  F   UNL A   1      51.964  33.375  28.996  1.00  0.00    -0.206 F 
ATOM     86  C   UNL A   1      53.362  34.937  27.940  1.00  0.00     0.040 A 
ATOM     87  C   UNL A   1      53.170  35.318  25.571  1.00  0.00     0.040 A 
ATOM     88  F   UNL A   1      51.560  34.162  24.319  1.00  0.00    -0.206 F 
ATOM     89  C   UNL A   1      53.781  35.603  26.791  1.00  0.00     0.006 A 
ENDBRANCH  65  82
ENDBRANCH  39  40
ENDBRANCH  31  34
ENDBRANCH  29  30
ENDBRANCH  28  29
ENDBRANCH  27  28
ENDBRANCH  26  27
ENDBRANCH   1  26
TORSDOF 18
ENDMDL
