MODEL 1
REMARK VINA RESULT:     -12.0      0.000      0.000
REMARK SMILES C[C@H]1CC[C@H]([NH2+]Cc2c(C(=O)NCCCCCCNC(=O)c3ccc(-c4c5nc(c(-c6c(F)cccc6F)c6ccc([nH]6)c(-c6c(F)cccc6F)c6nc(c(-c7c(F)cccc7F)c7ccc4[nH]7)C=C6)C=C5)cc3)n(Cc3ccccc3F)c3ccccc23)CC1
REMARK SMILES IDX 15 1 14 2 13 3 12 4 10 5 11 6 9 8 8 9 90 10 76 11 85 12
REMARK SMILES IDX 89 13 86 14 88 15 87 16 7 17 6 18 5 21 1 22 2 23 3 24 92 25
REMARK SMILES IDX 4 26 91 27 77 28 78 29 79 30 83 31 80 32 82 33 84 34 81 35
REMARK SMILES IDX 16 36 17 37 18 38 19 39 20 40 21 42 22 43 23 44 75 45 24 46
REMARK SMILES IDX 74 47 25 48 26 49 27 50 68 51 28 52 73 53 67 54 69 55 29 56
REMARK SMILES IDX 72 57 66 58 65 59 30 61 56 62 39 63 55 64 40 65 43 66 54 67
REMARK SMILES IDX 70 68 41 69 42 70 53 72 71 73 44 74 31 75 32 76 37 77 33 78
REMARK SMILES IDX 34 79 36 80 38 81 35 82 57 83 58 84 63 85 59 86 60 87 62 88
REMARK SMILES IDX 64 89 61 90 45 91 46 92 51 93 47 94 48 95 50 96 52 97 49 98
REMARK H PARENT 12 7 6 19 6 20 19 41 69 60 43 71
REMARK Flexibility Score: inf
ROOT
ATOM      1  C   UNL A   1      33.659  27.193  24.713  1.00  0.00     0.002 C 
ENDROOT
BRANCH   1   2
ATOM      2  C   UNL A   1      33.808  26.209  25.887  1.00  0.00     0.021 C 
BRANCH   2   3
ATOM      3  C   UNL A   1      34.264  24.800  25.513  1.00  0.00     0.116 C 
BRANCH   3   4
ATOM      4  N   UNL A   1      34.548  24.597  24.112  1.00  0.00    -0.351 N 
ATOM      5  C   UNL A   1      34.510  23.468  23.327  1.00  0.00     0.268 C 
ATOM      6  O   UNL A   1      34.796  23.688  22.143  1.00  0.00    -0.268 OA
ATOM      7  H   UNL A   1      34.818  25.413  23.634  1.00  0.00     0.163 HD
BRANCH   5   8
ATOM      8  C   UNL A   1      34.226  22.112  23.819  1.00  0.00     0.117 A 
ATOM      9  C   UNL A   1      34.906  21.245  24.695  1.00  0.00     0.045 A 
ATOM     10  C   UNL A   1      34.344  19.942  24.493  1.00  0.00     0.009 A 
ATOM     11  N   UNL A   1      32.979  21.463  23.624  1.00  0.00    -0.331 N 
ATOM     12  C   UNL A   1      33.051  20.140  24.043  1.00  0.00     0.049 A 
ATOM     13  C   UNL A   1      34.766  18.635  24.823  1.00  0.00     0.011 A 
ATOM     14  C   UNL A   1      32.103  19.101  24.104  1.00  0.00     0.027 A 
ATOM     15  C   UNL A   1      33.872  17.569  24.723  1.00  0.00     0.001 A 
ATOM     16  C   UNL A   1      32.542  17.810  24.411  1.00  0.00     0.002 A 
BRANCH   9  17
ATOM     17  C   UNL A   1      35.991  21.409  25.720  1.00  0.00     0.300 C 
BRANCH  17  18
ATOM     18  N   UNL A   1      37.356  21.302  25.248  1.00  0.00    -0.340 N 
ATOM     19  H   UNL A   1      37.709  20.419  25.615  1.00  0.00     0.346 HD
ATOM     20  H   UNL A   1      37.231  21.430  24.243  1.00  0.00     0.346 HD
BRANCH  18  21
ATOM     21  C   UNL A   1      38.390  22.297  25.534  1.00  0.00     0.182 C 
ATOM     22  C   UNL A   1      40.217  25.286  28.246  1.00  0.00     0.007 C 
ATOM     23  C   UNL A   1      39.413  24.143  27.642  1.00  0.00    -0.014 C 
ATOM     24  C   UNL A   1      40.322  23.086  27.008  1.00  0.00     0.009 C 
ATOM     25  C   UNL A   1      38.428  24.652  26.591  1.00  0.00     0.009 C 
ATOM     26  C   UNL A   1      39.485  21.901  26.531  1.00  0.00     0.065 C 
ATOM     27  C   UNL A   1      37.580  23.508  26.049  1.00  0.00     0.065 C 
ENDBRANCH  18  21
ENDBRANCH  17  18
ENDBRANCH   9  17
BRANCH  11  28
ATOM     28  C   UNL A   1      31.706  22.088  23.216  1.00  0.00     0.161 C 
BRANCH  28  29
ATOM     29  C   UNL A   1      31.243  23.248  24.069  1.00  0.00     0.008 A 
ATOM     30  C   UNL A   1      30.926  24.507  23.531  1.00  0.00     0.008 A 
ATOM     31  C   UNL A   1      31.000  23.066  25.433  1.00  0.00     0.128 A 
ATOM     32  C   UNL A   1      30.407  25.537  24.322  1.00  0.00     0.001 A 
ATOM     33  C   UNL A   1      30.499  24.093  26.236  1.00  0.00     0.039 A 
ATOM     34  F   UNL A   1      31.196  21.868  26.000  1.00  0.00    -0.207 F 
ATOM     35  C   UNL A   1      30.201  25.334  25.679  1.00  0.00     0.003 A 
ENDBRANCH  28  29
ENDBRANCH  11  28
ENDBRANCH   5   8
ENDBRANCH   3   4
ENDBRANCH   2   3
ENDBRANCH   1   2
BRANCH   1  36
ATOM     36  C   UNL A   1      33.198  28.629  25.019  1.00  0.00     0.002 C 
BRANCH  36  37
ATOM     37  C   UNL A   1      32.380  28.881  26.293  1.00  0.00     0.021 C 
BRANCH  37  38
ATOM     38  C   UNL A   1      33.159  29.363  27.517  1.00  0.00     0.116 C 
BRANCH  38  39
ATOM     39  N   UNL A   1      33.507  30.767  27.473  1.00  0.00    -0.352 N 
ATOM     40  C   UNL A   1      34.630  31.512  27.684  1.00  0.00     0.251 C 
ATOM     41  H   UNL A   1      32.736  31.329  27.229  1.00  0.00     0.163 HD
ATOM     42  O   UNL A   1      34.519  32.720  27.449  1.00  0.00    -0.269 OA
BRANCH  40  43
ATOM     43  C   UNL A   1      35.944  31.005  28.172  1.00  0.00     0.039 A 
ATOM     44  C   UNL A   1      36.889  31.734  28.893  1.00  0.00     0.014 A 
ATOM     45  C   UNL A   1      36.261  29.677  27.818  1.00  0.00     0.014 A 
ATOM     46  C   UNL A   1      38.121  31.163  29.226  1.00  0.00     0.010 A 
ATOM     47  C   UNL A   1      37.488  29.103  28.151  1.00  0.00     0.010 A 
ATOM     48  C   UNL A   1      38.437  29.857  28.836  1.00  0.00    -0.014 A 
BRANCH  48  49
ATOM     49  C   UNL A   1      39.760  29.329  29.185  1.00  0.00     0.031 A 
ATOM     50  C   UNL A   1      40.044  29.075  30.628  1.00  0.00     0.074 A 
ATOM     51  C   UNL A   1      40.698  28.962  28.288  1.00  0.00     0.049 A 
ATOM     52  N   UNL A   1      40.962  29.608  31.373  1.00  0.00    -0.248 NA
ATOM     53  C   UNL A   1      39.197  28.100  31.330  1.00  0.00     0.031 C 
ATOM     54  C   UNL A   1      40.561  28.811  26.838  1.00  0.00     0.029 A 
ATOM     55  N   UNL A   1      41.982  28.557  28.526  1.00  0.00    -0.354 N 
ATOM     56  C   UNL A   1      40.909  28.944  32.598  1.00  0.00     0.074 A 
ATOM     57  C   UNL A   1      39.761  28.073  32.539  1.00  0.00     0.031 C 
ATOM     58  C   UNL A   1      41.648  28.167  26.355  1.00  0.00     0.029 A 
ATOM     59  C   UNL A   1      42.609  27.985  27.432  1.00  0.00     0.049 A 
ATOM     60  H   UNL A   1      42.423  28.664  29.400  1.00  0.00     0.167 HD
ATOM     61  C   UNL A   1      41.892  29.046  33.537  1.00  0.00     0.037 A 
ATOM     62  C   UNL A   1      43.812  27.366  27.413  1.00  0.00     0.037 A 
ATOM     63  C   UNL A   1      42.772  30.155  33.297  1.00  0.00     0.049 A 
ATOM     64  C   UNL A   1      44.586  27.801  28.596  1.00  0.00     0.074 A 
ATOM     65  C   UNL A   1      42.631  31.525  33.224  1.00  0.00     0.029 A 
ATOM     66  N   UNL A   1      44.035  29.893  32.831  1.00  0.00    -0.354 N 
ATOM     67  N   UNL A   1      45.109  28.985  28.745  1.00  0.00    -0.248 NA
ATOM     68  C   UNL A   1      44.519  26.994  29.805  1.00  0.00     0.031 C 
ATOM     69  C   UNL A   1      43.612  31.954  32.283  1.00  0.00     0.029 A 
ATOM     70  C   UNL A   1      44.283  30.811  31.845  1.00  0.00     0.049 A 
ATOM     71  H   UNL A   1      44.644  29.186  33.143  1.00  0.00     0.167 HD
ATOM     72  C   UNL A   1      45.057  29.226  30.110  1.00  0.00     0.074 A 
ATOM     73  C   UNL A   1      44.815  27.923  30.715  1.00  0.00     0.031 C 
ATOM     74  C   UNL A   1      44.935  30.494  30.597  1.00  0.00     0.037 A 
BRANCH  61  75
ATOM     75  C   UNL A   1      42.231  27.985  34.548  1.00  0.00     0.057 A 
ATOM     76  C   UNL A   1      41.760  28.006  35.874  1.00  0.00     0.134 A 
ATOM     77  C   UNL A   1      42.799  26.767  34.128  1.00  0.00     0.134 A 
ATOM     78  F   UNL A   1      41.108  29.065  36.372  1.00  0.00    -0.206 F 
ATOM     79  C   UNL A   1      41.849  26.898  36.724  1.00  0.00     0.040 A 
ATOM     80  C   UNL A   1      42.852  25.638  34.955  1.00  0.00     0.040 A 
ATOM     81  F   UNL A   1      43.254  26.617  32.875  1.00  0.00    -0.206 F 
ATOM     82  C   UNL A   1      42.374  25.701  36.257  1.00  0.00     0.006 A 
ENDBRANCH  61  75
BRANCH  62  83
ATOM     83  C   UNL A   1      44.269  26.271  26.532  1.00  0.00     0.057 A 
ATOM     84  C   UNL A   1      44.000  24.926  26.838  1.00  0.00     0.134 A 
ATOM     85  C   UNL A   1      45.193  26.496  25.501  1.00  0.00     0.134 A 
ATOM     86  F   UNL A   1      43.200  24.597  27.862  1.00  0.00    -0.206 F 
ATOM     87  C   UNL A   1      44.607  23.867  26.160  1.00  0.00     0.040 A 
ATOM     88  C   UNL A   1      45.818  25.443  24.821  1.00  0.00     0.040 A 
ATOM     89  F   UNL A   1      45.553  27.744  25.168  1.00  0.00    -0.206 F 
ATOM     90  C   UNL A   1      45.531  24.123  25.154  1.00  0.00     0.006 A 
ENDBRANCH  62  83
BRANCH  74  91
ATOM     91  C   UNL A   1      45.193  31.633  29.655  1.00  0.00     0.057 A 
ATOM     92  C   UNL A   1      46.395  32.342  29.756  1.00  0.00     0.134 A 
ATOM     93  C   UNL A   1      44.238  32.119  28.751  1.00  0.00     0.134 A 
ATOM     94  F   UNL A   1      47.328  31.971  30.648  1.00  0.00    -0.206 F 
ATOM     95  C   UNL A   1      46.649  33.470  28.974  1.00  0.00     0.040 A 
ATOM     96  C   UNL A   1      44.494  33.227  27.940  1.00  0.00     0.040 A 
ATOM     97  F   UNL A   1      43.018  31.570  28.669  1.00  0.00    -0.206 F 
ATOM     98  C   UNL A   1      45.703  33.908  28.052  1.00  0.00     0.006 A 
ENDBRANCH  74  91
ENDBRANCH  48  49
ENDBRANCH  40  43
ENDBRANCH  38  39
ENDBRANCH  37  38
ENDBRANCH  36  37
ENDBRANCH   1  36
TORSDOF 18
ENDMDL
MODEL 2
REMARK VINA RESULT:     -11.9      1.953      4.063
REMARK SMILES C[C@H]1CC[C@H]([NH2+]Cc2c(C(=O)NCCCCCCNC(=O)c3ccc(-c4c5nc(c(-c6c(F)cccc6F)c6ccc([nH]6)c(-c6c(F)cccc6F)c6nc(c(-c7c(F)cccc7F)c7ccc4[nH]7)C=C6)C=C5)cc3)n(Cc3ccccc3F)c3ccccc23)CC1
REMARK SMILES IDX 15 1 14 2 13 3 12 4 10 5 11 6 9 8 8 9 90 10 76 11 85 12
REMARK SMILES IDX 89 13 86 14 88 15 87 16 7 17 6 18 5 21 1 22 2 23 3 24 92 25
REMARK SMILES IDX 4 26 91 27 77 28 78 29 79 30 83 31 80 32 82 33 84 34 81 35
REMARK SMILES IDX 16 36 17 37 18 38 19 39 20 40 21 42 22 43 23 44 75 45 24 46
REMARK SMILES IDX 74 47 25 48 26 49 27 50 68 51 28 52 73 53 67 54 69 55 29 56
REMARK SMILES IDX 72 57 66 58 65 59 30 61 56 62 39 63 55 64 40 65 43 66 54 67
REMARK SMILES IDX 70 68 41 69 42 70 53 72 71 73 44 74 31 75 32 76 37 77 33 78
REMARK SMILES IDX 34 79 36 80 38 81 35 82 57 83 58 84 63 85 59 86 60 87 62 88
REMARK SMILES IDX 64 89 61 90 45 91 46 92 51 93 47 94 48 95 50 96 52 97 49 98
REMARK H PARENT 12 7 6 19 6 20 19 41 69 60 43 71
REMARK Flexibility Score: inf
ROOT
ATOM      1  C   UNL A   1      31.346  27.710  27.515  1.00  0.00     0.002 C 
ENDROOT
BRANCH   1   2
ATOM      2  C   UNL A   1      30.680  26.793  26.474  1.00  0.00     0.021 C 
BRANCH   2   3
ATOM      3  C   UNL A   1      31.469  25.541  26.097  1.00  0.00     0.116 C 
BRANCH   3   4
ATOM      4  N   UNL A   1      32.893  25.730  25.955  1.00  0.00    -0.351 N 
ATOM      5  C   UNL A   1      33.853  24.985  25.310  1.00  0.00     0.268 C 
ATOM      6  O   UNL A   1      34.985  25.484  25.381  1.00  0.00    -0.268 OA
ATOM      7  H   UNL A   1      33.238  26.537  26.399  1.00  0.00     0.163 HD
BRANCH   5   8
ATOM      8  C   UNL A   1      33.612  23.695  24.650  1.00  0.00     0.117 A 
ATOM      9  C   UNL A   1      33.237  23.341  23.339  1.00  0.00     0.045 A 
ATOM     10  C   UNL A   1      32.800  21.977  23.397  1.00  0.00     0.009 A 
ATOM     11  N   UNL A   1      33.953  22.448  25.237  1.00  0.00    -0.331 N 
ATOM     12  C   UNL A   1      33.461  21.400  24.467  1.00  0.00     0.049 A 
ATOM     13  C   UNL A   1      32.044  21.157  22.531  1.00  0.00     0.011 A 
ATOM     14  C   UNL A   1      33.557  20.000  24.581  1.00  0.00     0.027 A 
ATOM     15  C   UNL A   1      32.000  19.778  22.741  1.00  0.00     0.001 A 
ATOM     16  C   UNL A   1      32.786  19.204  23.730  1.00  0.00     0.002 A 
BRANCH   9  17
ATOM     17  C   UNL A   1      33.225  24.044  22.013  1.00  0.00     0.300 C 
BRANCH  17  18
ATOM     18  N   UNL A   1      33.820  25.364  21.969  1.00  0.00    -0.340 N 
ATOM     19  H   UNL A   1      34.377  25.448  22.818  1.00  0.00     0.346 HD
ATOM     20  H   UNL A   1      34.274  25.348  21.054  1.00  0.00     0.346 HD
BRANCH  18  21
ATOM     21  C   UNL A   1      33.040  26.599  21.877  1.00  0.00     0.182 C 
ATOM     22  C   UNL A   1      30.228  29.522  23.660  1.00  0.00     0.007 C 
ATOM     23  C   UNL A   1      31.234  28.405  23.419  1.00  0.00    -0.014 C 
ATOM     24  C   UNL A   1      32.521  28.933  22.777  1.00  0.00     0.009 C 
ATOM     25  C   UNL A   1      30.646  27.309  22.532  1.00  0.00     0.009 C 
ATOM     26  C   UNL A   1      33.548  27.808  22.671  1.00  0.00     0.065 C 
ATOM     27  C   UNL A   1      31.637  26.166  22.360  1.00  0.00     0.065 C 
ENDBRANCH  18  21
ENDBRANCH  17  18
ENDBRANCH   9  17
BRANCH  11  28
ATOM     28  C   UNL A   1      34.847  22.222  26.388  1.00  0.00     0.161 C 
BRANCH  28  29
ATOM     29  C   UNL A   1      36.327  22.349  26.102  1.00  0.00     0.008 A 
ATOM     30  C   UNL A   1      37.072  23.490  26.448  1.00  0.00     0.008 A 
ATOM     31  C   UNL A   1      37.038  21.266  25.581  1.00  0.00     0.128 A 
ATOM     32  C   UNL A   1      38.456  23.549  26.264  1.00  0.00     0.001 A 
ATOM     33  C   UNL A   1      38.419  21.320  25.376  1.00  0.00     0.039 A 
ATOM     34  F   UNL A   1      36.411  20.114  25.307  1.00  0.00    -0.207 F 
ATOM     35  C   UNL A   1      39.131  22.466  25.718  1.00  0.00     0.003 A 
ENDBRANCH  28  29
ENDBRANCH  11  28
ENDBRANCH   5   8
ENDBRANCH   3   4
ENDBRANCH   2   3
ENDBRANCH   1   2
BRANCH   1  36
ATOM     36  C   UNL A   1      32.035  28.994  27.021  1.00  0.00     0.002 C 
BRANCH  36  37
ATOM     37  C   UNL A   1      33.464  29.290  27.497  1.00  0.00     0.021 C 
BRANCH  37  38
ATOM     38  C   UNL A   1      33.994  30.698  27.222  1.00  0.00     0.116 C 
BRANCH  38  39
ATOM     39  N   UNL A   1      34.074  31.533  28.402  1.00  0.00    -0.352 N 
ATOM     40  C   UNL A   1      34.991  31.767  29.384  1.00  0.00     0.251 C 
ATOM     41  H   UNL A   1      33.257  32.068  28.528  1.00  0.00     0.163 HD
ATOM     42  O   UNL A   1      34.692  32.653  30.191  1.00  0.00    -0.269 OA
BRANCH  40  43
ATOM     43  C   UNL A   1      36.287  31.053  29.566  1.00  0.00     0.039 A 
ATOM     44  C   UNL A   1      37.535  31.492  29.124  1.00  0.00     0.014 A 
ATOM     45  C   UNL A   1      36.214  29.798  30.206  1.00  0.00     0.014 A 
ATOM     46  C   UNL A   1      38.668  30.689  29.291  1.00  0.00     0.010 A 
ATOM     47  C   UNL A   1      37.343  28.997  30.376  1.00  0.00     0.010 A 
ATOM     48  C   UNL A   1      38.574  29.430  29.893  1.00  0.00    -0.014 A 
BRANCH  48  49
ATOM     49  C   UNL A   1      39.793  28.622  30.006  1.00  0.00     0.031 A 
ATOM     50  C   UNL A   1      40.444  28.535  31.346  1.00  0.00     0.074 A 
ATOM     51  C   UNL A   1      40.308  27.872  29.010  1.00  0.00     0.049 A 
ATOM     52  N   UNL A   1      41.638  28.908  31.686  1.00  0.00    -0.248 NA
ATOM     53  C   UNL A   1      39.663  27.957  32.449  1.00  0.00     0.031 C 
ATOM     54  C   UNL A   1      39.704  27.534  27.719  1.00  0.00     0.029 A 
ATOM     55  N   UNL A   1      41.484  27.174  28.999  1.00  0.00    -0.354 N 
ATOM     56  C   UNL A   1      41.821  28.490  33.004  1.00  0.00     0.074 A 
ATOM     57  C   UNL A   1      40.550  27.971  33.445  1.00  0.00     0.031 C 
ATOM     58  C   UNL A   1      40.424  26.548  27.139  1.00  0.00     0.029 A 
ATOM     59  C   UNL A   1      41.606  26.284  27.946  1.00  0.00     0.049 A 
ATOM     60  H   UNL A   1      42.184  27.295  29.681  1.00  0.00     0.167 HD
ATOM     61  C   UNL A   1      43.041  28.468  33.609  1.00  0.00     0.037 A 
ATOM     62  C   UNL A   1      42.581  25.363  27.765  1.00  0.00     0.037 A 
ATOM     63  C   UNL A   1      44.024  29.239  32.901  1.00  0.00     0.049 A 
ATOM     64  C   UNL A   1      43.756  25.754  28.576  1.00  0.00     0.074 A 
ATOM     65  C   UNL A   1      44.168  30.565  32.549  1.00  0.00     0.029 A 
ATOM     66  N   UNL A   1      44.995  28.569  32.202  1.00  0.00    -0.354 N 
ATOM     67  N   UNL A   1      44.543  26.757  28.306  1.00  0.00    -0.248 NA
ATOM     68  C   UNL A   1      43.889  25.201  29.915  1.00  0.00     0.031 C 
ATOM     69  C   UNL A   1      44.882  30.551  31.315  1.00  0.00     0.029 A 
ATOM     70  C   UNL A   1      45.122  29.213  31.000  1.00  0.00     0.049 A 
ATOM     71  H   UNL A   1      45.502  27.781  32.504  1.00  0.00     0.167 HD
ATOM     72  C   UNL A   1      44.964  27.218  29.543  1.00  0.00     0.074 A 
ATOM     73  C   UNL A   1      44.644  26.147  30.477  1.00  0.00     0.031 C 
ATOM     74  C   UNL A   1      45.275  28.533  29.736  1.00  0.00     0.037 A 
BRANCH  61  75
ATOM     75  C   UNL A   1      43.436  27.531  34.719  1.00  0.00     0.057 A 
ATOM     76  C   UNL A   1      43.415  27.895  36.079  1.00  0.00     0.134 A 
ATOM     77  C   UNL A   1      43.564  26.152  34.465  1.00  0.00     0.134 A 
ATOM     78  F   UNL A   1      43.198  29.160  36.464  1.00  0.00    -0.206 F 
ATOM     79  C   UNL A   1      43.518  26.958  37.112  1.00  0.00     0.040 A 
ATOM     80  C   UNL A   1      43.622  25.202  35.492  1.00  0.00     0.040 A 
ATOM     81  F   UNL A   1      43.565  25.682  33.208  1.00  0.00    -0.206 F 
ATOM     82  C   UNL A   1      43.596  25.603  36.820  1.00  0.00     0.006 A 
ENDBRANCH  61  75
BRANCH  62  83
ATOM     83  C   UNL A   1      42.498  24.059  27.076  1.00  0.00     0.057 A 
ATOM     84  C   UNL A   1      42.230  22.875  27.785  1.00  0.00     0.134 A 
ATOM     85  C   UNL A   1      42.922  23.901  25.750  1.00  0.00     0.134 A 
ATOM     86  F   UNL A   1      41.903  22.905  29.085  1.00  0.00    -0.206 F 
ATOM     87  C   UNL A   1      42.371  21.609  27.210  1.00  0.00     0.040 A 
ATOM     88  C   UNL A   1      43.080  22.637  25.165  1.00  0.00     0.040 A 
ATOM     89  F   UNL A   1      43.249  24.968  25.006  1.00  0.00    -0.206 F 
ATOM     90  C   UNL A   1      42.810  21.486  25.898  1.00  0.00     0.006 A 
ENDBRANCH  62  83
BRANCH  74  91
ATOM     91  C   UNL A   1      45.472  29.390  28.521  1.00  0.00     0.057 A 
ATOM     92  C   UNL A   1      46.773  29.663  28.084  1.00  0.00     0.134 A 
ATOM     93  C   UNL A   1      44.424  30.048  27.861  1.00  0.00     0.134 A 
ATOM     94  F   UNL A   1      47.828  29.120  28.712  1.00  0.00    -0.206 F 
ATOM     95  C   UNL A   1      47.022  30.533  27.020  1.00  0.00     0.040 A 
ATOM     96  C   UNL A   1      44.659  30.893  26.774  1.00  0.00     0.040 A 
ATOM     97  F   UNL A   1      43.158  29.931  28.283  1.00  0.00    -0.206 F 
ATOM     98  C   UNL A   1      45.962  31.140  26.352  1.00  0.00     0.006 A 
ENDBRANCH  74  91
ENDBRANCH  48  49
ENDBRANCH  40  43
ENDBRANCH  38  39
ENDBRANCH  37  38
ENDBRANCH  36  37
ENDBRANCH   1  36
TORSDOF 18
ENDMDL
MODEL 3
REMARK VINA RESULT:     -11.8      2.578      8.051
REMARK SMILES C[C@H]1CC[C@H]([NH2+]Cc2c(C(=O)NCCCCCCNC(=O)c3ccc(-c4c5nc(c(-c6c(F)cccc6F)c6ccc([nH]6)c(-c6c(F)cccc6F)c6nc(c(-c7c(F)cccc7F)c7ccc4[nH]7)C=C6)C=C5)cc3)n(Cc3ccccc3F)c3ccccc23)CC1
REMARK SMILES IDX 15 1 14 2 13 3 12 4 10 5 11 6 9 8 8 9 90 10 76 11 85 12
REMARK SMILES IDX 89 13 86 14 88 15 87 16 7 17 6 18 5 21 1 22 2 23 3 24 92 25
REMARK SMILES IDX 4 26 91 27 77 28 78 29 79 30 83 31 80 32 82 33 84 34 81 35
REMARK SMILES IDX 16 36 17 37 18 38 19 39 20 40 21 42 22 43 23 44 75 45 24 46
REMARK SMILES IDX 74 47 25 48 26 49 27 50 68 51 28 52 73 53 67 54 69 55 29 56
REMARK SMILES IDX 72 57 66 58 65 59 30 61 56 62 39 63 55 64 40 65 43 66 54 67
REMARK SMILES IDX 70 68 41 69 42 70 53 72 71 73 44 74 31 75 32 76 37 77 33 78
REMARK SMILES IDX 34 79 36 80 38 81 35 82 57 83 58 84 63 85 59 86 60 87 62 88
REMARK SMILES IDX 64 89 61 90 45 91 46 92 51 93 47 94 48 95 50 96 52 97 49 98
REMARK H PARENT 12 7 6 19 6 20 19 41 69 60 43 71
REMARK Flexibility Score: inf
ROOT
ATOM      1  C   UNL A   1      36.168  22.727  24.050  1.00  0.00     0.002 C 
ENDROOT
BRANCH   1   2
ATOM      2  C   UNL A   1      35.048  23.013  23.034  1.00  0.00     0.021 C 
BRANCH   2   3
ATOM      3  C   UNL A   1      34.075  24.125  23.420  1.00  0.00     0.116 C 
BRANCH   3   4
ATOM      4  N   UNL A   1      34.479  24.934  24.545  1.00  0.00    -0.351 N 
ATOM      5  C   UNL A   1      33.819  25.914  25.250  1.00  0.00     0.268 C 
ATOM      6  O   UNL A   1      34.486  26.373  26.187  1.00  0.00    -0.268 OA
ATOM      7  H   UNL A   1      35.391  24.750  24.866  1.00  0.00     0.163 HD
BRANCH   5   8
ATOM      8  C   UNL A   1      32.486  26.433  24.917  1.00  0.00     0.117 A 
ATOM      9  C   UNL A   1      31.181  25.982  25.196  1.00  0.00     0.045 A 
ATOM     10  C   UNL A   1      30.309  26.689  24.304  1.00  0.00     0.009 A 
ATOM     11  N   UNL A   1      32.272  27.727  24.373  1.00  0.00    -0.331 N 
ATOM     12  C   UNL A   1      30.940  27.883  24.006  1.00  0.00     0.049 A 
ATOM     13  C   UNL A   1      28.978  26.488  23.879  1.00  0.00     0.011 A 
ATOM     14  C   UNL A   1      30.215  28.965  23.470  1.00  0.00     0.027 A 
ATOM     15  C   UNL A   1      28.305  27.502  23.195  1.00  0.00     0.001 A 
ATOM     16  C   UNL A   1      28.905  28.743  23.035  1.00  0.00     0.002 A 
BRANCH   9  17
ATOM     17  C   UNL A   1      30.581  25.009  26.168  1.00  0.00     0.300 C 
BRANCH  17  18
ATOM     18  N   UNL A   1      31.497  24.323  27.056  1.00  0.00    -0.340 N 
ATOM     19  H   UNL A   1      32.382  24.824  26.985  1.00  0.00     0.346 HD
ATOM     20  H   UNL A   1      30.970  24.328  27.929  1.00  0.00     0.346 HD
BRANCH  18  21
ATOM     21  C   UNL A   1      31.831  22.904  26.932  1.00  0.00     0.182 C 
ATOM     22  C   UNL A   1      33.614  19.547  24.656  1.00  0.00     0.007 C 
ATOM     23  C   UNL A   1      33.211  20.915  25.189  1.00  0.00    -0.014 C 
ATOM     24  C   UNL A   1      33.606  21.086  26.660  1.00  0.00     0.009 C 
ATOM     25  C   UNL A   1      31.708  21.147  25.044  1.00  0.00     0.009 C 
ATOM     26  C   UNL A   1      33.301  22.511  27.115  1.00  0.00     0.065 C 
ATOM     27  C   UNL A   1      31.332  22.547  25.514  1.00  0.00     0.065 C 
ENDBRANCH  18  21
ENDBRANCH  17  18
ENDBRANCH   9  17
BRANCH  11  28
ATOM     28  C   UNL A   1      33.230  28.848  24.343  1.00  0.00     0.161 C 
BRANCH  28  29
ATOM     29  C   UNL A   1      33.434  29.570  25.657  1.00  0.00     0.008 A 
ATOM     30  C   UNL A   1      34.609  29.445  26.417  1.00  0.00     0.008 A 
ATOM     31  C   UNL A   1      32.488  30.496  26.106  1.00  0.00     0.128 A 
ATOM     32  C   UNL A   1      34.819  30.195  27.578  1.00  0.00     0.001 A 
ATOM     33  C   UNL A   1      32.679  31.238  27.274  1.00  0.00     0.039 A 
ATOM     34  F   UNL A   1      31.382  30.733  25.388  1.00  0.00    -0.207 F 
ATOM     35  C   UNL A   1      33.849  31.087  28.013  1.00  0.00     0.003 A 
ENDBRANCH  28  29
ENDBRANCH  11  28
ENDBRANCH   5   8
ENDBRANCH   3   4
ENDBRANCH   2   3
ENDBRANCH   1   2
BRANCH   1  36
ATOM     36  C   UNL A   1      36.618  21.269  24.248  1.00  0.00     0.002 C 
BRANCH  36  37
ATOM     37  C   UNL A   1      37.879  20.996  25.078  1.00  0.00     0.021 C 
BRANCH  37  38
ATOM     38  C   UNL A   1      38.515  22.205  25.767  1.00  0.00     0.116 C 
BRANCH  38  39
ATOM     39  N   UNL A   1      39.938  22.069  25.989  1.00  0.00    -0.352 N 
ATOM     40  C   UNL A   1      40.926  22.827  26.547  1.00  0.00     0.251 C 
ATOM     41  H   UNL A   1      40.282  21.211  25.650  1.00  0.00     0.163 HD
ATOM     42  O   UNL A   1      42.035  22.287  26.616  1.00  0.00    -0.269 OA
BRANCH  40  43
ATOM     43  C   UNL A   1      40.785  24.220  27.058  1.00  0.00     0.039 A 
ATOM     44  C   UNL A   1      39.987  25.220  26.503  1.00  0.00     0.014 A 
ATOM     45  C   UNL A   1      41.577  24.549  28.177  1.00  0.00     0.014 A 
ATOM     46  C   UNL A   1      40.002  26.514  27.034  1.00  0.00     0.010 A 
ATOM     47  C   UNL A   1      41.592  25.837  28.711  1.00  0.00     0.010 A 
ATOM     48  C   UNL A   1      40.821  26.835  28.122  1.00  0.00    -0.014 A 
BRANCH  48  49
ATOM     49  C   UNL A   1      40.818  28.219  28.608  1.00  0.00     0.031 A 
ATOM     50  C   UNL A   1      41.980  29.083  28.244  1.00  0.00     0.074 A 
ATOM     51  C   UNL A   1      39.794  28.793  29.272  1.00  0.00     0.049 A 
ATOM     52  N   UNL A   1      42.824  29.669  29.034  1.00  0.00    -0.248 NA
ATOM     53  C   UNL A   1      42.231  29.324  26.817  1.00  0.00     0.031 C 
ATOM     54  C   UNL A   1      38.438  28.279  29.476  1.00  0.00     0.029 A 
ATOM     55  N   UNL A   1      39.748  30.036  29.843  1.00  0.00    -0.354 N 
ATOM     56  C   UNL A   1      43.631  30.468  28.225  1.00  0.00     0.074 A 
ATOM     57  C   UNL A   1      43.266  30.165  26.862  1.00  0.00     0.031 C 
ATOM     58  C   UNL A   1      37.654  29.274  29.948  1.00  0.00     0.029 A 
ATOM     59  C   UNL A   1      38.477  30.445  30.208  1.00  0.00     0.049 A 
ATOM     60  H   UNL A   1      40.550  30.590  29.983  1.00  0.00     0.167 HD
ATOM     61  C   UNL A   1      44.455  31.432  28.724  1.00  0.00     0.037 A 
ATOM     62  C   UNL A   1      38.111  31.670  30.651  1.00  0.00     0.037 A 
ATOM     63  C   UNL A   1      44.675  31.294  30.136  1.00  0.00     0.049 A 
ATOM     64  C   UNL A   1      39.314  32.369  31.155  1.00  0.00     0.074 A 
ATOM     65  C   UNL A   1      45.223  30.331  30.957  1.00  0.00     0.029 A 
ATOM     66  N   UNL A   1      44.063  32.186  30.979  1.00  0.00    -0.354 N 
ATOM     67  N   UNL A   1      39.938  32.068  32.260  1.00  0.00    -0.248 NA
ATOM     68  C   UNL A   1      40.044  33.239  30.246  1.00  0.00     0.031 C 
ATOM     69  C   UNL A   1      44.508  30.434  32.186  1.00  0.00     0.029 A 
ATOM     70  C   UNL A   1      43.570  31.455  32.027  1.00  0.00     0.049 A 
ATOM     71  H   UNL A   1      43.991  33.160  30.856  1.00  0.00     0.167 HD
ATOM     72  C   UNL A   1      41.268  32.363  32.005  1.00  0.00     0.074 A 
ATOM     73  C   UNL A   1      41.250  33.201  30.814  1.00  0.00     0.031 C 
ATOM     74  C   UNL A   1      42.272  31.672  32.619  1.00  0.00     0.037 A 
BRANCH  61  75
ATOM     75  C   UNL A   1      44.870  32.677  27.986  1.00  0.00     0.057 A 
ATOM     76  C   UNL A   1      46.066  32.773  27.250  1.00  0.00     0.134 A 
ATOM     77  C   UNL A   1      43.937  33.706  27.761  1.00  0.00     0.134 A 
ATOM     78  F   UNL A   1      46.996  31.810  27.292  1.00  0.00    -0.206 F 
ATOM     79  C   UNL A   1      46.319  33.818  26.356  1.00  0.00     0.040 A 
ATOM     80  C   UNL A   1      44.161  34.732  26.834  1.00  0.00     0.040 A 
ATOM     81  F   UNL A   1      42.748  33.705  28.383  1.00  0.00    -0.206 F 
ATOM     82  C   UNL A   1      45.354  34.789  26.127  1.00  0.00     0.006 A 
ENDBRANCH  61  75
BRANCH  62  83
ATOM     83  C   UNL A   1      36.810  32.354  30.495  1.00  0.00     0.057 A 
ATOM     84  C   UNL A   1      36.568  33.226  29.420  1.00  0.00     0.134 A 
ATOM     85  C   UNL A   1      35.860  32.366  31.526  1.00  0.00     0.134 A 
ATOM     86  F   UNL A   1      37.455  33.360  28.424  1.00  0.00    -0.206 F 
ATOM     87  C   UNL A   1      35.447  34.059  29.368  1.00  0.00     0.040 A 
ATOM     88  C   UNL A   1      34.738  33.205  31.492  1.00  0.00     0.040 A 
ATOM     89  F   UNL A   1      36.027  31.606  32.617  1.00  0.00    -0.206 F 
ATOM     90  C   UNL A   1      34.532  34.059  30.414  1.00  0.00     0.006 A 
ENDBRANCH  62  83
BRANCH  74  91
ATOM     91  C   UNL A   1      41.916  30.829  33.807  1.00  0.00     0.057 A 
ATOM     92  C   UNL A   1      42.172  31.319  35.092  1.00  0.00     0.134 A 
ATOM     93  C   UNL A   1      41.452  29.509  33.707  1.00  0.00     0.134 A 
ATOM     94  F   UNL A   1      42.679  32.551  35.260  1.00  0.00    -0.206 F 
ATOM     95  C   UNL A   1      41.953  30.541  36.231  1.00  0.00     0.040 A 
ATOM     96  C   UNL A   1      41.198  28.733  34.840  1.00  0.00     0.040 A 
ATOM     97  F   UNL A   1      41.286  28.922  32.514  1.00  0.00    -0.206 F 
ATOM     98  C   UNL A   1      41.451  29.248  36.108  1.00  0.00     0.006 A 
ENDBRANCH  74  91
ENDBRANCH  48  49
ENDBRANCH  40  43
ENDBRANCH  38  39
ENDBRANCH  37  38
ENDBRANCH  36  37
ENDBRANCH   1  36
TORSDOF 18
ENDMDL
