MODEL 1
REMARK VINA RESULT:     -10.9      0.000      0.000
REMARK SMILES CC[C@@H](Oc1ccc(Cl)c(Cl)c1)C(=O)NCCCCCCNC(=O)c1ccc(-c2c3nc(c(-c4c(F)cccc4F)c4ccc([nH]4)c(-c4c(F)cccc4F)c4nc(c(-c5c(F)cccc5F)c5ccc2[nH]5)C=C4)C=C3)cc1
REMARK SMILES IDX 18 1 17 2 16 3 15 4 13 5 14 6 3 8 2 9 1 10 4 11 5 12 6 13
REMARK SMILES IDX 12 14 7 15 10 16 8 17 11 18 9 19 19 20 20 21 21 22 22 23
REMARK SMILES IDX 23 24 24 26 25 27 26 28 78 29 27 30 77 31 28 32 29 33 30 34
REMARK SMILES IDX 71 35 31 36 76 37 70 38 72 39 32 40 75 41 69 42 68 43 33 45
REMARK SMILES IDX 59 46 42 47 58 48 43 49 46 50 57 51 73 52 44 53 45 54 56 56
REMARK SMILES IDX 74 57 47 58 34 59 35 60 40 61 36 62 37 63 39 64 41 65 38 66
REMARK SMILES IDX 60 67 61 68 66 69 62 70 63 71 65 72 67 73 64 74 48 75 49 76
REMARK SMILES IDX 54 77 50 78 51 79 53 80 55 81 52 82
REMARK H PARENT 15 7 22 25 72 44 46 55
REMARK Flexibility Score: inf
ROOT
ATOM      1  C   UNL A   1      32.386  29.611  27.082  1.00  0.00     0.002 C 
ENDROOT
BRANCH   1   2
ATOM      2  C   UNL A   1      31.716  28.306  27.517  1.00  0.00     0.021 C 
BRANCH   2   3
ATOM      3  C   UNL A   1      31.971  27.134  26.576  1.00  0.00     0.116 C 
BRANCH   3   4
ATOM      4  N   UNL A   1      31.427  25.892  27.099  1.00  0.00    -0.353 N 
ATOM      5  C   UNL A   1      31.234  24.695  26.461  1.00  0.00     0.261 C 
ATOM      6  O   UNL A   1      30.766  23.756  27.110  1.00  0.00    -0.271 OA
ATOM      7  H   UNL A   1      31.157  25.915  28.046  1.00  0.00     0.163 HD
BRANCH   5   8
ATOM      8  C   UNL A   1      31.534  24.559  24.958  1.00  0.00     0.261 C 
BRANCH   8   9
ATOM      9  C   UNL A   1      32.108  23.148  24.712  1.00  0.00     0.052 C 
ATOM     10  C   UNL A   1      31.785  22.594  23.330  1.00  0.00     0.008 C 
ENDBRANCH   8   9
BRANCH   8  11
ATOM     11  O   UNL A   1      30.282  24.836  24.305  1.00  0.00    -0.481 OA
BRANCH  11  12
ATOM     12  C   UNL A   1      30.172  26.075  23.756  1.00  0.00     0.122 A 
ATOM     13  C   UNL A   1      31.246  26.610  23.049  1.00  0.00     0.048 A 
ATOM     14  C   UNL A   1      28.939  26.719  23.765  1.00  0.00     0.068 A 
ATOM     15  C   UNL A   1      31.125  27.857  22.442  1.00  0.00     0.026 A 
ATOM     16  C   UNL A   1      28.803  27.955  23.126  1.00  0.00     0.063 A 
ATOM     17  C   UNL A   1      29.905  28.536  22.485  1.00  0.00     0.059 A 
ATOM     18  Cl  UNL A   1      27.247  28.704  23.146  1.00  0.00    -0.083 Cl
ATOM     19  Cl  UNL A   1      29.827  30.081  21.716  1.00  0.00    -0.083 Cl
ENDBRANCH  11  12
ENDBRANCH   8  11
ENDBRANCH   5   8
ENDBRANCH   3   4
ENDBRANCH   2   3
ENDBRANCH   1   2
BRANCH   1  20
ATOM     20  C   UNL A   1      31.566  30.466  26.109  1.00  0.00     0.002 C 
BRANCH  20  21
ATOM     21  C   UNL A   1      31.405  31.936  26.506  1.00  0.00     0.021 C 
BRANCH  21  22
ATOM     22  C   UNL A   1      32.611  32.539  27.219  1.00  0.00     0.116 C 
BRANCH  22  23
ATOM     23  N   UNL A   1      32.398  33.934  27.569  1.00  0.00    -0.352 N 
ATOM     24  C   UNL A   1      33.007  34.701  28.530  1.00  0.00     0.251 C 
ATOM     25  H   UNL A   1      31.713  34.398  27.035  1.00  0.00     0.163 HD
ATOM     26  O   UNL A   1      32.551  35.803  28.817  1.00  0.00    -0.269 OA
BRANCH  24  27
ATOM     27  C   UNL A   1      34.201  34.191  29.238  1.00  0.00     0.039 A 
ATOM     28  C   UNL A   1      34.024  33.482  30.427  1.00  0.00     0.014 A 
ATOM     29  C   UNL A   1      35.488  34.414  28.738  1.00  0.00     0.014 A 
ATOM     30  C   UNL A   1      35.130  32.929  31.075  1.00  0.00     0.010 A 
ATOM     31  C   UNL A   1      36.583  33.805  29.347  1.00  0.00     0.010 A 
ATOM     32  C   UNL A   1      36.414  33.046  30.516  1.00  0.00    -0.014 A 
BRANCH  32  33
ATOM     33  C   UNL A   1      37.576  32.341  31.117  1.00  0.00     0.031 A 
ATOM     34  C   UNL A   1      38.222  32.856  32.373  1.00  0.00     0.074 A 
ATOM     35  C   UNL A   1      38.090  31.266  30.486  1.00  0.00     0.049 A 
ATOM     36  N   UNL A   1      39.277  32.404  33.003  1.00  0.00    -0.248 NA
ATOM     37  C   UNL A   1      37.619  34.046  32.996  1.00  0.00     0.031 C 
ATOM     38  C   UNL A   1      37.584  30.697  29.234  1.00  0.00     0.029 A 
ATOM     39  N   UNL A   1      39.159  30.464  30.802  1.00  0.00    -0.354 N 
ATOM     40  C   UNL A   1      39.469  33.254  34.083  1.00  0.00     0.074 A 
ATOM     41  C   UNL A   1      38.448  34.277  34.003  1.00  0.00     0.031 C 
ATOM     42  C   UNL A   1      38.328  29.632  28.901  1.00  0.00     0.029 A 
ATOM     43  C   UNL A   1      39.392  29.466  29.886  1.00  0.00     0.049 A 
ATOM     44  H   UNL A   1      39.707  30.593  31.610  1.00  0.00     0.167 HD
ATOM     45  C   UNL A   1      40.402  33.178  35.062  1.00  0.00     0.037 A 
ATOM     46  C   UNL A   1      40.362  28.533  29.834  1.00  0.00     0.037 A 
ATOM     47  C   UNL A   1      41.401  32.146  35.153  1.00  0.00     0.049 A 
ATOM     48  C   UNL A   1      41.394  28.489  30.927  1.00  0.00     0.074 A 
ATOM     49  C   UNL A   1      42.341  31.945  36.150  1.00  0.00     0.029 A 
ATOM     50  N   UNL A   1      41.599  31.147  34.212  1.00  0.00    -0.354 N 
ATOM     51  N   UNL A   1      41.507  29.248  31.990  1.00  0.00    -0.248 NA
ATOM     52  C   UNL A   1      42.433  27.454  30.817  1.00  0.00     0.031 C 
ATOM     53  C   UNL A   1      43.145  30.862  35.784  1.00  0.00     0.029 A 
ATOM     54  C   UNL A   1      42.669  30.351  34.587  1.00  0.00     0.049 A 
ATOM     55  H   UNL A   1      41.059  31.023  33.398  1.00  0.00     0.167 HD
ATOM     56  C   UNL A   1      42.610  28.766  32.686  1.00  0.00     0.074 A 
ATOM     57  C   UNL A   1      43.115  27.635  31.938  1.00  0.00     0.031 C 
ATOM     58  C   UNL A   1      43.157  29.222  33.838  1.00  0.00     0.037 A 
BRANCH  45  59
ATOM     59  C   UNL A   1      40.396  34.236  36.128  1.00  0.00     0.057 A 
ATOM     60  C   UNL A   1      41.091  35.442  35.976  1.00  0.00     0.134 A 
ATOM     61  C   UNL A   1      39.610  34.084  37.277  1.00  0.00     0.134 A 
ATOM     62  F   UNL A   1      41.869  35.649  34.902  1.00  0.00    -0.206 F 
ATOM     63  C   UNL A   1      41.012  36.455  36.933  1.00  0.00     0.040 A 
ATOM     64  C   UNL A   1      39.502  35.099  38.229  1.00  0.00     0.040 A 
ATOM     65  F   UNL A   1      38.912  32.956  37.481  1.00  0.00    -0.206 F 
ATOM     66  C   UNL A   1      40.206  36.290  38.058  1.00  0.00     0.006 A 
ENDBRANCH  45  59
BRANCH  46  67
ATOM     67  C   UNL A   1      40.419  27.567  28.706  1.00  0.00     0.057 A 
ATOM     68  C   UNL A   1      41.194  27.825  27.568  1.00  0.00     0.134 A 
ATOM     69  C   UNL A   1      39.664  26.388  28.715  1.00  0.00     0.134 A 
ATOM     70  F   UNL A   1      41.924  28.947  27.489  1.00  0.00    -0.206 F 
ATOM     71  C   UNL A   1      41.186  26.966  26.467  1.00  0.00     0.040 A 
ATOM     72  C   UNL A   1      39.671  25.505  27.635  1.00  0.00     0.040 A 
ATOM     73  F   UNL A   1      38.906  26.076  29.778  1.00  0.00    -0.206 F 
ATOM     74  C   UNL A   1      40.423  25.801  26.500  1.00  0.00     0.006 A 
ENDBRANCH  46  67
BRANCH  58  75
ATOM     75  C   UNL A   1      44.345  28.479  34.376  1.00  0.00     0.057 A 
ATOM     76  C   UNL A   1      44.204  27.347  35.189  1.00  0.00     0.134 A 
ATOM     77  C   UNL A   1      45.647  28.881  34.050  1.00  0.00     0.134 A 
ATOM     78  F   UNL A   1      42.986  26.916  35.550  1.00  0.00    -0.206 F 
ATOM     79  C   UNL A   1      45.315  26.659  35.681  1.00  0.00     0.040 A 
ATOM     80  C   UNL A   1      46.764  28.184  34.509  1.00  0.00     0.040 A 
ATOM     81  F   UNL A   1      45.853  29.951  33.267  1.00  0.00    -0.206 F 
ATOM     82  C   UNL A   1      46.600  27.073  35.333  1.00  0.00     0.006 A 
ENDBRANCH  58  75
ENDBRANCH  32  33
ENDBRANCH  24  27
ENDBRANCH  22  23
ENDBRANCH  21  22
ENDBRANCH  20  21
ENDBRANCH   1  20
TORSDOF 16
ENDMDL
MODEL 2
REMARK VINA RESULT:     -10.8      5.719      9.868
REMARK SMILES CC[C@@H](Oc1ccc(Cl)c(Cl)c1)C(=O)NCCCCCCNC(=O)c1ccc(-c2c3nc(c(-c4c(F)cccc4F)c4ccc([nH]4)c(-c4c(F)cccc4F)c4nc(c(-c5c(F)cccc5F)c5ccc2[nH]5)C=C4)C=C3)cc1
REMARK SMILES IDX 18 1 17 2 16 3 15 4 13 5 14 6 3 8 2 9 1 10 4 11 5 12 6 13
REMARK SMILES IDX 12 14 7 15 10 16 8 17 11 18 9 19 19 20 20 21 21 22 22 23
REMARK SMILES IDX 23 24 24 26 25 27 26 28 78 29 27 30 77 31 28 32 29 33 30 34
REMARK SMILES IDX 71 35 31 36 76 37 70 38 72 39 32 40 75 41 69 42 68 43 33 45
REMARK SMILES IDX 59 46 42 47 58 48 43 49 46 50 57 51 73 52 44 53 45 54 56 56
REMARK SMILES IDX 74 57 47 58 34 59 35 60 40 61 36 62 37 63 39 64 41 65 38 66
REMARK SMILES IDX 60 67 61 68 66 69 62 70 63 71 65 72 67 73 64 74 48 75 49 76
REMARK SMILES IDX 54 77 50 78 51 79 53 80 55 81 52 82
REMARK H PARENT 15 7 22 25 72 44 46 55
REMARK Flexibility Score: inf
ROOT
ATOM      1  C   UNL A   1      37.138  22.340  25.037  1.00  0.00     0.002 C 
ENDROOT
BRANCH   1   2
ATOM      2  C   UNL A   1      36.151  23.309  24.383  1.00  0.00     0.021 C 
BRANCH   2   3
ATOM      3  C   UNL A   1      35.366  24.160  25.376  1.00  0.00     0.116 C 
BRANCH   3   4
ATOM      4  N   UNL A   1      34.491  25.106  24.705  1.00  0.00    -0.353 N 
ATOM      5  C   UNL A   1      33.138  25.038  24.500  1.00  0.00     0.261 C 
ATOM      6  O   UNL A   1      32.589  25.974  23.911  1.00  0.00    -0.271 OA
ATOM      7  H   UNL A   1      34.934  25.909  24.345  1.00  0.00     0.163 HD
BRANCH   5   8
ATOM      8  C   UNL A   1      32.348  23.793  24.937  1.00  0.00     0.261 C 
BRANCH   8   9
ATOM      9  C   UNL A   1      30.926  24.245  25.332  1.00  0.00     0.052 C 
ATOM     10  C   UNL A   1      30.343  23.461  26.501  1.00  0.00     0.008 C 
ENDBRANCH   8   9
BRANCH   8  11
ATOM     11  O   UNL A   1      32.419  22.897  23.813  1.00  0.00    -0.481 OA
BRANCH  11  12
ATOM     12  C   UNL A   1      32.657  21.595  24.118  1.00  0.00     0.122 A 
ATOM     13  C   UNL A   1      33.021  21.250  25.418  1.00  0.00     0.048 A 
ATOM     14  C   UNL A   1      32.374  20.610  23.177  1.00  0.00     0.068 A 
ATOM     15  C   UNL A   1      33.219  19.913  25.751  1.00  0.00     0.026 A 
ATOM     16  C   UNL A   1      32.538  19.264  23.519  1.00  0.00     0.063 A 
ATOM     17  C   UNL A   1      32.985  18.916  24.801  1.00  0.00     0.059 A 
ATOM     18  Cl  UNL A   1      32.153  18.078  22.324  1.00  0.00    -0.083 Cl
ATOM     19  Cl  UNL A   1      33.256  17.279  25.281  1.00  0.00    -0.083 Cl
ENDBRANCH  11  12
ENDBRANCH   8  11
ENDBRANCH   5   8
ENDBRANCH   3   4
ENDBRANCH   2   3
ENDBRANCH   1   2
BRANCH   1  20
ATOM     20  C   UNL A   1      36.717  20.867  25.004  1.00  0.00     0.002 C 
BRANCH  20  21
ATOM     21  C   UNL A   1      37.868  19.858  24.974  1.00  0.00     0.021 C 
BRANCH  21  22
ATOM     22  C   UNL A   1      39.109  20.286  25.751  1.00  0.00     0.116 C 
BRANCH  22  23
ATOM     23  N   UNL A   1      40.071  19.203  25.884  1.00  0.00    -0.352 N 
ATOM     24  C   UNL A   1      41.426  19.253  26.091  1.00  0.00     0.251 C 
ATOM     25  H   UNL A   1      39.692  18.297  25.815  1.00  0.00     0.163 HD
ATOM     26  O   UNL A   1      42.104  18.238  25.971  1.00  0.00    -0.269 OA
BRANCH  24  27
ATOM     27  C   UNL A   1      42.076  20.536  26.438  1.00  0.00     0.039 A 
ATOM     28  C   UNL A   1      42.611  21.316  25.410  1.00  0.00     0.014 A 
ATOM     29  C   UNL A   1      42.164  20.966  27.764  1.00  0.00     0.014 A 
ATOM     30  C   UNL A   1      43.164  22.563  25.704  1.00  0.00     0.010 A 
ATOM     31  C   UNL A   1      42.653  22.240  28.049  1.00  0.00     0.010 A 
ATOM     32  C   UNL A   1      43.148  23.056  27.020  1.00  0.00    -0.014 A 
BRANCH  32  33
ATOM     33  C   UNL A   1      43.600  24.439  27.323  1.00  0.00     0.031 A 
ATOM     34  C   UNL A   1      42.613  25.499  27.725  1.00  0.00     0.074 A 
ATOM     35  C   UNL A   1      44.903  24.753  27.171  1.00  0.00     0.049 A 
ATOM     36  N   UNL A   1      42.820  26.769  27.969  1.00  0.00    -0.248 NA
ATOM     37  C   UNL A   1      41.205  25.089  27.852  1.00  0.00     0.031 C 
ATOM     38  C   UNL A   1      45.952  23.825  26.740  1.00  0.00     0.029 A 
ATOM     39  N   UNL A   1      45.568  25.941  27.350  1.00  0.00    -0.354 N 
ATOM     40  C   UNL A   1      41.575  27.308  28.266  1.00  0.00     0.074 A 
ATOM     41  C   UNL A   1      40.609  26.239  28.131  1.00  0.00     0.031 C 
ATOM     42  C   UNL A   1      47.126  24.473  26.706  1.00  0.00     0.029 A 
ATOM     43  C   UNL A   1      46.911  25.870  27.067  1.00  0.00     0.049 A 
ATOM     44  H   UNL A   1      45.123  26.765  27.653  1.00  0.00     0.167 HD
ATOM     45  C   UNL A   1      41.270  28.575  28.634  1.00  0.00     0.037 A 
ATOM     46  C   UNL A   1      47.860  26.825  27.080  1.00  0.00     0.037 A 
ATOM     47  C   UNL A   1      42.237  29.631  28.791  1.00  0.00     0.049 A 
ATOM     48  C   UNL A   1      47.483  28.227  27.475  1.00  0.00     0.074 A 
ATOM     49  C   UNL A   1      42.030  30.927  29.233  1.00  0.00     0.029 A 
ATOM     50  N   UNL A   1      43.589  29.518  28.505  1.00  0.00    -0.354 N 
ATOM     51  N   UNL A   1      46.316  28.699  27.839  1.00  0.00    -0.248 NA
ATOM     52  C   UNL A   1      48.559  29.230  27.465  1.00  0.00     0.031 C 
ATOM     53  C   UNL A   1      43.244  31.615  29.157  1.00  0.00     0.029 A 
ATOM     54  C   UNL A   1      44.220  30.731  28.724  1.00  0.00     0.049 A 
ATOM     55  H   UNL A   1      44.033  28.697  28.191  1.00  0.00     0.167 HD
ATOM     56  C   UNL A   1      46.521  30.043  28.126  1.00  0.00     0.074 A 
ATOM     57  C   UNL A   1      47.929  30.305  27.918  1.00  0.00     0.031 C 
ATOM     58  C   UNL A   1      45.624  30.977  28.522  1.00  0.00     0.037 A 
BRANCH  45  59
ATOM     59  C   UNL A   1      39.830  28.906  28.901  1.00  0.00     0.057 A 
ATOM     60  C   UNL A   1      38.955  29.278  27.874  1.00  0.00     0.134 A 
ATOM     61  C   UNL A   1      39.293  28.760  30.186  1.00  0.00     0.134 A 
ATOM     62  F   UNL A   1      39.406  29.444  26.621  1.00  0.00    -0.206 F 
ATOM     63  C   UNL A   1      37.598  29.501  28.116  1.00  0.00     0.040 A 
ATOM     64  C   UNL A   1      37.934  28.955  30.437  1.00  0.00     0.040 A 
ATOM     65  F   UNL A   1      40.075  28.398  31.215  1.00  0.00    -0.206 F 
ATOM     66  C   UNL A   1      37.082  29.328  29.399  1.00  0.00     0.006 A 
ENDBRANCH  45  59
BRANCH  46  67
ATOM     67  C   UNL A   1      49.261  26.502  26.698  1.00  0.00     0.057 A 
ATOM     68  C   UNL A   1      49.722  26.707  25.392  1.00  0.00     0.134 A 
ATOM     69  C   UNL A   1      50.154  25.935  27.614  1.00  0.00     0.134 A 
ATOM     70  F   UNL A   1      48.908  27.229  24.462  1.00  0.00    -0.206 F 
ATOM     71  C   UNL A   1      51.007  26.326  25.001  1.00  0.00     0.040 A 
ATOM     72  C   UNL A   1      51.452  25.578  27.245  1.00  0.00     0.040 A 
ATOM     73  F   UNL A   1      49.779  25.719  28.884  1.00  0.00    -0.206 F 
ATOM     74  C   UNL A   1      51.877  25.761  25.931  1.00  0.00     0.006 A 
ENDBRANCH  46  67
BRANCH  58  75
ATOM     75  C   UNL A   1      46.144  32.361  28.786  1.00  0.00     0.057 A 
ATOM     76  C   UNL A   1      46.165  33.347  27.791  1.00  0.00     0.134 A 
ATOM     77  C   UNL A   1      46.598  32.720  30.062  1.00  0.00     0.134 A 
ATOM     78  F   UNL A   1      45.757  33.065  26.545  1.00  0.00    -0.206 F 
ATOM     79  C   UNL A   1      46.646  34.632  28.049  1.00  0.00     0.040 A 
ATOM     80  C   UNL A   1      47.051  34.010  30.340  1.00  0.00     0.040 A 
ATOM     81  F   UNL A   1      46.595  31.827  31.063  1.00  0.00    -0.206 F 
ATOM     82  C   UNL A   1      47.082  34.969  29.329  1.00  0.00     0.006 A 
ENDBRANCH  58  75
ENDBRANCH  32  33
ENDBRANCH  24  27
ENDBRANCH  22  23
ENDBRANCH  21  22
ENDBRANCH  20  21
ENDBRANCH   1  20
TORSDOF 16
ENDMDL
MODEL 3
REMARK VINA RESULT:     -10.8      0.752      6.379
REMARK SMILES CC[C@@H](Oc1ccc(Cl)c(Cl)c1)C(=O)NCCCCCCNC(=O)c1ccc(-c2c3nc(c(-c4c(F)cccc4F)c4ccc([nH]4)c(-c4c(F)cccc4F)c4nc(c(-c5c(F)cccc5F)c5ccc2[nH]5)C=C4)C=C3)cc1
REMARK SMILES IDX 18 1 17 2 16 3 15 4 13 5 14 6 3 8 2 9 1 10 4 11 5 12 6 13
REMARK SMILES IDX 12 14 7 15 10 16 8 17 11 18 9 19 19 20 20 21 21 22 22 23
REMARK SMILES IDX 23 24 24 26 25 27 26 28 78 29 27 30 77 31 28 32 29 33 30 34
REMARK SMILES IDX 71 35 31 36 76 37 70 38 72 39 32 40 75 41 69 42 68 43 33 45
REMARK SMILES IDX 59 46 42 47 58 48 43 49 46 50 57 51 73 52 44 53 45 54 56 56
REMARK SMILES IDX 74 57 47 58 34 59 35 60 40 61 36 62 37 63 39 64 41 65 38 66
REMARK SMILES IDX 60 67 61 68 66 69 62 70 63 71 65 72 67 73 64 74 48 75 49 76
REMARK SMILES IDX 54 77 50 78 51 79 53 80 55 81 52 82
REMARK H PARENT 15 7 22 25 72 44 46 55
REMARK Flexibility Score: inf
ROOT
ATOM      1  C   UNL A   1      31.766  29.300  26.982  1.00  0.00     0.002 C 
ENDROOT
BRANCH   1   2
ATOM      2  C   UNL A   1      33.050  28.467  27.000  1.00  0.00     0.021 C 
BRANCH   2   3
ATOM      3  C   UNL A   1      32.883  27.057  26.444  1.00  0.00     0.116 C 
BRANCH   3   4
ATOM      4  N   UNL A   1      31.581  26.499  26.769  1.00  0.00    -0.353 N 
ATOM      5  C   UNL A   1      30.848  25.561  26.090  1.00  0.00     0.261 C 
ATOM      6  O   UNL A   1      29.760  25.217  26.561  1.00  0.00    -0.271 OA
ATOM      7  H   UNL A   1      31.167  26.844  27.593  1.00  0.00     0.163 HD
BRANCH   5   8
ATOM      8  C   UNL A   1      31.347  25.011  24.743  1.00  0.00     0.261 C 
BRANCH   8   9
ATOM      9  C   UNL A   1      31.706  23.524  24.939  1.00  0.00     0.052 C 
ATOM     10  C   UNL A   1      33.156  23.298  25.353  1.00  0.00     0.008 C 
ENDBRANCH   8   9
BRANCH   8  11
ATOM     11  O   UNL A   1      30.274  25.268  23.818  1.00  0.00    -0.481 OA
BRANCH  11  12
ATOM     12  C   UNL A   1      30.062  26.577  23.520  1.00  0.00     0.122 A 
ATOM     13  C   UNL A   1      31.121  27.357  23.065  1.00  0.00     0.048 A 
ATOM     14  C   UNL A   1      28.762  27.074  23.515  1.00  0.00     0.068 A 
ATOM     15  C   UNL A   1      30.902  28.686  22.711  1.00  0.00     0.026 A 
ATOM     16  C   UNL A   1      28.533  28.397  23.126  1.00  0.00     0.063 A 
ATOM     17  C   UNL A   1      29.608  29.212  22.748  1.00  0.00     0.059 A 
ATOM     18  Cl  UNL A   1      26.900  28.961  23.116  1.00  0.00    -0.083 Cl
ATOM     19  Cl  UNL A   1      29.409  30.868  22.300  1.00  0.00    -0.083 Cl
ENDBRANCH  11  12
ENDBRANCH   8  11
ENDBRANCH   5   8
ENDBRANCH   3   4
ENDBRANCH   2   3
ENDBRANCH   1   2
BRANCH   1  20
ATOM     20  C   UNL A   1      31.741  30.427  25.944  1.00  0.00     0.002 C 
BRANCH  20  21
ATOM     21  C   UNL A   1      31.458  31.825  26.502  1.00  0.00     0.021 C 
BRANCH  21  22
ATOM     22  C   UNL A   1      32.626  32.460  27.249  1.00  0.00     0.116 C 
BRANCH  22  23
ATOM     23  N   UNL A   1      32.407  33.875  27.503  1.00  0.00    -0.352 N 
ATOM     24  C   UNL A   1      32.996  34.702  28.427  1.00  0.00     0.251 C 
ATOM     25  H   UNL A   1      31.735  34.304  26.926  1.00  0.00     0.163 HD
ATOM     26  O   UNL A   1      32.535  35.820  28.632  1.00  0.00    -0.269 OA
BRANCH  24  27
ATOM     27  C   UNL A   1      34.173  34.239  29.193  1.00  0.00     0.039 A 
ATOM     28  C   UNL A   1      33.965  33.555  30.393  1.00  0.00     0.014 A 
ATOM     29  C   UNL A   1      35.472  34.480  28.738  1.00  0.00     0.014 A 
ATOM     30  C   UNL A   1      35.058  33.045  31.097  1.00  0.00     0.010 A 
ATOM     31  C   UNL A   1      36.557  33.912  29.404  1.00  0.00     0.010 A 
ATOM     32  C   UNL A   1      36.359  33.179  30.584  1.00  0.00    -0.014 A 
BRANCH  32  33
ATOM     33  C   UNL A   1      37.513  32.517  31.247  1.00  0.00     0.031 A 
ATOM     34  C   UNL A   1      38.208  31.352  30.596  1.00  0.00     0.074 A 
ATOM     35  C   UNL A   1      37.892  32.930  32.473  1.00  0.00     0.049 A 
ATOM     36  N   UNL A   1      39.191  30.618  31.055  1.00  0.00    -0.248 NA
ATOM     37  C   UNL A   1      37.727  30.944  29.267  1.00  0.00     0.031 C 
ATOM     38  C   UNL A   1      37.267  34.016  33.231  1.00  0.00     0.029 A 
ATOM     39  N   UNL A   1      38.887  32.478  33.305  1.00  0.00    -0.354 N 
ATOM     40  C   UNL A   1      39.437  29.660  30.080  1.00  0.00     0.074 A 
ATOM     41  C   UNL A   1      38.474  29.877  29.022  1.00  0.00     0.031 C 
ATOM     42  C   UNL A   1      37.903  34.159  34.404  1.00  0.00     0.029 A 
ATOM     43  C   UNL A   1      38.949  33.147  34.504  1.00  0.00     0.049 A 
ATOM     44  H   UNL A   1      39.498  31.744  33.065  1.00  0.00     0.167 HD
ATOM     45  C   UNL A   1      40.391  28.699  30.063  1.00  0.00     0.037 A 
ATOM     46  C   UNL A   1      39.747  32.957  35.573  1.00  0.00     0.037 A 
ATOM     47  C   UNL A   1      41.363  28.501  31.106  1.00  0.00     0.049 A 
ATOM     48  C   UNL A   1      40.783  31.868  35.529  1.00  0.00     0.074 A 
ATOM     49  C   UNL A   1      42.414  27.601  31.142  1.00  0.00     0.029 A 
ATOM     50  N   UNL A   1      41.400  29.204  32.300  1.00  0.00    -0.354 N 
ATOM     51  N   UNL A   1      41.061  31.028  34.561  1.00  0.00    -0.248 NA
ATOM     52  C   UNL A   1      41.622  31.702  36.725  1.00  0.00     0.031 C 
ATOM     53  C   UNL A   1      43.051  27.718  32.380  1.00  0.00     0.029 A 
ATOM     54  C   UNL A   1      42.433  28.732  33.094  1.00  0.00     0.049 A 
ATOM     55  H   UNL A   1      40.784  29.931  32.548  1.00  0.00     0.167 HD
ATOM     56  C   UNL A   1      42.120  30.255  35.020  1.00  0.00     0.074 A 
ATOM     57  C   UNL A   1      42.451  30.741  36.342  1.00  0.00     0.031 C 
ATOM     58  C   UNL A   1      42.758  29.230  34.405  1.00  0.00     0.037 A 
BRANCH  45  59
ATOM     59  C   UNL A   1      40.444  27.778  28.878  1.00  0.00     0.057 A 
ATOM     60  C   UNL A   1      39.669  26.614  28.811  1.00  0.00     0.134 A 
ATOM     61  C   UNL A   1      41.212  28.109  27.754  1.00  0.00     0.134 A 
ATOM     62  F   UNL A   1      38.918  26.235  29.856  1.00  0.00    -0.206 F 
ATOM     63  C   UNL A   1      39.660  25.809  27.671  1.00  0.00     0.040 A 
ATOM     64  C   UNL A   1      41.192  27.326  26.599  1.00  0.00     0.040 A 
ATOM     65  F   UNL A   1      41.972  29.215  27.749  1.00  0.00    -0.206 F 
ATOM     66  C   UNL A   1      40.415  26.170  26.556  1.00  0.00     0.006 A 
ENDBRANCH  45  59
BRANCH  46  67
ATOM     67  C   UNL A   1      39.599  33.805  36.785  1.00  0.00     0.057 A 
ATOM     68  C   UNL A   1      40.328  34.991  36.936  1.00  0.00     0.134 A 
ATOM     69  C   UNL A   1      38.764  33.425  37.844  1.00  0.00     0.134 A 
ATOM     70  F   UNL A   1      41.161  35.399  35.967  1.00  0.00    -0.206 F 
ATOM     71  C   UNL A   1      40.262  35.748  38.107  1.00  0.00     0.040 A 
ATOM     72  C   UNL A   1      38.664  34.189  39.007  1.00  0.00     0.040 A 
ATOM     73  F   UNL A   1      38.031  32.304  37.761  1.00  0.00    -0.206 F 
ATOM     74  C   UNL A   1      39.426  35.347  39.147  1.00  0.00     0.006 A 
ENDBRANCH  46  67
BRANCH  58  75
ATOM     75  C   UNL A   1      43.899  28.589  35.141  1.00  0.00     0.057 A 
ATOM     76  C   UNL A   1      45.214  29.054  35.019  1.00  0.00     0.134 A 
ATOM     77  C   UNL A   1      43.672  27.513  36.009  1.00  0.00     0.134 A 
ATOM     78  F   UNL A   1      45.501  30.073  34.195  1.00  0.00    -0.206 F 
ATOM     79  C   UNL A   1      46.267  28.454  35.712  1.00  0.00     0.040 A 
ATOM     80  C   UNL A   1      44.711  26.925  36.731  1.00  0.00     0.040 A 
ATOM     81  F   UNL A   1      42.435  27.024  36.180  1.00  0.00    -0.206 F 
ATOM     82  C   UNL A   1      46.015  27.392  36.577  1.00  0.00     0.006 A 
ENDBRANCH  58  75
ENDBRANCH  32  33
ENDBRANCH  24  27
ENDBRANCH  22  23
ENDBRANCH  21  22
ENDBRANCH  20  21
ENDBRANCH   1  20
TORSDOF 16
ENDMDL
