MODEL 1
REMARK VINA RESULT:     -12.1      0.000      0.000
REMARK SMILES O=C(NCCCCCCNC(=O)[C@H]1C[NH2+]CCN1c1ncc(C(F)(F)F)cc1Cl)c1ccc(-c2c3nc(c(-c4c(F)cccc4F)c4ccc([nH]4)c(-c4c(F)cccc4F)c4nc(c(-c5c(F)cccc5F)c5ccc2[nH]5)C=C4)C=C3)cc1
REMARK SMILES IDX 6 1 5 2 4 3 3 4 1 5 2 6 30 8 31 9 83 10 32 11 82 12 33 13
REMARK SMILES IDX 34 14 35 15 76 16 36 17 81 18 75 19 77 20 37 21 80 22 74 23
REMARK SMILES IDX 73 24 38 26 64 27 47 28 63 29 48 30 51 31 62 32 78 33 49 34
REMARK SMILES IDX 50 35 61 37 79 38 52 39 39 40 40 41 45 42 41 43 42 44 44 45
REMARK SMILES IDX 46 46 43 47 65 48 66 49 71 50 67 51 68 52 70 53 72 54 69 55
REMARK SMILES IDX 53 56 54 57 59 58 55 59 56 60 58 61 60 62 57 63 7 64 8 65
REMARK SMILES IDX 9 66 10 67 11 68 12 70 13 71 14 72 18 73 15 74 17 75 16 76
REMARK SMILES IDX 19 79 20 80 28 81 21 82 27 83 29 84 22 85 23 86 24 87 25 88
REMARK SMILES IDX 26 89
REMARK H PARENT 3 7 77 25 51 36 10 69 15 77 15 78
REMARK Flexibility Score: inf
ROOT
ATOM      1  C   UNL A   1      36.534  20.582  24.982  1.00  0.00     0.002 C 
ENDROOT
BRANCH   1   2
ATOM      2  C   UNL A   1      37.753  19.653  24.963  1.00  0.00     0.021 C 
BRANCH   2   3
ATOM      3  C   UNL A   1      38.963  20.174  25.735  1.00  0.00     0.116 C 
BRANCH   3   4
ATOM      4  N   UNL A   1      40.006  19.169  25.835  1.00  0.00    -0.352 N 
ATOM      5  O   UNL A   1      42.116  18.381  25.780  1.00  0.00    -0.269 OA
ATOM      6  C   UNL A   1      41.360  19.330  25.972  1.00  0.00     0.251 C 
ATOM      7  H   UNL A   1      39.695  18.236  25.802  1.00  0.00     0.163 HD
BRANCH   6   8
ATOM      8  C   UNL A   1      41.917  20.644  26.350  1.00  0.00     0.039 A 
ATOM      9  C   UNL A   1      42.245  21.592  25.375  1.00  0.00     0.014 A 
ATOM     10  C   UNL A   1      42.045  20.956  27.707  1.00  0.00     0.014 A 
ATOM     11  C   UNL A   1      42.779  22.821  25.753  1.00  0.00     0.010 A 
ATOM     12  C   UNL A   1      42.527  22.209  28.085  1.00  0.00     0.010 A 
ATOM     13  C   UNL A   1      42.908  23.146  27.111  1.00  0.00    -0.014 A 
BRANCH  13  14
ATOM     14  C   UNL A   1      43.375  24.493  27.519  1.00  0.00     0.031 A 
ATOM     15  C   UNL A   1      42.397  25.544  27.951  1.00  0.00     0.074 A 
ATOM     16  C   UNL A   1      44.689  24.775  27.446  1.00  0.00     0.049 A 
ATOM     17  N   UNL A   1      42.613  26.801  28.242  1.00  0.00    -0.248 NA
ATOM     18  C   UNL A   1      40.990  25.130  28.060  1.00  0.00     0.031 C 
ATOM     19  C   UNL A   1      45.730  23.835  27.030  1.00  0.00     0.029 A 
ATOM     20  N   UNL A   1      45.370  25.938  27.700  1.00  0.00    -0.354 N 
ATOM     21  C   UNL A   1      41.368  27.337  28.545  1.00  0.00     0.074 A 
ATOM     22  C   UNL A   1      40.400  26.271  28.386  1.00  0.00     0.031 C 
ATOM     23  C   UNL A   1      46.918  24.457  27.054  1.00  0.00     0.029 A 
ATOM     24  C   UNL A   1      46.714  25.851  27.435  1.00  0.00     0.049 A 
ATOM     25  H   UNL A   1      44.937  26.755  28.039  1.00  0.00     0.167 HD
ATOM     26  C   UNL A   1      41.065  28.602  28.920  1.00  0.00     0.037 A 
ATOM     27  C   UNL A   1      47.672  26.795  27.461  1.00  0.00     0.037 A 
ATOM     28  C   UNL A   1      42.037  29.653  29.083  1.00  0.00     0.049 A 
ATOM     29  C   UNL A   1      47.311  28.196  27.854  1.00  0.00     0.074 A 
ATOM     30  C   UNL A   1      41.838  30.955  29.507  1.00  0.00     0.029 A 
ATOM     31  N   UNL A   1      43.392  29.523  28.815  1.00  0.00    -0.354 N 
ATOM     32  N   UNL A   1      46.138  28.682  28.179  1.00  0.00    -0.248 NA
ATOM     33  C   UNL A   1      48.401  29.180  27.884  1.00  0.00     0.031 C 
ATOM     34  C   UNL A   1      43.066  31.624  29.456  1.00  0.00     0.029 A 
ATOM     35  C   UNL A   1      44.038  30.728  29.042  1.00  0.00     0.049 A 
ATOM     36  H   UNL A   1      43.831  28.696  28.510  1.00  0.00     0.167 HD
ATOM     37  C   UNL A   1      46.349  30.022  28.472  1.00  0.00     0.074 A 
ATOM     38  C   UNL A   1      47.765  30.271  28.290  1.00  0.00     0.031 C 
ATOM     39  C   UNL A   1      45.449  30.958  28.861  1.00  0.00     0.037 A 
BRANCH  26  40
ATOM     40  C   UNL A   1      39.618  28.924  29.153  1.00  0.00     0.057 A 
ATOM     41  C   UNL A   1      39.031  28.835  30.421  1.00  0.00     0.134 A 
ATOM     42  C   UNL A   1      38.804  29.345  28.093  1.00  0.00     0.134 A 
ATOM     43  F   UNL A   1      39.752  28.428  31.477  1.00  0.00    -0.206 F 
ATOM     44  C   UNL A   1      37.680  29.124  30.622  1.00  0.00     0.040 A 
ATOM     45  C   UNL A   1      37.458  29.659  28.286  1.00  0.00     0.040 A 
ATOM     46  F   UNL A   1      39.305  29.458  26.853  1.00  0.00    -0.206 F 
ATOM     47  C   UNL A   1      36.891  29.542  29.553  1.00  0.00     0.006 A 
ENDBRANCH  26  40
BRANCH  27  48
ATOM     48  C   UNL A   1      49.058  26.426  27.087  1.00  0.00     0.057 A 
ATOM     49  C   UNL A   1      49.975  25.990  28.048  1.00  0.00     0.134 A 
ATOM     50  C   UNL A   1      49.477  26.442  25.751  1.00  0.00     0.134 A 
ATOM     51  F   UNL A   1      49.634  25.966  29.344  1.00  0.00    -0.206 F 
ATOM     52  C   UNL A   1      51.261  25.578  27.693  1.00  0.00     0.040 A 
ATOM     53  C   UNL A   1      50.751  26.013  25.379  1.00  0.00     0.040 A 
ATOM     54  F   UNL A   1      48.637  26.841  24.783  1.00  0.00    -0.206 F 
ATOM     55  C   UNL A   1      51.648  25.581  26.354  1.00  0.00     0.006 A 
ENDBRANCH  27  48
BRANCH  39  56
ATOM     56  C   UNL A   1      45.971  32.333  29.149  1.00  0.00     0.057 A 
ATOM     57  C   UNL A   1      46.460  32.686  30.412  1.00  0.00     0.134 A 
ATOM     58  C   UNL A   1      46.044  33.292  28.131  1.00  0.00     0.134 A 
ATOM     59  F   UNL A   1      46.404  31.815  31.431  1.00  0.00    -0.206 F 
ATOM     60  C   UNL A   1      46.997  33.951  30.654  1.00  0.00     0.040 A 
ATOM     61  C   UNL A   1      46.597  34.552  28.356  1.00  0.00     0.040 A 
ATOM     62  F   UNL A   1      45.597  33.010  26.897  1.00  0.00    -0.206 F 
ATOM     63  C   UNL A   1      47.075  34.885  29.623  1.00  0.00     0.006 A 
ENDBRANCH  39  56
ENDBRANCH  13  14
ENDBRANCH   6   8
ENDBRANCH   3   4
ENDBRANCH   2   3
ENDBRANCH   1   2
BRANCH   1  64
ATOM     64  C   UNL A   1      36.836  22.064  25.240  1.00  0.00     0.002 C 
BRANCH  64  65
ATOM     65  C   UNL A   1      36.750  22.974  24.010  1.00  0.00     0.021 C 
BRANCH  65  66
ATOM     66  C   UNL A   1      35.448  22.839  23.224  1.00  0.00     0.116 C 
BRANCH  66  67
ATOM     67  N   UNL A   1      34.519  23.898  23.546  1.00  0.00    -0.354 N 
ATOM     68  C   UNL A   1      33.583  24.045  24.516  1.00  0.00     0.248 C 
ATOM     69  H   UNL A   1      34.576  24.670  22.937  1.00  0.00     0.163 HD
ATOM     70  O   UNL A   1      33.019  25.153  24.516  1.00  0.00    -0.272 OA
BRANCH  68  71
ATOM     71  C   UNL A   1      33.140  22.994  25.561  1.00  0.00     0.228 C 
ATOM     72  C   UNL A   1      32.741  23.737  26.870  1.00  0.00     0.296 C 
ATOM     73  N   UNL A   1      32.121  22.000  25.176  1.00  0.00    -0.333 N 
ATOM     74  N   UNL A   1      31.322  24.150  26.959  1.00  0.00    -0.343 N 
ATOM     75  C   UNL A   1      30.705  22.203  25.477  1.00  0.00     0.180 C 
ATOM     76  C   UNL A   1      30.481  22.953  26.803  1.00  0.00     0.282 C 
ATOM     77  H   UNL A   1      31.111  24.817  26.218  1.00  0.00     0.346 HD
ATOM     78  H   UNL A   1      31.141  24.592  27.859  1.00  0.00     0.346 HD
BRANCH  73  79
ATOM     79  C   UNL A   1      32.516  20.728  24.809  1.00  0.00     0.148 A 
ATOM     80  N   UNL A   1      33.007  19.948  25.802  1.00  0.00    -0.237 NA
ATOM     81  C   UNL A   1      32.465  20.251  23.489  1.00  0.00     0.084 A 
ATOM     82  C   UNL A   1      33.409  18.689  25.509  1.00  0.00     0.126 A 
ATOM     83  C   UNL A   1      32.895  18.951  23.210  1.00  0.00     0.039 A 
ATOM     84  Cl  UNL A   1      31.932  21.220  22.164  1.00  0.00    -0.080 Cl
ATOM     85  C   UNL A   1      33.376  18.141  24.240  1.00  0.00     0.075 A 
BRANCH  85  86
ATOM     86  C   UNL A   1      33.848  16.739  24.023  1.00  0.00     0.417 C 
ATOM     87  F   UNL A   1      34.270  16.525  22.746  1.00  0.00    -0.166 F 
ATOM     88  F   UNL A   1      34.899  16.415  24.824  1.00  0.00    -0.166 F 
ATOM     89  F   UNL A   1      32.891  15.801  24.261  1.00  0.00    -0.166 F 
ENDBRANCH  85  86
ENDBRANCH  73  79
ENDBRANCH  68  71
ENDBRANCH  66  67
ENDBRANCH  65  66
ENDBRANCH  64  65
ENDBRANCH   1  64
TORSDOF 15
ENDMDL
MODEL 2
REMARK VINA RESULT:     -12.0      5.813     10.567
REMARK SMILES O=C(NCCCCCCNC(=O)[C@H]1C[NH2+]CCN1c1ncc(C(F)(F)F)cc1Cl)c1ccc(-c2c3nc(c(-c4c(F)cccc4F)c4ccc([nH]4)c(-c4c(F)cccc4F)c4nc(c(-c5c(F)cccc5F)c5ccc2[nH]5)C=C4)C=C3)cc1
REMARK SMILES IDX 6 1 5 2 4 3 3 4 1 5 2 6 30 8 31 9 83 10 32 11 82 12 33 13
REMARK SMILES IDX 34 14 35 15 76 16 36 17 81 18 75 19 77 20 37 21 80 22 74 23
REMARK SMILES IDX 73 24 38 26 64 27 47 28 63 29 48 30 51 31 62 32 78 33 49 34
REMARK SMILES IDX 50 35 61 37 79 38 52 39 39 40 40 41 45 42 41 43 42 44 44 45
REMARK SMILES IDX 46 46 43 47 65 48 66 49 71 50 67 51 68 52 70 53 72 54 69 55
REMARK SMILES IDX 53 56 54 57 59 58 55 59 56 60 58 61 60 62 57 63 7 64 8 65
REMARK SMILES IDX 9 66 10 67 11 68 12 70 13 71 14 72 18 73 15 74 17 75 16 76
REMARK SMILES IDX 19 79 20 80 28 81 21 82 27 83 29 84 22 85 23 86 24 87 25 88
REMARK SMILES IDX 26 89
REMARK H PARENT 3 7 77 25 51 36 10 69 15 77 15 78
REMARK Flexibility Score: inf
ROOT
ATOM      1  C   UNL A   1      31.525  30.530  25.802  1.00  0.00     0.002 C 
ENDROOT
BRANCH   1   2
ATOM      2  C   UNL A   1      31.321  31.893  26.473  1.00  0.00     0.021 C 
BRANCH   2   3
ATOM      3  C   UNL A   1      32.559  32.450  27.171  1.00  0.00     0.116 C 
BRANCH   3   4
ATOM      4  N   UNL A   1      32.391  33.850  27.521  1.00  0.00    -0.352 N 
ATOM      5  O   UNL A   1      32.597  35.688  28.805  1.00  0.00    -0.269 OA
ATOM      6  C   UNL A   1      33.042  34.596  28.468  1.00  0.00     0.251 C 
ATOM      7  H   UNL A   1      31.711  34.334  27.000  1.00  0.00     0.163 HD
BRANCH   6   8
ATOM      8  C   UNL A   1      34.283  34.088  29.088  1.00  0.00     0.039 A 
ATOM      9  C   UNL A   1      34.236  33.270  30.221  1.00  0.00     0.014 A 
ATOM     10  C   UNL A   1      35.507  34.380  28.480  1.00  0.00     0.014 A 
ATOM     11  C   UNL A   1      35.419  32.811  30.797  1.00  0.00     0.010 A 
ATOM     12  C   UNL A   1      36.688  33.873  29.025  1.00  0.00     0.010 A 
ATOM     13  C   UNL A   1      36.652  33.094  30.193  1.00  0.00    -0.014 A 
BRANCH  13  14
ATOM     14  C   UNL A   1      37.905  32.520  30.739  1.00  0.00     0.031 A 
ATOM     15  C   UNL A   1      38.533  31.315  30.107  1.00  0.00     0.074 A 
ATOM     16  C   UNL A   1      38.442  33.066  31.846  1.00  0.00     0.049 A 
ATOM     17  N   UNL A   1      39.566  30.617  30.508  1.00  0.00    -0.248 NA
ATOM     18  C   UNL A   1      37.915  30.822  28.868  1.00  0.00     0.031 C 
ATOM     19  C   UNL A   1      37.911  34.232  32.552  1.00  0.00     0.029 A 
ATOM     20  N   UNL A   1      39.540  32.701  32.581  1.00  0.00    -0.354 N 
ATOM     21  C   UNL A   1      39.708  29.589  29.585  1.00  0.00     0.074 A 
ATOM     22  C   UNL A   1      38.644  29.745  28.614  1.00  0.00     0.031 C 
ATOM     23  C   UNL A   1      38.681  34.486  33.620  1.00  0.00     0.029 A 
ATOM     24  C   UNL A   1      39.726  33.471  33.702  1.00  0.00     0.049 A 
ATOM     25  H   UNL A   1      40.137  31.958  32.330  1.00  0.00     0.167 HD
ATOM     26  C   UNL A   1      40.640  28.607  29.555  1.00  0.00     0.037 A 
ATOM     27  C   UNL A   1      40.615  33.354  34.705  1.00  0.00     0.037 A 
ATOM     28  C   UNL A   1      41.697  28.467  30.523  1.00  0.00     0.049 A 
ATOM     29  C   UNL A   1      41.622  32.244  34.666  1.00  0.00     0.074 A 
ATOM     30  C   UNL A   1      42.721  27.535  30.553  1.00  0.00     0.029 A 
ATOM     31  N   UNL A   1      41.859  29.274  31.640  1.00  0.00    -0.354 N 
ATOM     32  N   UNL A   1      41.774  31.303  33.767  1.00  0.00    -0.248 NA
ATOM     33  C   UNL A   1      42.581  32.177  35.777  1.00  0.00     0.031 C 
ATOM     34  C   UNL A   1      43.477  27.754  31.710  1.00  0.00     0.029 A 
ATOM     35  C   UNL A   1      42.951  28.847  32.378  1.00  0.00     0.049 A 
ATOM     36  H   UNL A   1      41.283  30.038  31.872  1.00  0.00     0.167 HD
ATOM     37  C   UNL A   1      42.855  30.542  34.191  1.00  0.00     0.074 A 
ATOM     38  C   UNL A   1      43.325  31.136  35.426  1.00  0.00     0.031 C 
ATOM     39  C   UNL A   1      43.409  29.454  33.604  1.00  0.00     0.037 A 
BRANCH  26  40
ATOM     40  C   UNL A   1      40.537  27.593  28.454  1.00  0.00     0.057 A 
ATOM     41  C   UNL A   1      39.756  26.437  28.578  1.00  0.00     0.134 A 
ATOM     42  C   UNL A   1      41.219  27.785  27.246  1.00  0.00     0.134 A 
ATOM     43  F   UNL A   1      39.086  26.188  29.714  1.00  0.00    -0.206 F 
ATOM     44  C   UNL A   1      39.680  25.494  27.552  1.00  0.00     0.040 A 
ATOM     45  C   UNL A   1      41.133  26.860  26.203  1.00  0.00     0.040 A 
ATOM     46  F   UNL A   1      41.980  28.873  27.058  1.00  0.00    -0.206 F 
ATOM     47  C   UNL A   1      40.366  25.707  26.358  1.00  0.00     0.006 A 
ENDBRANCH  26  40
BRANCH  27  48
ATOM     48  C   UNL A   1      40.566  34.319  35.828  1.00  0.00     0.057 A 
ATOM     49  C   UNL A   1      41.190  35.567  35.738  1.00  0.00     0.134 A 
ATOM     50  C   UNL A   1      39.840  34.040  36.993  1.00  0.00     0.134 A 
ATOM     51  F   UNL A   1      41.910  35.884  34.652  1.00  0.00    -0.206 F 
ATOM     52  C   UNL A   1      41.093  36.506  36.766  1.00  0.00     0.040 A 
ATOM     53  C   UNL A   1      39.716  34.977  38.019  1.00  0.00     0.040 A 
ATOM     54  F   UNL A   1      39.211  32.863  37.132  1.00  0.00    -0.206 F 
ATOM     55  C   UNL A   1      40.346  36.215  37.907  1.00  0.00     0.006 A 
ENDBRANCH  27  48
BRANCH  39  56
ATOM     56  C   UNL A   1      44.607  28.850  34.270  1.00  0.00     0.057 A 
ATOM     57  C   UNL A   1      44.489  27.806  35.196  1.00  0.00     0.134 A 
ATOM     58  C   UNL A   1      45.898  29.275  33.931  1.00  0.00     0.134 A 
ATOM     59  F   UNL A   1      43.279  27.364  35.570  1.00  0.00    -0.206 F 
ATOM     60  C   UNL A   1      45.614  27.211  35.767  1.00  0.00     0.040 A 
ATOM     61  C   UNL A   1      47.031  28.675  34.480  1.00  0.00     0.040 A 
ATOM     62  F   UNL A   1      46.076  30.268  33.045  1.00  0.00    -0.206 F 
ATOM     63  C   UNL A   1      46.890  27.640  35.403  1.00  0.00     0.006 A 
ENDBRANCH  39  56
ENDBRANCH  13  14
ENDBRANCH   6   8
ENDBRANCH   3   4
ENDBRANCH   2   3
ENDBRANCH   1   2
BRANCH   1  64
ATOM     64  C   UNL A   1      32.837  29.813  26.145  1.00  0.00     0.002 C 
BRANCH  64  65
ATOM     65  C   UNL A   1      32.730  28.735  27.229  1.00  0.00     0.021 C 
BRANCH  65  66
ATOM     66  C   UNL A   1      31.391  28.002  27.250  1.00  0.00     0.116 C 
BRANCH  66  67
ATOM     67  N   UNL A   1      31.538  26.611  26.887  1.00  0.00    -0.354 N 
ATOM     68  C   UNL A   1      31.976  25.990  25.765  1.00  0.00     0.248 C 
ATOM     69  H   UNL A   1      31.265  25.988  27.599  1.00  0.00     0.163 HD
ATOM     70  O   UNL A   1      32.030  24.751  25.857  1.00  0.00    -0.272 OA
BRANCH  68  71
ATOM     71  C   UNL A   1      32.365  26.645  24.418  1.00  0.00     0.228 C 
ATOM     72  C   UNL A   1      33.781  26.139  24.014  1.00  0.00     0.296 C 
ATOM     73  N   UNL A   1      31.420  26.557  23.290  1.00  0.00    -0.333 N 
ATOM     74  N   UNL A   1      33.804  24.900  23.203  1.00  0.00    -0.343 N 
ATOM     75  C   UNL A   1      31.540  25.512  22.274  1.00  0.00     0.180 C 
ATOM     76  C   UNL A   1      33.003  25.124  21.990  1.00  0.00     0.282 C 
ATOM     77  H   UNL A   1      33.408  24.130  23.741  1.00  0.00     0.346 HD
ATOM     78  H   UNL A   1      34.763  24.663  22.952  1.00  0.00     0.346 HD
BRANCH  73  79
ATOM     79  C   UNL A   1      30.604  27.633  23.000  1.00  0.00     0.148 A 
ATOM     80  N   UNL A   1      31.210  28.702  22.428  1.00  0.00    -0.237 NA
ATOM     81  C   UNL A   1      29.233  27.670  23.302  1.00  0.00     0.084 A 
ATOM     82  C   UNL A   1      30.466  29.788  22.117  1.00  0.00     0.126 A 
ATOM     83  C   UNL A   1      28.487  28.808  22.979  1.00  0.00     0.039 A 
ATOM     84  Cl  UNL A   1      28.417  26.379  24.106  1.00  0.00    -0.080 Cl
ATOM     85  C   UNL A   1      29.110  29.896  22.367  1.00  0.00     0.075 A 
BRANCH  85  86
ATOM     86  C   UNL A   1      28.380  31.145  21.985  1.00  0.00     0.417 C 
ATOM     87  F   UNL A   1      29.205  32.226  21.910  1.00  0.00    -0.166 F 
ATOM     88  F   UNL A   1      27.783  31.045  20.767  1.00  0.00    -0.166 F 
ATOM     89  F   UNL A   1      27.395  31.487  22.860  1.00  0.00    -0.166 F 
ENDBRANCH  85  86
ENDBRANCH  73  79
ENDBRANCH  68  71
ENDBRANCH  66  67
ENDBRANCH  65  66
ENDBRANCH  64  65
ENDBRANCH   1  64
TORSDOF 15
ENDMDL
MODEL 3
REMARK VINA RESULT:     -11.5      5.827      9.867
REMARK SMILES O=C(NCCCCCCNC(=O)[C@H]1C[NH2+]CCN1c1ncc(C(F)(F)F)cc1Cl)c1ccc(-c2c3nc(c(-c4c(F)cccc4F)c4ccc([nH]4)c(-c4c(F)cccc4F)c4nc(c(-c5c(F)cccc5F)c5ccc2[nH]5)C=C4)C=C3)cc1
REMARK SMILES IDX 6 1 5 2 4 3 3 4 1 5 2 6 30 8 31 9 83 10 32 11 82 12 33 13
REMARK SMILES IDX 34 14 35 15 76 16 36 17 81 18 75 19 77 20 37 21 80 22 74 23
REMARK SMILES IDX 73 24 38 26 64 27 47 28 63 29 48 30 51 31 62 32 78 33 49 34
REMARK SMILES IDX 50 35 61 37 79 38 52 39 39 40 40 41 45 42 41 43 42 44 44 45
REMARK SMILES IDX 46 46 43 47 65 48 66 49 71 50 67 51 68 52 70 53 72 54 69 55
REMARK SMILES IDX 53 56 54 57 59 58 55 59 56 60 58 61 60 62 57 63 7 64 8 65
REMARK SMILES IDX 9 66 10 67 11 68 12 70 13 71 14 72 18 73 15 74 17 75 16 76
REMARK SMILES IDX 19 79 20 80 28 81 21 82 27 83 29 84 22 85 23 86 24 87 25 88
REMARK SMILES IDX 26 89
REMARK H PARENT 3 7 77 25 51 36 10 69 15 77 15 78
REMARK Flexibility Score: inf
ROOT
ATOM      1  C   UNL A   1      30.978  31.078  25.617  1.00  0.00     0.002 C 
ENDROOT
BRANCH   1   2
ATOM      2  C   UNL A   1      31.088  32.447  26.297  1.00  0.00     0.021 C 
BRANCH   2   3
ATOM      3  C   UNL A   1      32.373  32.660  27.094  1.00  0.00     0.116 C 
BRANCH   3   4
ATOM      4  N   UNL A   1      32.519  34.043  27.513  1.00  0.00    -0.352 N 
ATOM      5  O   UNL A   1      33.155  35.725  28.869  1.00  0.00    -0.269 OA
ATOM      6  C   UNL A   1      33.346  34.582  28.464  1.00  0.00     0.251 C 
ATOM      7  H   UNL A   1      31.940  34.687  27.046  1.00  0.00     0.163 HD
BRANCH   6   8
ATOM      8  C   UNL A   1      34.471  33.791  29.004  1.00  0.00     0.039 A 
ATOM      9  C   UNL A   1      35.795  34.141  28.721  1.00  0.00     0.014 A 
ATOM     10  C   UNL A   1      34.192  32.725  29.864  1.00  0.00     0.014 A 
ATOM     11  C   UNL A   1      36.840  33.375  29.230  1.00  0.00     0.010 A 
ATOM     12  C   UNL A   1      35.242  31.993  30.420  1.00  0.00     0.010 A 
ATOM     13  C   UNL A   1      36.573  32.307  30.098  1.00  0.00    -0.014 A 
BRANCH  13  14
ATOM     14  C   UNL A   1      37.685  31.555  30.728  1.00  0.00     0.031 A 
ATOM     15  C   UNL A   1      38.143  31.888  32.116  1.00  0.00     0.074 A 
ATOM     16  C   UNL A   1      38.313  30.603  30.014  1.00  0.00     0.049 A 
ATOM     17  N   UNL A   1      39.161  31.410  32.785  1.00  0.00    -0.248 NA
ATOM     18  C   UNL A   1      37.361  32.899  32.844  1.00  0.00     0.031 C 
ATOM     19  C   UNL A   1      37.961  30.203  28.652  1.00  0.00     0.029 A 
ATOM     20  N   UNL A   1      39.390  29.815  30.327  1.00  0.00    -0.354 N 
ATOM     21  C   UNL A   1      39.158  32.077  34.003  1.00  0.00     0.074 A 
ATOM     22  C   UNL A   1      38.047  33.006  33.973  1.00  0.00     0.031 C 
ATOM     23  C   UNL A   1      38.807  29.245  28.243  1.00  0.00     0.029 A 
ATOM     24  C   UNL A   1      39.791  29.004  29.294  1.00  0.00     0.049 A 
ATOM     25  H   UNL A   1      39.834  29.829  31.207  1.00  0.00     0.167 HD
ATOM     26  C   UNL A   1      40.007  31.926  35.048  1.00  0.00     0.037 A 
ATOM     27  C   UNL A   1      40.852  28.184  29.188  1.00  0.00     0.037 A 
ATOM     28  C   UNL A   1      41.105  30.994  35.069  1.00  0.00     0.049 A 
ATOM     29  C   UNL A   1      41.795  28.051  30.346  1.00  0.00     0.074 A 
ATOM     30  C   UNL A   1      41.993  30.730  36.099  1.00  0.00     0.029 A 
ATOM     31  N   UNL A   1      41.473  30.182  34.006  1.00  0.00    -0.354 N 
ATOM     32  N   UNL A   1      41.758  28.655  31.509  1.00  0.00    -0.248 NA
ATOM     33  C   UNL A   1      42.924  27.126  30.182  1.00  0.00     0.031 C 
ATOM     34  C   UNL A   1      42.922  29.789  35.643  1.00  0.00     0.029 A 
ATOM     35  C   UNL A   1      42.589  29.434  34.346  1.00  0.00     0.049 A 
ATOM     36  H   UNL A   1      41.009  30.142  33.139  1.00  0.00     0.167 HD
ATOM     37  C   UNL A   1      42.846  28.171  32.223  1.00  0.00     0.074 A 
ATOM     38  C   UNL A   1      43.520  27.219  31.363  1.00  0.00     0.031 C 
ATOM     39  C   UNL A   1      43.244  28.486  33.479  1.00  0.00     0.037 A 
BRANCH  26  40
ATOM     40  C   UNL A   1      39.796  32.811  36.241  1.00  0.00     0.057 A 
ATOM     41  C   UNL A   1      38.877  32.493  37.249  1.00  0.00     0.134 A 
ATOM     42  C   UNL A   1      40.536  33.992  36.390  1.00  0.00     0.134 A 
ATOM     43  F   UNL A   1      38.129  31.382  37.161  1.00  0.00    -0.206 F 
ATOM     44  C   UNL A   1      38.680  33.331  38.348  1.00  0.00     0.040 A 
ATOM     45  C   UNL A   1      40.364  34.826  37.496  1.00  0.00     0.040 A 
ATOM     46  F   UNL A   1      41.437  34.352  35.465  1.00  0.00    -0.206 F 
ATOM     47  C   UNL A   1      39.427  34.500  38.475  1.00  0.00     0.006 A 
ENDBRANCH  26  40
BRANCH  27  48
ATOM     48  C   UNL A   1      41.067  27.443  27.923  1.00  0.00     0.057 A 
ATOM     49  C   UNL A   1      41.817  27.995  26.880  1.00  0.00     0.134 A 
ATOM     50  C   UNL A   1      40.581  26.141  27.753  1.00  0.00     0.134 A 
ATOM     51  F   UNL A   1      42.297  29.243  26.981  1.00  0.00    -0.206 F 
ATOM     52  C   UNL A   1      42.079  27.277  25.712  1.00  0.00     0.040 A 
ATOM     53  C   UNL A   1      40.853  25.403  26.601  1.00  0.00     0.040 A 
ATOM     54  F   UNL A   1      39.864  25.556  28.724  1.00  0.00    -0.206 F 
ATOM     55  C   UNL A   1      41.604  25.973  25.575  1.00  0.00     0.006 A 
ENDBRANCH  27  48
BRANCH  39  56
ATOM     56  C   UNL A   1      44.447  27.772  34.017  1.00  0.00     0.057 A 
ATOM     57  C   UNL A   1      45.732  28.322  33.929  1.00  0.00     0.134 A 
ATOM     58  C   UNL A   1      44.306  26.551  34.689  1.00  0.00     0.134 A 
ATOM     59  F   UNL A   1      45.932  29.482  33.287  1.00  0.00    -0.206 F 
ATOM     60  C   UNL A   1      46.837  27.676  34.485  1.00  0.00     0.040 A 
ATOM     61  C   UNL A   1      45.401  25.906  35.265  1.00  0.00     0.040 A 
ATOM     62  F   UNL A   1      43.099  25.977  34.811  1.00  0.00    -0.206 F 
ATOM     63  C   UNL A   1      46.672  26.470  35.163  1.00  0.00     0.006 A 
ENDBRANCH  39  56
ENDBRANCH  13  14
ENDBRANCH   6   8
ENDBRANCH   3   4
ENDBRANCH   2   3
ENDBRANCH   1   2
BRANCH   1  64
ATOM     64  C   UNL A   1      32.088  30.076  25.961  1.00  0.00     0.002 C 
BRANCH  64  65
ATOM     65  C   UNL A   1      31.781  29.134  27.130  1.00  0.00     0.021 C 
BRANCH  65  66
ATOM     66  C   UNL A   1      32.770  27.981  27.278  1.00  0.00     0.116 C 
BRANCH  66  67
ATOM     67  N   UNL A   1      32.203  26.730  26.828  1.00  0.00    -0.354 N 
ATOM     68  C   UNL A   1      32.053  26.169  25.604  1.00  0.00     0.248 C 
ATOM     69  H   UNL A   1      31.853  26.172  27.560  1.00  0.00     0.163 HD
ATOM     70  O   UNL A   1      31.575  25.022  25.623  1.00  0.00    -0.272 OA
BRANCH  68  71
ATOM     71  C   UNL A   1      32.373  26.809  24.231  1.00  0.00     0.228 C 
ATOM     72  C   UNL A   1      33.765  26.296  23.759  1.00  0.00     0.296 C 
ATOM     73  N   UNL A   1      31.370  26.711  23.154  1.00  0.00    -0.333 N 
ATOM     74  N   UNL A   1      33.744  25.048  22.963  1.00  0.00    -0.343 N 
ATOM     75  C   UNL A   1      31.435  25.654  22.146  1.00  0.00     0.180 C 
ATOM     76  C   UNL A   1      32.881  25.261  21.790  1.00  0.00     0.282 C 
ATOM     77  H   UNL A   1      33.375  24.285  23.529  1.00  0.00     0.346 HD
ATOM     78  H   UNL A   1      34.689  24.806  22.665  1.00  0.00     0.346 HD
BRANCH  73  79
ATOM     79  C   UNL A   1      30.541  27.785  22.895  1.00  0.00     0.148 A 
ATOM     80  N   UNL A   1      31.131  28.869  22.334  1.00  0.00    -0.237 NA
ATOM     81  C   UNL A   1      29.175  27.806  23.217  1.00  0.00     0.084 A 
ATOM     82  C   UNL A   1      30.374  29.955  22.053  1.00  0.00     0.126 A 
ATOM     83  C   UNL A   1      28.416  28.943  22.925  1.00  0.00     0.039 A 
ATOM     84  Cl  UNL A   1      28.380  26.494  24.009  1.00  0.00    -0.080 Cl
ATOM     85  C   UNL A   1      29.021  30.047  22.323  1.00  0.00     0.075 A 
BRANCH  85  86
ATOM     86  C   UNL A   1      28.276  31.296  21.974  1.00  0.00     0.417 C 
ATOM     87  F   UNL A   1      27.605  31.188  20.794  1.00  0.00    -0.166 F 
ATOM     88  F   UNL A   1      27.341  31.620  22.908  1.00  0.00    -0.166 F 
ATOM     89  F   UNL A   1      29.077  32.389  21.849  1.00  0.00    -0.166 F 
ENDBRANCH  85  86
ENDBRANCH  73  79
ENDBRANCH  68  71
ENDBRANCH  66  67
ENDBRANCH  65  66
ENDBRANCH  64  65
ENDBRANCH   1  64
TORSDOF 15
ENDMDL
