MODEL 1
REMARK VINA RESULT:     -12.3      0.000      0.000
REMARK SMILES Cc1c(Cl)cc2c(c1C)O[C@H](C(F)(F)F)C(C(=O)NCCCCCCNC(=O)c1ccc(-c3c4nc(c(-c5c(F)cccc5F)c5ccc([nH]5)c(-c5c(F)cccc5F)c5nc(c(-c6c(F)cccc6F)c6ccc3[nH]6)C=C5)C=C4)cc1)=C2
REMARK SMILES IDX 23 1 22 2 21 3 20 4 19 5 17 6 18 7 16 9 1 10 2 11 3 12 8 13
REMARK SMILES IDX 4 14 5 15 7 16 9 17 6 18 10 19 83 20 11 21 12 22 13 23 14 24
REMARK SMILES IDX 15 25 24 26 25 27 26 28 27 29 28 31 29 32 30 33 82 34 31 35
REMARK SMILES IDX 81 36 32 37 33 38 34 39 75 40 35 41 80 42 74 43 76 44 36 45
REMARK SMILES IDX 79 46 73 47 72 48 37 50 63 51 46 52 62 53 47 54 50 55 61 56
REMARK SMILES IDX 77 57 48 58 49 59 60 61 78 62 51 63 38 64 39 65 44 66 40 67
REMARK SMILES IDX 41 68 43 69 45 70 42 71 64 72 65 73 70 74 66 75 67 76 69 77
REMARK SMILES IDX 71 78 68 79 52 80 53 81 58 82 54 83 55 84 57 85 59 86 56 87
REMARK H PARENT 19 8 26 30 76 49 50 60
REMARK Flexibility Score: inf
ROOT
ATOM      1  C   UNL A   1      31.351  30.875  25.684  1.00  0.00     0.002 C 
ENDROOT
BRANCH   1   2
ATOM      2  C   UNL A   1      32.163  29.617  26.028  1.00  0.00     0.002 C 
BRANCH   2   3
ATOM      3  C   UNL A   1      32.873  28.964  24.840  1.00  0.00     0.021 C 
BRANCH   3   4
ATOM      4  C   UNL A   1      32.111  27.781  24.255  1.00  0.00     0.116 C 
BRANCH   4   5
ATOM      5  N   UNL A   1      31.233  27.167  25.235  1.00  0.00    -0.352 N 
ATOM      6  C   UNL A   1      31.104  25.961  25.835  1.00  0.00     0.251 C 
ATOM      7  O   UNL A   1      30.193  25.878  26.664  1.00  0.00    -0.270 OA
ATOM      8  H   UNL A   1      30.545  27.800  25.546  1.00  0.00     0.163 HD
BRANCH   6   9
ATOM      9  C   UNL A   1      31.964  24.771  25.562  1.00  0.00     0.067 C 
ATOM     10  C   UNL A   1      36.760  20.340  25.053  1.00  0.00     0.046 C 
ATOM     11  C   UNL A   1      35.840  21.515  25.266  1.00  0.00    -0.026 A 
ATOM     12  C   UNL A   1      36.361  22.769  25.653  1.00  0.00     0.045 A 
ATOM     13  C   UNL A   1      34.452  21.409  25.029  1.00  0.00    -0.004 A 
ATOM     14  Cl  UNL A   1      38.058  23.024  25.888  1.00  0.00    -0.084 Cl
ATOM     15  C   UNL A   1      35.527  23.874  25.860  1.00  0.00     0.032 A 
ATOM     16  C   UNL A   1      33.632  22.533  25.252  1.00  0.00     0.131 A 
ATOM     17  C   UNL A   1      33.778  20.144  24.553  1.00  0.00     0.049 C 
ATOM     18  C   UNL A   1      34.154  23.758  25.669  1.00  0.00     0.019 A 
ATOM     19  O   UNL A   1      32.290  22.344  25.085  1.00  0.00    -0.475 OA
ATOM     20  C   UNL A   1      33.255  24.879  25.923  1.00  0.00     0.025 C 
ATOM     21  C   UNL A   1      31.471  23.521  24.897  1.00  0.00     0.314 C 
BRANCH  21  22
ATOM     22  C   UNL A   1      31.196  23.707  23.395  1.00  0.00     0.429 C 
ATOM     23  F   UNL A   1      31.358  22.531  22.736  1.00  0.00    -0.167 F 
ATOM     24  F   UNL A   1      29.931  24.114  23.139  1.00  0.00    -0.167 F 
ATOM     25  F   UNL A   1      32.024  24.609  22.822  1.00  0.00    -0.167 F 
ENDBRANCH  21  22
ENDBRANCH   6   9
ENDBRANCH   4   5
ENDBRANCH   3   4
ENDBRANCH   2   3
ENDBRANCH   1   2
BRANCH   1  26
ATOM     26  C   UNL A   1      31.311  31.943  26.779  1.00  0.00     0.021 C 
BRANCH  26  27
ATOM     27  C   UNL A   1      32.654  32.609  27.052  1.00  0.00     0.116 C 
BRANCH  27  28
ATOM     28  N   UNL A   1      32.491  33.963  27.556  1.00  0.00    -0.352 N 
ATOM     29  C   UNL A   1      33.134  34.583  28.595  1.00  0.00     0.251 C 
ATOM     30  H   UNL A   1      31.824  34.511  27.084  1.00  0.00     0.163 HD
ATOM     31  O   UNL A   1      32.721  35.653  29.032  1.00  0.00    -0.269 OA
BRANCH  29  32
ATOM     32  C   UNL A   1      34.323  33.947  29.194  1.00  0.00     0.039 A 
ATOM     33  C   UNL A   1      34.145  32.952  30.155  1.00  0.00     0.014 A 
ATOM     34  C   UNL A   1      35.608  34.337  28.804  1.00  0.00     0.014 A 
ATOM     35  C   UNL A   1      35.261  32.312  30.693  1.00  0.00     0.010 A 
ATOM     36  C   UNL A   1      36.714  33.645  29.283  1.00  0.00     0.010 A 
ATOM     37  C   UNL A   1      36.552  32.636  30.243  1.00  0.00    -0.014 A 
BRANCH  37  38
ATOM     38  C   UNL A   1      37.740  31.938  30.790  1.00  0.00     0.031 A 
ATOM     39  C   UNL A   1      38.235  32.266  32.169  1.00  0.00     0.074 A 
ATOM     40  C   UNL A   1      38.378  31.022  30.037  1.00  0.00     0.049 A 
ATOM     41  N   UNL A   1      39.245  31.755  32.825  1.00  0.00    -0.248 NA
ATOM     42  C   UNL A   1      37.517  33.322  32.903  1.00  0.00     0.031 C 
ATOM     43  C   UNL A   1      38.012  30.650  28.669  1.00  0.00     0.029 A 
ATOM     44  N   UNL A   1      39.463  30.230  30.317  1.00  0.00    -0.354 N 
ATOM     45  C   UNL A   1      39.277  32.420  34.044  1.00  0.00     0.074 A 
ATOM     46  C   UNL A   1      38.235  33.420  34.012  1.00  0.00     0.031 C 
ATOM     47  C   UNL A   1      38.829  29.672  28.247  1.00  0.00     0.029 A 
ATOM     48  C   UNL A   1      39.797  29.372  29.298  1.00  0.00     0.049 A 
ATOM     49  H   UNL A   1      39.956  30.273  31.169  1.00  0.00     0.167 HD
ATOM     50  C   UNL A   1      40.080  32.189  35.109  1.00  0.00     0.037 A 
ATOM     51  C   UNL A   1      40.768  28.442  29.224  1.00  0.00     0.037 A 
ATOM     52  C   UNL A   1      41.101  31.179  35.142  1.00  0.00     0.049 A 
ATOM     53  C   UNL A   1      41.671  28.231  30.407  1.00  0.00     0.074 A 
ATOM     54  C   UNL A   1      41.939  30.839  36.190  1.00  0.00     0.029 A 
ATOM     55  N   UNL A   1      41.424  30.346  34.082  1.00  0.00    -0.354 N 
ATOM     56  N   UNL A   1      41.648  28.821  31.579  1.00  0.00    -0.248 NA
ATOM     57  C   UNL A   1      42.734  27.226  30.264  1.00  0.00     0.031 C 
ATOM     58  C   UNL A   1      42.802  29.833  35.746  1.00  0.00     0.029 A 
ATOM     59  C   UNL A   1      42.467  29.511  34.441  1.00  0.00     0.049 A 
ATOM     60  H   UNL A   1      40.977  30.349  33.205  1.00  0.00     0.167 HD
ATOM     61  C   UNL A   1      42.672  28.244  32.317  1.00  0.00     0.074 A 
ATOM     62  C   UNL A   1      43.290  27.247  31.468  1.00  0.00     0.031 C 
ATOM     63  C   UNL A   1      43.065  28.518  33.584  1.00  0.00     0.037 A 
BRANCH  50  64
ATOM     64  C   UNL A   1      39.872  33.030  36.334  1.00  0.00     0.057 A 
ATOM     65  C   UNL A   1      40.584  34.221  36.535  1.00  0.00     0.134 A 
ATOM     66  C   UNL A   1      38.910  32.684  37.291  1.00  0.00     0.134 A 
ATOM     67  F   UNL A   1      41.528  34.605  35.662  1.00  0.00    -0.206 F 
ATOM     68  C   UNL A   1      40.358  35.027  37.651  1.00  0.00     0.040 A 
ATOM     69  C   UNL A   1      38.657  33.496  38.397  1.00  0.00     0.040 A 
ATOM     70  F   UNL A   1      38.190  31.560  37.157  1.00  0.00    -0.206 F 
ATOM     71  C   UNL A   1      39.384  34.670  38.580  1.00  0.00     0.006 A 
ENDBRANCH  50  64
BRANCH  51  72
ATOM     72  C   UNL A   1      40.905  27.613  27.999  1.00  0.00     0.057 A 
ATOM     73  C   UNL A   1      41.670  28.054  26.914  1.00  0.00     0.134 A 
ATOM     74  C   UNL A   1      40.298  26.356  27.891  1.00  0.00     0.134 A 
ATOM     75  F   UNL A   1      42.265  29.256  26.952  1.00  0.00    -0.206 F 
ATOM     76  C   UNL A   1      41.820  27.281  25.761  1.00  0.00     0.040 A 
ATOM     77  C   UNL A   1      40.459  25.562  26.754  1.00  0.00     0.040 A 
ATOM     78  F   UNL A   1      39.558  25.872  28.899  1.00  0.00    -0.206 F 
ATOM     79  C   UNL A   1      41.219  26.027  25.682  1.00  0.00     0.006 A 
ENDBRANCH  51  72
BRANCH  63  80
ATOM     80  C   UNL A   1      44.209  27.728  34.148  1.00  0.00     0.057 A 
ATOM     81  C   UNL A   1      44.011  26.478  34.749  1.00  0.00     0.134 A 
ATOM     82  C   UNL A   1      45.528  28.172  33.993  1.00  0.00     0.134 A 
ATOM     83  F   UNL A   1      42.771  26.001  34.934  1.00  0.00    -0.206 F 
ATOM     84  C   UNL A   1      45.087  25.700  35.178  1.00  0.00     0.040 A 
ATOM     85  C   UNL A   1      46.613  27.391  34.395  1.00  0.00     0.040 A 
ATOM     86  F   UNL A   1      45.786  29.355  33.415  1.00  0.00    -0.206 F 
ATOM     87  C   UNL A   1      46.392  26.150  34.989  1.00  0.00     0.006 A 
ENDBRANCH  63  80
ENDBRANCH  37  38
ENDBRANCH  29  32
ENDBRANCH  27  28
ENDBRANCH  26  27
ENDBRANCH   1  26
TORSDOF 14
ENDMDL
MODEL 2
REMARK VINA RESULT:     -12.2      4.530      8.044
REMARK SMILES Cc1c(Cl)cc2c(c1C)O[C@H](C(F)(F)F)C(C(=O)NCCCCCCNC(=O)c1ccc(-c3c4nc(c(-c5c(F)cccc5F)c5ccc([nH]5)c(-c5c(F)cccc5F)c5nc(c(-c6c(F)cccc6F)c6ccc3[nH]6)C=C5)C=C4)cc1)=C2
REMARK SMILES IDX 23 1 22 2 21 3 20 4 19 5 17 6 18 7 16 9 1 10 2 11 3 12 8 13
REMARK SMILES IDX 4 14 5 15 7 16 9 17 6 18 10 19 83 20 11 21 12 22 13 23 14 24
REMARK SMILES IDX 15 25 24 26 25 27 26 28 27 29 28 31 29 32 30 33 82 34 31 35
REMARK SMILES IDX 81 36 32 37 33 38 34 39 75 40 35 41 80 42 74 43 76 44 36 45
REMARK SMILES IDX 79 46 73 47 72 48 37 50 63 51 46 52 62 53 47 54 50 55 61 56
REMARK SMILES IDX 77 57 48 58 49 59 60 61 78 62 51 63 38 64 39 65 44 66 40 67
REMARK SMILES IDX 41 68 43 69 45 70 42 71 64 72 65 73 70 74 66 75 67 76 69 77
REMARK SMILES IDX 71 78 68 79 52 80 53 81 58 82 54 83 55 84 57 85 59 86 56 87
REMARK H PARENT 19 8 26 30 76 49 50 60
REMARK Flexibility Score: inf
ROOT
ATOM      1  C   UNL A   1      33.024  29.473  25.817  1.00  0.00     0.002 C 
ENDROOT
BRANCH   1   2
ATOM      2  C   UNL A   1      33.272  28.792  24.463  1.00  0.00     0.002 C 
BRANCH   2   3
ATOM      3  C   UNL A   1      32.076  28.804  23.509  1.00  0.00     0.021 C 
BRANCH   3   4
ATOM      4  C   UNL A   1      31.335  27.473  23.451  1.00  0.00     0.116 C 
BRANCH   4   5
ATOM      5  N   UNL A   1      30.825  27.083  24.754  1.00  0.00    -0.352 N 
ATOM      6  C   UNL A   1      31.030  26.082  25.641  1.00  0.00     0.251 C 
ATOM      7  O   UNL A   1      30.373  26.157  26.683  1.00  0.00    -0.270 OA
ATOM      8  H   UNL A   1      30.148  27.720  25.080  1.00  0.00     0.163 HD
BRANCH   6   9
ATOM      9  C   UNL A   1      31.966  24.936  25.439  1.00  0.00     0.067 C 
ATOM     10  C   UNL A   1      37.041  20.805  25.178  1.00  0.00     0.046 C 
ATOM     11  C   UNL A   1      36.047  21.928  25.323  1.00  0.00    -0.026 A 
ATOM     12  C   UNL A   1      36.485  23.237  25.621  1.00  0.00     0.045 A 
ATOM     13  C   UNL A   1      34.668  21.716  25.105  1.00  0.00    -0.004 A 
ATOM     14  Cl  UNL A   1      38.163  23.617  25.824  1.00  0.00    -0.084 Cl
ATOM     15  C   UNL A   1      35.581  24.296  25.764  1.00  0.00     0.032 A 
ATOM     16  C   UNL A   1      33.776  22.796  25.261  1.00  0.00     0.131 A 
ATOM     17  C   UNL A   1      34.077  20.381  24.719  1.00  0.00     0.049 C 
ATOM     18  C   UNL A   1      34.218  24.078  25.592  1.00  0.00     0.019 A 
ATOM     19  O   UNL A   1      32.449  22.509  25.119  1.00  0.00    -0.475 OA
ATOM     20  C   UNL A   1      33.248  25.151  25.781  1.00  0.00     0.025 C 
ATOM     21  C   UNL A   1      31.553  23.615  24.862  1.00  0.00     0.314 C 
BRANCH  21  22
ATOM     22  C   UNL A   1      31.260  23.682  23.353  1.00  0.00     0.429 C 
ATOM     23  F   UNL A   1      31.343  22.446  22.799  1.00  0.00    -0.167 F 
ATOM     24  F   UNL A   1      30.014  24.136  23.080  1.00  0.00    -0.167 F 
ATOM     25  F   UNL A   1      32.125  24.482  22.690  1.00  0.00    -0.167 F 
ENDBRANCH  21  22
ENDBRANCH   6   9
ENDBRANCH   4   5
ENDBRANCH   3   4
ENDBRANCH   2   3
ENDBRANCH   1   2
BRANCH   1  26
ATOM     26  C   UNL A   1      33.547  28.709  27.036  1.00  0.00     0.021 C 
BRANCH  26  27
ATOM     27  C   UNL A   1      34.968  29.079  27.444  1.00  0.00     0.116 C 
BRANCH  27  28
ATOM     28  N   UNL A   1      34.982  30.096  28.482  1.00  0.00    -0.352 N 
ATOM     29  C   UNL A   1      35.991  30.441  29.342  1.00  0.00     0.251 C 
ATOM     30  H   UNL A   1      34.148  30.610  28.581  1.00  0.00     0.163 HD
ATOM     31  O   UNL A   1      35.767  31.168  30.305  1.00  0.00    -0.269 OA
BRANCH  29  32
ATOM     32  C   UNL A   1      37.352  29.922  29.107  1.00  0.00     0.039 A 
ATOM     33  C   UNL A   1      37.865  29.932  27.810  1.00  0.00     0.014 A 
ATOM     34  C   UNL A   1      38.115  29.427  30.169  1.00  0.00     0.014 A 
ATOM     35  C   UNL A   1      39.167  29.487  27.584  1.00  0.00     0.010 A 
ATOM     36  C   UNL A   1      39.438  29.059  29.955  1.00  0.00     0.010 A 
ATOM     37  C   UNL A   1      39.972  29.072  28.658  1.00  0.00    -0.014 A 
BRANCH  37  38
ATOM     38  C   UNL A   1      41.367  28.626  28.429  1.00  0.00     0.031 A 
ATOM     39  C   UNL A   1      41.653  27.187  28.109  1.00  0.00     0.074 A 
ATOM     40  C   UNL A   1      42.373  29.516  28.524  1.00  0.00     0.049 A 
ATOM     41  N   UNL A   1      42.801  26.610  27.862  1.00  0.00    -0.248 NA
ATOM     42  C   UNL A   1      40.503  26.267  28.083  1.00  0.00     0.031 C 
ATOM     43  C   UNL A   1      42.219  30.931  28.867  1.00  0.00     0.029 A 
ATOM     44  N   UNL A   1      43.723  29.365  28.331  1.00  0.00    -0.354 N 
ATOM     45  C   UNL A   1      42.510  25.269  27.647  1.00  0.00     0.074 A 
ATOM     46  C   UNL A   1      41.091  25.101  27.862  1.00  0.00     0.031 C 
ATOM     47  C   UNL A   1      43.421  31.526  28.817  1.00  0.00     0.029 A 
ATOM     48  C   UNL A   1      44.434  30.532  28.473  1.00  0.00     0.049 A 
ATOM     49  H   UNL A   1      44.144  28.502  28.112  1.00  0.00     0.167 HD
ATOM     50  C   UNL A   1      43.346  24.276  27.266  1.00  0.00     0.037 A 
ATOM     51  C   UNL A   1      45.751  30.775  28.333  1.00  0.00     0.037 A 
ATOM     52  C   UNL A   1      44.754  24.454  27.034  1.00  0.00     0.049 A 
ATOM     53  C   UNL A   1      46.665  29.646  27.945  1.00  0.00     0.074 A 
ATOM     54  C   UNL A   1      45.678  23.519  26.604  1.00  0.00     0.029 A 
ATOM     55  N   UNL A   1      45.439  25.646  27.211  1.00  0.00    -0.354 N 
ATOM     56  N   UNL A   1      46.367  28.396  27.679  1.00  0.00    -0.248 NA
ATOM     57  C   UNL A   1      48.097  29.956  27.834  1.00  0.00     0.031 C 
ATOM     58  C   UNL A   1      46.933  24.133  26.569  1.00  0.00     0.029 A 
ATOM     59  C   UNL A   1      46.781  25.463  26.926  1.00  0.00     0.049 A 
ATOM     60  H   UNL A   1      45.032  26.495  27.497  1.00  0.00     0.167 HD
ATOM     61  C   UNL A   1      47.566  27.779  27.349  1.00  0.00     0.074 A 
ATOM     62  C   UNL A   1      48.595  28.794  27.433  1.00  0.00     0.031 C 
ATOM     63  C   UNL A   1      47.792  26.488  27.008  1.00  0.00     0.037 A 
BRANCH  50  64
ATOM     64  C   UNL A   1      42.759  22.912  27.056  1.00  0.00     0.057 A 
ATOM     65  C   UNL A   1      42.539  22.399  25.770  1.00  0.00     0.134 A 
ATOM     66  C   UNL A   1      42.467  22.077  28.142  1.00  0.00     0.134 A 
ATOM     67  F   UNL A   1      42.786  23.150  24.687  1.00  0.00    -0.206 F 
ATOM     68  C   UNL A   1      42.036  21.112  25.573  1.00  0.00     0.040 A 
ATOM     69  C   UNL A   1      41.990  20.779  27.957  1.00  0.00     0.040 A 
ATOM     70  F   UNL A   1      42.659  22.504  29.400  1.00  0.00    -0.206 F 
ATOM     71  C   UNL A   1      41.770  20.295  26.669  1.00  0.00     0.006 A 
ENDBRANCH  50  64
BRANCH  51  72
ATOM     72  C   UNL A   1      46.273  32.153  28.518  1.00  0.00     0.057 A 
ATOM     73  C   UNL A   1      46.334  33.049  27.446  1.00  0.00     0.134 A 
ATOM     74  C   UNL A   1      46.699  32.614  29.769  1.00  0.00     0.134 A 
ATOM     75  F   UNL A   1      45.954  32.661  26.220  1.00  0.00    -0.206 F 
ATOM     76  C   UNL A   1      46.810  34.352  27.607  1.00  0.00     0.040 A 
ATOM     77  C   UNL A   1      47.154  33.922  29.950  1.00  0.00     0.040 A 
ATOM     78  F   UNL A   1      46.658  31.808  30.840  1.00  0.00    -0.206 F 
ATOM     79  C   UNL A   1      47.215  34.794  28.865  1.00  0.00     0.006 A 
ENDBRANCH  51  72
BRANCH  63  80
ATOM     80  C   UNL A   1      49.200  26.085  26.685  1.00  0.00     0.057 A 
ATOM     81  C   UNL A   1      49.758  26.319  25.422  1.00  0.00     0.134 A 
ATOM     82  C   UNL A   1      50.037  25.559  27.676  1.00  0.00     0.134 A 
ATOM     83  F   UNL A   1      49.006  26.815  24.427  1.00  0.00    -0.206 F 
ATOM     84  C   UNL A   1      51.099  26.040  25.156  1.00  0.00     0.040 A 
ATOM     85  C   UNL A   1      51.386  25.299  27.430  1.00  0.00     0.040 A 
ATOM     86  F   UNL A   1      49.566  25.322  28.910  1.00  0.00    -0.206 F 
ATOM     87  C   UNL A   1      51.920  25.541  26.166  1.00  0.00     0.006 A 
ENDBRANCH  63  80
ENDBRANCH  37  38
ENDBRANCH  29  32
ENDBRANCH  27  28
ENDBRANCH  26  27
ENDBRANCH   1  26
TORSDOF 14
ENDMDL
MODEL 3
REMARK VINA RESULT:     -12.1      4.624      9.835
REMARK SMILES Cc1c(Cl)cc2c(c1C)O[C@H](C(F)(F)F)C(C(=O)NCCCCCCNC(=O)c1ccc(-c3c4nc(c(-c5c(F)cccc5F)c5ccc([nH]5)c(-c5c(F)cccc5F)c5nc(c(-c6c(F)cccc6F)c6ccc3[nH]6)C=C5)C=C4)cc1)=C2
REMARK SMILES IDX 23 1 22 2 21 3 20 4 19 5 17 6 18 7 16 9 1 10 2 11 3 12 8 13
REMARK SMILES IDX 4 14 5 15 7 16 9 17 6 18 10 19 83 20 11 21 12 22 13 23 14 24
REMARK SMILES IDX 15 25 24 26 25 27 26 28 27 29 28 31 29 32 30 33 82 34 31 35
REMARK SMILES IDX 81 36 32 37 33 38 34 39 75 40 35 41 80 42 74 43 76 44 36 45
REMARK SMILES IDX 79 46 73 47 72 48 37 50 63 51 46 52 62 53 47 54 50 55 61 56
REMARK SMILES IDX 77 57 48 58 49 59 60 61 78 62 51 63 38 64 39 65 44 66 40 67
REMARK SMILES IDX 41 68 43 69 45 70 42 71 64 72 65 73 70 74 66 75 67 76 69 77
REMARK SMILES IDX 71 78 68 79 52 80 53 81 58 82 54 83 55 84 57 85 59 86 56 87
REMARK H PARENT 19 8 26 30 76 49 50 60
REMARK Flexibility Score: inf
ROOT
ATOM      1  C   UNL A   1      37.074  20.871  24.627  1.00  0.00     0.002 C 
ENDROOT
BRANCH   1   2
ATOM      2  C   UNL A   1      35.638  20.605  25.102  1.00  0.00     0.002 C 
BRANCH   2   3
ATOM      3  C   UNL A   1      35.003  21.743  25.903  1.00  0.00     0.021 C 
BRANCH   3   4
ATOM      4  C   UNL A   1      33.710  22.267  25.290  1.00  0.00     0.116 C 
BRANCH   4   5
ATOM      5  N   UNL A   1      33.868  22.572  23.879  1.00  0.00    -0.352 N 
ATOM      6  C   UNL A   1      33.635  23.623  23.058  1.00  0.00     0.251 C 
ATOM      7  O   UNL A   1      33.956  23.452  21.878  1.00  0.00    -0.270 OA
ATOM      8  H   UNL A   1      34.246  21.807  23.386  1.00  0.00     0.163 HD
BRANCH   6   9
ATOM      9  C   UNL A   1      33.035  24.923  23.478  1.00  0.00     0.067 C 
ATOM     10  C   UNL A   1      31.677  30.806  26.015  1.00  0.00     0.046 C 
ATOM     11  C   UNL A   1      32.205  29.465  25.575  1.00  0.00    -0.026 A 
ATOM     12  C   UNL A   1      33.348  28.910  26.190  1.00  0.00     0.045 A 
ATOM     13  C   UNL A   1      31.541  28.708  24.585  1.00  0.00    -0.004 A 
ATOM     14  Cl  UNL A   1      34.185  29.722  27.471  1.00  0.00    -0.084 Cl
ATOM     15  C   UNL A   1      33.859  27.668  25.796  1.00  0.00     0.032 A 
ATOM     16  C   UNL A   1      32.079  27.463  24.201  1.00  0.00     0.131 A 
ATOM     17  C   UNL A   1      30.275  29.158  23.895  1.00  0.00     0.049 C 
ATOM     18  C   UNL A   1      33.230  26.941  24.791  1.00  0.00     0.019 A 
ATOM     19  O   UNL A   1      31.439  26.818  23.182  1.00  0.00    -0.475 OA
ATOM     20  C   UNL A   1      33.767  25.666  24.326  1.00  0.00     0.025 C 
ATOM     21  C   UNL A   1      31.685  25.400  23.035  1.00  0.00     0.314 C 
BRANCH  21  22
ATOM     22  C   UNL A   1      30.527  24.620  23.683  1.00  0.00     0.429 C 
ATOM     23  F   UNL A   1      30.086  23.647  22.846  1.00  0.00    -0.167 F 
ATOM     24  F   UNL A   1      30.890  23.999  24.829  1.00  0.00    -0.167 F 
ATOM     25  F   UNL A   1      29.470  25.410  23.979  1.00  0.00    -0.167 F 
ENDBRANCH  21  22
ENDBRANCH   6   9
ENDBRANCH   4   5
ENDBRANCH   3   4
ENDBRANCH   2   3
ENDBRANCH   1   2
BRANCH   1  26
ATOM     26  C   UNL A   1      38.072  19.745  24.910  1.00  0.00     0.021 C 
BRANCH  26  27
ATOM     27  C   UNL A   1      39.132  20.096  25.947  1.00  0.00     0.116 C 
BRANCH  27  28
ATOM     28  N   UNL A   1      40.228  19.141  25.940  1.00  0.00    -0.352 N 
ATOM     29  C   UNL A   1      41.574  19.368  26.061  1.00  0.00     0.251 C 
ATOM     30  H   UNL A   1      39.966  18.198  25.833  1.00  0.00     0.163 HD
ATOM     31  O   UNL A   1      42.380  18.476  25.811  1.00  0.00    -0.269 OA
BRANCH  29  32
ATOM     32  C   UNL A   1      42.050  20.699  26.483  1.00  0.00     0.039 A 
ATOM     33  C   UNL A   1      42.326  21.658  25.508  1.00  0.00     0.014 A 
ATOM     34  C   UNL A   1      42.221  20.994  27.839  1.00  0.00     0.014 A 
ATOM     35  C   UNL A   1      42.731  22.934  25.897  1.00  0.00     0.010 A 
ATOM     36  C   UNL A   1      42.548  22.288  28.227  1.00  0.00     0.010 A 
ATOM     37  C   UNL A   1      42.820  23.266  27.260  1.00  0.00    -0.014 A 
BRANCH  37  38
ATOM     38  C   UNL A   1      43.222  24.630  27.680  1.00  0.00     0.031 A 
ATOM     39  C   UNL A   1      44.669  25.031  27.646  1.00  0.00     0.074 A 
ATOM     40  C   UNL A   1      42.284  25.497  28.106  1.00  0.00     0.049 A 
ATOM     41  N   UNL A   1      45.213  26.179  27.959  1.00  0.00    -0.248 NA
ATOM     42  C   UNL A   1      45.637  24.004  27.225  1.00  0.00     0.031 C 
ATOM     43  C   UNL A   1      40.854  25.206  28.220  1.00  0.00     0.029 A 
ATOM     44  N   UNL A   1      42.390  26.803  28.514  1.00  0.00    -0.354 N 
ATOM     45  C   UNL A   1      46.578  26.013  27.767  1.00  0.00     0.074 A 
ATOM     46  C   UNL A   1      46.790  24.637  27.381  1.00  0.00     0.031 C 
ATOM     47  C   UNL A   1      40.212  26.313  28.625  1.00  0.00     0.029 A 
ATOM     48  C   UNL A   1      41.185  27.381  28.832  1.00  0.00     0.049 A 
ATOM     49  H   UNL A   1      43.249  27.281  28.573  1.00  0.00     0.167 HD
ATOM     50  C   UNL A   1      47.562  26.937  27.868  1.00  0.00     0.037 A 
ATOM     51  C   UNL A   1      40.898  28.633  29.236  1.00  0.00     0.037 A 
ATOM     52  C   UNL A   1      47.342  28.310  28.232  1.00  0.00     0.049 A 
ATOM     53  C   UNL A   1      42.014  29.631  29.375  1.00  0.00     0.074 A 
ATOM     54  C   UNL A   1      48.267  29.334  28.320  1.00  0.00     0.029 A 
ATOM     55  N   UNL A   1      46.110  28.850  28.569  1.00  0.00    -0.354 N 
ATOM     56  N   UNL A   1      43.293  29.479  29.126  1.00  0.00    -0.248 NA
ATOM     57  C   UNL A   1      41.651  30.974  29.849  1.00  0.00     0.031 C 
ATOM     58  C   UNL A   1      47.604  30.483  28.758  1.00  0.00     0.029 A 
ATOM     59  C   UNL A   1      46.257  30.187  28.893  1.00  0.00     0.049 A 
ATOM     60  H   UNL A   1      45.259  28.356  28.578  1.00  0.00     0.167 HD
ATOM     61  C   UNL A   1      43.882  30.709  29.389  1.00  0.00     0.074 A 
ATOM     62  C   UNL A   1      42.820  31.601  29.804  1.00  0.00     0.031 C 
ATOM     63  C   UNL A   1      45.186  31.064  29.296  1.00  0.00     0.037 A 
BRANCH  50  64
ATOM     64  C   UNL A   1      48.963  26.500  27.558  1.00  0.00     0.057 A 
ATOM     65  C   UNL A   1      49.813  26.001  28.555  1.00  0.00     0.134 A 
ATOM     66  C   UNL A   1      49.450  26.518  26.244  1.00  0.00     0.134 A 
ATOM     67  F   UNL A   1      49.413  25.967  29.835  1.00  0.00    -0.206 F 
ATOM     68  C   UNL A   1      51.100  25.551  28.259  1.00  0.00     0.040 A 
ATOM     69  C   UNL A   1      50.725  26.046  25.933  1.00  0.00     0.040 A 
ATOM     70  F   UNL A   1      48.687  26.979  25.242  1.00  0.00    -0.206 F 
ATOM     71  C   UNL A   1      51.555  25.563  26.943  1.00  0.00     0.006 A 
ENDBRANCH  50  64
BRANCH  51  72
ATOM     72  C   UNL A   1      39.488  29.020  29.495  1.00  0.00     0.057 A 
ATOM     73  C   UNL A   1      38.937  28.915  30.776  1.00  0.00     0.134 A 
ATOM     74  C   UNL A   1      38.667  29.525  28.480  1.00  0.00     0.134 A 
ATOM     75  F   UNL A   1      39.669  28.426  31.788  1.00  0.00    -0.206 F 
ATOM     76  C   UNL A   1      37.617  29.288  31.039  1.00  0.00     0.040 A 
ATOM     77  C   UNL A   1      37.353  29.924  28.733  1.00  0.00     0.040 A 
ATOM     78  F   UNL A   1      39.137  29.658  27.230  1.00  0.00    -0.206 F 
ATOM     79  C   UNL A   1      36.823  29.802  30.015  1.00  0.00     0.006 A 
ENDBRANCH  51  72
BRANCH  63  80
ATOM     80  C   UNL A   1      45.551  32.479  29.634  1.00  0.00     0.057 A 
ATOM     81  C   UNL A   1      45.481  33.502  28.680  1.00  0.00     0.134 A 
ATOM     82  C   UNL A   1      45.871  32.839  30.949  1.00  0.00     0.134 A 
ATOM     83  F   UNL A   1      45.188  33.221  27.401  1.00  0.00    -0.206 F 
ATOM     84  C   UNL A   1      45.721  34.834  29.023  1.00  0.00     0.040 A 
ATOM     85  C   UNL A   1      46.087  34.170  31.309  1.00  0.00     0.040 A 
ATOM     86  F   UNL A   1      45.943  31.907  31.912  1.00  0.00    -0.206 F 
ATOM     87  C   UNL A   1      46.011  35.171  30.343  1.00  0.00     0.006 A 
ENDBRANCH  63  80
ENDBRANCH  37  38
ENDBRANCH  29  32
ENDBRANCH  27  28
ENDBRANCH  26  27
ENDBRANCH   1  26
TORSDOF 14
ENDMDL
