MODEL 1
REMARK VINA RESULT:      -9.7      0.000      0.000
REMARK SMILES COC[C@H](C)[C@H](CC(C)C)C(=O)NCCCCCCNC(=O)c1ccc(-c2c3nc(c(-c4c(F)cccc4F)c4ccc([nH]4)c(-c4c(F)cccc4F)c4nc(c(-c5c(F)cccc5F)c5ccc2[nH]5)C=C4)C=C3)cc1
REMARK SMILES IDX 16 1 15 2 14 3 13 4 11 5 12 6 6 8 4 9 5 10 3 11 2 12 1 13
REMARK SMILES IDX 7 14 8 15 9 16 10 17 17 18 18 19 19 20 20 21 21 22 22 24
REMARK SMILES IDX 23 25 24 26 76 27 25 28 75 29 26 30 27 31 28 32 69 33 29 34
REMARK SMILES IDX 74 35 68 36 70 37 30 38 73 39 67 40 66 41 31 43 57 44 40 45
REMARK SMILES IDX 56 46 41 47 44 48 55 49 71 50 42 51 43 52 54 54 72 55 45 56
REMARK SMILES IDX 32 57 33 58 38 59 34 60 35 61 37 62 39 63 36 64 58 65 59 66
REMARK SMILES IDX 64 67 60 68 61 69 63 70 65 71 62 72 46 73 47 74 52 75 48 76
REMARK SMILES IDX 49 77 51 78 53 79 50 80
REMARK H PARENT 13 7 20 23 70 42 44 53
REMARK Flexibility Score: inf
ROOT
ATOM      1  C   UNL A   1      32.413  29.497  26.515  1.00  0.00     0.002 C 
ENDROOT
BRANCH   1   2
ATOM      2  C   UNL A   1      33.453  28.758  25.663  1.00  0.00     0.021 C 
BRANCH   2   3
ATOM      3  C   UNL A   1      33.223  28.924  24.162  1.00  0.00     0.116 C 
BRANCH   3   4
ATOM      4  N   UNL A   1      33.918  27.962  23.323  1.00  0.00    -0.356 N 
ATOM      5  C   UNL A   1      33.653  26.681  22.959  1.00  0.00     0.223 C 
ATOM      6  O   UNL A   1      33.817  26.428  21.758  1.00  0.00    -0.275 OA
ATOM      7  H   UNL A   1      34.754  28.311  22.939  1.00  0.00     0.163 HD
BRANCH   5   8
ATOM      8  C   UNL A   1      33.312  25.526  23.915  1.00  0.00     0.084 C 
BRANCH   8   9
ATOM      9  C   UNL A   1      31.788  25.367  24.246  1.00  0.00     0.024 C 
ATOM     10  C   UNL A   1      30.958  24.717  23.131  1.00  0.00     0.011 C 
BRANCH   9  11
ATOM     11  C   UNL A   1      31.359  24.829  25.620  1.00  0.00     0.163 C 
BRANCH  11  12
ATOM     12  O   UNL A   1      31.399  23.430  25.873  1.00  0.00    -0.384 OA
ATOM     13  C   UNL A   1      32.117  22.965  26.995  1.00  0.00     0.194 C 
ENDBRANCH  11  12
ENDBRANCH   9  11
ENDBRANCH   8   9
BRANCH   8  14
ATOM     14  C   UNL A   1      34.363  25.218  25.007  1.00  0.00     0.017 C 
BRANCH  14  15
ATOM     15  C   UNL A   1      35.376  24.076  24.692  1.00  0.00    -0.017 C 
ATOM     16  C   UNL A   1      35.844  23.296  25.921  1.00  0.00     0.007 C 
ATOM     17  C   UNL A   1      34.730  23.084  23.714  1.00  0.00     0.007 C 
ENDBRANCH  14  15
ENDBRANCH   8  14
ENDBRANCH   5   8
ENDBRANCH   3   4
ENDBRANCH   2   3
ENDBRANCH   1   2
BRANCH   1  18
ATOM     18  C   UNL A   1      31.555  30.534  25.777  1.00  0.00     0.002 C 
BRANCH  18  19
ATOM     19  C   UNL A   1      31.356  31.868  26.496  1.00  0.00     0.021 C 
BRANCH  19  20
ATOM     20  C   UNL A   1      32.617  32.456  27.126  1.00  0.00     0.116 C 
BRANCH  20  21
ATOM     21  N   UNL A   1      32.456  33.859  27.481  1.00  0.00    -0.352 N 
ATOM     22  C   UNL A   1      33.065  34.598  28.462  1.00  0.00     0.251 C 
ATOM     23  H   UNL A   1      31.810  34.356  26.928  1.00  0.00     0.163 HD
ATOM     24  O   UNL A   1      32.640  35.712  28.750  1.00  0.00    -0.269 OA
BRANCH  22  25
ATOM     25  C   UNL A   1      34.233  34.049  29.178  1.00  0.00     0.039 A 
ATOM     26  C   UNL A   1      34.028  33.190  30.260  1.00  0.00     0.014 A 
ATOM     27  C   UNL A   1      35.529  34.403  28.793  1.00  0.00     0.014 A 
ATOM     28  C   UNL A   1      35.126  32.631  30.916  1.00  0.00     0.010 A 
ATOM     29  C   UNL A   1      36.620  33.791  29.401  1.00  0.00     0.010 A 
ATOM     30  C   UNL A   1      36.429  32.901  30.468  1.00  0.00    -0.014 A 
BRANCH  30  31
ATOM     31  C   UNL A   1      37.611  32.259  31.092  1.00  0.00     0.031 A 
ATOM     32  C   UNL A   1      38.343  31.164  30.368  1.00  0.00     0.074 A 
ATOM     33  C   UNL A   1      37.967  32.601  32.345  1.00  0.00     0.049 A 
ATOM     34  N   UNL A   1      39.327  30.409  30.786  1.00  0.00    -0.248 NA
ATOM     35  C   UNL A   1      37.889  30.856  29.002  1.00  0.00     0.031 C 
ATOM     36  C   UNL A   1      37.302  33.614  33.168  1.00  0.00     0.029 A 
ATOM     37  N   UNL A   1      38.963  32.118  33.156  1.00  0.00    -0.354 N 
ATOM     38  C   UNL A   1      39.593  29.526  29.747  1.00  0.00     0.074 A 
ATOM     39  C   UNL A   1      38.640  29.808  28.697  1.00  0.00     0.031 C 
ATOM     40  C   UNL A   1      37.914  33.685  34.360  1.00  0.00     0.029 A 
ATOM     41  C   UNL A   1      38.987  32.698  34.403  1.00  0.00     0.049 A 
ATOM     42  H   UNL A   1      39.602  31.424  32.873  1.00  0.00     0.167 HD
ATOM     43  C   UNL A   1      40.559  28.581  29.670  1.00  0.00     0.037 A 
ATOM     44  C   UNL A   1      39.774  32.445  35.467  1.00  0.00     0.037 A 
ATOM     45  C   UNL A   1      41.524  28.330  30.709  1.00  0.00     0.049 A 
ATOM     46  C   UNL A   1      40.833  31.385  35.357  1.00  0.00     0.074 A 
ATOM     47  C   UNL A   1      42.592  27.451  30.696  1.00  0.00     0.029 A 
ATOM     48  N   UNL A   1      41.530  28.952  31.948  1.00  0.00    -0.354 N 
ATOM     49  N   UNL A   1      41.129  30.615  34.338  1.00  0.00    -0.248 NA
ATOM     50  C   UNL A   1      41.671  31.158  36.544  1.00  0.00     0.031 C 
ATOM     51  C   UNL A   1      43.214  27.504  31.947  1.00  0.00     0.029 A 
ATOM     52  C   UNL A   1      42.566  28.453  32.720  1.00  0.00     0.049 A 
ATOM     53  H   UNL A   1      40.894  29.646  32.235  1.00  0.00     0.167 HD
ATOM     54  C   UNL A   1      42.200  29.832  34.749  1.00  0.00     0.074 A 
ATOM     55  C   UNL A   1      42.513  30.232  36.106  1.00  0.00     0.031 C 
ATOM     56  C   UNL A   1      42.865  28.868  34.068  1.00  0.00     0.037 A 
BRANCH  43  57
ATOM     57  C   UNL A   1      40.623  27.748  28.423  1.00  0.00     0.057 A 
ATOM     58  C   UNL A   1      41.385  28.133  27.312  1.00  0.00     0.134 A 
ATOM     59  C   UNL A   1      39.950  26.521  28.350  1.00  0.00     0.134 A 
ATOM     60  F   UNL A   1      42.047  29.299  27.312  1.00  0.00    -0.206 F 
ATOM     61  C   UNL A   1      41.456  27.340  26.165  1.00  0.00     0.040 A 
ATOM     62  C   UNL A   1      40.036  25.707  27.219  1.00  0.00     0.040 A 
ATOM     63  F   UNL A   1      39.206  26.089  29.380  1.00  0.00    -0.206 F 
ATOM     64  C   UNL A   1      40.787  26.119  26.121  1.00  0.00     0.006 A 
ENDBRANCH  43  57
BRANCH  44  65
ATOM     65  C   UNL A   1      39.591  33.211  36.726  1.00  0.00     0.057 A 
ATOM     66  C   UNL A   1      38.673  32.796  37.698  1.00  0.00     0.134 A 
ATOM     67  C   UNL A   1      40.316  34.381  36.983  1.00  0.00     0.134 A 
ATOM     68  F   UNL A   1      37.935  31.694  37.501  1.00  0.00    -0.206 F 
ATOM     69  C   UNL A   1      38.468  33.526  38.870  1.00  0.00     0.040 A 
ATOM     70  C   UNL A   1      40.141  35.106  38.163  1.00  0.00     0.040 A 
ATOM     71  F   UNL A   1      41.217  34.828  36.097  1.00  0.00    -0.206 F 
ATOM     72  C   UNL A   1      39.206  34.683  39.106  1.00  0.00     0.006 A 
ENDBRANCH  44  65
BRANCH  56  73
ATOM     73  C   UNL A   1      44.012  28.198  34.764  1.00  0.00     0.057 A 
ATOM     74  C   UNL A   1      45.285  28.778  34.814  1.00  0.00     0.134 A 
ATOM     75  C   UNL A   1      43.825  26.982  35.436  1.00  0.00     0.134 A 
ATOM     76  F   UNL A   1      45.532  29.934  34.180  1.00  0.00    -0.206 F 
ATOM     77  C   UNL A   1      46.338  28.165  35.495  1.00  0.00     0.040 A 
ATOM     78  C   UNL A   1      44.863  26.374  36.142  1.00  0.00     0.040 A 
ATOM     79  F   UNL A   1      42.628  26.378  35.433  1.00  0.00    -0.206 F 
ATOM     80  C   UNL A   1      46.125  26.963  36.170  1.00  0.00     0.006 A 
ENDBRANCH  56  73
ENDBRANCH  30  31
ENDBRANCH  22  25
ENDBRANCH  20  21
ENDBRANCH  19  20
ENDBRANCH  18  19
ENDBRANCH   1  18
TORSDOF 18
ENDMDL
MODEL 2
REMARK VINA RESULT:      -9.6      1.141      2.673
REMARK SMILES COC[C@H](C)[C@H](CC(C)C)C(=O)NCCCCCCNC(=O)c1ccc(-c2c3nc(c(-c4c(F)cccc4F)c4ccc([nH]4)c(-c4c(F)cccc4F)c4nc(c(-c5c(F)cccc5F)c5ccc2[nH]5)C=C4)C=C3)cc1
REMARK SMILES IDX 16 1 15 2 14 3 13 4 11 5 12 6 6 8 4 9 5 10 3 11 2 12 1 13
REMARK SMILES IDX 7 14 8 15 9 16 10 17 17 18 18 19 19 20 20 21 21 22 22 24
REMARK SMILES IDX 23 25 24 26 76 27 25 28 75 29 26 30 27 31 28 32 69 33 29 34
REMARK SMILES IDX 74 35 68 36 70 37 30 38 73 39 67 40 66 41 31 43 57 44 40 45
REMARK SMILES IDX 56 46 41 47 44 48 55 49 71 50 42 51 43 52 54 54 72 55 45 56
REMARK SMILES IDX 32 57 33 58 38 59 34 60 35 61 37 62 39 63 36 64 58 65 59 66
REMARK SMILES IDX 64 67 60 68 61 69 63 70 65 71 62 72 46 73 47 74 52 75 48 76
REMARK SMILES IDX 49 77 51 78 53 79 50 80
REMARK H PARENT 13 7 20 23 70 42 44 53
REMARK Flexibility Score: inf
ROOT
ATOM      1  C   UNL A   1      32.907  30.068  26.387  1.00  0.00     0.002 C 
ENDROOT
BRANCH   1   2
ATOM      2  C   UNL A   1      33.123  28.670  25.794  1.00  0.00     0.021 C 
BRANCH   2   3
ATOM      3  C   UNL A   1      33.000  27.555  26.832  1.00  0.00     0.116 C 
BRANCH   3   4
ATOM      4  N   UNL A   1      31.812  26.728  26.707  1.00  0.00    -0.356 N 
ATOM      5  C   UNL A   1      31.547  25.571  26.046  1.00  0.00     0.223 C 
ATOM      6  O   UNL A   1      30.922  24.722  26.696  1.00  0.00    -0.275 OA
ATOM      7  H   UNL A   1      31.037  27.078  27.204  1.00  0.00     0.163 HD
BRANCH   5   8
ATOM      8  C   UNL A   1      31.832  25.298  24.560  1.00  0.00     0.084 C 
BRANCH   8   9
ATOM      9  C   UNL A   1      33.332  25.460  24.132  1.00  0.00     0.024 C 
ATOM     10  C   UNL A   1      34.328  24.668  24.989  1.00  0.00     0.011 C 
BRANCH   9  11
ATOM     11  C   UNL A   1      33.713  25.375  22.646  1.00  0.00     0.163 C 
BRANCH  11  12
ATOM     12  O   UNL A   1      33.458  26.481  21.788  1.00  0.00    -0.384 OA
ATOM     13  C   UNL A   1      33.765  27.779  22.248  1.00  0.00     0.194 C 
ENDBRANCH  11  12
ENDBRANCH   9  11
ENDBRANCH   8   9
BRANCH   8  14
ATOM     14  C   UNL A   1      30.713  25.698  23.570  1.00  0.00     0.017 C 
BRANCH  14  15
ATOM     15  C   UNL A   1      29.880  26.964  23.941  1.00  0.00    -0.017 C 
ATOM     16  C   UNL A   1      30.100  28.153  23.005  1.00  0.00     0.007 C 
ATOM     17  C   UNL A   1      28.387  26.608  23.919  1.00  0.00     0.007 C 
ENDBRANCH  14  15
ENDBRANCH   8  14
ENDBRANCH   5   8
ENDBRANCH   3   4
ENDBRANCH   2   3
ENDBRANCH   1   2
BRANCH   1  18
ATOM     18  C   UNL A   1      31.589  30.759  26.014  1.00  0.00     0.002 C 
BRANCH  18  19
ATOM     19  C   UNL A   1      31.361  32.138  26.633  1.00  0.00     0.021 C 
BRANCH  19  20
ATOM     20  C   UNL A   1      32.602  32.782  27.248  1.00  0.00     0.116 C 
BRANCH  20  21
ATOM     21  N   UNL A   1      32.390  34.183  27.584  1.00  0.00    -0.352 N 
ATOM     22  C   UNL A   1      32.979  34.960  28.549  1.00  0.00     0.251 C 
ATOM     23  H   UNL A   1      31.718  34.646  27.032  1.00  0.00     0.163 HD
ATOM     24  O   UNL A   1      32.513  36.060  28.826  1.00  0.00    -0.269 OA
BRANCH  22  25
ATOM     25  C   UNL A   1      34.176  34.468  29.259  1.00  0.00     0.039 A 
ATOM     26  C   UNL A   1      34.027  33.868  30.512  1.00  0.00     0.014 A 
ATOM     27  C   UNL A   1      35.445  34.621  28.696  1.00  0.00     0.014 A 
ATOM     28  C   UNL A   1      35.147  33.360  31.172  1.00  0.00     0.010 A 
ATOM     29  C   UNL A   1      36.550  34.053  29.321  1.00  0.00     0.010 A 
ATOM     30  C   UNL A   1      36.412  33.419  30.564  1.00  0.00    -0.014 A 
BRANCH  30  31
ATOM     31  C   UNL A   1      37.606  32.816  31.204  1.00  0.00     0.031 A 
ATOM     32  C   UNL A   1      38.259  31.609  30.591  1.00  0.00     0.074 A 
ATOM     33  C   UNL A   1      38.045  33.303  32.381  1.00  0.00     0.049 A 
ATOM     34  N   UNL A   1      39.241  30.876  31.052  1.00  0.00    -0.248 NA
ATOM     35  C   UNL A   1      37.718  31.146  29.304  1.00  0.00     0.031 C 
ATOM     36  C   UNL A   1      37.461  34.439  33.098  1.00  0.00     0.029 A 
ATOM     37  N   UNL A   1      39.069  32.889  33.195  1.00  0.00    -0.354 N 
ATOM     38  C   UNL A   1      39.418  29.857  30.126  1.00  0.00     0.074 A 
ATOM     39  C   UNL A   1      38.415  30.038  29.099  1.00  0.00     0.031 C 
ATOM     40  C   UNL A   1      38.143  34.639  34.237  1.00  0.00     0.029 A 
ATOM     41  C   UNL A   1      39.184  33.623  34.351  1.00  0.00     0.049 A 
ATOM     42  H   UNL A   1      39.667  32.140  32.971  1.00  0.00     0.167 HD
ATOM     43  C   UNL A   1      40.347  28.872  30.122  1.00  0.00     0.037 A 
ATOM     44  C   UNL A   1      40.021  33.479  35.396  1.00  0.00     0.037 A 
ATOM     45  C   UNL A   1      41.361  28.718  31.132  1.00  0.00     0.049 A 
ATOM     46  C   UNL A   1      41.038  32.372  35.370  1.00  0.00     0.074 A 
ATOM     47  C   UNL A   1      42.398  27.804  31.179  1.00  0.00     0.029 A 
ATOM     48  N   UNL A   1      41.459  29.495  32.277  1.00  0.00    -0.354 N 
ATOM     49  N   UNL A   1      41.250  31.466  34.446  1.00  0.00    -0.248 NA
ATOM     50  C   UNL A   1      41.934  32.268  36.530  1.00  0.00     0.031 C 
ATOM     51  C   UNL A   1      43.092  27.993  32.377  1.00  0.00     0.029 A 
ATOM     52  C   UNL A   1      42.520  29.059  33.052  1.00  0.00     0.049 A 
ATOM     53  H   UNL A   1      40.863  30.245  32.504  1.00  0.00     0.167 HD
ATOM     54  C   UNL A   1      42.317  30.701  34.900  1.00  0.00     0.074 A 
ATOM     55  C   UNL A   1      42.720  31.260  36.174  1.00  0.00     0.031 C 
ATOM     56  C   UNL A   1      42.910  29.632  34.316  1.00  0.00     0.037 A 
BRANCH  43  57
ATOM     57  C   UNL A   1      40.312  27.883  28.993  1.00  0.00     0.057 A 
ATOM     58  C   UNL A   1      39.522  26.727  29.043  1.00  0.00     0.134 A 
ATOM     59  C   UNL A   1      41.044  28.114  27.820  1.00  0.00     0.134 A 
ATOM     60  F   UNL A   1      38.804  26.441  30.140  1.00  0.00    -0.206 F 
ATOM     61  C   UNL A   1      39.479  25.825  27.979  1.00  0.00     0.040 A 
ATOM     62  C   UNL A   1      40.987  27.232  26.739  1.00  0.00     0.040 A 
ATOM     63  F   UNL A   1      41.818  29.203  27.703  1.00  0.00    -0.206 F 
ATOM     64  C   UNL A   1      40.207  26.081  26.819  1.00  0.00     0.006 A 
ENDBRANCH  43  57
BRANCH  44  65
ATOM     65  C   UNL A   1      39.937  34.408  36.552  1.00  0.00     0.057 A 
ATOM     66  C   UNL A   1      39.156  34.098  37.672  1.00  0.00     0.134 A 
ATOM     67  C   UNL A   1      40.619  35.630  36.561  1.00  0.00     0.134 A 
ATOM     68  F   UNL A   1      38.463  32.950  37.715  1.00  0.00    -0.206 F 
ATOM     69  C   UNL A   1      39.041  34.978  38.750  1.00  0.00     0.040 A 
ATOM     70  C   UNL A   1      40.535  36.507  37.644  1.00  0.00     0.040 A 
ATOM     71  F   UNL A   1      41.390  35.983  35.523  1.00  0.00    -0.206 F 
ATOM     72  C   UNL A   1      39.735  36.185  38.739  1.00  0.00     0.006 A 
ENDBRANCH  44  65
BRANCH  56  73
ATOM     73  C   UNL A   1      44.072  29.012  35.033  1.00  0.00     0.057 A 
ATOM     74  C   UNL A   1      43.903  27.966  35.948  1.00  0.00     0.134 A 
ATOM     75  C   UNL A   1      45.381  29.435  34.765  1.00  0.00     0.134 A 
ATOM     76  F   UNL A   1      42.675  27.525  36.258  1.00  0.00    -0.206 F 
ATOM     77  C   UNL A   1      44.994  27.371  36.583  1.00  0.00     0.040 A 
ATOM     78  C   UNL A   1      46.481  28.829  35.374  1.00  0.00     0.040 A 
ATOM     79  F   UNL A   1      45.613  30.428  33.893  1.00  0.00    -0.206 F 
ATOM     80  C   UNL A   1      46.289  27.797  36.289  1.00  0.00     0.006 A 
ENDBRANCH  56  73
ENDBRANCH  30  31
ENDBRANCH  22  25
ENDBRANCH  20  21
ENDBRANCH  19  20
ENDBRANCH  18  19
ENDBRANCH   1  18
TORSDOF 18
ENDMDL
MODEL 3
REMARK VINA RESULT:      -9.6      4.804      7.864
REMARK SMILES COC[C@H](C)[C@H](CC(C)C)C(=O)NCCCCCCNC(=O)c1ccc(-c2c3nc(c(-c4c(F)cccc4F)c4ccc([nH]4)c(-c4c(F)cccc4F)c4nc(c(-c5c(F)cccc5F)c5ccc2[nH]5)C=C4)C=C3)cc1
REMARK SMILES IDX 16 1 15 2 14 3 13 4 11 5 12 6 6 8 4 9 5 10 3 11 2 12 1 13
REMARK SMILES IDX 7 14 8 15 9 16 10 17 17 18 18 19 19 20 20 21 21 22 22 24
REMARK SMILES IDX 23 25 24 26 76 27 25 28 75 29 26 30 27 31 28 32 69 33 29 34
REMARK SMILES IDX 74 35 68 36 70 37 30 38 73 39 67 40 66 41 31 43 57 44 40 45
REMARK SMILES IDX 56 46 41 47 44 48 55 49 71 50 42 51 43 52 54 54 72 55 45 56
REMARK SMILES IDX 32 57 33 58 38 59 34 60 35 61 37 62 39 63 36 64 58 65 59 66
REMARK SMILES IDX 64 67 60 68 61 69 63 70 65 71 62 72 46 73 47 74 52 75 48 76
REMARK SMILES IDX 49 77 51 78 53 79 50 80
REMARK H PARENT 13 7 20 23 70 42 44 53
REMARK Flexibility Score: inf
ROOT
ATOM      1  C   UNL A   1      33.560  24.180  25.898  1.00  0.00     0.002 C 
ENDROOT
BRANCH   1   2
ATOM      2  C   UNL A   1      33.257  23.360  27.159  1.00  0.00     0.021 C 
BRANCH   2   3
ATOM      3  C   UNL A   1      32.508  22.062  26.860  1.00  0.00     0.116 C 
BRANCH   3   4
ATOM      4  N   UNL A   1      33.346  20.952  26.440  1.00  0.00    -0.356 N 
ATOM      5  C   UNL A   1      33.587  20.370  25.236  1.00  0.00     0.223 C 
ATOM      6  O   UNL A   1      34.779  20.133  24.993  1.00  0.00    -0.275 OA
ATOM      7  H   UNL A   1      33.842  20.534  27.180  1.00  0.00     0.163 HD
BRANCH   5   8
ATOM      8  C   UNL A   1      32.521  19.874  24.246  1.00  0.00     0.084 C 
BRANCH   8   9
ATOM      9  C   UNL A   1      32.404  18.315  24.124  1.00  0.00     0.024 C 
ATOM     10  C   UNL A   1      33.115  17.717  22.903  1.00  0.00     0.011 C 
BRANCH   9  11
ATOM     11  C   UNL A   1      32.629  17.435  25.363  1.00  0.00     0.163 C 
BRANCH  11  12
ATOM     12  O   UNL A   1      33.249  16.162  25.221  1.00  0.00    -0.384 OA
ATOM     13  C   UNL A   1      32.493  15.005  25.504  1.00  0.00     0.194 C 
ENDBRANCH  11  12
ENDBRANCH   9  11
ENDBRANCH   8   9
BRANCH   8  14
ATOM     14  C   UNL A   1      32.299  20.752  22.993  1.00  0.00     0.017 C 
BRANCH  14  15
ATOM     15  C   UNL A   1      32.524  22.285  23.172  1.00  0.00    -0.017 C 
ATOM     16  C   UNL A   1      33.247  22.952  22.001  1.00  0.00     0.007 C 
ATOM     17  C   UNL A   1      31.164  22.976  23.351  1.00  0.00     0.007 C 
ENDBRANCH  14  15
ENDBRANCH   8  14
ENDBRANCH   5   8
ENDBRANCH   3   4
ENDBRANCH   2   3
ENDBRANCH   1   2
BRANCH   1  18
ATOM     18  C   UNL A   1      35.044  24.438  25.607  1.00  0.00     0.002 C 
BRANCH  18  19
ATOM     19  C   UNL A   1      36.017  23.370  26.107  1.00  0.00     0.021 C 
BRANCH  19  20
ATOM     20  C   UNL A   1      37.249  23.158  25.231  1.00  0.00     0.116 C 
BRANCH  20  21
ATOM     21  N   UNL A   1      38.220  22.264  25.847  1.00  0.00    -0.352 N 
ATOM     22  C   UNL A   1      39.391  22.548  26.502  1.00  0.00     0.251 C 
ATOM     23  H   UNL A   1      38.001  21.306  25.785  1.00  0.00     0.163 HD
ATOM     24  O   UNL A   1      40.187  21.651  26.761  1.00  0.00    -0.269 OA
BRANCH  22  25
ATOM     25  C   UNL A   1      39.697  23.938  26.892  1.00  0.00     0.039 A 
ATOM     26  C   UNL A   1      39.377  24.371  28.181  1.00  0.00     0.014 A 
ATOM     27  C   UNL A   1      40.279  24.818  25.976  1.00  0.00     0.014 A 
ATOM     28  C   UNL A   1      39.702  25.671  28.574  1.00  0.00     0.010 A 
ATOM     29  C   UNL A   1      40.666  26.088  26.389  1.00  0.00     0.010 A 
ATOM     30  C   UNL A   1      40.381  26.526  27.691  1.00  0.00    -0.014 A 
BRANCH  30  31
ATOM     31  C   UNL A   1      40.811  27.884  28.106  1.00  0.00     0.031 A 
ATOM     32  C   UNL A   1      42.271  28.237  28.121  1.00  0.00     0.074 A 
ATOM     33  C   UNL A   1      39.893  28.762  28.553  1.00  0.00     0.049 A 
ATOM     34  N   UNL A   1      42.854  29.328  28.551  1.00  0.00    -0.248 NA
ATOM     35  C   UNL A   1      43.205  27.219  27.614  1.00  0.00     0.031 C 
ATOM     36  C   UNL A   1      38.452  28.514  28.633  1.00  0.00     0.029 A 
ATOM     37  N   UNL A   1      40.038  30.034  29.047  1.00  0.00    -0.354 N 
ATOM     38  C   UNL A   1      44.217  29.118  28.387  1.00  0.00     0.074 A 
ATOM     39  C   UNL A   1      44.379  27.780  27.860  1.00  0.00     0.031 C 
ATOM     40  C   UNL A   1      37.845  29.602  29.133  1.00  0.00     0.029 A 
ATOM     41  C   UNL A   1      38.855  30.607  29.448  1.00  0.00     0.049 A 
ATOM     42  H   UNL A   1      40.907  30.494  29.108  1.00  0.00     0.167 HD
ATOM     43  C   UNL A   1      45.238  29.972  28.634  1.00  0.00     0.037 A 
ATOM     44  C   UNL A   1      38.615  31.801  30.023  1.00  0.00     0.037 A 
ATOM     45  C   UNL A   1      45.065  31.312  29.128  1.00  0.00     0.049 A 
ATOM     46  C   UNL A   1      39.767  32.727  30.293  1.00  0.00     0.074 A 
ATOM     47  C   UNL A   1      46.027  32.285  29.335  1.00  0.00     0.029 A 
ATOM     48  N   UNL A   1      43.848  31.865  29.501  1.00  0.00    -0.354 N 
ATOM     49  N   UNL A   1      41.045  32.549  30.054  1.00  0.00    -0.248 NA
ATOM     50  C   UNL A   1      39.448  34.022  30.911  1.00  0.00     0.031 C 
ATOM     51  C   UNL A   1      45.400  33.408  29.882  1.00  0.00     0.029 A 
ATOM     52  C   UNL A   1      44.041  33.155  29.966  1.00  0.00     0.049 A 
ATOM     53  H   UNL A   1      42.978  31.409  29.442  1.00  0.00     0.167 HD
ATOM     54  C   UNL A   1      41.677  33.714  30.467  1.00  0.00     0.074 A 
ATOM     55  C   UNL A   1      40.641  34.600  30.957  1.00  0.00     0.031 C 
ATOM     56  C   UNL A   1      42.995  34.024  30.445  1.00  0.00     0.037 A 
BRANCH  43  57
ATOM     57  C   UNL A   1      46.634  29.485  28.374  1.00  0.00     0.057 A 
ATOM     58  C   UNL A   1      47.257  29.647  27.129  1.00  0.00     0.134 A 
ATOM     59  C   UNL A   1      47.382  28.886  29.396  1.00  0.00     0.134 A 
ATOM     60  F   UNL A   1      46.594  30.204  26.104  1.00  0.00    -0.206 F 
ATOM     61  C   UNL A   1      48.564  29.211  26.904  1.00  0.00     0.040 A 
ATOM     62  C   UNL A   1      48.699  28.471  29.190  1.00  0.00     0.040 A 
ATOM     63  F   UNL A   1      46.849  28.704  30.614  1.00  0.00    -0.206 F 
ATOM     64  C   UNL A   1      49.291  28.628  27.939  1.00  0.00     0.006 A 
ENDBRANCH  43  57
BRANCH  44  65
ATOM     65  C   UNL A   1      37.227  32.191  30.378  1.00  0.00     0.057 A 
ATOM     66  C   UNL A   1      36.421  32.897  29.476  1.00  0.00     0.134 A 
ATOM     67  C   UNL A   1      36.675  31.882  31.627  1.00  0.00     0.134 A 
ATOM     68  F   UNL A   1      36.899  33.239  28.270  1.00  0.00    -0.206 F 
ATOM     69  C   UNL A   1      35.127  33.298  29.810  1.00  0.00     0.040 A 
ATOM     70  C   UNL A   1      35.373  32.254  31.965  1.00  0.00     0.040 A 
ATOM     71  F   UNL A   1      37.391  31.200  32.533  1.00  0.00    -0.206 F 
ATOM     72  C   UNL A   1      34.598  32.973  31.057  1.00  0.00     0.006 A 
ENDBRANCH  44  65
BRANCH  56  73
ATOM     73  C   UNL A   1      43.392  35.384  30.938  1.00  0.00     0.057 A 
ATOM     74  C   UNL A   1      43.526  36.474  30.069  1.00  0.00     0.134 A 
ATOM     75  C   UNL A   1      43.591  35.615  32.306  1.00  0.00     0.134 A 
ATOM     76  F   UNL A   1      43.362  36.315  28.748  1.00  0.00    -0.206 F 
ATOM     77  C   UNL A   1      43.861  37.744  30.542  1.00  0.00     0.040 A 
ATOM     78  C   UNL A   1      43.899  36.887  32.792  1.00  0.00     0.040 A 
ATOM     79  F   UNL A   1      43.470  34.615  33.192  1.00  0.00    -0.206 F 
ATOM     80  C   UNL A   1      44.038  37.955  31.909  1.00  0.00     0.006 A 
ENDBRANCH  56  73
ENDBRANCH  30  31
ENDBRANCH  22  25
ENDBRANCH  20  21
ENDBRANCH  19  20
ENDBRANCH  18  19
ENDBRANCH   1  18
TORSDOF 18
ENDMDL
