MODEL 1
REMARK VINA RESULT:     -12.0      0.000      0.000
REMARK SMILES Cc1ccccc1NC(=O)C[NH+]1CCC(CC(=O)NCCCCCCNC(=O)c2ccc(-c3c4nc(c(-c5c(F)cccc5F)c5ccc([nH]5)c(-c5c(F)cccc5F)c5nc(c(-c6c(F)cccc6F)c6ccc3[nH]6)C=C5)C=C4)cc2)CC1
REMARK SMILES IDX 21 1 20 2 19 3 17 4 18 5 16 7 15 8 12 9 13 10 84 11 14 13
REMARK SMILES IDX 83 14 11 15 9 16 8 17 10 19 7 20 1 21 2 22 3 23 4 24 6 25
REMARK SMILES IDX 5 26 22 27 23 28 24 29 25 30 26 31 27 32 28 34 29 35 30 36
REMARK SMILES IDX 82 37 31 38 81 39 32 40 33 41 34 42 75 43 35 44 80 45 74 46
REMARK SMILES IDX 76 47 36 48 79 49 73 50 72 51 37 53 63 54 46 55 62 56 47 57
REMARK SMILES IDX 50 58 61 59 77 60 48 61 49 62 60 64 78 65 51 66 38 67 39 68
REMARK SMILES IDX 44 69 40 70 41 71 43 72 45 73 42 74 64 75 65 76 70 77 66 78
REMARK SMILES IDX 67 79 69 80 71 81 68 82 52 83 53 84 58 85 54 86 55 87 57 88
REMARK SMILES IDX 59 89 56 90
REMARK H PARENT 19 6 12 12 8 18 26 33 76 52 50 63
REMARK Flexibility Score: inf
ROOT
ATOM      1  C   UNL A   1      40.416  20.979  26.827  1.00  0.00     0.021 C 
ENDROOT
BRANCH   1   2
ATOM      2  C   UNL A   1      39.415  21.734  25.944  1.00  0.00     0.116 C 
BRANCH   2   3
ATOM      3  N   UNL A   1      38.373  20.850  25.452  1.00  0.00    -0.356 N 
ATOM      4  C   UNL A   1      37.024  21.049  25.377  1.00  0.00     0.220 C 
ATOM      5  O   UNL A   1      36.309  20.120  24.999  1.00  0.00    -0.275 OA
ATOM      6  H   UNL A   1      38.686  19.977  25.123  1.00  0.00     0.163 HD
BRANCH   4   7
ATOM      7  C   UNL A   1      36.431  22.393  25.750  1.00  0.00     0.104 C 
BRANCH   7   8
ATOM      8  C   UNL A   1      35.107  22.721  25.045  1.00  0.00     0.009 C 
ATOM      9  N   UNL A   1      33.507  24.519  23.347  1.00  0.00    -0.327 N 
ATOM     10  C   UNL A   1      33.185  24.394  24.767  1.00  0.00     0.262 C 
ATOM     11  C   UNL A   1      34.079  23.283  22.816  1.00  0.00     0.262 C 
ATOM     12  H   UNL A   1      34.235  25.227  23.264  1.00  0.00     0.348 HD
ATOM     13  C   UNL A   1      34.425  23.990  25.563  1.00  0.00     0.066 C 
ATOM     14  C   UNL A   1      35.357  22.875  23.541  1.00  0.00     0.066 C 
BRANCH   9  15
ATOM     15  C   UNL A   1      32.379  25.053  22.542  1.00  0.00     0.363 C 
BRANCH  15  16
ATOM     16  C   UNL A   1      32.710  26.210  21.583  1.00  0.00     0.279 C 
ATOM     17  N   UNL A   1      32.764  27.521  21.966  1.00  0.00    -0.321 N 
ATOM     18  H   UNL A   1      33.035  28.146  21.255  1.00  0.00     0.170 HD
ATOM     19  O   UNL A   1      33.023  25.961  20.410  1.00  0.00    -0.268 OA
BRANCH  17  20
ATOM     20  C   UNL A   1      32.498  28.122  23.203  1.00  0.00     0.044 A 
ATOM     21  C   UNL A   1      30.057  28.551  22.500  1.00  0.00     0.046 C 
ATOM     22  C   UNL A   1      31.226  28.682  23.439  1.00  0.00    -0.027 A 
ATOM     23  C   UNL A   1      31.034  29.454  24.600  1.00  0.00     0.005 A 
ATOM     24  C   UNL A   1      32.066  29.639  25.520  1.00  0.00     0.000 A 
ATOM     25  C   UNL A   1      33.492  28.230  24.182  1.00  0.00     0.026 A 
ATOM     26  C   UNL A   1      33.285  29.003  25.327  1.00  0.00     0.002 A 
ENDBRANCH  17  20
ENDBRANCH  15  16
ENDBRANCH   9  15
ENDBRANCH   7   8
ENDBRANCH   4   7
ENDBRANCH   2   3
ENDBRANCH   1   2
BRANCH   1  27
ATOM     27  C   UNL A   1      41.213  19.886  26.116  1.00  0.00     0.002 C 
BRANCH  27  28
ATOM     28  C   UNL A   1      42.209  19.112  26.990  1.00  0.00     0.002 C 
BRANCH  28  29
ATOM     29  C   UNL A   1      43.398  18.494  26.253  1.00  0.00     0.021 C 
BRANCH  29  30
ATOM     30  C   UNL A   1      43.748  19.190  24.945  1.00  0.00     0.116 C 
BRANCH  30  31
ATOM     31  N   UNL A   1      45.063  19.814  24.968  1.00  0.00    -0.352 N 
ATOM     32  C   UNL A   1      45.438  21.142  25.052  1.00  0.00     0.251 C 
ATOM     33  H   UNL A   1      45.815  19.181  24.916  1.00  0.00     0.163 HD
ATOM     34  O   UNL A   1      46.620  21.432  24.954  1.00  0.00    -0.269 OA
BRANCH  32  35
ATOM     35  C   UNL A   1      44.451  22.187  25.433  1.00  0.00     0.039 A 
ATOM     36  C   UNL A   1      44.405  23.336  24.629  1.00  0.00     0.014 A 
ATOM     37  C   UNL A   1      43.781  22.171  26.650  1.00  0.00     0.014 A 
ATOM     38  C   UNL A   1      43.955  24.536  25.171  1.00  0.00     0.010 A 
ATOM     39  C   UNL A   1      43.425  23.370  27.226  1.00  0.00     0.010 A 
ATOM     40  C   UNL A   1      43.599  24.560  26.513  1.00  0.00    -0.014 A 
BRANCH  40  41
ATOM     41  C   UNL A   1      43.482  25.775  27.300  1.00  0.00     0.031 A 
ATOM     42  C   UNL A   1      42.222  26.531  27.303  1.00  0.00     0.074 A 
ATOM     43  C   UNL A   1      44.481  26.098  28.149  1.00  0.00     0.049 A 
ATOM     44  N   UNL A   1      42.090  27.721  27.776  1.00  0.00    -0.248 NA
ATOM     45  C   UNL A   1      41.006  26.012  26.695  1.00  0.00     0.031 C 
ATOM     46  C   UNL A   1      44.430  27.031  29.271  1.00  0.00     0.029 A 
ATOM     47  N   UNL A   1      45.843  25.794  28.012  1.00  0.00    -0.354 N 
ATOM     48  C   UNL A   1      40.745  28.003  27.825  1.00  0.00     0.074 A 
ATOM     49  C   UNL A   1      40.133  26.967  27.028  1.00  0.00     0.031 C 
ATOM     50  C   UNL A   1      45.674  27.458  29.532  1.00  0.00     0.029 A 
ATOM     51  C   UNL A   1      46.531  26.939  28.481  1.00  0.00     0.049 A 
ATOM     52  H   UNL A   1      46.236  24.962  27.664  1.00  0.00     0.167 HD
ATOM     53  C   UNL A   1      40.325  29.003  28.655  1.00  0.00     0.037 A 
ATOM     54  C   UNL A   1      47.259  27.709  27.619  1.00  0.00     0.037 A 
ATOM     55  C   UNL A   1      41.468  29.782  29.155  1.00  0.00     0.049 A 
ATOM     56  C   UNL A   1      46.777  29.139  27.473  1.00  0.00     0.074 A 
ATOM     57  C   UNL A   1      42.148  29.878  30.360  1.00  0.00     0.029 A 
ATOM     58  N   UNL A   1      42.263  30.439  28.230  1.00  0.00    -0.354 N 
ATOM     59  N   UNL A   1      45.705  29.623  28.038  1.00  0.00    -0.248 NA
ATOM     60  C   UNL A   1      47.429  30.116  26.600  1.00  0.00     0.031 C 
ATOM     61  C   UNL A   1      43.360  30.599  30.135  1.00  0.00     0.029 A 
ATOM     62  C   UNL A   1      43.413  30.946  28.798  1.00  0.00     0.049 A 
ATOM     63  H   UNL A   1      42.033  30.533  27.278  1.00  0.00     0.167 HD
ATOM     64  C   UNL A   1      45.479  30.897  27.584  1.00  0.00     0.074 A 
ATOM     65  C   UNL A   1      46.591  31.164  26.689  1.00  0.00     0.031 C 
ATOM     66  C   UNL A   1      44.374  31.618  27.934  1.00  0.00     0.037 A 
BRANCH  53  67
ATOM     67  C   UNL A   1      38.911  29.151  29.198  1.00  0.00     0.057 A 
ATOM     68  C   UNL A   1      37.868  29.589  28.355  1.00  0.00     0.134 A 
ATOM     69  C   UNL A   1      38.508  28.972  30.535  1.00  0.00     0.134 A 
ATOM     70  F   UNL A   1      38.037  29.723  27.033  1.00  0.00    -0.206 F 
ATOM     71  C   UNL A   1      36.584  29.914  28.820  1.00  0.00     0.040 A 
ATOM     72  C   UNL A   1      37.238  29.316  31.020  1.00  0.00     0.040 A 
ATOM     73  F   UNL A   1      39.290  28.405  31.454  1.00  0.00    -0.206 F 
ATOM     74  C   UNL A   1      36.271  29.808  30.165  1.00  0.00     0.006 A 
ENDBRANCH  53  67
BRANCH  54  75
ATOM     75  C   UNL A   1      47.895  26.904  26.539  1.00  0.00     0.057 A 
ATOM     76  C   UNL A   1      47.272  26.858  25.279  1.00  0.00     0.134 A 
ATOM     77  C   UNL A   1      49.244  26.542  26.597  1.00  0.00     0.134 A 
ATOM     78  F   UNL A   1      45.978  27.197  25.154  1.00  0.00    -0.206 F 
ATOM     79  C   UNL A   1      47.988  26.585  24.112  1.00  0.00     0.040 A 
ATOM     80  C   UNL A   1      49.967  26.251  25.435  1.00  0.00     0.040 A 
ATOM     81  F   UNL A   1      49.913  26.583  27.759  1.00  0.00    -0.206 F 
ATOM     82  C   UNL A   1      49.351  26.314  24.185  1.00  0.00     0.006 A 
ENDBRANCH  54  75
BRANCH  66  83
ATOM     83  C   UNL A   1      44.088  33.018  27.452  1.00  0.00     0.057 A 
ATOM     84  C   UNL A   1      44.003  34.120  28.314  1.00  0.00     0.134 A 
ATOM     85  C   UNL A   1      43.777  33.286  26.102  1.00  0.00     0.134 A 
ATOM     86  F   UNL A   1      44.190  33.984  29.635  1.00  0.00    -0.206 F 
ATOM     87  C   UNL A   1      43.689  35.408  27.855  1.00  0.00     0.040 A 
ATOM     88  C   UNL A   1      43.412  34.555  25.642  1.00  0.00     0.040 A 
ATOM     89  F   UNL A   1      43.835  32.336  25.159  1.00  0.00    -0.206 F 
ATOM     90  C   UNL A   1      43.384  35.627  26.517  1.00  0.00     0.006 A 
ENDBRANCH  66  83
ENDBRANCH  40  41
ENDBRANCH  32  35
ENDBRANCH  30  31
ENDBRANCH  29  30
ENDBRANCH  28  29
ENDBRANCH  27  28
ENDBRANCH   1  27
TORSDOF 17
ENDMDL
MODEL 2
REMARK VINA RESULT:     -12.0      3.757      9.607
REMARK SMILES Cc1ccccc1NC(=O)C[NH+]1CCC(CC(=O)NCCCCCCNC(=O)c2ccc(-c3c4nc(c(-c5c(F)cccc5F)c5ccc([nH]5)c(-c5c(F)cccc5F)c5nc(c(-c6c(F)cccc6F)c6ccc3[nH]6)C=C5)C=C4)cc2)CC1
REMARK SMILES IDX 21 1 20 2 19 3 17 4 18 5 16 7 15 8 12 9 13 10 84 11 14 13
REMARK SMILES IDX 83 14 11 15 9 16 8 17 10 19 7 20 1 21 2 22 3 23 4 24 6 25
REMARK SMILES IDX 5 26 22 27 23 28 24 29 25 30 26 31 27 32 28 34 29 35 30 36
REMARK SMILES IDX 82 37 31 38 81 39 32 40 33 41 34 42 75 43 35 44 80 45 74 46
REMARK SMILES IDX 76 47 36 48 79 49 73 50 72 51 37 53 63 54 46 55 62 56 47 57
REMARK SMILES IDX 50 58 61 59 77 60 48 61 49 62 60 64 78 65 51 66 38 67 39 68
REMARK SMILES IDX 44 69 40 70 41 71 43 72 45 73 42 74 64 75 65 76 70 77 66 78
REMARK SMILES IDX 67 79 69 80 71 81 68 82 52 83 53 84 58 85 54 86 55 87 57 88
REMARK SMILES IDX 59 89 56 90
REMARK H PARENT 19 6 12 12 8 18 26 33 76 52 50 63
REMARK Flexibility Score: inf
ROOT
ATOM      1  C   UNL A   1      33.309  28.800  25.340  1.00  0.00     0.021 C 
ENDROOT
BRANCH   1   2
ATOM      2  C   UNL A   1      33.031  27.739  24.267  1.00  0.00     0.116 C 
BRANCH   2   3
ATOM      3  N   UNL A   1      31.688  27.871  23.730  1.00  0.00    -0.356 N 
ATOM      4  C   UNL A   1      30.553  27.180  24.041  1.00  0.00     0.220 C 
ATOM      5  O   UNL A   1      29.529  27.400  23.393  1.00  0.00    -0.275 OA
ATOM      6  H   UNL A   1      31.581  28.561  23.037  1.00  0.00     0.163 HD
BRANCH   4   7
ATOM      7  C   UNL A   1      30.563  26.167  25.168  1.00  0.00     0.104 C 
BRANCH   7   8
ATOM      8  C   UNL A   1      30.629  24.703  24.706  1.00  0.00     0.009 C 
ATOM      9  N   UNL A   1      32.170  22.222  24.327  1.00  0.00    -0.327 N 
ATOM     10  C   UNL A   1      31.748  22.993  23.159  1.00  0.00     0.262 C 
ATOM     11  C   UNL A   1      31.230  22.370  25.436  1.00  0.00     0.262 C 
ATOM     12  H   UNL A   1      33.052  22.621  24.649  1.00  0.00     0.348 HD
ATOM     13  C   UNL A   1      31.574  24.466  23.525  1.00  0.00     0.066 C 
ATOM     14  C   UNL A   1      31.073  23.821  25.878  1.00  0.00     0.066 C 
BRANCH   9  15
ATOM     15  C   UNL A   1      32.500  20.811  24.002  1.00  0.00     0.363 C 
BRANCH  15  16
ATOM     16  C   UNL A   1      33.033  19.948  25.158  1.00  0.00     0.279 C 
ATOM     17  N   UNL A   1      34.184  20.225  25.843  1.00  0.00    -0.321 N 
ATOM     18  H   UNL A   1      34.376  19.611  26.589  1.00  0.00     0.170 HD
ATOM     19  O   UNL A   1      32.364  18.987  25.562  1.00  0.00    -0.268 OA
BRANCH  17  20
ATOM     20  C   UNL A   1      35.136  21.235  25.658  1.00  0.00     0.044 A 
ATOM     21  C   UNL A   1      34.124  22.584  27.606  1.00  0.00     0.046 C 
ATOM     22  C   UNL A   1      35.070  22.400  26.449  1.00  0.00    -0.027 A 
ATOM     23  C   UNL A   1      35.903  23.486  26.122  1.00  0.00     0.005 A 
ATOM     24  C   UNL A   1      36.801  23.409  25.058  1.00  0.00     0.000 A 
ATOM     25  C   UNL A   1      36.112  21.134  24.660  1.00  0.00     0.026 A 
ATOM     26  C   UNL A   1      36.928  22.223  24.347  1.00  0.00     0.002 A 
ENDBRANCH  17  20
ENDBRANCH  15  16
ENDBRANCH   9  15
ENDBRANCH   7   8
ENDBRANCH   4   7
ENDBRANCH   2   3
ENDBRANCH   1   2
BRANCH   1  27
ATOM     27  C   UNL A   1      32.196  29.828  25.540  1.00  0.00     0.002 C 
BRANCH  27  28
ATOM     28  C   UNL A   1      32.270  30.646  26.836  1.00  0.00     0.002 C 
BRANCH  28  29
ATOM     29  C   UNL A   1      33.565  30.505  27.636  1.00  0.00     0.021 C 
BRANCH  29  30
ATOM     30  C   UNL A   1      34.466  31.731  27.583  1.00  0.00     0.116 C 
BRANCH  30  31
ATOM     31  N   UNL A   1      34.907  32.169  28.899  1.00  0.00    -0.352 N 
ATOM     32  C   UNL A   1      35.766  31.586  29.811  1.00  0.00     0.251 C 
ATOM     33  H   UNL A   1      34.529  33.030  29.190  1.00  0.00     0.163 HD
ATOM     34  O   UNL A   1      35.909  32.104  30.908  1.00  0.00    -0.269 OA
BRANCH  32  35
ATOM     35  C   UNL A   1      36.642  30.453  29.411  1.00  0.00     0.039 A 
ATOM     36  C   UNL A   1      36.713  29.366  30.296  1.00  0.00     0.014 A 
ATOM     37  C   UNL A   1      37.545  30.543  28.358  1.00  0.00     0.014 A 
ATOM     38  C   UNL A   1      37.845  28.558  30.304  1.00  0.00     0.010 A 
ATOM     39  C   UNL A   1      38.710  29.812  28.421  1.00  0.00     0.010 A 
ATOM     40  C   UNL A   1      38.892  28.884  29.451  1.00  0.00    -0.014 A 
BRANCH  40  41
ATOM     41  C   UNL A   1      40.249  28.391  29.606  1.00  0.00     0.031 A 
ATOM     42  C   UNL A   1      40.621  27.078  29.062  1.00  0.00     0.074 A 
ATOM     43  C   UNL A   1      41.190  29.222  30.102  1.00  0.00     0.049 A 
ATOM     44  N   UNL A   1      41.716  26.460  29.340  1.00  0.00    -0.248 NA
ATOM     45  C   UNL A   1      39.732  26.316  28.197  1.00  0.00     0.031 C 
ATOM     46  C   UNL A   1      42.641  29.083  30.009  1.00  0.00     0.029 A 
ATOM     47  N   UNL A   1      40.999  30.275  31.009  1.00  0.00    -0.354 N 
ATOM     48  C   UNL A   1      41.825  25.396  28.476  1.00  0.00     0.074 A 
ATOM     49  C   UNL A   1      40.515  25.282  27.882  1.00  0.00     0.031 C 
ATOM     50  C   UNL A   1      43.204  29.777  31.009  1.00  0.00     0.029 A 
ATOM     51  C   UNL A   1      42.126  30.239  31.866  1.00  0.00     0.049 A 
ATOM     52  H   UNL A   1      40.243  30.904  31.042  1.00  0.00     0.167 HD
ATOM     53  C   UNL A   1      43.061  24.845  28.282  1.00  0.00     0.037 A 
ATOM     54  C   UNL A   1      41.982  29.910  33.183  1.00  0.00     0.037 A 
ATOM     55  C   UNL A   1      44.021  25.355  29.274  1.00  0.00     0.049 A 
ATOM     56  C   UNL A   1      42.714  28.654  33.614  1.00  0.00     0.074 A 
ATOM     57  C   UNL A   1      45.075  26.255  29.258  1.00  0.00     0.029 A 
ATOM     58  N   UNL A   1      43.763  25.112  30.613  1.00  0.00    -0.354 N 
ATOM     59  N   UNL A   1      43.372  27.865  32.810  1.00  0.00    -0.248 NA
ATOM     60  C   UNL A   1      42.684  28.143  34.985  1.00  0.00     0.031 C 
ATOM     61  C   UNL A   1      45.437  26.546  30.608  1.00  0.00     0.029 A 
ATOM     62  C   UNL A   1      44.608  25.820  31.443  1.00  0.00     0.049 A 
ATOM     63  H   UNL A   1      43.057  24.507  30.935  1.00  0.00     0.167 HD
ATOM     64  C   UNL A   1      43.785  26.750  33.492  1.00  0.00     0.074 A 
ATOM     65  C   UNL A   1      43.335  26.974  34.854  1.00  0.00     0.031 C 
ATOM     66  C   UNL A   1      44.421  25.706  32.882  1.00  0.00     0.037 A 
BRANCH  53  67
ATOM     67  C   UNL A   1      43.469  24.020  27.071  1.00  0.00     0.057 A 
ATOM     68  C   UNL A   1      44.077  24.641  25.960  1.00  0.00     0.134 A 
ATOM     69  C   UNL A   1      43.227  22.647  26.878  1.00  0.00     0.134 A 
ATOM     70  F   UNL A   1      44.469  25.922  25.992  1.00  0.00    -0.206 F 
ATOM     71  C   UNL A   1      44.320  23.982  24.744  1.00  0.00     0.040 A 
ATOM     72  C   UNL A   1      43.441  21.980  25.662  1.00  0.00     0.040 A 
ATOM     73  F   UNL A   1      42.818  21.842  27.858  1.00  0.00    -0.206 F 
ATOM     74  C   UNL A   1      43.975  22.651  24.580  1.00  0.00     0.006 A 
ENDBRANCH  53  67
BRANCH  54  75
ATOM     75  C   UNL A   1      40.689  30.385  33.748  1.00  0.00     0.057 A 
ATOM     76  C   UNL A   1      40.577  31.736  34.128  1.00  0.00     0.134 A 
ATOM     77  C   UNL A   1      39.500  29.679  33.545  1.00  0.00     0.134 A 
ATOM     78  F   UNL A   1      41.680  32.472  34.335  1.00  0.00    -0.206 F 
ATOM     79  C   UNL A   1      39.342  32.386  34.182  1.00  0.00     0.040 A 
ATOM     80  C   UNL A   1      38.256  30.318  33.612  1.00  0.00     0.040 A 
ATOM     81  F   UNL A   1      39.526  28.395  33.161  1.00  0.00    -0.206 F 
ATOM     82  C   UNL A   1      38.178  31.683  33.887  1.00  0.00     0.006 A 
ENDBRANCH  54  75
BRANCH  66  83
ATOM     83  C   UNL A   1      44.885  24.464  33.598  1.00  0.00     0.057 A 
ATOM     84  C   UNL A   1      46.239  24.149  33.783  1.00  0.00     0.134 A 
ATOM     85  C   UNL A   1      43.975  23.476  34.031  1.00  0.00     0.134 A 
ATOM     86  F   UNL A   1      47.206  24.964  33.338  1.00  0.00    -0.206 F 
ATOM     87  C   UNL A   1      46.655  22.965  34.409  1.00  0.00     0.040 A 
ATOM     88  C   UNL A   1      44.379  22.268  34.608  1.00  0.00     0.040 A 
ATOM     89  F   UNL A   1      42.649  23.644  33.937  1.00  0.00    -0.206 F 
ATOM     90  C   UNL A   1      45.724  22.016  34.816  1.00  0.00     0.006 A 
ENDBRANCH  66  83
ENDBRANCH  40  41
ENDBRANCH  32  35
ENDBRANCH  30  31
ENDBRANCH  29  30
ENDBRANCH  28  29
ENDBRANCH  27  28
ENDBRANCH   1  27
TORSDOF 17
ENDMDL
MODEL 3
REMARK VINA RESULT:     -11.9      3.259      9.439
REMARK SMILES Cc1ccccc1NC(=O)C[NH+]1CCC(CC(=O)NCCCCCCNC(=O)c2ccc(-c3c4nc(c(-c5c(F)cccc5F)c5ccc([nH]5)c(-c5c(F)cccc5F)c5nc(c(-c6c(F)cccc6F)c6ccc3[nH]6)C=C5)C=C4)cc2)CC1
REMARK SMILES IDX 21 1 20 2 19 3 17 4 18 5 16 7 15 8 12 9 13 10 84 11 14 13
REMARK SMILES IDX 83 14 11 15 9 16 8 17 10 19 7 20 1 21 2 22 3 23 4 24 6 25
REMARK SMILES IDX 5 26 22 27 23 28 24 29 25 30 26 31 27 32 28 34 29 35 30 36
REMARK SMILES IDX 82 37 31 38 81 39 32 40 33 41 34 42 75 43 35 44 80 45 74 46
REMARK SMILES IDX 76 47 36 48 79 49 73 50 72 51 37 53 63 54 46 55 62 56 47 57
REMARK SMILES IDX 50 58 61 59 77 60 48 61 49 62 60 64 78 65 51 66 38 67 39 68
REMARK SMILES IDX 44 69 40 70 41 71 43 72 45 73 42 74 64 75 65 76 70 77 66 78
REMARK SMILES IDX 67 79 69 80 71 81 68 82 52 83 53 84 58 85 54 86 55 87 57 88
REMARK SMILES IDX 59 89 56 90
REMARK H PARENT 19 6 12 12 8 18 26 33 76 52 50 63
REMARK Flexibility Score: inf
ROOT
ATOM      1  C   UNL A   1      32.480  29.072  23.571  1.00  0.00     0.021 C 
ENDROOT
BRANCH   1   2
ATOM      2  C   UNL A   1      31.122  28.432  23.255  1.00  0.00     0.116 C 
BRANCH   2   3
ATOM      3  N   UNL A   1      31.163  27.697  22.002  1.00  0.00    -0.356 N 
ATOM      4  C   UNL A   1      31.450  26.383  21.771  1.00  0.00     0.220 C 
ATOM      5  O   UNL A   1      31.511  25.985  20.607  1.00  0.00    -0.275 OA
ATOM      6  H   UNL A   1      30.953  28.227  21.200  1.00  0.00     0.163 HD
BRANCH   4   7
ATOM      7  C   UNL A   1      31.684  25.439  22.934  1.00  0.00     0.104 C 
BRANCH   7   8
ATOM      8  C   UNL A   1      33.159  25.088  23.181  1.00  0.00     0.009 C 
ATOM      9  N   UNL A   1      35.187  23.365  24.444  1.00  0.00    -0.327 N 
ATOM     10  C   UNL A   1      35.019  24.740  24.910  1.00  0.00     0.262 C 
ATOM     11  C   UNL A   1      34.857  23.236  23.026  1.00  0.00     0.262 C 
ATOM     12  H   UNL A   1      34.509  22.791  24.945  1.00  0.00     0.348 HD
ATOM     13  C   UNL A   1      33.595  25.225  24.642  1.00  0.00     0.066 C 
ATOM     14  C   UNL A   1      33.422  23.650  22.721  1.00  0.00     0.066 C 
BRANCH   9  15
ATOM     15  C   UNL A   1      36.504  22.785  24.810  1.00  0.00     0.363 C 
BRANCH  15  16
ATOM     16  C   UNL A   1      36.504  21.314  25.260  1.00  0.00     0.279 C 
ATOM     17  N   UNL A   1      35.437  20.705  25.860  1.00  0.00    -0.321 N 
ATOM     18  H   UNL A   1      35.565  19.747  26.049  1.00  0.00     0.170 HD
ATOM     19  O   UNL A   1      37.484  20.598  25.009  1.00  0.00    -0.268 OA
BRANCH  17  20
ATOM     20  C   UNL A   1      34.194  21.217  26.250  1.00  0.00     0.044 A 
ATOM     21  C   UNL A   1      33.078  20.161  24.182  1.00  0.00     0.046 C 
ATOM     22  C   UNL A   1      33.074  21.023  25.416  1.00  0.00    -0.027 A 
ATOM     23  C   UNL A   1      31.881  21.707  25.718  1.00  0.00     0.005 A 
ATOM     24  C   UNL A   1      31.791  22.537  26.834  1.00  0.00     0.000 A 
ATOM     25  C   UNL A   1      34.059  21.969  27.422  1.00  0.00     0.026 A 
ATOM     26  C   UNL A   1      32.869  22.645  27.704  1.00  0.00     0.002 A 
ENDBRANCH  17  20
ENDBRANCH  15  16
ENDBRANCH   9  15
ENDBRANCH   7   8
ENDBRANCH   4   7
ENDBRANCH   2   3
ENDBRANCH   1   2
BRANCH   1  27
ATOM     27  C   UNL A   1      32.748  29.327  25.053  1.00  0.00     0.002 C 
BRANCH  27  28
ATOM     28  C   UNL A   1      31.764  30.271  25.756  1.00  0.00     0.002 C 
BRANCH  28  29
ATOM     29  C   UNL A   1      32.353  31.126  26.879  1.00  0.00     0.021 C 
BRANCH  29  30
ATOM     30  C   UNL A   1      33.579  30.519  27.546  1.00  0.00     0.116 C 
BRANCH  30  31
ATOM     31  N   UNL A   1      34.388  31.504  28.251  1.00  0.00    -0.352 N 
ATOM     32  C   UNL A   1      35.605  31.388  28.894  1.00  0.00     0.251 C 
ATOM     33  H   UNL A   1      34.001  32.408  28.271  1.00  0.00     0.163 HD
ATOM     34  O   UNL A   1      36.047  32.348  29.506  1.00  0.00    -0.269 OA
BRANCH  32  35
ATOM     35  C   UNL A   1      36.454  30.182  28.702  1.00  0.00     0.039 A 
ATOM     36  C   UNL A   1      36.660  29.367  29.826  1.00  0.00     0.014 A 
ATOM     37  C   UNL A   1      37.218  29.983  27.558  1.00  0.00     0.014 A 
ATOM     38  C   UNL A   1      37.805  28.582  29.906  1.00  0.00     0.010 A 
ATOM     39  C   UNL A   1      38.401  29.285  27.666  1.00  0.00     0.010 A 
ATOM     40  C   UNL A   1      38.730  28.662  28.873  1.00  0.00    -0.014 A 
BRANCH  40  41
ATOM     41  C   UNL A   1      40.108  28.216  28.982  1.00  0.00     0.031 A 
ATOM     42  C   UNL A   1      40.485  26.872  28.524  1.00  0.00     0.074 A 
ATOM     43  C   UNL A   1      41.053  29.108  29.350  1.00  0.00     0.049 A 
ATOM     44  N   UNL A   1      41.613  26.306  28.782  1.00  0.00    -0.248 NA
ATOM     45  C   UNL A   1      39.568  26.021  27.780  1.00  0.00     0.031 C 
ATOM     46  C   UNL A   1      42.498  28.997  29.178  1.00  0.00     0.029 A 
ATOM     47  N   UNL A   1      40.886  30.226  30.180  1.00  0.00    -0.354 N 
ATOM     48  C   UNL A   1      41.701  25.178  28.000  1.00  0.00     0.074 A 
ATOM     49  C   UNL A   1      40.362  24.983  27.501  1.00  0.00     0.031 C 
ATOM     50  C   UNL A   1      43.100  29.784  30.083  1.00  0.00     0.029 A 
ATOM     51  C   UNL A   1      42.063  30.289  30.965  1.00  0.00     0.049 A 
ATOM     52  H   UNL A   1      40.115  30.838  30.209  1.00  0.00     0.167 HD
ATOM     53  C   UNL A   1      42.939  24.644  27.775  1.00  0.00     0.037 A 
ATOM     54  C   UNL A   1      42.008  30.066  32.311  1.00  0.00     0.037 A 
ATOM     55  C   UNL A   1      43.941  25.256  28.661  1.00  0.00     0.049 A 
ATOM     56  C   UNL A   1      42.801  28.867  32.794  1.00  0.00     0.074 A 
ATOM     57  C   UNL A   1      44.966  26.177  28.506  1.00  0.00     0.029 A 
ATOM     58  N   UNL A   1      43.771  25.118  30.029  1.00  0.00    -0.354 N 
ATOM     59  N   UNL A   1      43.433  28.031  32.017  1.00  0.00    -0.248 NA
ATOM     60  C   UNL A   1      42.869  28.469  34.201  1.00  0.00     0.031 C 
ATOM     61  C   UNL A   1      45.400  26.587  29.804  1.00  0.00     0.029 A 
ATOM     62  C   UNL A   1      44.644  25.911  30.744  1.00  0.00     0.049 A 
ATOM     63  H   UNL A   1      43.105  24.524  30.441  1.00  0.00     0.167 HD
ATOM     64  C   UNL A   1      43.919  26.987  32.759  1.00  0.00     0.074 A 
ATOM     65  C   UNL A   1      43.546  27.310  34.125  1.00  0.00     0.031 C 
ATOM     66  C   UNL A   1      44.547  25.912  32.197  1.00  0.00     0.037 A 
BRANCH  53  67
ATOM     67  C   UNL A   1      43.297  23.732  26.611  1.00  0.00     0.057 A 
ATOM     68  C   UNL A   1      43.155  22.334  26.733  1.00  0.00     0.134 A 
ATOM     69  C   UNL A   1      43.861  24.130  25.383  1.00  0.00     0.134 A 
ATOM     70  F   UNL A   1      42.551  21.774  27.789  1.00  0.00    -0.206 F 
ATOM     71  C   UNL A   1      43.625  21.423  25.773  1.00  0.00     0.040 A 
ATOM     72  C   UNL A   1      44.358  23.232  24.426  1.00  0.00     0.040 A 
ATOM     73  F   UNL A   1      43.924  25.404  24.998  1.00  0.00    -0.206 F 
ATOM     74  C   UNL A   1      44.258  21.870  24.625  1.00  0.00     0.006 A 
ENDBRANCH  53  67
BRANCH  54  75
ATOM     75  C   UNL A   1      40.738  30.554  32.915  1.00  0.00     0.057 A 
ATOM     76  C   UNL A   1      39.713  29.624  33.168  1.00  0.00     0.134 A 
ATOM     77  C   UNL A   1      40.675  31.774  33.595  1.00  0.00     0.134 A 
ATOM     78  F   UNL A   1      39.716  28.432  32.550  1.00  0.00    -0.206 F 
ATOM     79  C   UNL A   1      38.739  29.847  34.144  1.00  0.00     0.040 A 
ATOM     80  C   UNL A   1      39.694  32.013  34.564  1.00  0.00     0.040 A 
ATOM     81  F   UNL A   1      41.628  32.701  33.423  1.00  0.00    -0.206 F 
ATOM     82  C   UNL A   1      38.750  31.033  34.872  1.00  0.00     0.006 A 
ENDBRANCH  54  75
BRANCH  66  83
ATOM     83  C   UNL A   1      45.090  24.744  32.980  1.00  0.00     0.057 A 
ATOM     84  C   UNL A   1      44.363  23.566  33.198  1.00  0.00     0.134 A 
ATOM     85  C   UNL A   1      46.336  24.811  33.641  1.00  0.00     0.134 A 
ATOM     86  F   UNL A   1      43.128  23.411  32.696  1.00  0.00    -0.206 F 
ATOM     87  C   UNL A   1      44.864  22.507  33.969  1.00  0.00     0.040 A 
ATOM     88  C   UNL A   1      46.822  23.784  34.455  1.00  0.00     0.040 A 
ATOM     89  F   UNL A   1      47.150  25.867  33.511  1.00  0.00    -0.206 F 
ATOM     90  C   UNL A   1      46.093  22.617  34.607  1.00  0.00     0.006 A 
ENDBRANCH  66  83
ENDBRANCH  40  41
ENDBRANCH  32  35
ENDBRANCH  30  31
ENDBRANCH  29  30
ENDBRANCH  28  29
ENDBRANCH  27  28
ENDBRANCH   1  27
TORSDOF 17
ENDMDL
