MODEL 1
REMARK VINA RESULT:     -10.5      0.000      0.000
REMARK SMILES CCCCCCOC(=O)Nc1cccc(-c2ccc([C@@H](C)C(=O)NCCCCCCNC(=O)c3ccc(-c4c5nc(c(-c6c(F)cccc6F)c6ccc([nH]6)c(-c6c(F)cccc6F)c6nc(c(-c7c(F)cccc7F)c7ccc4[nH]7)C=C6)C=C5)cc3)cc2F)c1
REMARK SMILES IDX 22 1 23 2 24 3 20 5 21 6 19 7 16 8 17 9 89 10 18 11 88 12
REMARK SMILES IDX 90 13 15 14 11 15 12 16 91 17 13 18 14 19 10 20 8 21 9 22
REMARK SMILES IDX 7 24 6 25 5 26 4 27 3 28 2 29 1 30 25 31 26 32 27 33 28 34
REMARK SMILES IDX 29 35 30 36 31 37 32 38 33 40 34 41 35 42 87 43 36 44 86 45
REMARK SMILES IDX 37 46 38 47 39 48 80 49 40 50 85 51 79 52 81 53 41 54 84 55
REMARK SMILES IDX 78 56 77 57 42 59 68 60 51 61 67 62 52 63 55 64 66 65 82 66
REMARK SMILES IDX 53 67 54 68 65 70 83 71 56 72 43 73 44 74 49 75 45 76 46 77
REMARK SMILES IDX 48 78 50 79 47 80 69 81 70 82 75 83 71 84 72 85 74 86 76 87
REMARK SMILES IDX 73 88 57 89 58 90 63 91 59 92 60 93 62 94 64 95 61 96
REMARK H PARENT 24 4 10 23 31 39 81 58 55 69
REMARK Flexibility Score: inf
ROOT
ATOM      1  C   UNL A   1      33.096  26.204  24.431  1.00  0.00     0.227 C 
ATOM      2  O   UNL A   1      32.587  26.803  23.478  1.00  0.00    -0.274 OA
ATOM      3  N   UNL A   1      34.009  25.244  24.125  1.00  0.00    -0.356 N 
ATOM      4  H   UNL A   1      34.232  25.186  23.167  1.00  0.00     0.163 HD
ENDROOT
BRANCH   1   5
ATOM      5  C   UNL A   1      32.698  26.572  25.869  1.00  0.00     0.105 C 
ATOM      6  C   UNL A   1      31.244  26.248  26.213  1.00  0.00     0.023 C 
BRANCH   5   7
ATOM      7  C   UNL A   1      33.196  27.939  26.311  1.00  0.00    -0.033 A 
ATOM      8  C   UNL A   1      34.002  30.513  27.268  1.00  0.00     0.018 A 
ATOM      9  C   UNL A   1      34.909  29.447  27.178  1.00  0.00     0.012 A 
ATOM     10  C   UNL A   1      32.693  30.263  26.824  1.00  0.00     0.131 A 
ATOM     11  C   UNL A   1      34.520  28.196  26.679  1.00  0.00     0.005 A 
ATOM     12  C   UNL A   1      32.288  29.004  26.377  1.00  0.00     0.044 A 
ATOM     13  F   UNL A   1      31.778  31.245  26.811  1.00  0.00    -0.206 F 
BRANCH   8  14
ATOM     14  C   UNL A   1      34.416  31.824  27.812  1.00  0.00    -0.013 A 
ATOM     15  C   UNL A   1      36.194  33.406  28.395  1.00  0.00     0.045 A 
ATOM     16  C   UNL A   1      35.260  34.257  28.981  1.00  0.00     0.026 A 
ATOM     17  C   UNL A   1      35.766  32.211  27.803  1.00  0.00     0.035 A 
ATOM     18  C   UNL A   1      33.906  33.931  28.942  1.00  0.00     0.003 A 
ATOM     19  C   UNL A   1      33.492  32.722  28.374  1.00  0.00     0.009 A 
BRANCH  15  20
ATOM     20  N   UNL A   1      37.554  33.714  28.518  1.00  0.00    -0.291 N 
ATOM     21  C   UNL A   1      38.317  33.672  29.655  1.00  0.00     0.411 C 
ATOM     22  O   UNL A   1      39.315  34.360  29.773  1.00  0.00    -0.224 OA
ATOM     23  H   UNL A   1      38.015  33.991  27.693  1.00  0.00     0.173 HD
BRANCH  21  24
ATOM     24  O   UNL A   1      37.913  32.708  30.525  1.00  0.00    -0.449 OA
BRANCH  24  25
ATOM     25  C   UNL A   1      38.228  32.876  31.915  1.00  0.00     0.235 C 
BRANCH  25  26
ATOM     26  C   UNL A   1      36.982  32.794  32.803  1.00  0.00     0.042 C 
BRANCH  26  27
ATOM     27  C   UNL A   1      35.656  32.553  32.069  1.00  0.00     0.003 C 
BRANCH  27  28
ATOM     28  C   UNL A   1      34.410  33.080  32.792  1.00  0.00    -0.000 C 
BRANCH  28  29
ATOM     29  C   UNL A   1      34.526  34.509  33.320  1.00  0.00    -0.003 C 
ATOM     30  C   UNL A   1      34.119  35.549  32.289  1.00  0.00     0.004 C 
ENDBRANCH  28  29
ENDBRANCH  27  28
ENDBRANCH  26  27
ENDBRANCH  25  26
ENDBRANCH  24  25
ENDBRANCH  21  24
ENDBRANCH  15  20
ENDBRANCH   8  14
ENDBRANCH   5   7
ENDBRANCH   1   5
BRANCH   3  31
ATOM     31  C   UNL A   1      34.714  24.292  24.956  1.00  0.00     0.116 C 
BRANCH  31  32
ATOM     32  C   UNL A   1      35.036  23.006  24.192  1.00  0.00     0.021 C 
BRANCH  32  33
ATOM     33  C   UNL A   1      36.395  22.399  24.552  1.00  0.00     0.002 C 
BRANCH  33  34
ATOM     34  C   UNL A   1      36.349  20.945  25.041  1.00  0.00     0.002 C 
BRANCH  34  35
ATOM     35  C   UNL A   1      37.647  20.149  24.862  1.00  0.00     0.021 C 
BRANCH  35  36
ATOM     36  C   UNL A   1      38.790  20.589  25.772  1.00  0.00     0.116 C 
BRANCH  36  37
ATOM     37  N   UNL A   1      39.784  19.539  25.936  1.00  0.00    -0.352 N 
ATOM     38  C   UNL A   1      41.142  19.639  26.105  1.00  0.00     0.251 C 
ATOM     39  H   UNL A   1      39.429  18.620  25.925  1.00  0.00     0.163 HD
ATOM     40  O   UNL A   1      41.857  18.648  25.991  1.00  0.00    -0.269 OA
BRANCH  38  41
ATOM     41  C   UNL A   1      41.748  20.950  26.416  1.00  0.00     0.039 A 
ATOM     42  C   UNL A   1      42.097  21.805  25.366  1.00  0.00     0.014 A 
ATOM     43  C   UNL A   1      41.982  21.328  27.741  1.00  0.00     0.014 A 
ATOM     44  C   UNL A   1      42.617  23.069  25.650  1.00  0.00     0.010 A 
ATOM     45  C   UNL A   1      42.439  22.611  28.023  1.00  0.00     0.010 A 
ATOM     46  C   UNL A   1      42.758  23.495  26.981  1.00  0.00    -0.014 A 
BRANCH  46  47
ATOM     47  C   UNL A   1      43.222  24.866  27.310  1.00  0.00     0.031 A 
ATOM     48  C   UNL A   1      42.285  25.845  27.960  1.00  0.00     0.074 A 
ATOM     49  C   UNL A   1      44.461  25.251  26.952  1.00  0.00     0.049 A 
ATOM     50  N   UNL A   1      42.471  27.111  28.233  1.00  0.00    -0.248 NA
ATOM     51  C   UNL A   1      40.954  25.337  28.329  1.00  0.00     0.031 C 
ATOM     52  C   UNL A   1      45.452  24.405  26.286  1.00  0.00     0.029 A 
ATOM     53  N   UNL A   1      45.095  26.461  27.087  1.00  0.00    -0.354 N 
ATOM     54  C   UNL A   1      41.280  27.555  28.793  1.00  0.00     0.074 A 
ATOM     55  C   UNL A   1      40.361  26.436  28.774  1.00  0.00     0.031 C 
ATOM     56  C   UNL A   1      46.575  25.114  26.088  1.00  0.00     0.029 A 
ATOM     57  C   UNL A   1      46.369  26.475  26.574  1.00  0.00     0.049 A 
ATOM     58  H   UNL A   1      44.676  27.245  27.510  1.00  0.00     0.167 HD
ATOM     59  C   UNL A   1      40.986  28.776  29.299  1.00  0.00     0.037 A 
ATOM     60  C   UNL A   1      47.267  27.475  26.495  1.00  0.00     0.037 A 
ATOM     61  C   UNL A   1      41.908  29.881  29.331  1.00  0.00     0.049 A 
ATOM     62  C   UNL A   1      46.905  28.831  27.032  1.00  0.00     0.074 A 
ATOM     63  C   UNL A   1      41.722  31.144  29.866  1.00  0.00     0.029 A 
ATOM     64  N   UNL A   1      43.189  29.855  28.803  1.00  0.00    -0.354 N 
ATOM     65  N   UNL A   1      45.794  29.222  27.609  1.00  0.00    -0.248 NA
ATOM     66  C   UNL A   1      47.921  29.886  26.907  1.00  0.00     0.031 C 
ATOM     67  C   UNL A   1      42.877  31.896  29.624  1.00  0.00     0.029 A 
ATOM     68  C   UNL A   1      43.799  31.087  28.978  1.00  0.00     0.049 A 
ATOM     69  H   UNL A   1      43.605  29.077  28.369  1.00  0.00     0.167 HD
ATOM     70  C   UNL A   1      45.988  30.556  27.941  1.00  0.00     0.074 A 
ATOM     71  C   UNL A   1      47.326  30.905  27.509  1.00  0.00     0.031 C 
ATOM     72  C   UNL A   1      45.134  31.415  28.549  1.00  0.00     0.037 A 
BRANCH  59  73
ATOM     73  C   UNL A   1      39.607  28.977  29.858  1.00  0.00     0.057 A 
ATOM     74  C   UNL A   1      38.536  29.386  29.052  1.00  0.00     0.134 A 
ATOM     75  C   UNL A   1      39.340  28.736  31.212  1.00  0.00     0.134 A 
ATOM     76  F   UNL A   1      38.728  29.645  27.749  1.00  0.00    -0.206 F 
ATOM     77  C   UNL A   1      37.258  29.579  29.577  1.00  0.00     0.040 A 
ATOM     78  C   UNL A   1      38.059  28.899  31.743  1.00  0.00     0.040 A 
ATOM     79  F   UNL A   1      40.318  28.335  32.040  1.00  0.00    -0.206 F 
ATOM     80  C   UNL A   1      37.016  29.329  30.926  1.00  0.00     0.006 A 
ENDBRANCH  59  73
BRANCH  60  81
ATOM     81  C   UNL A   1      48.605  27.227  25.902  1.00  0.00     0.057 A 
ATOM     82  C   UNL A   1      48.818  27.379  24.526  1.00  0.00     0.134 A 
ATOM     83  C   UNL A   1      49.695  26.831  26.684  1.00  0.00     0.134 A 
ATOM     84  F   UNL A   1      47.806  27.738  23.723  1.00  0.00    -0.206 F 
ATOM     85  C   UNL A   1      50.064  27.132  23.948  1.00  0.00     0.040 A 
ATOM     86  C   UNL A   1      50.953  26.603  26.123  1.00  0.00     0.040 A 
ATOM     87  F   UNL A   1      49.558  26.674  28.009  1.00  0.00    -0.206 F 
ATOM     88  C   UNL A   1      51.137  26.747  24.748  1.00  0.00     0.006 A 
ENDBRANCH  60  81
BRANCH  72  89
ATOM     89  C   UNL A   1      45.633  32.806  28.815  1.00  0.00     0.057 A 
ATOM     90  C   UNL A   1      46.335  33.128  29.983  1.00  0.00     0.134 A 
ATOM     91  C   UNL A   1      45.444  33.822  27.870  1.00  0.00     0.134 A 
ATOM     92  F   UNL A   1      46.535  32.202  30.933  1.00  0.00    -0.206 F 
ATOM     93  C   UNL A   1      46.816  34.418  30.210  1.00  0.00     0.040 A 
ATOM     94  C   UNL A   1      45.942  35.109  28.075  1.00  0.00     0.040 A 
ATOM     95  F   UNL A   1      44.786  33.578  26.728  1.00  0.00    -0.206 F 
ATOM     96  C   UNL A   1      46.627  35.411  29.251  1.00  0.00     0.006 A 
ENDBRANCH  72  89
ENDBRANCH  46  47
ENDBRANCH  38  41
ENDBRANCH  36  37
ENDBRANCH  35  36
ENDBRANCH  34  35
ENDBRANCH  33  34
ENDBRANCH  32  33
ENDBRANCH  31  32
ENDBRANCH   3  31
TORSDOF 22
ENDMDL
MODEL 2
REMARK VINA RESULT:     -10.4      3.021      8.847
REMARK SMILES CCCCCCOC(=O)Nc1cccc(-c2ccc([C@@H](C)C(=O)NCCCCCCNC(=O)c3ccc(-c4c5nc(c(-c6c(F)cccc6F)c6ccc([nH]6)c(-c6c(F)cccc6F)c6nc(c(-c7c(F)cccc7F)c7ccc4[nH]7)C=C6)C=C5)cc3)cc2F)c1
REMARK SMILES IDX 22 1 23 2 24 3 20 5 21 6 19 7 16 8 17 9 89 10 18 11 88 12
REMARK SMILES IDX 90 13 15 14 11 15 12 16 91 17 13 18 14 19 10 20 8 21 9 22
REMARK SMILES IDX 7 24 6 25 5 26 4 27 3 28 2 29 1 30 25 31 26 32 27 33 28 34
REMARK SMILES IDX 29 35 30 36 31 37 32 38 33 40 34 41 35 42 87 43 36 44 86 45
REMARK SMILES IDX 37 46 38 47 39 48 80 49 40 50 85 51 79 52 81 53 41 54 84 55
REMARK SMILES IDX 78 56 77 57 42 59 68 60 51 61 67 62 52 63 55 64 66 65 82 66
REMARK SMILES IDX 53 67 54 68 65 70 83 71 56 72 43 73 44 74 49 75 45 76 46 77
REMARK SMILES IDX 48 78 50 79 47 80 69 81 70 82 75 83 71 84 72 85 74 86 76 87
REMARK SMILES IDX 73 88 57 89 58 90 63 91 59 92 60 93 62 94 64 95 61 96
REMARK H PARENT 24 4 10 23 31 39 81 58 55 69
REMARK Flexibility Score: inf
ROOT
ATOM      1  C   UNL A   1      35.766  31.619  29.893  1.00  0.00     0.227 C 
ATOM      2  O   UNL A   1      34.915  32.158  30.609  1.00  0.00    -0.274 OA
ATOM      3  N   UNL A   1      36.783  30.983  30.534  1.00  0.00    -0.356 N 
ATOM      4  H   UNL A   1      36.686  30.950  31.514  1.00  0.00     0.163 HD
ENDROOT
BRANCH   1   5
ATOM      5  C   UNL A   1      35.628  31.676  28.364  1.00  0.00     0.105 C 
ATOM      6  C   UNL A   1      35.557  33.095  27.799  1.00  0.00     0.023 C 
BRANCH   5   7
ATOM      7  C   UNL A   1      34.618  30.687  27.803  1.00  0.00    -0.033 A 
ATOM      8  C   UNL A   1      32.689  28.941  26.611  1.00  0.00     0.018 A 
ATOM      9  C   UNL A   1      33.978  28.497  26.936  1.00  0.00     0.012 A 
ATOM     10  C   UNL A   1      32.382  30.272  26.940  1.00  0.00     0.131 A 
ATOM     11  C   UNL A   1      34.911  29.344  27.549  1.00  0.00     0.005 A 
ATOM     12  C   UNL A   1      33.325  31.135  27.502  1.00  0.00     0.044 A 
ATOM     13  F   UNL A   1      31.150  30.761  26.727  1.00  0.00    -0.206 F 
BRANCH   8  14
ATOM     14  C   UNL A   1      31.717  28.046  25.948  1.00  0.00    -0.013 A 
ATOM     15  C   UNL A   1      30.396  25.983  25.955  1.00  0.00     0.045 A 
ATOM     16  C   UNL A   1      29.976  26.233  24.651  1.00  0.00     0.026 A 
ATOM     17  C   UNL A   1      31.244  26.894  26.596  1.00  0.00     0.035 A 
ATOM     18  C   UNL A   1      30.373  27.404  24.010  1.00  0.00     0.003 A 
ATOM     19  C   UNL A   1      31.243  28.293  24.648  1.00  0.00     0.009 A 
BRANCH  15  20
ATOM     20  N   UNL A   1      30.051  24.763  26.549  1.00  0.00    -0.291 N 
ATOM     21  C   UNL A   1      30.545  23.521  26.248  1.00  0.00     0.411 C 
ATOM     22  O   UNL A   1      29.899  22.512  26.467  1.00  0.00    -0.224 OA
ATOM     23  H   UNL A   1      29.377  24.802  27.266  1.00  0.00     0.173 HD
BRANCH  21  24
ATOM     24  O   UNL A   1      31.838  23.557  25.827  1.00  0.00    -0.449 OA
BRANCH  24  25
ATOM     25  C   UNL A   1      32.874  23.449  26.815  1.00  0.00     0.235 C 
BRANCH  25  26
ATOM     26  C   UNL A   1      34.257  23.767  26.237  1.00  0.00     0.042 C 
BRANCH  26  27
ATOM     27  C   UNL A   1      34.378  25.106  25.496  1.00  0.00     0.003 C 
BRANCH  27  28
ATOM     28  C   UNL A   1      34.527  24.993  23.973  1.00  0.00    -0.000 C 
BRANCH  28  29
ATOM     29  C   UNL A   1      33.476  25.750  23.164  1.00  0.00    -0.003 C 
ATOM     30  C   UNL A   1      32.607  24.827  22.325  1.00  0.00     0.004 C 
ENDBRANCH  28  29
ENDBRANCH  27  28
ENDBRANCH  26  27
ENDBRANCH  25  26
ENDBRANCH  24  25
ENDBRANCH  21  24
ENDBRANCH  15  20
ENDBRANCH   8  14
ENDBRANCH   5   7
ENDBRANCH   1   5
BRANCH   3  31
ATOM     31  C   UNL A   1      37.982  30.347  30.034  1.00  0.00     0.116 C 
BRANCH  31  32
ATOM     32  C   UNL A   1      37.782  28.844  29.833  1.00  0.00     0.021 C 
BRANCH  32  33
ATOM     33  C   UNL A   1      38.755  28.223  28.826  1.00  0.00     0.002 C 
BRANCH  33  34
ATOM     34  C   UNL A   1      39.175  26.779  29.134  1.00  0.00     0.002 C 
BRANCH  34  35
ATOM     35  C   UNL A   1      40.377  26.260  28.338  1.00  0.00     0.021 C 
BRANCH  35  36
ATOM     36  C   UNL A   1      40.014  25.514  27.057  1.00  0.00     0.116 C 
BRANCH  36  37
ATOM     37  N   UNL A   1      40.584  24.176  27.031  1.00  0.00    -0.352 N 
ATOM     38  C   UNL A   1      41.858  23.773  26.714  1.00  0.00     0.251 C 
ATOM     39  H   UNL A   1      39.965  23.451  27.277  1.00  0.00     0.163 HD
ATOM     40  O   UNL A   1      42.103  22.588  26.515  1.00  0.00    -0.269 OA
BRANCH  38  41
ATOM     41  C   UNL A   1      42.938  24.776  26.602  1.00  0.00     0.039 A 
ATOM     42  C   UNL A   1      43.210  25.346  25.355  1.00  0.00     0.014 A 
ATOM     43  C   UNL A   1      43.686  25.142  27.724  1.00  0.00     0.014 A 
ATOM     44  C   UNL A   1      44.189  26.336  25.248  1.00  0.00     0.010 A 
ATOM     45  C   UNL A   1      44.614  26.173  27.628  1.00  0.00     0.010 A 
ATOM     46  C   UNL A   1      44.873  26.782  26.391  1.00  0.00    -0.014 A 
BRANCH  46  47
ATOM     47  C   UNL A   1      45.853  27.895  26.322  1.00  0.00     0.031 A 
ATOM     48  C   UNL A   1      47.320  27.602  26.187  1.00  0.00     0.074 A 
ATOM     49  C   UNL A   1      45.427  29.164  26.461  1.00  0.00     0.049 A 
ATOM     50  N   UNL A   1      48.335  28.428  26.211  1.00  0.00    -0.248 NA
ATOM     51  C   UNL A   1      47.698  26.188  26.029  1.00  0.00     0.031 C 
ATOM     52  C   UNL A   1      44.032  29.576  26.632  1.00  0.00     0.029 A 
ATOM     53  N   UNL A   1      46.127  30.344  26.492  1.00  0.00    -0.354 N 
ATOM     54  C   UNL A   1      49.469  27.637  26.084  1.00  0.00     0.074 A 
ATOM     55  C   UNL A   1      49.021  26.261  26.035  1.00  0.00     0.031 C 
ATOM     56  C   UNL A   1      43.979  30.914  26.730  1.00  0.00     0.029 A 
ATOM     57  C   UNL A   1      45.334  31.450  26.672  1.00  0.00     0.049 A 
ATOM     58  H   UNL A   1      47.106  30.392  26.396  1.00  0.00     0.167 HD
ATOM     59  C   UNL A   1      50.764  28.022  25.992  1.00  0.00     0.037 A 
ATOM     60  C   UNL A   1      45.664  32.750  26.788  1.00  0.00     0.037 A 
ATOM     61  C   UNL A   1      51.204  29.392  26.025  1.00  0.00     0.049 A 
ATOM     62  C   UNL A   1      47.111  33.150  26.719  1.00  0.00     0.074 A 
ATOM     63  C   UNL A   1      52.489  29.889  25.891  1.00  0.00     0.029 A 
ATOM     64  N   UNL A   1      50.370  30.485  26.207  1.00  0.00    -0.354 N 
ATOM     65  N   UNL A   1      48.169  32.397  26.543  1.00  0.00    -0.248 NA
ATOM     66  C   UNL A   1      47.410  34.583  26.863  1.00  0.00     0.031 C 
ATOM     67  C   UNL A   1      52.437  31.280  26.035  1.00  0.00     0.029 A 
ATOM     68  C   UNL A   1      51.114  31.654  26.213  1.00  0.00     0.049 A 
ATOM     69  H   UNL A   1      49.393  30.437  26.316  1.00  0.00     0.167 HD
ATOM     70  C   UNL A   1      49.254  33.263  26.527  1.00  0.00     0.074 A 
ATOM     71  C   UNL A   1      48.725  34.600  26.701  1.00  0.00     0.031 C 
ATOM     72  C   UNL A   1      50.571  32.976  26.381  1.00  0.00     0.037 A 
BRANCH  59  73
ATOM     73  C   UNL A   1      51.797  26.941  25.849  1.00  0.00     0.057 A 
ATOM     74  C   UNL A   1      52.208  26.477  24.592  1.00  0.00     0.134 A 
ATOM     75  C   UNL A   1      52.403  26.374  26.977  1.00  0.00     0.134 A 
ATOM     76  F   UNL A   1      51.657  26.970  23.472  1.00  0.00    -0.206 F 
ATOM     77  C   UNL A   1      53.162  25.467  24.463  1.00  0.00     0.040 A 
ATOM     78  C   UNL A   1      53.380  25.383  26.859  1.00  0.00     0.040 A 
ATOM     79  F   UNL A   1      52.061  26.777  28.210  1.00  0.00    -0.206 F 
ATOM     80  C   UNL A   1      53.755  24.921  25.599  1.00  0.00     0.006 A 
ENDBRANCH  59  73
BRANCH  60  81
ATOM     81  C   UNL A   1      44.602  33.773  26.961  1.00  0.00     0.057 A 
ATOM     82  C   UNL A   1      44.207  34.187  28.240  1.00  0.00     0.134 A 
ATOM     83  C   UNL A   1      43.956  34.357  25.866  1.00  0.00     0.134 A 
ATOM     84  F   UNL A   1      44.777  33.649  29.328  1.00  0.00    -0.206 F 
ATOM     85  C   UNL A   1      43.198  35.133  28.422  1.00  0.00     0.040 A 
ATOM     86  C   UNL A   1      42.961  35.322  26.033  1.00  0.00     0.040 A 
ATOM     87  F   UNL A   1      44.293  34.009  24.615  1.00  0.00    -0.206 F 
ATOM     88  C   UNL A   1      42.575  35.707  27.316  1.00  0.00     0.006 A 
ENDBRANCH  60  81
BRANCH  72  89
ATOM     89  C   UNL A   1      51.528  34.133  26.368  1.00  0.00     0.057 A 
ATOM     90  C   UNL A   1      51.900  34.771  25.178  1.00  0.00     0.134 A 
ATOM     91  C   UNL A   1      52.047  34.639  27.566  1.00  0.00     0.134 A 
ATOM     92  F   UNL A   1      51.449  34.324  23.997  1.00  0.00    -0.206 F 
ATOM     93  C   UNL A   1      52.772  35.861  25.179  1.00  0.00     0.040 A 
ATOM     94  C   UNL A   1      52.899  35.744  27.581  1.00  0.00     0.040 A 
ATOM     95  F   UNL A   1      51.724  34.078  28.741  1.00  0.00    -0.206 F 
ATOM     96  C   UNL A   1      53.267  36.356  26.384  1.00  0.00     0.006 A 
ENDBRANCH  72  89
ENDBRANCH  46  47
ENDBRANCH  38  41
ENDBRANCH  36  37
ENDBRANCH  35  36
ENDBRANCH  34  35
ENDBRANCH  33  34
ENDBRANCH  32  33
ENDBRANCH  31  32
ENDBRANCH   3  31
TORSDOF 22
ENDMDL
MODEL 3
REMARK VINA RESULT:     -10.3      4.032      9.352
REMARK SMILES CCCCCCOC(=O)Nc1cccc(-c2ccc([C@@H](C)C(=O)NCCCCCCNC(=O)c3ccc(-c4c5nc(c(-c6c(F)cccc6F)c6ccc([nH]6)c(-c6c(F)cccc6F)c6nc(c(-c7c(F)cccc7F)c7ccc4[nH]7)C=C6)C=C5)cc3)cc2F)c1
REMARK SMILES IDX 22 1 23 2 24 3 20 5 21 6 19 7 16 8 17 9 89 10 18 11 88 12
REMARK SMILES IDX 90 13 15 14 11 15 12 16 91 17 13 18 14 19 10 20 8 21 9 22
REMARK SMILES IDX 7 24 6 25 5 26 4 27 3 28 2 29 1 30 25 31 26 32 27 33 28 34
REMARK SMILES IDX 29 35 30 36 31 37 32 38 33 40 34 41 35 42 87 43 36 44 86 45
REMARK SMILES IDX 37 46 38 47 39 48 80 49 40 50 85 51 79 52 81 53 41 54 84 55
REMARK SMILES IDX 78 56 77 57 42 59 68 60 51 61 67 62 52 63 55 64 66 65 82 66
REMARK SMILES IDX 53 67 54 68 65 70 83 71 56 72 43 73 44 74 49 75 45 76 46 77
REMARK SMILES IDX 48 78 50 79 47 80 69 81 70 82 75 83 71 84 72 85 74 86 76 87
REMARK SMILES IDX 73 88 57 89 58 90 63 91 59 92 60 93 62 94 64 95 61 96
REMARK H PARENT 24 4 10 23 31 39 81 58 55 69
REMARK Flexibility Score: inf
ROOT
ATOM      1  C   UNL A   1      42.103  21.283  26.540  1.00  0.00     0.227 C 
ATOM      2  O   UNL A   1      42.001  20.162  27.050  1.00  0.00    -0.274 OA
ATOM      3  N   UNL A   1      42.929  21.387  25.465  1.00  0.00    -0.356 N 
ATOM      4  H   UNL A   1      43.297  20.529  25.153  1.00  0.00     0.163 HD
ENDROOT
BRANCH   1   5
ATOM      5  C   UNL A   1      41.304  22.462  27.117  1.00  0.00     0.105 C 
ATOM      6  C   UNL A   1      41.335  22.546  28.643  1.00  0.00     0.023 C 
BRANCH   5   7
ATOM      7  C   UNL A   1      39.942  22.654  26.469  1.00  0.00    -0.033 A 
ATOM      8  C   UNL A   1      37.320  22.870  25.342  1.00  0.00     0.018 A 
ATOM      9  C   UNL A   1      37.931  23.952  25.990  1.00  0.00     0.012 A 
ATOM     10  C   UNL A   1      38.078  21.692  25.237  1.00  0.00     0.131 A 
ATOM     11  C   UNL A   1      39.227  23.855  26.513  1.00  0.00     0.005 A 
ATOM     12  C   UNL A   1      39.348  21.573  25.804  1.00  0.00     0.044 A 
ATOM     13  F   UNL A   1      37.598  20.628  24.573  1.00  0.00    -0.206 F 
BRANCH   8  14
ATOM     14  C   UNL A   1      35.945  22.976  24.808  1.00  0.00    -0.013 A 
ATOM     15  C   UNL A   1      33.523  22.915  25.175  1.00  0.00     0.045 A 
ATOM     16  C   UNL A   1      33.302  23.022  23.804  1.00  0.00     0.026 A 
ATOM     17  C   UNL A   1      34.835  22.910  25.665  1.00  0.00     0.035 A 
ATOM     18  C   UNL A   1      34.383  23.161  22.937  1.00  0.00     0.003 A 
ATOM     19  C   UNL A   1      35.689  23.126  23.434  1.00  0.00     0.009 A 
BRANCH  15  20
ATOM     20  N   UNL A   1      32.428  22.694  26.018  1.00  0.00    -0.291 N 
ATOM     21  C   UNL A   1      31.581  23.633  26.544  1.00  0.00     0.411 C 
ATOM     22  O   UNL A   1      30.974  23.429  27.580  1.00  0.00    -0.224 OA
ATOM     23  H   UNL A   1      32.245  21.757  26.260  1.00  0.00     0.173 HD
BRANCH  21  24
ATOM     24  O   UNL A   1      31.409  24.705  25.725  1.00  0.00    -0.449 OA
BRANCH  24  25
ATOM     25  C   UNL A   1      31.793  25.999  26.215  1.00  0.00     0.235 C 
BRANCH  25  26
ATOM     26  C   UNL A   1      33.301  26.239  26.090  1.00  0.00     0.042 C 
BRANCH  26  27
ATOM     27  C   UNL A   1      33.788  26.715  24.715  1.00  0.00     0.003 C 
BRANCH  27  28
ATOM     28  C   UNL A   1      32.680  27.175  23.758  1.00  0.00    -0.000 C 
BRANCH  28  29
ATOM     29  C   UNL A   1      32.608  28.684  23.532  1.00  0.00    -0.003 C 
ATOM     30  C   UNL A   1      32.307  29.454  24.808  1.00  0.00     0.004 C 
ENDBRANCH  28  29
ENDBRANCH  27  28
ENDBRANCH  26  27
ENDBRANCH  25  26
ENDBRANCH  24  25
ENDBRANCH  21  24
ENDBRANCH  15  20
ENDBRANCH   8  14
ENDBRANCH   5   7
ENDBRANCH   1   5
BRANCH   3  31
ATOM     31  C   UNL A   1      43.362  22.534  24.697  1.00  0.00     0.116 C 
BRANCH  31  32
ATOM     32  C   UNL A   1      44.886  22.584  24.570  1.00  0.00     0.021 C 
BRANCH  32  33
ATOM     33  C   UNL A   1      45.624  22.247  25.869  1.00  0.00     0.002 C 
BRANCH  33  34
ATOM     34  C   UNL A   1      45.576  23.338  26.947  1.00  0.00     0.002 C 
BRANCH  34  35
ATOM     35  C   UNL A   1      46.007  24.736  26.487  1.00  0.00     0.021 C 
BRANCH  35  36
ATOM     36  C   UNL A   1      44.950  25.820  26.678  1.00  0.00     0.116 C 
BRANCH  36  37
ATOM     37  N   UNL A   1      43.886  25.716  25.692  1.00  0.00    -0.352 N 
ATOM     38  C   UNL A   1      42.562  26.067  25.792  1.00  0.00     0.251 C 
ATOM     39  H   UNL A   1      44.154  25.339  24.823  1.00  0.00     0.163 HD
ATOM     40  O   UNL A   1      41.755  25.694  24.948  1.00  0.00    -0.269 OA
BRANCH  38  41
ATOM     41  C   UNL A   1      42.106  26.890  26.932  1.00  0.00     0.039 A 
ATOM     42  C   UNL A   1      41.390  26.283  27.967  1.00  0.00     0.014 A 
ATOM     43  C   UNL A   1      42.375  28.261  26.969  1.00  0.00     0.014 A 
ATOM     44  C   UNL A   1      41.004  27.039  29.076  1.00  0.00     0.010 A 
ATOM     45  C   UNL A   1      42.048  28.998  28.103  1.00  0.00     0.010 A 
ATOM     46  C   UNL A   1      41.362  28.394  29.168  1.00  0.00    -0.014 A 
BRANCH  46  47
ATOM     47  C   UNL A   1      41.044  29.198  30.374  1.00  0.00     0.031 A 
ATOM     48  C   UNL A   1      39.886  30.156  30.359  1.00  0.00     0.074 A 
ATOM     49  C   UNL A   1      41.847  29.124  31.452  1.00  0.00     0.049 A 
ATOM     50  N   UNL A   1      39.511  31.015  31.273  1.00  0.00    -0.248 NA
ATOM     51  C   UNL A   1      39.054  30.165  29.145  1.00  0.00     0.031 C 
ATOM     52  C   UNL A   1      43.021  28.258  31.576  1.00  0.00     0.029 A 
ATOM     53  N   UNL A   1      41.804  29.797  32.647  1.00  0.00    -0.354 N 
ATOM     54  C   UNL A   1      38.410  31.674  30.742  1.00  0.00     0.074 A 
ATOM     55  C   UNL A   1      38.209  31.153  29.406  1.00  0.00     0.031 C 
ATOM     56  C   UNL A   1      43.574  28.439  32.786  1.00  0.00     0.029 A 
ATOM     57  C   UNL A   1      42.821  29.461  33.505  1.00  0.00     0.049 A 
ATOM     58  H   UNL A   1      41.109  30.460  32.867  1.00  0.00     0.167 HD
ATOM     59  C   UNL A   1      37.625  32.611  31.322  1.00  0.00     0.037 A 
ATOM     60  C   UNL A   1      43.120  29.931  34.731  1.00  0.00     0.037 A 
ATOM     61  C   UNL A   1      37.818  33.116  32.656  1.00  0.00     0.049 A 
ATOM     62  C   UNL A   1      42.253  30.997  35.340  1.00  0.00     0.074 A 
ATOM     63  C   UNL A   1      37.047  34.031  33.353  1.00  0.00     0.029 A 
ATOM     64  N   UNL A   1      38.859  32.749  33.495  1.00  0.00    -0.354 N 
ATOM     65  N   UNL A   1      41.182  31.573  34.849  1.00  0.00    -0.248 NA
ATOM     66  C   UNL A   1      42.636  31.479  36.675  1.00  0.00     0.031 C 
ATOM     67  C   UNL A   1      37.647  34.249  34.598  1.00  0.00     0.029 A 
ATOM     68  C   UNL A   1      38.766  33.436  34.695  1.00  0.00     0.049 A 
ATOM     69  H   UNL A   1      39.561  32.097  33.272  1.00  0.00     0.167 HD
ATOM     70  C   UNL A   1      40.747  32.462  35.823  1.00  0.00     0.074 A 
ATOM     71  C   UNL A   1      41.665  32.343  36.937  1.00  0.00     0.031 C 
ATOM     72  C   UNL A   1      39.683  33.301  35.796  1.00  0.00     0.037 A 
BRANCH  59  73
ATOM     73  C   UNL A   1      36.482  33.151  30.511  1.00  0.00     0.057 A 
ATOM     74  C   UNL A   1      35.154  32.789  30.774  1.00  0.00     0.134 A 
ATOM     75  C   UNL A   1      36.708  34.061  29.470  1.00  0.00     0.134 A 
ATOM     76  F   UNL A   1      34.870  31.912  31.750  1.00  0.00    -0.206 F 
ATOM     77  C   UNL A   1      34.096  33.287  30.014  1.00  0.00     0.040 A 
ATOM     78  C   UNL A   1      35.655  34.588  28.720  1.00  0.00     0.040 A 
ATOM     79  F   UNL A   1      37.954  34.457  29.168  1.00  0.00    -0.206 F 
ATOM     80  C   UNL A   1      34.345  34.194  28.986  1.00  0.00     0.006 A 
ENDBRANCH  59  73
BRANCH  60  81
ATOM     81  C   UNL A   1      44.282  29.383  35.474  1.00  0.00     0.057 A 
ATOM     82  C   UNL A   1      44.124  28.313  36.364  1.00  0.00     0.134 A 
ATOM     83  C   UNL A   1      45.568  29.910  35.321  1.00  0.00     0.134 A 
ATOM     84  F   UNL A   1      42.911  27.778  36.566  1.00  0.00    -0.206 F 
ATOM     85  C   UNL A   1      45.201  27.798  37.085  1.00  0.00     0.040 A 
ATOM     86  C   UNL A   1      46.660  29.390  36.019  1.00  0.00     0.040 A 
ATOM     87  F   UNL A   1      45.787  30.932  34.480  1.00  0.00    -0.206 F 
ATOM     88  C   UNL A   1      46.475  28.333  36.910  1.00  0.00     0.006 A 
ENDBRANCH  60  81
BRANCH  72  89
ATOM     89  C   UNL A   1      39.433  34.131  37.022  1.00  0.00     0.057 A 
ATOM     90  C   UNL A   1      38.751  33.621  38.133  1.00  0.00     0.134 A 
ATOM     91  C   UNL A   1      39.920  35.442  37.104  1.00  0.00     0.134 A 
ATOM     92  F   UNL A   1      38.247  32.378  38.110  1.00  0.00    -0.206 F 
ATOM     93  C   UNL A   1      38.545  34.393  39.277  1.00  0.00     0.040 A 
ATOM     94  C   UNL A   1      39.742  36.214  38.252  1.00  0.00     0.040 A 
ATOM     95  F   UNL A   1      40.588  35.987  36.077  1.00  0.00    -0.206 F 
ATOM     96  C   UNL A   1      39.048  35.691  39.342  1.00  0.00     0.006 A 
ENDBRANCH  72  89
ENDBRANCH  46  47
ENDBRANCH  38  41
ENDBRANCH  36  37
ENDBRANCH  35  36
ENDBRANCH  34  35
ENDBRANCH  33  34
ENDBRANCH  32  33
ENDBRANCH  31  32
ENDBRANCH   3  31
TORSDOF 22
ENDMDL
