MODEL 1
REMARK VINA RESULT:     -12.6      0.000      0.000
REMARK SMILES CCc1cc(S(F)(F)(F)(F)F)cc2c1O[C@@H](C(F)(F)F)C(C(=O)NCCCCCCNC(=O)c1ccc(-c3c4nc(c(-c5c(F)cccc5F)c5ccc([nH]5)c(-c5c(F)cccc5F)c5nc(c(-c6c(F)cccc6F)c6ccc3[nH]6)C=C5)C=C4)cc1)=C2
REMARK SMILES IDX 28 1 27 2 26 3 25 4 24 5 22 6 23 7 21 9 3 10 4 11 14 12 5 13
REMARK SMILES IDX 13 14 15 15 12 16 88 17 16 18 2 19 1 20 6 21 7 22 8 23 9 24
REMARK SMILES IDX 10 25 11 26 17 27 18 28 19 29 20 30 29 31 30 32 31 33 32 34
REMARK SMILES IDX 33 36 34 37 35 38 87 39 36 40 86 41 37 42 38 43 39 44 80 45
REMARK SMILES IDX 40 46 85 47 79 48 81 49 41 50 84 51 78 52 77 53 42 55 68 56
REMARK SMILES IDX 51 57 67 58 52 59 55 60 66 61 82 62 53 63 54 64 65 66 83 67
REMARK SMILES IDX 56 68 43 69 44 70 49 71 45 72 46 73 48 74 50 75 47 76 69 77
REMARK SMILES IDX 70 78 75 79 71 80 72 81 74 82 76 83 73 84 57 85 58 86 63 87
REMARK SMILES IDX 59 88 60 89 62 90 64 91 61 92
REMARK H PARENT 24 8 31 35 81 54 55 65
REMARK Flexibility Score: inf
ROOT
ATOM      1  C   UNL A   1      31.944  27.657  27.141  1.00  0.00     0.002 C 
ENDROOT
BRANCH   1   2
ATOM      2  C   UNL A   1      31.044  26.704  26.372  1.00  0.00     0.002 C 
BRANCH   2   3
ATOM      3  C   UNL A   1      31.378  25.271  26.755  1.00  0.00     0.021 C 
BRANCH   3   4
ATOM      4  C   UNL A   1      30.535  24.316  25.927  1.00  0.00     0.116 C 
BRANCH   4   5
ATOM      5  N   UNL A   1      30.523  24.762  24.526  1.00  0.00    -0.352 N 
ATOM      6  C   UNL A   1      31.465  24.176  23.561  1.00  0.00     0.251 C 
ATOM      7  O   UNL A   1      31.455  24.561  22.349  1.00  0.00    -0.270 OA
ATOM      8  H   UNL A   1      29.885  25.452  24.234  1.00  0.00     0.163 HD
BRANCH   6   9
ATOM      9  C   UNL A   1      32.451  23.110  24.011  1.00  0.00     0.067 C 
ATOM     10  C   UNL A   1      35.414  20.277  24.814  1.00  0.00    -0.004 A 
ATOM     11  C   UNL A   1      35.097  18.932  24.825  1.00  0.00     0.032 A 
ATOM     12  C   UNL A   1      34.432  21.184  24.495  1.00  0.00     0.131 A 
ATOM     13  C   UNL A   1      33.832  18.503  24.520  1.00  0.00     0.108 A 
ATOM     14  C   UNL A   1      33.140  20.790  24.198  1.00  0.00     0.019 A 
ATOM     15  O   UNL A   1      34.789  22.505  24.377  1.00  0.00    -0.475 OA
ATOM     16  C   UNL A   1      32.855  19.429  24.214  1.00  0.00     0.036 A 
ATOM     17  C   UNL A   1      32.184  21.822  23.836  1.00  0.00     0.025 C 
ATOM     18  C   UNL A   1      33.766  23.497  24.674  1.00  0.00     0.314 C 
BRANCH  10  19
ATOM     19  C   UNL A   1      36.822  20.828  24.969  1.00  0.00     0.036 C 
ATOM     20  C   UNL A   1      37.820  19.681  24.959  1.00  0.00     0.009 C 
ENDBRANCH  10  19
BRANCH  13  21
ATOM     21  S   UNL A   1      33.444  16.735  24.516  1.00  0.00     0.310 S 
ATOM     22  F   UNL A   1      34.925  16.357  24.941  1.00  0.00    -0.094 F 
ATOM     23  F   UNL A   1      33.929  16.660  23.018  1.00  0.00    -0.094 F 
ATOM     24  F   UNL A   1      33.121  15.214  24.516  1.00  0.00    -0.094 F 
ATOM     25  F   UNL A   1      33.096  16.801  26.055  1.00  0.00    -0.094 F 
ATOM     26  F   UNL A   1      33.874  18.256  24.563  1.00  0.00    -0.094 F 
ENDBRANCH  13  21
BRANCH  18  27
ATOM     27  C   UNL A   1      34.214  24.848  24.137  1.00  0.00     0.429 C 
ATOM     28  F   UNL A   1      35.325  25.225  24.761  1.00  0.00    -0.167 F 
ATOM     29  F   UNL A   1      34.450  24.749  22.831  1.00  0.00    -0.167 F 
ATOM     30  F   UNL A   1      33.258  25.748  24.348  1.00  0.00    -0.167 F 
ENDBRANCH  18  27
ENDBRANCH   6   9
ENDBRANCH   4   5
ENDBRANCH   3   4
ENDBRANCH   2   3
ENDBRANCH   1   2
BRANCH   1  31
ATOM     31  C   UNL A   1      33.099  28.089  26.253  1.00  0.00     0.021 C 
BRANCH  31  32
ATOM     32  C   UNL A   1      34.192  28.709  27.108  1.00  0.00     0.116 C 
BRANCH  32  33
ATOM     33  N   UNL A   1      33.708  29.974  27.681  1.00  0.00    -0.352 N 
ATOM     34  C   UNL A   1      34.622  30.828  28.452  1.00  0.00     0.251 C 
ATOM     35  H   UNL A   1      32.773  30.247  27.547  1.00  0.00     0.163 HD
ATOM     36  O   UNL A   1      34.204  31.922  28.947  1.00  0.00    -0.269 OA
BRANCH  34  37
ATOM     37  C   UNL A   1      36.067  30.404  28.658  1.00  0.00     0.039 A 
ATOM     38  C   UNL A   1      36.968  30.572  27.620  1.00  0.00     0.014 A 
ATOM     39  C   UNL A   1      36.429  29.827  29.799  1.00  0.00     0.014 A 
ATOM     40  C   UNL A   1      38.164  29.832  27.774  1.00  0.00     0.010 A 
ATOM     41  C   UNL A   1      37.665  29.242  29.925  1.00  0.00     0.010 A 
ATOM     42  C   UNL A   1      38.585  29.318  28.916  1.00  0.00    -0.014 A 
BRANCH  42  43
ATOM     43  C   UNL A   1      40.015  28.837  29.099  1.00  0.00     0.031 A 
ATOM     44  C   UNL A   1      40.336  27.535  28.706  1.00  0.00     0.074 A 
ATOM     45  C   UNL A   1      40.933  29.740  29.606  1.00  0.00     0.049 A 
ATOM     46  N   UNL A   1      41.537  26.956  28.713  1.00  0.00    -0.248 NA
ATOM     47  C   UNL A   1      39.356  26.563  28.199  1.00  0.00     0.031 C 
ATOM     48  C   UNL A   1      40.620  31.057  29.995  1.00  0.00     0.029 A 
ATOM     49  N   UNL A   1      42.280  29.545  29.824  1.00  0.00    -0.354 N 
ATOM     50  C   UNL A   1      41.449  25.708  28.248  1.00  0.00     0.074 A 
ATOM     51  C   UNL A   1      40.044  25.435  27.917  1.00  0.00     0.031 C 
ATOM     52  C   UNL A   1      41.759  31.643  30.452  1.00  0.00     0.029 A 
ATOM     53  C   UNL A   1      42.802  30.704  30.355  1.00  0.00     0.049 A 
ATOM     54  H   UNL A   1      42.782  28.720  29.632  1.00  0.00     0.167 HD
ATOM     55  C   UNL A   1      42.486  24.788  28.085  1.00  0.00     0.037 A 
ATOM     56  C   UNL A   1      44.111  30.946  30.742  1.00  0.00     0.037 A 
ATOM     57  C   UNL A   1      43.803  25.045  28.432  1.00  0.00     0.049 A 
ATOM     58  C   UNL A   1      45.138  30.004  30.634  1.00  0.00     0.074 A 
ATOM     59  C   UNL A   1      44.862  24.131  28.267  1.00  0.00     0.029 A 
ATOM     60  N   UNL A   1      44.320  26.195  28.987  1.00  0.00    -0.354 N 
ATOM     61  N   UNL A   1      45.057  28.771  30.131  1.00  0.00    -0.248 NA
ATOM     62  C   UNL A   1      46.520  30.238  31.069  1.00  0.00     0.031 C 
ATOM     63  C   UNL A   1      46.000  24.717  28.725  1.00  0.00     0.029 A 
ATOM     64  C   UNL A   1      45.670  26.008  29.183  1.00  0.00     0.049 A 
ATOM     65  H   UNL A   1      43.813  27.010  29.204  1.00  0.00     0.167 HD
ATOM     66  C   UNL A   1      46.251  28.177  30.177  1.00  0.00     0.074 A 
ATOM     67  C   UNL A   1      47.208  29.110  30.788  1.00  0.00     0.031 C 
ATOM     68  C   UNL A   1      46.582  26.897  29.732  1.00  0.00     0.037 A 
BRANCH  55  69
ATOM     69  C   UNL A   1      42.152  23.428  27.495  1.00  0.00     0.057 A 
ATOM     70  C   UNL A   1      42.186  23.235  26.124  1.00  0.00     0.134 A 
ATOM     71  C   UNL A   1      41.844  22.436  28.323  1.00  0.00     0.134 A 
ATOM     72  F   UNL A   1      42.727  24.109  25.281  1.00  0.00    -0.206 F 
ATOM     73  C   UNL A   1      41.594  22.021  25.701  1.00  0.00     0.040 A 
ATOM     74  C   UNL A   1      41.401  21.231  27.836  1.00  0.00     0.040 A 
ATOM     75  F   UNL A   1      41.966  22.613  29.636  1.00  0.00    -0.206 F 
ATOM     76  C   UNL A   1      41.352  20.990  26.491  1.00  0.00     0.006 A 
ENDBRANCH  55  69
BRANCH  56  77
ATOM     77  C   UNL A   1      44.447  32.312  31.317  1.00  0.00     0.057 A 
ATOM     78  C   UNL A   1      44.363  32.534  32.681  1.00  0.00     0.134 A 
ATOM     79  C   UNL A   1      44.804  33.281  30.481  1.00  0.00     0.134 A 
ATOM     80  F   UNL A   1      44.261  31.551  33.571  1.00  0.00    -0.206 F 
ATOM     81  C   UNL A   1      44.396  33.902  33.042  1.00  0.00     0.040 A 
ATOM     82  C   UNL A   1      44.951  34.571  30.930  1.00  0.00     0.040 A 
ATOM     83  F   UNL A   1      45.021  32.998  29.200  1.00  0.00    -0.206 F 
ATOM     84  C   UNL A   1      44.824  34.873  32.257  1.00  0.00     0.006 A 
ENDBRANCH  56  77
BRANCH  68  85
ATOM     85  C   UNL A   1      48.030  26.450  29.854  1.00  0.00     0.057 A 
ATOM     86  C   UNL A   1      48.879  26.610  28.772  1.00  0.00     0.134 A 
ATOM     87  C   UNL A   1      48.447  25.881  30.979  1.00  0.00     0.134 A 
ATOM     88  F   UNL A   1      48.592  27.388  27.733  1.00  0.00    -0.206 F 
ATOM     89  C   UNL A   1      50.082  25.872  28.874  1.00  0.00     0.040 A 
ATOM     90  C   UNL A   1      49.689  25.297  31.049  1.00  0.00     0.040 A 
ATOM     91  F   UNL A   1      47.655  25.877  32.049  1.00  0.00    -0.206 F 
ATOM     92  C   UNL A   1      50.558  25.366  29.996  1.00  0.00     0.006 A 
ENDBRANCH  68  85
ENDBRANCH  42  43
ENDBRANCH  34  37
ENDBRANCH  32  33
ENDBRANCH  31  32
ENDBRANCH   1  31
TORSDOF 16
ENDMDL
MODEL 2
REMARK VINA RESULT:     -12.4      3.255      6.591
REMARK SMILES CCc1cc(S(F)(F)(F)(F)F)cc2c1O[C@@H](C(F)(F)F)C(C(=O)NCCCCCCNC(=O)c1ccc(-c3c4nc(c(-c5c(F)cccc5F)c5ccc([nH]5)c(-c5c(F)cccc5F)c5nc(c(-c6c(F)cccc6F)c6ccc3[nH]6)C=C5)C=C4)cc1)=C2
REMARK SMILES IDX 28 1 27 2 26 3 25 4 24 5 22 6 23 7 21 9 3 10 4 11 14 12 5 13
REMARK SMILES IDX 13 14 15 15 12 16 88 17 16 18 2 19 1 20 6 21 7 22 8 23 9 24
REMARK SMILES IDX 10 25 11 26 17 27 18 28 19 29 20 30 29 31 30 32 31 33 32 34
REMARK SMILES IDX 33 36 34 37 35 38 87 39 36 40 86 41 37 42 38 43 39 44 80 45
REMARK SMILES IDX 40 46 85 47 79 48 81 49 41 50 84 51 78 52 77 53 42 55 68 56
REMARK SMILES IDX 51 57 67 58 52 59 55 60 66 61 82 62 53 63 54 64 65 66 83 67
REMARK SMILES IDX 56 68 43 69 44 70 49 71 45 72 46 73 48 74 50 75 47 76 69 77
REMARK SMILES IDX 70 78 75 79 71 80 72 81 74 82 76 83 73 84 57 85 58 86 63 87
REMARK SMILES IDX 59 88 60 89 62 90 64 91 61 92
REMARK H PARENT 24 8 31 35 81 54 55 65
REMARK Flexibility Score: inf
ROOT
ATOM      1  C   UNL A   1      31.453  28.524  23.706  1.00  0.00     0.002 C 
ENDROOT
BRANCH   1   2
ATOM      2  C   UNL A   1      30.386  27.488  23.392  1.00  0.00     0.002 C 
BRANCH   2   3
ATOM      3  C   UNL A   1      30.996  26.365  22.569  1.00  0.00     0.021 C 
BRANCH   3   4
ATOM      4  C   UNL A   1      30.727  25.034  23.251  1.00  0.00     0.116 C 
BRANCH   4   5
ATOM      5  N   UNL A   1      30.050  25.269  24.534  1.00  0.00    -0.352 N 
ATOM      6  C   UNL A   1      30.502  24.565  25.743  1.00  0.00     0.251 C 
ATOM      7  O   UNL A   1      29.917  24.767  26.853  1.00  0.00    -0.270 OA
ATOM      8  H   UNL A   1      29.294  25.897  24.585  1.00  0.00     0.163 HD
BRANCH   6   9
ATOM      9  C   UNL A   1      31.669  23.594  25.665  1.00  0.00     0.067 C 
ATOM     10  C   UNL A   1      35.009  21.168  25.019  1.00  0.00    -0.004 A 
ATOM     11  C   UNL A   1      34.840  19.831  24.713  1.00  0.00     0.032 A 
ATOM     12  C   UNL A   1      33.893  21.955  25.174  1.00  0.00     0.131 A 
ATOM     13  C   UNL A   1      33.589  19.294  24.561  1.00  0.00     0.108 A 
ATOM     14  C   UNL A   1      32.614  21.444  25.045  1.00  0.00     0.019 A 
ATOM     15  O   UNL A   1      34.076  23.302  25.366  1.00  0.00    -0.475 OA
ATOM     16  C   UNL A   1      32.480  20.097  24.733  1.00  0.00     0.036 A 
ATOM     17  C   UNL A   1      31.500  22.366  25.190  1.00  0.00     0.025 C 
ATOM     18  C   UNL A   1      33.058  24.008  26.130  1.00  0.00     0.314 C 
BRANCH  10  19
ATOM     19  C   UNL A   1      36.350  21.882  25.037  1.00  0.00     0.036 C 
ATOM     20  C   UNL A   1      36.631  22.469  23.662  1.00  0.00     0.009 C 
ENDBRANCH  10  19
BRANCH  13  21
ATOM     21  S   UNL A   1      33.392  17.546  24.136  1.00  0.00     0.310 S 
ATOM     22  F   UNL A   1      34.957  17.359  23.958  1.00  0.00    -0.094 F 
ATOM     23  F   UNL A   1      33.338  17.951  22.613  1.00  0.00    -0.094 F 
ATOM     24  F   UNL A   1      33.233  16.042  23.770  1.00  0.00    -0.094 F 
ATOM     25  F   UNL A   1      33.589  17.148  25.651  1.00  0.00    -0.094 F 
ATOM     26  F   UNL A   1      33.667  19.056  24.511  1.00  0.00    -0.094 F 
ENDBRANCH  13  21
BRANCH  18  27
ATOM     27  C   UNL A   1      33.227  25.505  25.918  1.00  0.00     0.429 C 
ATOM     28  F   UNL A   1      34.440  25.874  26.319  1.00  0.00    -0.167 F 
ATOM     29  F   UNL A   1      33.081  25.788  24.627  1.00  0.00    -0.167 F 
ATOM     30  F   UNL A   1      32.308  26.159  26.622  1.00  0.00    -0.167 F 
ENDBRANCH  18  27
ENDBRANCH   6   9
ENDBRANCH   4   5
ENDBRANCH   3   4
ENDBRANCH   2   3
ENDBRANCH   1   2
BRANCH   1  31
ATOM     31  C   UNL A   1      31.468  28.798  25.201  1.00  0.00     0.021 C 
BRANCH  31  32
ATOM     32  C   UNL A   1      32.473  29.897  25.504  1.00  0.00     0.116 C 
BRANCH  32  33
ATOM     33  N   UNL A   1      31.758  31.128  25.871  1.00  0.00    -0.352 N 
ATOM     34  C   UNL A   1      32.335  32.046  26.863  1.00  0.00     0.251 C 
ATOM     35  H   UNL A   1      30.893  31.337  25.452  1.00  0.00     0.163 HD
ATOM     36  O   UNL A   1      31.717  33.109  27.180  1.00  0.00    -0.269 OA
BRANCH  34  37
ATOM     37  C   UNL A   1      33.671  31.722  27.511  1.00  0.00     0.039 A 
ATOM     38  C   UNL A   1      33.945  30.409  27.859  1.00  0.00     0.014 A 
ATOM     39  C   UNL A   1      34.525  32.701  27.789  1.00  0.00     0.014 A 
ATOM     40  C   UNL A   1      35.025  30.270  28.763  1.00  0.00     0.010 A 
ATOM     41  C   UNL A   1      35.633  32.463  28.565  1.00  0.00     0.010 A 
ATOM     42  C   UNL A   1      35.934  31.200  28.994  1.00  0.00    -0.014 A 
BRANCH  42  43
ATOM     43  C   UNL A   1      37.243  30.884  29.699  1.00  0.00     0.031 A 
ATOM     44  C   UNL A   1      37.429  31.354  31.000  1.00  0.00     0.074 A 
ATOM     45  C   UNL A   1      38.162  30.105  29.018  1.00  0.00     0.049 A 
ATOM     46  N   UNL A   1      38.463  31.122  31.809  1.00  0.00    -0.248 NA
ATOM     47  C   UNL A   1      36.468  32.210  31.713  1.00  0.00     0.031 C 
ATOM     48  C   UNL A   1      37.979  29.620  27.709  1.00  0.00     0.029 A 
ATOM     49  N   UNL A   1      39.390  29.664  29.463  1.00  0.00    -0.354 N 
ATOM     50  C   UNL A   1      38.274  31.724  32.985  1.00  0.00     0.074 A 
ATOM     51  C   UNL A   1      36.991  32.439  32.937  1.00  0.00     0.031 C 
ATOM     52  C   UNL A   1      39.084  28.908  27.365  1.00  0.00     0.029 A 
ATOM     53  C   UNL A   1      39.976  28.934  28.452  1.00  0.00     0.049 A 
ATOM     54  H   UNL A   1      39.780  29.840  30.349  1.00  0.00     0.167 HD
ATOM     55  C   UNL A   1      39.119  31.705  34.095  1.00  0.00     0.037 A 
ATOM     56  C   UNL A   1      41.219  28.321  28.460  1.00  0.00     0.037 A 
ATOM     57  C   UNL A   1      40.343  31.055  34.118  1.00  0.00     0.049 A 
ATOM     58  C   UNL A   1      42.092  28.350  29.551  1.00  0.00     0.074 A 
ATOM     59  C   UNL A   1      41.205  31.019  35.231  1.00  0.00     0.029 A 
ATOM     60  N   UNL A   1      40.941  30.346  33.098  1.00  0.00    -0.354 N 
ATOM     61  N   UNL A   1      41.884  28.919  30.739  1.00  0.00    -0.248 NA
ATOM     62  C   UNL A   1      43.423  27.732  29.559  1.00  0.00     0.031 C 
ATOM     63  C   UNL A   1      42.310  30.307  34.886  1.00  0.00     0.029 A 
ATOM     64  C   UNL A   1      42.158  29.886  33.550  1.00  0.00     0.049 A 
ATOM     65  H   UNL A   1      40.563  30.194  32.203  1.00  0.00     0.167 HD
ATOM     66  C   UNL A   1      42.938  28.723  31.534  1.00  0.00     0.074 A 
ATOM     67  C   UNL A   1      43.947  27.961  30.783  1.00  0.00     0.031 C 
ATOM     68  C   UNL A   1      43.099  29.142  32.854  1.00  0.00     0.037 A 
BRANCH  55  69
ATOM     69  C   UNL A   1      38.674  32.438  35.350  1.00  0.00     0.057 A 
ATOM     70  C   UNL A   1      38.833  33.809  35.451  1.00  0.00     0.134 A 
ATOM     71  C   UNL A   1      38.119  31.734  36.330  1.00  0.00     0.134 A 
ATOM     72  F   UNL A   1      39.142  34.583  34.414  1.00  0.00    -0.206 F 
ATOM     73  C   UNL A   1      38.636  34.314  36.758  1.00  0.00     0.040 A 
ATOM     74  C   UNL A   1      37.829  32.324  37.536  1.00  0.00     0.040 A 
ATOM     75  F   UNL A   1      37.844  30.446  36.142  1.00  0.00    -0.206 F 
ATOM     76  C   UNL A   1      38.017  33.665  37.727  1.00  0.00     0.006 A 
ENDBRANCH  55  69
BRANCH  56  77
ATOM     77  C   UNL A   1      41.657  27.574  27.211  1.00  0.00     0.057 A 
ATOM     78  C   UNL A   1      41.417  26.216  27.091  1.00  0.00     0.134 A 
ATOM     79  C   UNL A   1      42.286  28.250  26.256  1.00  0.00     0.134 A 
ATOM     80  F   UNL A   1      40.582  25.554  27.887  1.00  0.00    -0.206 F 
ATOM     81  C   UNL A   1      42.139  25.596  26.044  1.00  0.00     0.040 A 
ATOM     82  C   UNL A   1      42.851  27.592  25.190  1.00  0.00     0.040 A 
ATOM     83  F   UNL A   1      42.368  29.575  26.332  1.00  0.00    -0.206 F 
ATOM     84  C   UNL A   1      42.703  26.241  25.039  1.00  0.00     0.006 A 
ENDBRANCH  56  77
BRANCH  68  85
ATOM     85  C   UNL A   1      44.382  28.761  33.575  1.00  0.00     0.057 A 
ATOM     86  C   UNL A   1      44.441  27.558  34.258  1.00  0.00     0.134 A 
ATOM     87  C   UNL A   1      45.410  29.601  33.568  1.00  0.00     0.134 A 
ATOM     88  F   UNL A   1      43.551  26.584  34.090  1.00  0.00    -0.206 F 
ATOM     89  C   UNL A   1      45.534  27.459  35.151  1.00  0.00     0.040 A 
ATOM     90  C   UNL A   1      46.506  29.371  34.365  1.00  0.00     0.040 A 
ATOM     91  F   UNL A   1      45.380  30.675  32.783  1.00  0.00    -0.206 F 
ATOM     92  C   UNL A   1      46.604  28.231  35.113  1.00  0.00     0.006 A 
ENDBRANCH  68  85
ENDBRANCH  42  43
ENDBRANCH  34  37
ENDBRANCH  32  33
ENDBRANCH  31  32
ENDBRANCH   1  31
TORSDOF 16
ENDMDL
MODEL 3
REMARK VINA RESULT:     -12.3      1.970      2.592
REMARK SMILES CCc1cc(S(F)(F)(F)(F)F)cc2c1O[C@@H](C(F)(F)F)C(C(=O)NCCCCCCNC(=O)c1ccc(-c3c4nc(c(-c5c(F)cccc5F)c5ccc([nH]5)c(-c5c(F)cccc5F)c5nc(c(-c6c(F)cccc6F)c6ccc3[nH]6)C=C5)C=C4)cc1)=C2
REMARK SMILES IDX 28 1 27 2 26 3 25 4 24 5 22 6 23 7 21 9 3 10 4 11 14 12 5 13
REMARK SMILES IDX 13 14 15 15 12 16 88 17 16 18 2 19 1 20 6 21 7 22 8 23 9 24
REMARK SMILES IDX 10 25 11 26 17 27 18 28 19 29 20 30 29 31 30 32 31 33 32 34
REMARK SMILES IDX 33 36 34 37 35 38 87 39 36 40 86 41 37 42 38 43 39 44 80 45
REMARK SMILES IDX 40 46 85 47 79 48 81 49 41 50 84 51 78 52 77 53 42 55 68 56
REMARK SMILES IDX 51 57 67 58 52 59 55 60 66 61 82 62 53 63 54 64 65 66 83 67
REMARK SMILES IDX 56 68 43 69 44 70 49 71 45 72 46 73 48 74 50 75 47 76 69 77
REMARK SMILES IDX 70 78 75 79 71 80 72 81 74 82 76 83 73 84 57 85 58 86 63 87
REMARK SMILES IDX 59 88 60 89 62 90 64 91 61 92
REMARK H PARENT 24 8 31 35 81 54 55 65
REMARK Flexibility Score: inf
ROOT
ATOM      1  C   UNL A   1      31.823  27.921  26.626  1.00  0.00     0.002 C 
ENDROOT
BRANCH   1   2
ATOM      2  C   UNL A   1      31.392  26.467  26.510  1.00  0.00     0.002 C 
BRANCH   2   3
ATOM      3  C   UNL A   1      30.092  26.385  25.728  1.00  0.00     0.021 C 
BRANCH   3   4
ATOM      4  C   UNL A   1      30.101  25.137  24.861  1.00  0.00     0.116 C 
BRANCH   4   5
ATOM      5  N   UNL A   1      30.412  25.506  23.473  1.00  0.00    -0.352 N 
ATOM      6  C   UNL A   1      31.518  24.844  22.766  1.00  0.00     0.251 C 
ATOM      7  O   UNL A   1      31.787  25.164  21.565  1.00  0.00    -0.270 OA
ATOM      8  H   UNL A   1      29.879  26.196  23.015  1.00  0.00     0.163 HD
BRANCH   6   9
ATOM      9  C   UNL A   1      32.341  23.778  23.471  1.00  0.00     0.067 C 
ATOM     10  C   UNL A   1      34.962  20.936  25.054  1.00  0.00    -0.004 A 
ATOM     11  C   UNL A   1      34.639  19.594  24.998  1.00  0.00     0.032 A 
ATOM     12  C   UNL A   1      34.107  21.845  24.478  1.00  0.00     0.131 A 
ATOM     13  C   UNL A   1      33.493  19.170  24.378  1.00  0.00     0.108 A 
ATOM     14  C   UNL A   1      32.933  21.456  23.860  1.00  0.00     0.019 A 
ATOM     15  O   UNL A   1      34.496  23.162  24.443  1.00  0.00    -0.475 OA
ATOM     16  C   UNL A   1      32.640  20.098  23.817  1.00  0.00     0.036 A 
ATOM     17  C   UNL A   1      32.116  22.489  23.248  1.00  0.00     0.025 C 
ATOM     18  C   UNL A   1      33.441  24.166  24.449  1.00  0.00     0.314 C 
BRANCH  10  19
ATOM     19  C   UNL A   1      36.286  21.480  25.565  1.00  0.00     0.036 C 
ATOM     20  C   UNL A   1      37.432  20.760  24.871  1.00  0.00     0.009 C 
ENDBRANCH  10  19
BRANCH  13  21
ATOM     21  S   UNL A   1      33.101  17.404  24.295  1.00  0.00     0.310 S 
ATOM     22  F   UNL A   1      34.499  17.011  24.934  1.00  0.00    -0.094 F 
ATOM     23  F   UNL A   1      33.807  17.343  22.887  1.00  0.00    -0.094 F 
ATOM     24  F   UNL A   1      32.774  15.885  24.228  1.00  0.00    -0.094 F 
ATOM     25  F   UNL A   1      32.525  17.456  25.764  1.00  0.00    -0.094 F 
ATOM     26  F   UNL A   1      33.527  18.921  24.424  1.00  0.00    -0.094 F 
ENDBRANCH  13  21
BRANCH  18  27
ATOM     27  C   UNL A   1      34.029  25.505  24.032  1.00  0.00     0.429 C 
ATOM     28  F   UNL A   1      34.988  25.852  24.884  1.00  0.00    -0.167 F 
ATOM     29  F   UNL A   1      34.538  25.403  22.807  1.00  0.00    -0.167 F 
ATOM     30  F   UNL A   1      33.072  26.429  24.039  1.00  0.00    -0.167 F 
ENDBRANCH  18  27
ENDBRANCH   6   9
ENDBRANCH   4   5
ENDBRANCH   3   4
ENDBRANCH   2   3
ENDBRANCH   1   2
BRANCH   1  31
ATOM     31  C   UNL A   1      33.234  27.987  27.185  1.00  0.00     0.021 C 
BRANCH  31  32
ATOM     32  C   UNL A   1      34.041  29.011  26.403  1.00  0.00     0.116 C 
BRANCH  32  33
ATOM     33  N   UNL A   1      33.573  30.364  26.738  1.00  0.00    -0.352 N 
ATOM     34  C   UNL A   1      34.355  31.207  27.653  1.00  0.00     0.251 C 
ATOM     35  H   UNL A   1      32.736  30.704  26.349  1.00  0.00     0.163 HD
ATOM     36  O   UNL A   1      33.951  32.376  27.942  1.00  0.00    -0.269 OA
BRANCH  34  37
ATOM     37  C   UNL A   1      35.648  30.679  28.255  1.00  0.00     0.039 A 
ATOM     38  C   UNL A   1      36.846  30.967  27.623  1.00  0.00     0.014 A 
ATOM     39  C   UNL A   1      35.606  29.905  29.333  1.00  0.00     0.014 A 
ATOM     40  C   UNL A   1      37.924  30.150  28.038  1.00  0.00     0.010 A 
ATOM     41  C   UNL A   1      36.730  29.243  29.763  1.00  0.00     0.010 A 
ATOM     42  C   UNL A   1      37.937  29.435  29.149  1.00  0.00    -0.014 A 
BRANCH  42  43
ATOM     43  C   UNL A   1      39.224  28.856  29.714  1.00  0.00     0.031 A 
ATOM     44  C   UNL A   1      39.808  27.768  29.061  1.00  0.00     0.074 A 
ATOM     45  C   UNL A   1      39.769  29.476  30.825  1.00  0.00     0.049 A 
ATOM     46  N   UNL A   1      40.964  27.170  29.351  1.00  0.00    -0.248 NA
ATOM     47  C   UNL A   1      39.213  27.087  27.901  1.00  0.00     0.031 C 
ATOM     48  C   UNL A   1      39.192  30.579  31.483  1.00  0.00     0.029 A 
ATOM     49  N   UNL A   1      40.936  29.155  31.485  1.00  0.00    -0.354 N 
ATOM     50  C   UNL A   1      41.198  26.177  28.491  1.00  0.00     0.074 A 
ATOM     51  C   UNL A   1      40.071  26.105  27.550  1.00  0.00     0.031 C 
ATOM     52  C   UNL A   1      39.992  30.910  32.531  1.00  0.00     0.029 A 
ATOM     53  C   UNL A   1      41.082  30.022  32.545  1.00  0.00     0.049 A 
ATOM     54  H   UNL A   1      41.557  28.431  31.240  1.00  0.00     0.167 HD
ATOM     55  C   UNL A   1      42.307  25.331  28.453  1.00  0.00     0.037 A 
ATOM     56  C   UNL A   1      42.102  30.049  33.483  1.00  0.00     0.037 A 
ATOM     57  C   UNL A   1      43.348  25.386  29.366  1.00  0.00     0.049 A 
ATOM     58  C   UNL A   1      43.183  29.164  33.481  1.00  0.00     0.074 A 
ATOM     59  C   UNL A   1      44.477  24.545  29.337  1.00  0.00     0.029 A 
ATOM     60  N   UNL A   1      43.482  26.237  30.441  1.00  0.00    -0.354 N 
ATOM     61  N   UNL A   1      43.436  28.197  32.597  1.00  0.00    -0.248 NA
ATOM     62  C   UNL A   1      44.251  29.163  34.487  1.00  0.00     0.031 C 
ATOM     63  C   UNL A   1      45.277  24.877  30.386  1.00  0.00     0.029 A 
ATOM     64  C   UNL A   1      44.660  25.931  31.087  1.00  0.00     0.049 A 
ATOM     65  H   UNL A   1      42.848  26.942  30.702  1.00  0.00     0.167 HD
ATOM     66  C   UNL A   1      44.572  27.572  32.911  1.00  0.00     0.074 A 
ATOM     67  C   UNL A   1      45.110  28.180  34.137  1.00  0.00     0.031 C 
ATOM     68  C   UNL A   1      45.185  26.523  32.226  1.00  0.00     0.037 A 
BRANCH  55  69
ATOM     69  C   UNL A   1      42.376  24.288  27.349  1.00  0.00     0.057 A 
ATOM     70  C   UNL A   1      41.820  23.034  27.537  1.00  0.00     0.134 A 
ATOM     71  C   UNL A   1      42.966  24.616  26.205  1.00  0.00     0.134 A 
ATOM     72  F   UNL A   1      41.008  22.744  28.549  1.00  0.00    -0.206 F 
ATOM     73  C   UNL A   1      42.195  22.088  26.554  1.00  0.00     0.040 A 
ATOM     74  C   UNL A   1      43.178  23.671  25.232  1.00  0.00     0.040 A 
ATOM     75  F   UNL A   1      43.355  25.872  26.001  1.00  0.00    -0.206 F 
ATOM     76  C   UNL A   1      42.709  22.394  25.376  1.00  0.00     0.006 A 
ENDBRANCH  55  69
BRANCH  56  77
ATOM     77  C   UNL A   1      42.041  31.103  34.577  1.00  0.00     0.057 A 
ATOM     78  C   UNL A   1      42.610  32.348  34.377  1.00  0.00     0.134 A 
ATOM     79  C   UNL A   1      41.447  30.792  35.724  1.00  0.00     0.134 A 
ATOM     80  F   UNL A   1      42.985  32.792  33.180  1.00  0.00    -0.206 F 
ATOM     81  C   UNL A   1      42.757  33.109  35.562  1.00  0.00     0.040 A 
ATOM     82  C   UNL A   1      41.516  31.644  36.800  1.00  0.00     0.040 A 
ATOM     83  F   UNL A   1      40.780  29.646  35.831  1.00  0.00    -0.206 F 
ATOM     84  C   UNL A   1      42.115  32.868  36.690  1.00  0.00     0.006 A 
ENDBRANCH  56  77
BRANCH  68  85
ATOM     85  C   UNL A   1      46.508  25.997  32.758  1.00  0.00     0.057 A 
ATOM     86  C   UNL A   1      47.690  26.530  32.273  1.00  0.00     0.134 A 
ATOM     87  C   UNL A   1      46.510  25.013  33.650  1.00  0.00     0.134 A 
ATOM     88  F   UNL A   1      47.746  27.666  31.584  1.00  0.00    -0.206 F 
ATOM     89  C   UNL A   1      48.835  25.755  32.577  1.00  0.00     0.040 A 
ATOM     90  C   UNL A   1      47.683  24.391  34.002  1.00  0.00     0.040 A 
ATOM     91  F   UNL A   1      45.366  24.626  34.208  1.00  0.00    -0.206 F 
ATOM     92  C   UNL A   1      48.884  24.827  33.514  1.00  0.00     0.006 A 
ENDBRANCH  68  85
ENDBRANCH  42  43
ENDBRANCH  34  37
ENDBRANCH  32  33
ENDBRANCH  31  32
ENDBRANCH   1  31
TORSDOF 16
ENDMDL
