MODEL 1
REMARK VINA RESULT:     -11.5      0.000      0.000
REMARK SMILES Cc1csc([C@H](C)Nc2cc(C)c(N)c(C(=O)NCCCCCCNC(=O)c3ccc(-c4c5nc(c(-c6c(F)cccc6F)c6ccc([nH]6)c(-c6c(F)cccc6F)c6nc(c(-c7c(F)cccc7F)c7ccc4[nH]7)C=C6)C=C5)cc3)c2)n1
REMARK SMILES IDX 21 1 20 2 19 3 18 4 16 5 17 6 15 8 9 9 10 10 82 11 11 12
REMARK SMILES IDX 12 13 13 14 8 15 6 17 7 18 5 19 1 20 2 21 3 22 83 23 4 24
REMARK SMILES IDX 14 25 22 28 23 29 24 30 25 31 26 32 27 34 28 35 29 36 81 37
REMARK SMILES IDX 30 38 80 39 31 40 32 41 33 42 74 43 34 44 79 45 73 46 75 47
REMARK SMILES IDX 35 48 78 49 72 50 71 51 36 53 62 54 45 55 61 56 46 57 49 58
REMARK SMILES IDX 60 59 76 60 47 61 48 62 59 64 77 65 50 66 37 67 38 68 43 69
REMARK SMILES IDX 39 70 40 71 42 72 44 73 41 74 63 75 64 76 69 77 65 78 66 79
REMARK SMILES IDX 68 80 70 81 67 82 51 83 52 84 57 85 53 86 54 87 56 88 58 89
REMARK SMILES IDX 55 90
REMARK H PARENT 18 7 8 16 14 26 14 27 25 33 75 52 49 63
REMARK Flexibility Score: inf
ROOT
ATOM      1  C   UNL A   1      32.444  29.499  26.894  1.00  0.00     0.002 C 
ENDROOT
BRANCH   1   2
ATOM      2  C   UNL A   1      31.767  28.202  27.362  1.00  0.00     0.021 C 
BRANCH   2   3
ATOM      3  C   UNL A   1      31.852  27.080  26.323  1.00  0.00     0.116 C 
BRANCH   3   4
ATOM      4  N   UNL A   1      31.422  25.831  26.920  1.00  0.00    -0.352 N 
ATOM      5  C   UNL A   1      31.525  24.510  26.561  1.00  0.00     0.253 C 
ATOM      6  O   UNL A   1      30.927  23.717  27.297  1.00  0.00    -0.269 OA
ATOM      7  H   UNL A   1      30.951  25.958  27.775  1.00  0.00     0.163 HD
BRANCH   5   8
ATOM      8  C   UNL A   1      32.326  23.994  25.398  1.00  0.00     0.065 A 
ATOM      9  C   UNL A   1      32.697  23.787  22.981  1.00  0.00     0.036 A 
ATOM     10  C   UNL A   1      33.919  23.173  23.229  1.00  0.00     0.031 A 
ATOM     11  C   UNL A   1      31.904  24.149  24.073  1.00  0.00     0.041 A 
ATOM     12  C   UNL A   1      34.336  22.892  24.543  1.00  0.00    -0.025 A 
ATOM     13  C   UNL A   1      35.642  22.171  24.752  1.00  0.00     0.046 C 
ATOM     14  C   UNL A   1      33.541  23.299  25.640  1.00  0.00     0.047 A 
BRANCH   9  15
ATOM     15  N   UNL A   1      32.312  24.250  21.731  1.00  0.00    -0.376 N 
ATOM     16  H   UNL A   1      31.651  23.731  21.218  1.00  0.00     0.161 HD
BRANCH  15  17
ATOM     17  C   UNL A   1      32.853  25.482  21.142  1.00  0.00     0.135 C 
ATOM     18  C   UNL A   1      32.477  25.411  19.652  1.00  0.00     0.039 C 
BRANCH  17  19
ATOM     19  C   UNL A   1      32.345  26.764  21.807  1.00  0.00     0.115 A 
ATOM     20  C   UNL A   1      29.549  28.754  22.929  1.00  0.00     0.067 C 
ATOM     21  C   UNL A   1      30.918  28.271  22.620  1.00  0.00     0.049 A 
ATOM     22  C   UNL A   1      32.105  28.900  22.940  1.00  0.00     0.090 A 
ATOM     23  N   UNL A   1      31.066  27.066  21.950  1.00  0.00    -0.244 NA
ATOM     24  S   UNL A   1      33.431  27.928  22.474  1.00  0.00    -0.125 S 
ENDBRANCH  17  19
ENDBRANCH  15  17
ENDBRANCH   9  15
BRANCH  14  25
ATOM     25  N   UNL A   1      34.048  23.150  26.939  1.00  0.00    -0.398 N 
ATOM     26  H   UNL A   1      34.192  23.943  27.505  1.00  0.00     0.156 HD
ATOM     27  H   UNL A   1      34.259  22.253  27.285  1.00  0.00     0.156 HD
ENDBRANCH  14  25
ENDBRANCH   5   8
ENDBRANCH   3   4
ENDBRANCH   2   3
ENDBRANCH   1   2
BRANCH   1  28
ATOM     28  C   UNL A   1      31.563  30.400  26.020  1.00  0.00     0.002 C 
BRANCH  28  29
ATOM     29  C   UNL A   1      31.418  31.836  26.529  1.00  0.00     0.021 C 
BRANCH  29  30
ATOM     30  C   UNL A   1      32.668  32.374  27.218  1.00  0.00     0.116 C 
BRANCH  30  31
ATOM     31  N   UNL A   1      32.538  33.792  27.519  1.00  0.00    -0.352 N 
ATOM     32  C   UNL A   1      33.163  34.529  28.493  1.00  0.00     0.251 C 
ATOM     33  H   UNL A   1      31.916  34.291  26.944  1.00  0.00     0.163 HD
ATOM     34  O   UNL A   1      32.759  35.650  28.781  1.00  0.00    -0.269 OA
BRANCH  32  35
ATOM     35  C   UNL A   1      34.327  33.958  29.199  1.00  0.00     0.039 A 
ATOM     36  C   UNL A   1      34.120  32.967  30.162  1.00  0.00     0.014 A 
ATOM     37  C   UNL A   1      35.619  34.408  28.912  1.00  0.00     0.014 A 
ATOM     38  C   UNL A   1      35.219  32.387  30.799  1.00  0.00     0.010 A 
ATOM     39  C   UNL A   1      36.714  33.777  29.491  1.00  0.00     0.010 A 
ATOM     40  C   UNL A   1      36.524  32.767  30.445  1.00  0.00    -0.014 A 
BRANCH  40  41
ATOM     41  C   UNL A   1      37.709  32.122  31.063  1.00  0.00     0.031 A 
ATOM     42  C   UNL A   1      38.432  31.023  30.335  1.00  0.00     0.074 A 
ATOM     43  C   UNL A   1      38.088  32.476  32.306  1.00  0.00     0.049 A 
ATOM     44  N   UNL A   1      39.429  30.278  30.741  1.00  0.00    -0.248 NA
ATOM     45  C   UNL A   1      37.951  30.697  28.983  1.00  0.00     0.031 C 
ATOM     46  C   UNL A   1      37.440  33.499  33.129  1.00  0.00     0.029 A 
ATOM     47  N   UNL A   1      39.103  32.006  33.099  1.00  0.00    -0.354 N 
ATOM     48  C   UNL A   1      39.684  29.392  29.702  1.00  0.00     0.074 A 
ATOM     49  C   UNL A   1      38.703  29.652  28.672  1.00  0.00     0.031 C 
ATOM     50  C   UNL A   1      38.085  33.592  34.304  1.00  0.00     0.029 A 
ATOM     51  C   UNL A   1      39.162  32.607  34.333  1.00  0.00     0.049 A 
ATOM     52  H   UNL A   1      39.730  31.303  32.813  1.00  0.00     0.167 HD
ATOM     53  C   UNL A   1      40.663  28.461  29.608  1.00  0.00     0.037 A 
ATOM     54  C   UNL A   1      39.985  32.383  35.374  1.00  0.00     0.037 A 
ATOM     55  C   UNL A   1      41.648  28.221  30.629  1.00  0.00     0.049 A 
ATOM     56  C   UNL A   1      41.052  31.331  35.252  1.00  0.00     0.074 A 
ATOM     57  C   UNL A   1      42.716  27.340  30.605  1.00  0.00     0.029 A 
ATOM     58  N   UNL A   1      41.685  28.862  31.858  1.00  0.00    -0.354 N 
ATOM     59  N   UNL A   1      41.325  30.545  34.238  1.00  0.00    -0.248 NA
ATOM     60  C   UNL A   1      41.929  31.137  36.415  1.00  0.00     0.031 C 
ATOM     61  C   UNL A   1      43.367  27.412  31.841  1.00  0.00     0.029 A 
ATOM     62  C   UNL A   1      42.741  28.378  32.612  1.00  0.00     0.049 A 
ATOM     63  H   UNL A   1      41.054  29.558  32.151  1.00  0.00     0.167 HD
ATOM     64  C   UNL A   1      42.422  29.787  34.629  1.00  0.00     0.074 A 
ATOM     65  C   UNL A   1      42.772  30.217  35.966  1.00  0.00     0.031 C 
ATOM     66  C   UNL A   1      43.081  28.823  33.940  1.00  0.00     0.037 A 
BRANCH  53  67
ATOM     67  C   UNL A   1      40.713  27.632  28.357  1.00  0.00     0.057 A 
ATOM     68  C   UNL A   1      40.021  26.418  28.245  1.00  0.00     0.134 A 
ATOM     69  C   UNL A   1      41.433  28.068  27.237  1.00  0.00     0.134 A 
ATOM     70  F   UNL A   1      39.320  25.936  29.284  1.00  0.00    -0.206 F 
ATOM     71  C   UNL A   1      40.065  25.656  27.076  1.00  0.00     0.040 A 
ATOM     72  C   UNL A   1      41.461  27.330  26.054  1.00  0.00     0.040 A 
ATOM     73  F   UNL A   1      42.113  29.224  27.273  1.00  0.00    -0.206 F 
ATOM     74  C   UNL A   1      40.782  26.116  25.973  1.00  0.00     0.006 A 
ENDBRANCH  53  67
BRANCH  54  75
ATOM     75  C   UNL A   1      39.843  33.180  36.620  1.00  0.00     0.057 A 
ATOM     76  C   UNL A   1      40.601  34.339  36.825  1.00  0.00     0.134 A 
ATOM     77  C   UNL A   1      38.958  32.802  37.634  1.00  0.00     0.134 A 
ATOM     78  F   UNL A   1      41.481  34.744  35.897  1.00  0.00    -0.206 F 
ATOM     79  C   UNL A   1      40.499  35.081  38.003  1.00  0.00     0.040 A 
ATOM     80  C   UNL A   1      38.824  33.549  38.806  1.00  0.00     0.040 A 
ATOM     81  F   UNL A   1      38.195  31.706  37.497  1.00  0.00    -0.206 F 
ATOM     82  C   UNL A   1      39.604  34.688  38.997  1.00  0.00     0.006 A 
ENDBRANCH  54  75
BRANCH  66  83
ATOM     83  C   UNL A   1      44.272  28.194  34.603  1.00  0.00     0.057 A 
ATOM     84  C   UNL A   1      44.164  27.028  35.371  1.00  0.00     0.134 A 
ATOM     85  C   UNL A   1      45.551  28.738  34.429  1.00  0.00     0.134 A 
ATOM     86  F   UNL A   1      42.966  26.465  35.587  1.00  0.00    -0.206 F 
ATOM     87  C   UNL A   1      45.284  26.437  35.959  1.00  0.00     0.040 A 
ATOM     88  C   UNL A   1      46.681  28.140  34.985  1.00  0.00     0.040 A 
ATOM     89  F   UNL A   1      45.725  29.850  33.696  1.00  0.00    -0.206 F 
ATOM     90  C   UNL A   1      46.549  26.988  35.759  1.00  0.00     0.006 A 
ENDBRANCH  66  83
ENDBRANCH  40  41
ENDBRANCH  32  35
ENDBRANCH  30  31
ENDBRANCH  29  30
ENDBRANCH  28  29
ENDBRANCH   1  28
TORSDOF 17
ENDMDL
MODEL 2
REMARK VINA RESULT:     -11.5      1.666      3.444
REMARK SMILES Cc1csc([C@H](C)Nc2cc(C)c(N)c(C(=O)NCCCCCCNC(=O)c3ccc(-c4c5nc(c(-c6c(F)cccc6F)c6ccc([nH]6)c(-c6c(F)cccc6F)c6nc(c(-c7c(F)cccc7F)c7ccc4[nH]7)C=C6)C=C5)cc3)c2)n1
REMARK SMILES IDX 21 1 20 2 19 3 18 4 16 5 17 6 15 8 9 9 10 10 82 11 11 12
REMARK SMILES IDX 12 13 13 14 8 15 6 17 7 18 5 19 1 20 2 21 3 22 83 23 4 24
REMARK SMILES IDX 14 25 22 28 23 29 24 30 25 31 26 32 27 34 28 35 29 36 81 37
REMARK SMILES IDX 30 38 80 39 31 40 32 41 33 42 74 43 34 44 79 45 73 46 75 47
REMARK SMILES IDX 35 48 78 49 72 50 71 51 36 53 62 54 45 55 61 56 46 57 49 58
REMARK SMILES IDX 60 59 76 60 47 61 48 62 59 64 77 65 50 66 37 67 38 68 43 69
REMARK SMILES IDX 39 70 40 71 42 72 44 73 41 74 63 75 64 76 69 77 65 78 66 79
REMARK SMILES IDX 68 80 70 81 67 82 51 83 52 84 57 85 53 86 54 87 56 88 58 89
REMARK SMILES IDX 55 90
REMARK H PARENT 18 7 8 16 14 26 14 27 25 33 75 52 49 63
REMARK Flexibility Score: inf
ROOT
ATOM      1  C   UNL A   1      32.746  30.102  27.020  1.00  0.00     0.002 C 
ENDROOT
BRANCH   1   2
ATOM      2  C   UNL A   1      32.742  28.566  26.993  1.00  0.00     0.021 C 
BRANCH   2   3
ATOM      3  C   UNL A   1      33.914  27.985  26.196  1.00  0.00     0.116 C 
BRANCH   3   4
ATOM      4  N   UNL A   1      33.937  28.570  24.870  1.00  0.00    -0.352 N 
ATOM      5  C   UNL A   1      33.152  28.446  23.752  1.00  0.00     0.253 C 
ATOM      6  O   UNL A   1      33.562  29.045  22.751  1.00  0.00    -0.269 OA
ATOM      7  H   UNL A   1      34.685  29.199  24.743  1.00  0.00     0.163 HD
BRANCH   5   8
ATOM      8  C   UNL A   1      31.854  27.688  23.691  1.00  0.00     0.065 A 
ATOM      9  C   UNL A   1      30.575  25.613  23.967  1.00  0.00     0.036 A 
ATOM     10  C   UNL A   1      29.398  26.317  23.742  1.00  0.00     0.031 A 
ATOM     11  C   UNL A   1      31.786  26.306  23.896  1.00  0.00     0.041 A 
ATOM     12  C   UNL A   1      29.423  27.686  23.419  1.00  0.00    -0.025 A 
ATOM     13  C   UNL A   1      28.123  28.387  23.126  1.00  0.00     0.046 C 
ATOM     14  C   UNL A   1      30.653  28.384  23.389  1.00  0.00     0.047 A 
BRANCH   9  15
ATOM     15  N   UNL A   1      30.609  24.317  24.462  1.00  0.00    -0.376 N 
ATOM     16  H   UNL A   1      30.008  23.645  24.067  1.00  0.00     0.161 HD
BRANCH  15  17
ATOM     17  C   UNL A   1      31.506  23.908  25.552  1.00  0.00     0.135 C 
ATOM     18  C   UNL A   1      30.588  23.262  26.603  1.00  0.00     0.039 C 
BRANCH  17  19
ATOM     19  C   UNL A   1      32.632  22.970  25.110  1.00  0.00     0.115 A 
ATOM     20  C   UNL A   1      35.936  22.564  23.712  1.00  0.00     0.067 C 
ATOM     21  C   UNL A   1      34.595  22.303  24.292  1.00  0.00     0.049 A 
ATOM     22  C   UNL A   1      34.069  21.071  24.626  1.00  0.00     0.090 A 
ATOM     23  N   UNL A   1      33.757  23.377  24.547  1.00  0.00    -0.244 NA
ATOM     24  S   UNL A   1      32.535  21.264  25.353  1.00  0.00    -0.125 S 
ENDBRANCH  17  19
ENDBRANCH  15  17
ENDBRANCH   9  15
BRANCH  14  25
ATOM     25  N   UNL A   1      30.642  29.776  23.220  1.00  0.00    -0.398 N 
ATOM     26  H   UNL A   1      30.742  30.367  24.001  1.00  0.00     0.156 HD
ATOM     27  H   UNL A   1      30.533  30.161  22.320  1.00  0.00     0.156 HD
ENDBRANCH  14  25
ENDBRANCH   5   8
ENDBRANCH   3   4
ENDBRANCH   2   3
ENDBRANCH   1   2
BRANCH   1  28
ATOM     28  C   UNL A   1      31.477  30.753  26.456  1.00  0.00     0.002 C 
BRANCH  28  29
ATOM     29  C   UNL A   1      31.409  32.272  26.630  1.00  0.00     0.021 C 
BRANCH  29  30
ATOM     30  C   UNL A   1      32.662  32.877  27.251  1.00  0.00     0.116 C 
BRANCH  30  31
ATOM     31  N   UNL A   1      32.450  34.267  27.627  1.00  0.00    -0.352 N 
ATOM     32  C   UNL A   1      32.999  34.976  28.665  1.00  0.00     0.251 C 
ATOM     33  H   UNL A   1      31.824  34.769  27.056  1.00  0.00     0.163 HD
ATOM     34  O   UNL A   1      32.528  36.057  28.999  1.00  0.00    -0.269 OA
BRANCH  32  35
ATOM     35  C   UNL A   1      34.162  34.422  29.385  1.00  0.00     0.039 A 
ATOM     36  C   UNL A   1      33.959  33.747  30.591  1.00  0.00     0.014 A 
ATOM     37  C   UNL A   1      35.452  34.575  28.868  1.00  0.00     0.014 A 
ATOM     38  C   UNL A   1      35.049  33.178  31.253  1.00  0.00     0.010 A 
ATOM     39  C   UNL A   1      36.524  33.943  29.488  1.00  0.00     0.010 A 
ATOM     40  C   UNL A   1      36.333  33.245  30.690  1.00  0.00    -0.014 A 
BRANCH  40  41
ATOM     41  C   UNL A   1      37.497  32.595  31.343  1.00  0.00     0.031 A 
ATOM     42  C   UNL A   1      38.188  31.442  30.669  1.00  0.00     0.074 A 
ATOM     43  C   UNL A   1      37.882  32.996  32.569  1.00  0.00     0.049 A 
ATOM     44  N   UNL A   1      39.162  30.688  31.114  1.00  0.00    -0.248 NA
ATOM     45  C   UNL A   1      37.702  31.068  29.332  1.00  0.00     0.031 C 
ATOM     46  C   UNL A   1      37.263  34.075  33.340  1.00  0.00     0.029 A 
ATOM     47  N   UNL A   1      38.881  32.533  33.387  1.00  0.00    -0.354 N 
ATOM     48  C   UNL A   1      39.393  29.747  30.119  1.00  0.00     0.074 A 
ATOM     49  C   UNL A   1      38.423  29.987  29.074  1.00  0.00     0.031 C 
ATOM     50  C   UNL A   1      37.907  34.203  34.512  1.00  0.00     0.029 A 
ATOM     51  C   UNL A   1      38.954  33.190  34.592  1.00  0.00     0.049 A 
ATOM     52  H   UNL A   1      39.487  31.799  33.137  1.00  0.00     0.167 HD
ATOM     53  C   UNL A   1      40.344  28.784  30.073  1.00  0.00     0.037 A 
ATOM     54  C   UNL A   1      39.768  32.991  35.646  1.00  0.00     0.037 A 
ATOM     55  C   UNL A   1      41.319  28.563  31.108  1.00  0.00     0.049 A 
ATOM     56  C   UNL A   1      40.803  31.902  35.577  1.00  0.00     0.074 A 
ATOM     57  C   UNL A   1      42.360  27.651  31.130  1.00  0.00     0.029 A 
ATOM     58  N   UNL A   1      41.371  29.259  32.306  1.00  0.00    -0.354 N 
ATOM     59  N   UNL A   1      41.055  31.062  34.603  1.00  0.00    -0.248 NA
ATOM     60  C   UNL A   1      41.671  31.738  36.752  1.00  0.00     0.031 C 
ATOM     61  C   UNL A   1      43.009  27.760  32.364  1.00  0.00     0.029 A 
ATOM     62  C   UNL A   1      42.410  28.780  33.086  1.00  0.00     0.049 A 
ATOM     63  H   UNL A   1      40.761  29.987  32.563  1.00  0.00     0.167 HD
ATOM     64  C   UNL A   1      42.128  30.291  35.033  1.00  0.00     0.074 A 
ATOM     65  C   UNL A   1      42.486  30.773  36.350  1.00  0.00     0.031 C 
ATOM     66  C   UNL A   1      42.760  29.276  34.393  1.00  0.00     0.037 A 
BRANCH  53  67
ATOM     67  C   UNL A   1      40.373  27.896  28.862  1.00  0.00     0.057 A 
ATOM     68  C   UNL A   1      41.141  28.210  27.733  1.00  0.00     0.134 A 
ATOM     69  C   UNL A   1      39.653  26.695  28.836  1.00  0.00     0.134 A 
ATOM     70  F   UNL A   1      41.847  29.351  27.685  1.00  0.00    -0.206 F 
ATOM     71  C   UNL A   1      41.171  27.377  26.612  1.00  0.00     0.040 A 
ATOM     72  C   UNL A   1      39.697  25.839  27.736  1.00  0.00     0.040 A 
ATOM     73  F   UNL A   1      38.902  26.329  29.886  1.00  0.00    -0.206 F 
ATOM     74  C   UNL A   1      40.452  26.183  26.616  1.00  0.00     0.006 A 
ENDBRANCH  53  67
BRANCH  54  75
ATOM     75  C   UNL A   1      39.646  33.849  36.852  1.00  0.00     0.057 A 
ATOM     76  C   UNL A   1      40.318  35.074  36.937  1.00  0.00     0.134 A 
ATOM     77  C   UNL A   1      38.865  33.466  37.948  1.00  0.00     0.134 A 
ATOM     78  F   UNL A   1      41.096  35.489  35.926  1.00  0.00    -0.206 F 
ATOM     79  C   UNL A   1      40.236  35.877  38.076  1.00  0.00     0.040 A 
ATOM     80  C   UNL A   1      38.751  34.271  39.083  1.00  0.00     0.040 A 
ATOM     81  F   UNL A   1      38.188  32.308  37.927  1.00  0.00    -0.206 F 
ATOM     82  C   UNL A   1      39.446  35.476  39.153  1.00  0.00     0.006 A 
ENDBRANCH  54  75
BRANCH  66  83
ATOM     83  C   UNL A   1      43.929  28.645  35.090  1.00  0.00     0.057 A 
ATOM     84  C   UNL A   1      45.233  29.135  34.945  1.00  0.00     0.134 A 
ATOM     85  C   UNL A   1      43.738  27.560  35.957  1.00  0.00     0.134 A 
ATOM     86  F   UNL A   1      45.486  30.162  34.120  1.00  0.00    -0.206 F 
ATOM     87  C   UNL A   1      46.308  28.556  35.622  1.00  0.00     0.040 A 
ATOM     88  C   UNL A   1      44.799  26.993  36.662  1.00  0.00     0.040 A 
ATOM     89  F   UNL A   1      42.512  27.048  36.148  1.00  0.00    -0.206 F 
ATOM     90  C   UNL A   1      46.091  27.488  36.491  1.00  0.00     0.006 A 
ENDBRANCH  66  83
ENDBRANCH  40  41
ENDBRANCH  32  35
ENDBRANCH  30  31
ENDBRANCH  29  30
ENDBRANCH  28  29
ENDBRANCH   1  28
TORSDOF 17
ENDMDL
MODEL 3
REMARK VINA RESULT:     -11.5      1.580      6.864
REMARK SMILES Cc1csc([C@H](C)Nc2cc(C)c(N)c(C(=O)NCCCCCCNC(=O)c3ccc(-c4c5nc(c(-c6c(F)cccc6F)c6ccc([nH]6)c(-c6c(F)cccc6F)c6nc(c(-c7c(F)cccc7F)c7ccc4[nH]7)C=C6)C=C5)cc3)c2)n1
REMARK SMILES IDX 21 1 20 2 19 3 18 4 16 5 17 6 15 8 9 9 10 10 82 11 11 12
REMARK SMILES IDX 12 13 13 14 8 15 6 17 7 18 5 19 1 20 2 21 3 22 83 23 4 24
REMARK SMILES IDX 14 25 22 28 23 29 24 30 25 31 26 32 27 34 28 35 29 36 81 37
REMARK SMILES IDX 30 38 80 39 31 40 32 41 33 42 74 43 34 44 79 45 73 46 75 47
REMARK SMILES IDX 35 48 78 49 72 50 71 51 36 53 62 54 45 55 61 56 46 57 49 58
REMARK SMILES IDX 60 59 76 60 47 61 48 62 59 64 77 65 50 66 37 67 38 68 43 69
REMARK SMILES IDX 39 70 40 71 42 72 44 73 41 74 63 75 64 76 69 77 65 78 66 79
REMARK SMILES IDX 68 80 70 81 67 82 51 83 52 84 57 85 53 86 54 87 56 88 58 89
REMARK SMILES IDX 55 90
REMARK H PARENT 18 7 8 16 14 26 14 27 25 33 75 52 49 63
REMARK Flexibility Score: inf
ROOT
ATOM      1  C   UNL A   1      32.123  29.860  27.091  1.00  0.00     0.002 C 
ENDROOT
BRANCH   1   2
ATOM      2  C   UNL A   1      33.596  29.561  26.777  1.00  0.00     0.021 C 
BRANCH   2   3
ATOM      3  C   UNL A   1      33.778  28.293  25.936  1.00  0.00     0.116 C 
BRANCH   3   4
ATOM      4  N   UNL A   1      33.827  28.644  24.531  1.00  0.00    -0.352 N 
ATOM      5  C   UNL A   1      33.028  28.379  23.447  1.00  0.00     0.253 C 
ATOM      6  O   UNL A   1      33.466  28.776  22.361  1.00  0.00    -0.269 OA
ATOM      7  H   UNL A   1      34.609  29.198  24.303  1.00  0.00     0.163 HD
BRANCH   5   8
ATOM      8  C   UNL A   1      31.688  27.700  23.510  1.00  0.00     0.065 A 
ATOM      9  C   UNL A   1      30.313  25.726  23.991  1.00  0.00     0.036 A 
ATOM     10  C   UNL A   1      29.166  26.485  23.792  1.00  0.00     0.031 A 
ATOM     11  C   UNL A   1      31.554  26.339  23.805  1.00  0.00     0.041 A 
ATOM     12  C   UNL A   1      29.248  27.829  23.383  1.00  0.00    -0.025 A 
ATOM     13  C   UNL A   1      27.974  28.589  23.125  1.00  0.00     0.046 C 
ATOM     14  C   UNL A   1      30.512  28.448  23.237  1.00  0.00     0.047 A 
BRANCH   9  15
ATOM     15  N   UNL A   1      30.303  24.462  24.562  1.00  0.00    -0.376 N 
ATOM     16  H   UNL A   1      29.635  23.808  24.253  1.00  0.00     0.161 HD
BRANCH  15  17
ATOM     17  C   UNL A   1      31.250  24.060  25.612  1.00  0.00     0.135 C 
ATOM     18  C   UNL A   1      30.393  23.345  26.671  1.00  0.00     0.039 C 
BRANCH  17  19
ATOM     19  C   UNL A   1      32.399  23.183  25.108  1.00  0.00     0.115 A 
ATOM     20  C   UNL A   1      35.625  22.952  23.501  1.00  0.00     0.067 C 
ATOM     21  C   UNL A   1      34.342  22.621  24.170  1.00  0.00     0.049 A 
ATOM     22  C   UNL A   1      33.913  21.365  24.553  1.00  0.00     0.090 A 
ATOM     23  N   UNL A   1      33.459  23.647  24.468  1.00  0.00    -0.244 NA
ATOM     24  S   UNL A   1      32.421  21.478  25.377  1.00  0.00    -0.125 S 
ENDBRANCH  17  19
ENDBRANCH  15  17
ENDBRANCH   9  15
BRANCH  14  25
ATOM     25  N   UNL A   1      30.569  29.826  22.982  1.00  0.00    -0.398 N 
ATOM     26  H   UNL A   1      31.436  30.258  22.804  1.00  0.00     0.156 HD
ATOM     27  H   UNL A   1      29.743  30.361  22.982  1.00  0.00     0.156 HD
ENDBRANCH  14  25
ENDBRANCH   5   8
ENDBRANCH   3   4
ENDBRANCH   2   3
ENDBRANCH   1   2
BRANCH   1  28
ATOM     28  C   UNL A   1      31.454  30.852  26.130  1.00  0.00     0.002 C 
BRANCH  28  29
ATOM     29  C   UNL A   1      31.373  32.288  26.652  1.00  0.00     0.021 C 
BRANCH  29  30
ATOM     30  C   UNL A   1      32.715  32.860  27.094  1.00  0.00     0.116 C 
BRANCH  30  31
ATOM     31  N   UNL A   1      32.569  34.206  27.625  1.00  0.00    -0.352 N 
ATOM     32  C   UNL A   1      33.149  34.765  28.735  1.00  0.00     0.251 C 
ATOM     33  H   UNL A   1      31.970  34.799  27.117  1.00  0.00     0.163 HD
ATOM     34  O   UNL A   1      32.730  35.823  29.192  1.00  0.00    -0.269 OA
BRANCH  32  35
ATOM     35  C   UNL A   1      34.284  34.078  29.383  1.00  0.00     0.039 A 
ATOM     36  C   UNL A   1      34.028  33.135  30.382  1.00  0.00     0.014 A 
ATOM     37  C   UNL A   1      35.597  34.371  29.005  1.00  0.00     0.014 A 
ATOM     38  C   UNL A   1      35.093  32.445  30.965  1.00  0.00     0.010 A 
ATOM     39  C   UNL A   1      36.649  33.630  29.532  1.00  0.00     0.010 A 
ATOM     40  C   UNL A   1      36.407  32.666  30.522  1.00  0.00    -0.014 A 
BRANCH  40  41
ATOM     41  C   UNL A   1      37.548  31.901  31.083  1.00  0.00     0.031 A 
ATOM     42  C   UNL A   1      38.053  32.210  32.465  1.00  0.00     0.074 A 
ATOM     43  C   UNL A   1      38.173  30.982  30.323  1.00  0.00     0.049 A 
ATOM     44  N   UNL A   1      39.088  31.716  33.097  1.00  0.00    -0.248 NA
ATOM     45  C   UNL A   1      37.314  33.229  33.227  1.00  0.00     0.031 C 
ATOM     46  C   UNL A   1      37.801  30.624  28.952  1.00  0.00     0.029 A 
ATOM     47  N   UNL A   1      39.259  30.188  30.590  1.00  0.00    -0.354 N 
ATOM     48  C   UNL A   1      39.130  32.374  34.320  1.00  0.00     0.074 A 
ATOM     49  C   UNL A   1      38.054  33.340  34.320  1.00  0.00     0.031 C 
ATOM     50  C   UNL A   1      38.635  29.670  28.506  1.00  0.00     0.029 A 
ATOM     51  C   UNL A   1      39.622  29.380  29.541  1.00  0.00     0.049 A 
ATOM     52  H   UNL A   1      39.734  30.198  31.452  1.00  0.00     0.167 HD
ATOM     53  C   UNL A   1      39.977  32.173  35.358  1.00  0.00     0.037 A 
ATOM     54  C   UNL A   1      40.643  28.510  29.422  1.00  0.00     0.037 A 
ATOM     55  C   UNL A   1      41.034  31.196  35.359  1.00  0.00     0.049 A 
ATOM     56  C   UNL A   1      41.581  28.318  30.582  1.00  0.00     0.074 A 
ATOM     57  C   UNL A   1      41.909  30.875  36.381  1.00  0.00     0.029 A 
ATOM     58  N   UNL A   1      41.360  30.385  34.282  1.00  0.00    -0.354 N 
ATOM     59  N   UNL A   1      41.570  28.899  31.758  1.00  0.00    -0.248 NA
ATOM     60  C   UNL A   1      42.670  27.348  30.401  1.00  0.00     0.031 C 
ATOM     61  C   UNL A   1      42.798  29.906  35.906  1.00  0.00     0.029 A 
ATOM     62  C   UNL A   1      42.441  29.581  34.607  1.00  0.00     0.049 A 
ATOM     63  H   UNL A   1      40.893  30.379  33.416  1.00  0.00     0.167 HD
ATOM     64  C   UNL A   1      42.628  28.342  32.467  1.00  0.00     0.074 A 
ATOM     65  C   UNL A   1      43.250  27.370  31.593  1.00  0.00     0.031 C 
ATOM     66  C   UNL A   1      43.044  28.612  33.728  1.00  0.00     0.037 A 
BRANCH  53  67
ATOM     67  C   UNL A   1      39.794  33.029  36.578  1.00  0.00     0.057 A 
ATOM     68  C   UNL A   1      38.869  32.702  37.579  1.00  0.00     0.134 A 
ATOM     69  C   UNL A   1      40.575  34.175  36.773  1.00  0.00     0.134 A 
ATOM     70  F   UNL A   1      38.081  31.623  37.451  1.00  0.00    -0.206 F 
ATOM     71  C   UNL A   1      38.709  33.498  38.715  1.00  0.00     0.040 A 
ATOM     72  C   UNL A   1      40.445  34.962  37.918  1.00  0.00     0.040 A 
ATOM     73  F   UNL A   1      41.485  34.542  35.858  1.00  0.00    -0.206 F 
ATOM     74  C   UNL A   1      39.505  34.628  38.890  1.00  0.00     0.006 A 
ENDBRANCH  53  67
BRANCH  54  75
ATOM     75  C   UNL A   1      40.825  27.743  28.163  1.00  0.00     0.057 A 
ATOM     76  C   UNL A   1      41.597  28.254  27.112  1.00  0.00     0.134 A 
ATOM     77  C   UNL A   1      40.229  26.491  27.975  1.00  0.00     0.134 A 
ATOM     78  F   UNL A   1      42.179  29.456  27.224  1.00  0.00    -0.206 F 
ATOM     79  C   UNL A   1      41.751  27.557  25.912  1.00  0.00     0.040 A 
ATOM     80  C   UNL A   1      40.397  25.770  26.792  1.00  0.00     0.040 A 
ATOM     81  F   UNL A   1      39.484  25.942  28.947  1.00  0.00    -0.206 F 
ATOM     82  C   UNL A   1      41.153  26.308  25.752  1.00  0.00     0.006 A 
ENDBRANCH  54  75
BRANCH  66  83
ATOM     83  C   UNL A   1      44.203  27.818  34.255  1.00  0.00     0.057 A 
ATOM     84  C   UNL A   1      45.520  28.288  34.181  1.00  0.00     0.134 A 
ATOM     85  C   UNL A   1      43.991  26.587  34.890  1.00  0.00     0.134 A 
ATOM     86  F   UNL A   1      45.793  29.453  33.574  1.00  0.00    -0.206 F 
ATOM     87  C   UNL A   1      46.587  27.552  34.701  1.00  0.00     0.040 A 
ATOM     88  C   UNL A   1      45.044  25.857  35.441  1.00  0.00     0.040 A 
ATOM     89  F   UNL A   1      42.752  26.083  35.004  1.00  0.00    -0.206 F 
ATOM     90  C   UNL A   1      46.349  26.338  35.342  1.00  0.00     0.006 A 
ENDBRANCH  66  83
ENDBRANCH  40  41
ENDBRANCH  32  35
ENDBRANCH  30  31
ENDBRANCH  29  30
ENDBRANCH  28  29
ENDBRANCH   1  28
TORSDOF 17
ENDMDL
