MODEL 1
REMARK VINA RESULT:     -11.8      0.000      0.000
REMARK SMILES O=C(NCCCCCCNC(=O)[C@H]1CCCN(C(=O)c2cc(Br)ccc2Cl)C1)c1ccc(-c2c3nc(c(-c4c(F)cccc4F)c4ccc([nH]4)c(-c4c(F)cccc4F)c4nc(c(-c5c(F)cccc5F)c5ccc2[nH]5)C=C4)C=C3)cc1
REMARK SMILES IDX 6 1 5 2 4 3 3 4 1 5 2 6 29 8 30 9 82 10 31 11 81 12 32 13
REMARK SMILES IDX 33 14 34 15 75 16 35 17 80 18 74 19 76 20 36 21 79 22 73 23
REMARK SMILES IDX 72 24 37 26 63 27 46 28 62 29 47 30 50 31 61 32 77 33 48 34
REMARK SMILES IDX 49 35 60 37 78 38 51 39 38 40 39 41 44 42 40 43 41 44 43 45
REMARK SMILES IDX 45 46 42 47 64 48 65 49 70 50 66 51 67 52 69 53 71 54 68 55
REMARK SMILES IDX 52 56 53 57 58 58 54 59 55 60 57 61 59 62 56 63 7 64 8 65
REMARK SMILES IDX 9 66 10 67 11 68 12 70 13 71 14 72 28 73 15 74 17 75 16 76
REMARK SMILES IDX 18 77 19 78 20 79 21 80 26 81 22 82 25 83 27 84 23 85 24 86
REMARK H PARENT 3 7 76 25 50 36 10 69
REMARK Flexibility Score: inf
ROOT
ATOM      1  C   UNL A   1      31.767  30.503  26.868  1.00  0.00     0.002 C 
ENDROOT
BRANCH   1   2
ATOM      2  C   UNL A   1      31.468  32.002  26.877  1.00  0.00     0.021 C 
BRANCH   2   3
ATOM      3  C   UNL A   1      32.706  32.888  26.876  1.00  0.00     0.116 C 
BRANCH   3   4
ATOM      4  N   UNL A   1      32.473  34.155  27.551  1.00  0.00    -0.352 N 
ATOM      5  O   UNL A   1      32.623  35.653  29.235  1.00  0.00    -0.269 OA
ATOM      6  C   UNL A   1      33.069  34.651  28.684  1.00  0.00     0.251 C 
ATOM      7  H   UNL A   1      31.795  34.737  27.138  1.00  0.00     0.163 HD
BRANCH   6   8
ATOM      8  C   UNL A   1      34.248  33.960  29.247  1.00  0.00     0.039 A 
ATOM      9  C   UNL A   1      34.084  32.863  30.096  1.00  0.00     0.014 A 
ATOM     10  C   UNL A   1      35.528  34.411  28.917  1.00  0.00     0.014 A 
ATOM     11  C   UNL A   1      35.190  32.303  30.719  1.00  0.00     0.010 A 
ATOM     12  C   UNL A   1      36.647  33.786  29.476  1.00  0.00     0.010 A 
ATOM     13  C   UNL A   1      36.486  32.742  30.399  1.00  0.00    -0.014 A 
BRANCH  13  14
ATOM     14  C   UNL A   1      37.652  32.038  30.986  1.00  0.00     0.031 A 
ATOM     15  C   UNL A   1      38.113  32.321  32.387  1.00  0.00     0.074 A 
ATOM     16  C   UNL A   1      38.279  31.107  30.241  1.00  0.00     0.049 A 
ATOM     17  N   UNL A   1      39.104  31.781  33.052  1.00  0.00    -0.248 NA
ATOM     18  C   UNL A   1      37.373  33.345  33.141  1.00  0.00     0.031 C 
ATOM     19  C   UNL A   1      37.926  30.756  28.862  1.00  0.00     0.029 A 
ATOM     20  N   UNL A   1      39.329  30.276  30.535  1.00  0.00    -0.354 N 
ATOM     21  C   UNL A   1      39.114  32.402  34.295  1.00  0.00     0.074 A 
ATOM     22  C   UNL A   1      38.050  33.384  34.282  1.00  0.00     0.031 C 
ATOM     23  C   UNL A   1      38.713  29.755  28.447  1.00  0.00     0.029 A 
ATOM     24  C   UNL A   1      39.667  29.436  29.502  1.00  0.00     0.049 A 
ATOM     25  H   UNL A   1      39.794  30.281  31.403  1.00  0.00     0.167 HD
ATOM     26  C   UNL A   1      39.929  32.165  35.351  1.00  0.00     0.037 A 
ATOM     27  C   UNL A   1      40.651  28.525  29.405  1.00  0.00     0.037 A 
ATOM     28  C   UNL A   1      40.987  31.186  35.354  1.00  0.00     0.049 A 
ATOM     29  C   UNL A   1      41.565  28.314  30.576  1.00  0.00     0.074 A 
ATOM     30  C   UNL A   1      41.860  30.862  36.380  1.00  0.00     0.029 A 
ATOM     31  N   UNL A   1      41.320  30.376  34.279  1.00  0.00    -0.354 N 
ATOM     32  N   UNL A   1      41.542  28.889  31.754  1.00  0.00    -0.248 NA
ATOM     33  C   UNL A   1      42.643  27.333  30.404  1.00  0.00     0.031 C 
ATOM     34  C   UNL A   1      42.747  29.886  35.911  1.00  0.00     0.029 A 
ATOM     35  C   UNL A   1      42.396  29.566  34.610  1.00  0.00     0.049 A 
ATOM     36  H   UNL A   1      40.860  30.376  33.408  1.00  0.00     0.167 HD
ATOM     37  C   UNL A   1      42.588  28.325  32.470  1.00  0.00     0.074 A 
ATOM     38  C   UNL A   1      43.211  27.347  31.600  1.00  0.00     0.031 C 
ATOM     39  C   UNL A   1      43.000  28.595  33.732  1.00  0.00     0.037 A 
BRANCH  26  40
ATOM     40  C   UNL A   1      39.720  32.987  36.590  1.00  0.00     0.057 A 
ATOM     41  C   UNL A   1      40.444  34.162  36.829  1.00  0.00     0.134 A 
ATOM     42  C   UNL A   1      38.746  32.628  37.532  1.00  0.00     0.134 A 
ATOM     43  F   UNL A   1      41.398  34.558  35.974  1.00  0.00    -0.206 F 
ATOM     44  C   UNL A   1      40.222  34.940  37.968  1.00  0.00     0.040 A 
ATOM     45  C   UNL A   1      38.496  33.410  38.661  1.00  0.00     0.040 A 
ATOM     46  F   UNL A   1      38.010  31.520  37.361  1.00  0.00    -0.206 F 
ATOM     47  C   UNL A   1      39.239  34.567  38.884  1.00  0.00     0.006 A 
ENDBRANCH  26  40
BRANCH  27  48
ATOM     48  C   UNL A   1      40.827  27.756  28.147  1.00  0.00     0.057 A 
ATOM     49  C   UNL A   1      41.608  28.252  27.097  1.00  0.00     0.134 A 
ATOM     50  C   UNL A   1      40.218  26.509  27.966  1.00  0.00     0.134 A 
ATOM     51  F   UNL A   1      42.205  29.448  27.205  1.00  0.00    -0.206 F 
ATOM     52  C   UNL A   1      41.760  27.544  25.904  1.00  0.00     0.040 A 
ATOM     53  C   UNL A   1      40.386  25.777  26.791  1.00  0.00     0.040 A 
ATOM     54  F   UNL A   1      39.466  25.975  28.940  1.00  0.00    -0.206 F 
ATOM     55  C   UNL A   1      41.153  26.299  25.751  1.00  0.00     0.006 A 
ENDBRANCH  27  48
BRANCH  39  56
ATOM     56  C   UNL A   1      44.158  27.796  34.253  1.00  0.00     0.057 A 
ATOM     57  C   UNL A   1      43.983  26.538  34.844  1.00  0.00     0.134 A 
ATOM     58  C   UNL A   1      45.466  28.286  34.147  1.00  0.00     0.134 A 
ATOM     59  F   UNL A   1      42.754  26.020  34.990  1.00  0.00    -0.206 F 
ATOM     60  C   UNL A   1      45.066  25.808  35.337  1.00  0.00     0.040 A 
ATOM     61  C   UNL A   1      46.558  27.554  34.612  1.00  0.00     0.040 A 
ATOM     62  F   UNL A   1      45.702  29.482  33.586  1.00  0.00    -0.206 F 
ATOM     63  C   UNL A   1      46.359  26.315  35.216  1.00  0.00     0.006 A 
ENDBRANCH  39  56
ENDBRANCH  13  14
ENDBRANCH   6   8
ENDBRANCH   3   4
ENDBRANCH   2   3
ENDBRANCH   1   2
BRANCH   1  64
ATOM     64  C   UNL A   1      31.839  29.865  25.476  1.00  0.00     0.002 C 
BRANCH  64  65
ATOM     65  C   UNL A   1      33.220  29.332  25.076  1.00  0.00     0.021 C 
BRANCH  65  66
ATOM     66  C   UNL A   1      33.389  29.116  23.573  1.00  0.00     0.116 C 
BRANCH  66  67
ATOM     67  N   UNL A   1      32.097  29.018  22.918  1.00  0.00    -0.356 N 
ATOM     68  C   UNL A   1      31.274  27.958  22.703  1.00  0.00     0.224 C 
ATOM     69  H   UNL A   1      31.758  29.872  22.567  1.00  0.00     0.163 HD
ATOM     70  O   UNL A   1      30.278  28.149  22.001  1.00  0.00    -0.275 OA
BRANCH  68  71
ATOM     71  C   UNL A   1      31.533  26.595  23.320  1.00  0.00     0.098 C 
ATOM     72  C   UNL A   1      30.475  26.173  24.350  1.00  0.00     0.017 C 
ATOM     73  C   UNL A   1      31.805  25.566  22.219  1.00  0.00     0.133 C 
ATOM     74  C   UNL A   1      30.651  24.722  24.792  1.00  0.00     0.022 C 
ATOM     75  N   UNL A   1      31.904  24.211  22.751  1.00  0.00    -0.338 N 
ATOM     76  C   UNL A   1      30.790  23.787  23.596  1.00  0.00     0.120 C 
BRANCH  75  77
ATOM     77  C   UNL A   1      33.007  23.438  22.400  1.00  0.00     0.255 C 
ATOM     78  O   UNL A   1      33.441  23.335  21.255  1.00  0.00    -0.269 OA
BRANCH  77  79
ATOM     79  C   UNL A   1      33.758  22.740  23.454  1.00  0.00     0.059 A 
ATOM     80  C   UNL A   1      34.850  23.418  24.010  1.00  0.00     0.031 A 
ATOM     81  C   UNL A   1      33.447  21.436  23.856  1.00  0.00     0.053 A 
ATOM     82  C   UNL A   1      35.606  22.798  25.000  1.00  0.00     0.018 A 
ATOM     83  C   UNL A   1      34.207  20.831  24.861  1.00  0.00     0.022 A 
ATOM     84  Cl  UNL A   1      32.153  20.531  23.159  1.00  0.00    -0.083 Cl
ATOM     85  Br  UNL A   1      37.082  23.703  25.757  1.00  0.00    -0.051 Br
ATOM     86  C   UNL A   1      35.284  21.513  25.436  1.00  0.00     0.017 A 
ENDBRANCH  77  79
ENDBRANCH  75  77
ENDBRANCH  68  71
ENDBRANCH  66  67
ENDBRANCH  65  66
ENDBRANCH  64  65
ENDBRANCH   1  64
TORSDOF 15
ENDMDL
MODEL 2
REMARK VINA RESULT:     -11.7      4.522      9.441
REMARK SMILES O=C(NCCCCCCNC(=O)[C@H]1CCCN(C(=O)c2cc(Br)ccc2Cl)C1)c1ccc(-c2c3nc(c(-c4c(F)cccc4F)c4ccc([nH]4)c(-c4c(F)cccc4F)c4nc(c(-c5c(F)cccc5F)c5ccc2[nH]5)C=C4)C=C3)cc1
REMARK SMILES IDX 6 1 5 2 4 3 3 4 1 5 2 6 29 8 30 9 82 10 31 11 81 12 32 13
REMARK SMILES IDX 33 14 34 15 75 16 35 17 80 18 74 19 76 20 36 21 79 22 73 23
REMARK SMILES IDX 72 24 37 26 63 27 46 28 62 29 47 30 50 31 61 32 77 33 48 34
REMARK SMILES IDX 49 35 60 37 78 38 51 39 38 40 39 41 44 42 40 43 41 44 43 45
REMARK SMILES IDX 45 46 42 47 64 48 65 49 70 50 66 51 67 52 69 53 71 54 68 55
REMARK SMILES IDX 52 56 53 57 58 58 54 59 55 60 57 61 59 62 56 63 7 64 8 65
REMARK SMILES IDX 9 66 10 67 11 68 12 70 13 71 14 72 28 73 15 74 17 75 16 76
REMARK SMILES IDX 18 77 19 78 20 79 21 80 26 81 22 82 25 83 27 84 23 85 24 86
REMARK H PARENT 3 7 76 25 50 36 10 69
REMARK Flexibility Score: inf
ROOT
ATOM      1  C   UNL A   1      37.433  21.058  24.665  1.00  0.00     0.002 C 
ENDROOT
BRANCH   1   2
ATOM      2  C   UNL A   1      38.332  19.838  24.866  1.00  0.00     0.021 C 
BRANCH   2   3
ATOM      3  C   UNL A   1      39.259  19.933  26.070  1.00  0.00     0.116 C 
BRANCH   3   4
ATOM      4  N   UNL A   1      40.465  19.139  25.897  1.00  0.00    -0.352 N 
ATOM      5  O   UNL A   1      42.678  18.782  25.630  1.00  0.00    -0.269 OA
ATOM      6  C   UNL A   1      41.777  19.530  25.994  1.00  0.00     0.251 C 
ATOM      7  H   UNL A   1      40.319  18.190  25.682  1.00  0.00     0.163 HD
BRANCH   6   8
ATOM      8  C   UNL A   1      42.098  20.870  26.528  1.00  0.00     0.039 A 
ATOM      9  C   UNL A   1      42.093  21.101  27.906  1.00  0.00     0.014 A 
ATOM     10  C   UNL A   1      42.413  21.903  25.642  1.00  0.00     0.014 A 
ATOM     11  C   UNL A   1      42.270  22.390  28.389  1.00  0.00     0.010 A 
ATOM     12  C   UNL A   1      42.681  23.183  26.137  1.00  0.00     0.010 A 
ATOM     13  C   UNL A   1      42.589  23.441  27.514  1.00  0.00    -0.014 A 
BRANCH  13  14
ATOM     14  C   UNL A   1      42.897  24.779  28.075  1.00  0.00     0.031 A 
ATOM     15  C   UNL A   1      44.305  25.180  28.414  1.00  0.00     0.074 A 
ATOM     16  C   UNL A   1      41.884  25.649  28.248  1.00  0.00     0.049 A 
ATOM     17  N   UNL A   1      44.742  26.316  28.896  1.00  0.00    -0.248 NA
ATOM     18  C   UNL A   1      45.358  24.178  28.189  1.00  0.00     0.031 C 
ATOM     19  C   UNL A   1      40.474  25.366  27.964  1.00  0.00     0.029 A 
ATOM     20  N   UNL A   1      41.878  26.948  28.687  1.00  0.00    -0.354 N 
ATOM     21  C   UNL A   1      46.116  26.166  29.041  1.00  0.00     0.074 A 
ATOM     22  C   UNL A   1      46.437  24.816  28.627  1.00  0.00     0.031 C 
ATOM     23  C   UNL A   1      39.748  26.468  28.192  1.00  0.00     0.029 A 
ATOM     24  C   UNL A   1      40.626  27.514  28.699  1.00  0.00     0.049 A 
ATOM     25  H   UNL A   1      42.691  27.428  28.965  1.00  0.00     0.167 HD
ATOM     26  C   UNL A   1      47.025  27.075  29.471  1.00  0.00     0.037 A 
ATOM     27  C   UNL A   1      40.226  28.735  29.097  1.00  0.00     0.037 A 
ATOM     28  C   UNL A   1      46.696  28.417  29.883  1.00  0.00     0.049 A 
ATOM     29  C   UNL A   1      41.249  29.706  29.607  1.00  0.00     0.074 A 
ATOM     30  C   UNL A   1      47.548  29.417  30.322  1.00  0.00     0.029 A 
ATOM     31  N   UNL A   1      45.414  28.944  29.912  1.00  0.00    -0.354 N 
ATOM     32  N   UNL A   1      42.547  29.558  29.710  1.00  0.00    -0.248 NA
ATOM     33  C   UNL A   1      40.752  31.011  30.060  1.00  0.00     0.031 C 
ATOM     34  C   UNL A   1      46.775  30.536  30.656  1.00  0.00     0.029 A 
ATOM     35  C   UNL A   1      45.449  30.250  30.379  1.00  0.00     0.049 A 
ATOM     36  H   UNL A   1      44.599  28.463  29.641  1.00  0.00     0.167 HD
ATOM     37  C   UNL A   1      43.026  30.757  30.221  1.00  0.00     0.074 A 
ATOM     38  C   UNL A   1      41.879  31.628  30.385  1.00  0.00     0.031 C 
ATOM     39  C   UNL A   1      44.298  31.103  30.531  1.00  0.00     0.037 A 
BRANCH  26  40
ATOM     40  C   UNL A   1      48.463  26.647  29.530  1.00  0.00     0.057 A 
ATOM     41  C   UNL A   1      49.342  26.860  28.460  1.00  0.00     0.134 A 
ATOM     42  C   UNL A   1      48.990  26.061  30.688  1.00  0.00     0.134 A 
ATOM     43  F   UNL A   1      48.901  27.407  27.317  1.00  0.00    -0.206 F 
ATOM     44  C   UNL A   1      50.687  26.489  28.532  1.00  0.00     0.040 A 
ATOM     45  C   UNL A   1      50.338  25.709  30.783  1.00  0.00     0.040 A 
ATOM     46  F   UNL A   1      48.207  25.835  31.754  1.00  0.00    -0.206 F 
ATOM     47  C   UNL A   1      51.189  25.918  29.700  1.00  0.00     0.006 A 
ENDBRANCH  26  40
BRANCH  27  48
ATOM     48  C   UNL A   1      38.787  29.098  29.038  1.00  0.00     0.057 A 
ATOM     49  C   UNL A   1      38.205  29.566  27.855  1.00  0.00     0.134 A 
ATOM     50  C   UNL A   1      37.962  28.986  30.164  1.00  0.00     0.134 A 
ATOM     51  F   UNL A   1      38.947  29.709  26.747  1.00  0.00    -0.206 F 
ATOM     52  C   UNL A   1      36.858  29.929  27.799  1.00  0.00     0.040 A 
ATOM     53  C   UNL A   1      36.608  29.317  30.114  1.00  0.00     0.040 A 
ATOM     54  F   UNL A   1      38.459  28.535  31.325  1.00  0.00    -0.206 F 
ATOM     55  C   UNL A   1      36.055  29.799  28.930  1.00  0.00     0.006 A 
ENDBRANCH  27  48
BRANCH  39  56
ATOM     56  C   UNL A   1      44.514  32.496  31.046  1.00  0.00     0.057 A 
ATOM     57  C   UNL A   1      44.502  32.789  32.415  1.00  0.00     0.134 A 
ATOM     58  C   UNL A   1      44.751  33.554  30.159  1.00  0.00     0.134 A 
ATOM     59  F   UNL A   1      44.264  31.823  33.315  1.00  0.00    -0.206 F 
ATOM     60  C   UNL A   1      44.691  34.090  32.884  1.00  0.00     0.040 A 
ATOM     61  C   UNL A   1      44.968  34.854  30.617  1.00  0.00     0.040 A 
ATOM     62  F   UNL A   1      44.781  33.340  28.834  1.00  0.00    -0.206 F 
ATOM     63  C   UNL A   1      44.931  35.126  31.982  1.00  0.00     0.006 A 
ENDBRANCH  39  56
ENDBRANCH  13  14
ENDBRANCH   6   8
ENDBRANCH   3   4
ENDBRANCH   2   3
ENDBRANCH   1   2
BRANCH   1  64
ATOM     64  C   UNL A   1      35.988  20.883  25.146  1.00  0.00     0.002 C 
BRANCH  64  65
ATOM     65  C   UNL A   1      35.515  21.918  26.173  1.00  0.00     0.021 C 
BRANCH  65  66
ATOM     66  C   UNL A   1      34.438  21.399  27.124  1.00  0.00     0.116 C 
BRANCH  66  67
ATOM     67  N   UNL A   1      33.525  20.508  26.432  1.00  0.00    -0.356 N 
ATOM     68  C   UNL A   1      32.563  20.748  25.502  1.00  0.00     0.224 C 
ATOM     69  H   UNL A   1      33.620  19.561  26.680  1.00  0.00     0.163 HD
ATOM     70  O   UNL A   1      31.846  19.800  25.171  1.00  0.00    -0.275 OA
BRANCH  68  71
ATOM     71  C   UNL A   1      32.381  22.112  24.860  1.00  0.00     0.098 C 
ATOM     72  C   UNL A   1      32.474  22.090  23.327  1.00  0.00     0.017 C 
ATOM     73  C   UNL A   1      31.126  22.790  25.418  1.00  0.00     0.133 C 
ATOM     74  C   UNL A   1      32.082  23.429  22.708  1.00  0.00     0.022 C 
ATOM     75  N   UNL A   1      30.821  24.034  24.719  1.00  0.00    -0.338 N 
ATOM     76  C   UNL A   1      30.755  23.934  23.262  1.00  0.00     0.120 C 
BRANCH  75  77
ATOM     77  C   UNL A   1      30.597  25.183  25.472  1.00  0.00     0.255 C 
ATOM     78  O   UNL A   1      29.974  25.201  26.531  1.00  0.00    -0.269 OA
BRANCH  77  79
ATOM     79  C   UNL A   1      31.182  26.456  25.029  1.00  0.00     0.059 A 
ATOM     80  C   UNL A   1      30.323  27.361  24.392  1.00  0.00     0.031 A 
ATOM     81  C   UNL A   1      32.543  26.746  25.175  1.00  0.00     0.053 A 
ATOM     82  C   UNL A   1      30.828  28.576  23.938  1.00  0.00     0.018 A 
ATOM     83  C   UNL A   1      33.033  27.975  24.726  1.00  0.00     0.022 A 
ATOM     84  Cl  UNL A   1      33.658  25.640  25.893  1.00  0.00    -0.083 Cl
ATOM     85  Br  UNL A   1      29.678  29.804  23.076  1.00  0.00    -0.051 Br
ATOM     86  C   UNL A   1      32.175  28.892  24.111  1.00  0.00     0.017 A 
ENDBRANCH  77  79
ENDBRANCH  75  77
ENDBRANCH  68  71
ENDBRANCH  66  67
ENDBRANCH  65  66
ENDBRANCH  64  65
ENDBRANCH   1  64
TORSDOF 15
ENDMDL
MODEL 3
REMARK VINA RESULT:     -11.7      0.750      1.530
REMARK SMILES O=C(NCCCCCCNC(=O)[C@H]1CCCN(C(=O)c2cc(Br)ccc2Cl)C1)c1ccc(-c2c3nc(c(-c4c(F)cccc4F)c4ccc([nH]4)c(-c4c(F)cccc4F)c4nc(c(-c5c(F)cccc5F)c5ccc2[nH]5)C=C4)C=C3)cc1
REMARK SMILES IDX 6 1 5 2 4 3 3 4 1 5 2 6 29 8 30 9 82 10 31 11 81 12 32 13
REMARK SMILES IDX 33 14 34 15 75 16 35 17 80 18 74 19 76 20 36 21 79 22 73 23
REMARK SMILES IDX 72 24 37 26 63 27 46 28 62 29 47 30 50 31 61 32 77 33 48 34
REMARK SMILES IDX 49 35 60 37 78 38 51 39 38 40 39 41 44 42 40 43 41 44 43 45
REMARK SMILES IDX 45 46 42 47 64 48 65 49 70 50 66 51 67 52 69 53 71 54 68 55
REMARK SMILES IDX 52 56 53 57 58 58 54 59 55 60 57 61 59 62 56 63 7 64 8 65
REMARK SMILES IDX 9 66 10 67 11 68 12 70 13 71 14 72 28 73 15 74 17 75 16 76
REMARK SMILES IDX 18 77 19 78 20 79 21 80 26 81 22 82 25 83 27 84 23 85 24 86
REMARK H PARENT 3 7 76 25 50 36 10 69
REMARK Flexibility Score: inf
ROOT
ATOM      1  C   UNL A   1      31.704  30.552  26.862  1.00  0.00     0.002 C 
ENDROOT
BRANCH   1   2
ATOM      2  C   UNL A   1      31.420  32.054  26.896  1.00  0.00     0.021 C 
BRANCH   2   3
ATOM      3  C   UNL A   1      32.665  32.926  26.976  1.00  0.00     0.116 C 
BRANCH   3   4
ATOM      4  N   UNL A   1      32.398  34.204  27.617  1.00  0.00    -0.352 N 
ATOM      5  O   UNL A   1      32.528  35.759  29.249  1.00  0.00    -0.269 OA
ATOM      6  C   UNL A   1      33.000  34.759  28.719  1.00  0.00     0.251 C 
ATOM      7  H   UNL A   1      31.688  34.745  27.203  1.00  0.00     0.163 HD
BRANCH   6   8
ATOM      8  C   UNL A   1      34.217  34.132  29.274  1.00  0.00     0.039 A 
ATOM      9  C   UNL A   1      34.121  33.194  30.306  1.00  0.00     0.014 A 
ATOM     10  C   UNL A   1      35.466  34.482  28.754  1.00  0.00     0.014 A 
ATOM     11  C   UNL A   1      35.275  32.708  30.905  1.00  0.00     0.010 A 
ATOM     12  C   UNL A   1      36.625  33.922  29.300  1.00  0.00     0.010 A 
ATOM     13  C   UNL A   1      36.539  33.048  30.395  1.00  0.00    -0.014 A 
BRANCH  13  14
ATOM     14  C   UNL A   1      37.747  32.412  30.977  1.00  0.00     0.031 A 
ATOM     15  C   UNL A   1      38.372  32.933  32.240  1.00  0.00     0.074 A 
ATOM     16  C   UNL A   1      38.260  31.330  30.362  1.00  0.00     0.049 A 
ATOM     17  N   UNL A   1      39.418  32.480  32.886  1.00  0.00    -0.248 NA
ATOM     18  C   UNL A   1      37.750  34.113  32.858  1.00  0.00     0.031 C 
ATOM     19  C   UNL A   1      37.742  30.743  29.122  1.00  0.00     0.029 A 
ATOM     20  N   UNL A   1      39.315  30.521  30.695  1.00  0.00    -0.354 N 
ATOM     21  C   UNL A   1      39.587  33.323  33.978  1.00  0.00     0.074 A 
ATOM     22  C   UNL A   1      38.553  34.334  33.891  1.00  0.00     0.031 C 
ATOM     23  C   UNL A   1      38.451  29.646  28.825  1.00  0.00     0.029 A 
ATOM     24  C   UNL A   1      39.510  29.487  29.813  1.00  0.00     0.049 A 
ATOM     25  H   UNL A   1      39.876  30.666  31.491  1.00  0.00     0.167 HD
ATOM     26  C   UNL A   1      40.511  33.251  34.966  1.00  0.00     0.037 A 
ATOM     27  C   UNL A   1      40.454  28.528  29.787  1.00  0.00     0.037 A 
ATOM     28  C   UNL A   1      41.537  32.241  35.044  1.00  0.00     0.049 A 
ATOM     29  C   UNL A   1      41.489  28.499  30.872  1.00  0.00     0.074 A 
ATOM     30  C   UNL A   1      42.513  32.075  36.013  1.00  0.00     0.029 A 
ATOM     31  N   UNL A   1      41.724  31.229  34.114  1.00  0.00    -0.354 N 
ATOM     32  N   UNL A   1      41.616  29.285  31.913  1.00  0.00    -0.248 NA
ATOM     33  C   UNL A   1      42.515  27.452  30.776  1.00  0.00     0.031 C 
ATOM     34  C   UNL A   1      43.315  30.988  35.647  1.00  0.00     0.029 A 
ATOM     35  C   UNL A   1      42.809  30.445  34.477  1.00  0.00     0.049 A 
ATOM     36  H   UNL A   1      41.167  31.086  33.315  1.00  0.00     0.167 HD
ATOM     37  C   UNL A   1      42.723  28.817  32.608  1.00  0.00     0.074 A 
ATOM     38  C   UNL A   1      43.217  27.665  31.880  1.00  0.00     0.031 C 
ATOM     39  C   UNL A   1      43.283  29.300  33.743  1.00  0.00     0.037 A 
BRANCH  26  40
ATOM     40  C   UNL A   1      40.466  34.300  36.039  1.00  0.00     0.057 A 
ATOM     41  C   UNL A   1      39.744  34.112  37.226  1.00  0.00     0.134 A 
ATOM     42  C   UNL A   1      41.193  35.491  35.910  1.00  0.00     0.134 A 
ATOM     43  F   UNL A   1      39.018  33.000  37.411  1.00  0.00    -0.206 F 
ATOM     44  C   UNL A   1      39.732  35.078  38.235  1.00  0.00     0.040 A 
ATOM     45  C   UNL A   1      41.209  36.452  36.922  1.00  0.00     0.040 A 
ATOM     46  F   UNL A   1      41.913  35.731  34.804  1.00  0.00    -0.206 F 
ATOM     47  C   UNL A   1      40.473  36.250  38.086  1.00  0.00     0.006 A 
ENDBRANCH  26  40
BRANCH  27  48
ATOM     48  C   UNL A   1      40.465  27.529  28.689  1.00  0.00     0.057 A 
ATOM     49  C   UNL A   1      41.249  27.716  27.546  1.00  0.00     0.134 A 
ATOM     50  C   UNL A   1      39.690  26.365  28.757  1.00  0.00     0.134 A 
ATOM     51  F   UNL A   1      42.001  28.820  27.415  1.00  0.00    -0.206 F 
ATOM     52  C   UNL A   1      41.248  26.791  26.500  1.00  0.00     0.040 A 
ATOM     53  C   UNL A   1      39.702  25.418  27.734  1.00  0.00     0.040 A 
ATOM     54  F   UNL A   1      38.925  26.123  29.832  1.00  0.00    -0.206 F 
ATOM     55  C   UNL A   1      40.477  25.635  26.596  1.00  0.00     0.006 A 
ENDBRANCH  27  48
BRANCH  39  56
ATOM     56  C   UNL A   1      44.473  28.559  34.280  1.00  0.00     0.057 A 
ATOM     57  C   UNL A   1      45.783  28.911  33.933  1.00  0.00     0.134 A 
ATOM     58  C   UNL A   1      44.302  27.488  35.167  1.00  0.00     0.134 A 
ATOM     59  F   UNL A   1      46.012  29.917  33.075  1.00  0.00    -0.206 F 
ATOM     60  C   UNL A   1      46.882  28.207  34.428  1.00  0.00     0.040 A 
ATOM     61  C   UNL A   1      45.394  26.794  35.688  1.00  0.00     0.040 A 
ATOM     62  F   UNL A   1      43.073  27.103  35.543  1.00  0.00    -0.206 F 
ATOM     63  C   UNL A   1      46.688  27.148  35.313  1.00  0.00     0.006 A 
ENDBRANCH  39  56
ENDBRANCH  13  14
ENDBRANCH   6   8
ENDBRANCH   3   4
ENDBRANCH   2   3
ENDBRANCH   1   2
BRANCH   1  64
ATOM     64  C   UNL A   1      31.768  29.937  25.459  1.00  0.00     0.002 C 
BRANCH  64  65
ATOM     65  C   UNL A   1      33.122  29.328  25.077  1.00  0.00     0.021 C 
BRANCH  65  66
ATOM     66  C   UNL A   1      33.313  29.139  23.573  1.00  0.00     0.116 C 
BRANCH  66  67
ATOM     67  N   UNL A   1      32.033  29.015  22.902  1.00  0.00    -0.356 N 
ATOM     68  C   UNL A   1      31.232  27.939  22.680  1.00  0.00     0.224 C 
ATOM     69  H   UNL A   1      31.682  29.861  22.542  1.00  0.00     0.163 HD
ATOM     70  O   UNL A   1      30.242  28.108  21.965  1.00  0.00    -0.275 OA
BRANCH  68  71
ATOM     71  C   UNL A   1      31.508  26.583  23.306  1.00  0.00     0.098 C 
ATOM     72  C   UNL A   1      30.465  26.162  24.352  1.00  0.00     0.017 C 
ATOM     73  C   UNL A   1      31.775  25.547  22.211  1.00  0.00     0.133 C 
ATOM     74  C   UNL A   1      30.656  24.716  24.804  1.00  0.00     0.022 C 
ATOM     75  N   UNL A   1      31.890  24.197  22.754  1.00  0.00    -0.338 N 
ATOM     76  C   UNL A   1      30.789  23.772  23.615  1.00  0.00     0.120 C 
BRANCH  75  77
ATOM     77  C   UNL A   1      32.995  23.429  22.398  1.00  0.00     0.255 C 
ATOM     78  O   UNL A   1      33.426  23.332  21.251  1.00  0.00    -0.269 OA
BRANCH  77  79
ATOM     79  C   UNL A   1      33.750  22.729  23.447  1.00  0.00     0.059 A 
ATOM     80  C   UNL A   1      34.839  23.410  24.006  1.00  0.00     0.031 A 
ATOM     81  C   UNL A   1      33.447  21.421  23.841  1.00  0.00     0.053 A 
ATOM     82  C   UNL A   1      35.598  22.788  24.992  1.00  0.00     0.018 A 
ATOM     83  C   UNL A   1      34.210  20.813  24.841  1.00  0.00     0.022 A 
ATOM     84  Cl  UNL A   1      32.158  20.513  23.138  1.00  0.00    -0.083 Cl
ATOM     85  Br  UNL A   1      37.070  23.696  25.754  1.00  0.00    -0.051 Br
ATOM     86  C   UNL A   1      35.283  21.498  25.420  1.00  0.00     0.017 A 
ENDBRANCH  77  79
ENDBRANCH  75  77
ENDBRANCH  68  71
ENDBRANCH  66  67
ENDBRANCH  65  66
ENDBRANCH  64  65
ENDBRANCH   1  64
TORSDOF 15
ENDMDL
