MODEL 1
REMARK VINA RESULT:     -11.8      0.000      0.000
REMARK SMILES O=C(NCCCCCCNC(=O)c1cn(C2CN(C(=O)[C@@H]3CC=CCC3)C2)nn1)c1ccc(-c2c3nc(c(-c4c(F)cccc4F)c4ccc([nH]4)c(-c4c(F)cccc4F)c4nc(c(-c5c(F)cccc5F)c5ccc2[nH]5)C=C4)C=C3)cc1
REMARK SMILES IDX 6 1 5 2 4 3 3 4 1 5 2 6 30 8 31 9 83 10 32 11 82 12 33 13
REMARK SMILES IDX 34 14 35 15 76 16 36 17 81 18 75 19 77 20 37 21 80 22 74 23
REMARK SMILES IDX 73 24 38 26 64 27 47 28 63 29 48 30 51 31 62 32 78 33 49 34
REMARK SMILES IDX 50 35 61 37 79 38 52 39 39 40 40 41 45 42 41 43 42 44 44 45
REMARK SMILES IDX 46 46 43 47 65 48 66 49 71 50 67 51 68 52 70 53 72 54 69 55
REMARK SMILES IDX 53 56 54 57 59 58 55 59 56 60 58 61 60 62 57 63 7 64 8 65
REMARK SMILES IDX 9 66 10 67 11 68 12 70 13 71 14 72 29 73 15 74 28 75 16 76
REMARK SMILES IDX 17 77 27 78 18 79 19 80 20 81 21 82 22 83 26 84 23 85 25 86
REMARK SMILES IDX 24 87
REMARK H PARENT 3 7 77 25 51 36 10 69
REMARK Flexibility Score: inf
ROOT
ATOM      1  C   UNL A   1      41.798  21.151  27.692  1.00  0.00     0.002 C 
ENDROOT
BRANCH   1   2
ATOM      2  C   UNL A   1      42.609  19.936  27.227  1.00  0.00     0.021 C 
BRANCH   2   3
ATOM      3  C   UNL A   1      42.423  19.561  25.756  1.00  0.00     0.116 C 
BRANCH   3   4
ATOM      4  N   UNL A   1      43.598  19.777  24.940  1.00  0.00    -0.352 N 
ATOM      5  O   UNL A   1      45.503  20.529  24.121  1.00  0.00    -0.269 OA
ATOM      6  C   UNL A   1      44.533  20.767  24.846  1.00  0.00     0.251 C 
ATOM      7  H   UNL A   1      43.761  19.040  24.307  1.00  0.00     0.163 HD
BRANCH   6   8
ATOM      8  C   UNL A   1      44.431  22.109  25.482  1.00  0.00     0.039 A 
ATOM      9  C   UNL A   1      45.184  22.562  26.566  1.00  0.00     0.014 A 
ATOM     10  C   UNL A   1      43.433  22.953  24.959  1.00  0.00     0.014 A 
ATOM     11  C   UNL A   1      44.880  23.773  27.179  1.00  0.00     0.010 A 
ATOM     12  C   UNL A   1      43.134  24.170  25.556  1.00  0.00     0.010 A 
ATOM     13  C   UNL A   1      43.831  24.555  26.695  1.00  0.00    -0.014 A 
BRANCH  13  14
ATOM     14  C   UNL A   1      43.569  25.834  27.345  1.00  0.00     0.031 A 
ATOM     15  C   UNL A   1      44.543  26.916  27.015  1.00  0.00     0.074 A 
ATOM     16  C   UNL A   1      42.456  26.077  28.064  1.00  0.00     0.049 A 
ATOM     17  N   UNL A   1      45.298  27.594  27.817  1.00  0.00    -0.248 NA
ATOM     18  C   UNL A   1      44.768  27.211  25.590  1.00  0.00     0.031 C 
ATOM     19  C   UNL A   1      41.278  25.218  28.218  1.00  0.00     0.029 A 
ATOM     20  N   UNL A   1      42.099  27.208  28.734  1.00  0.00    -0.354 N 
ATOM     21  C   UNL A   1      45.964  28.529  27.021  1.00  0.00     0.074 A 
ATOM     22  C   UNL A   1      45.709  28.154  25.656  1.00  0.00     0.031 C 
ATOM     23  C   UNL A   1      40.262  25.947  28.734  1.00  0.00     0.029 A 
ATOM     24  C   UNL A   1      40.752  27.274  29.066  1.00  0.00     0.049 A 
ATOM     25  H   UNL A   1      42.741  27.919  28.962  1.00  0.00     0.167 HD
ATOM     26  C   UNL A   1      46.492  29.669  27.546  1.00  0.00     0.037 A 
ATOM     27  C   UNL A   1      40.080  28.364  29.512  1.00  0.00     0.037 A 
ATOM     28  C   UNL A   1      46.700  29.545  28.965  1.00  0.00     0.049 A 
ATOM     29  C   UNL A   1      41.077  29.339  30.015  1.00  0.00     0.074 A 
ATOM     30  C   UNL A   1      47.447  28.712  29.777  1.00  0.00     0.029 A 
ATOM     31  N   UNL A   1      45.822  30.181  29.805  1.00  0.00    -0.354 N 
ATOM     32  N   UNL A   1      41.790  29.165  31.092  1.00  0.00    -0.248 NA
ATOM     33  C   UNL A   1      41.595  30.321  29.075  1.00  0.00     0.031 C 
ATOM     34  C   UNL A   1      46.646  28.520  30.941  1.00  0.00     0.029 A 
ATOM     35  C   UNL A   1      45.490  29.284  30.785  1.00  0.00     0.049 A 
ATOM     36  H   UNL A   1      45.493  31.105  29.721  1.00  0.00     0.167 HD
ATOM     37  C   UNL A   1      43.040  29.674  30.772  1.00  0.00     0.074 A 
ATOM     38  C   UNL A   1      42.834  30.454  29.554  1.00  0.00     0.031 C 
ATOM     39  C   UNL A   1      44.171  29.187  31.361  1.00  0.00     0.037 A 
BRANCH  26  40
ATOM     40  C   UNL A   1      46.448  31.019  26.862  1.00  0.00     0.057 A 
ATOM     41  C   UNL A   1      47.618  31.803  26.826  1.00  0.00     0.134 A 
ATOM     42  C   UNL A   1      45.262  31.710  26.538  1.00  0.00     0.134 A 
ATOM     43  F   UNL A   1      48.817  31.267  27.100  1.00  0.00    -0.206 F 
ATOM     44  C   UNL A   1      47.592  33.187  26.609  1.00  0.00     0.040 A 
ATOM     45  C   UNL A   1      45.232  33.082  26.271  1.00  0.00     0.040 A 
ATOM     46  F   UNL A   1      44.058  31.129  26.559  1.00  0.00    -0.206 F 
ATOM     47  C   UNL A   1      46.393  33.834  26.347  1.00  0.00     0.006 A 
ENDBRANCH  26  40
BRANCH  27  48
ATOM     48  C   UNL A   1      38.675  28.751  29.244  1.00  0.00     0.057 A 
ATOM     49  C   UNL A   1      37.729  28.827  30.276  1.00  0.00     0.134 A 
ATOM     50  C   UNL A   1      38.294  29.321  28.016  1.00  0.00     0.134 A 
ATOM     51  F   UNL A   1      38.015  28.355  31.498  1.00  0.00    -0.206 F 
ATOM     52  C   UNL A   1      36.485  29.450  30.103  1.00  0.00     0.040 A 
ATOM     53  C   UNL A   1      37.053  29.937  27.827  1.00  0.00     0.040 A 
ATOM     54  F   UNL A   1      39.150  29.378  26.985  1.00  0.00    -0.206 F 
ATOM     55  C   UNL A   1      36.148  30.016  28.878  1.00  0.00     0.006 A 
ENDBRANCH  27  48
BRANCH  39  56
ATOM     56  C   UNL A   1      44.012  28.268  32.538  1.00  0.00     0.057 A 
ATOM     57  C   UNL A   1      43.821  28.711  33.856  1.00  0.00     0.134 A 
ATOM     58  C   UNL A   1      43.895  26.894  32.308  1.00  0.00     0.134 A 
ATOM     59  F   UNL A   1      43.810  30.016  34.156  1.00  0.00    -0.206 F 
ATOM     60  C   UNL A   1      43.574  27.820  34.903  1.00  0.00     0.040 A 
ATOM     61  C   UNL A   1      43.614  25.996  33.340  1.00  0.00     0.040 A 
ATOM     62  F   UNL A   1      44.005  26.405  31.062  1.00  0.00    -0.206 F 
ATOM     63  C   UNL A   1      43.462  26.457  34.645  1.00  0.00     0.006 A 
ENDBRANCH  39  56
ENDBRANCH  13  14
ENDBRANCH   6   8
ENDBRANCH   3   4
ENDBRANCH   2   3
ENDBRANCH   1   2
BRANCH   1  64
ATOM     64  C   UNL A   1      40.358  21.222  27.176  1.00  0.00     0.002 C 
BRANCH  64  65
ATOM     65  C   UNL A   1      39.825  22.634  26.914  1.00  0.00     0.021 C 
BRANCH  65  66
ATOM     66  C   UNL A   1      38.719  22.714  25.864  1.00  0.00     0.116 C 
BRANCH  66  67
ATOM     67  N   UNL A   1      38.249  21.396  25.473  1.00  0.00    -0.351 N 
ATOM     68  C   UNL A   1      37.040  21.042  24.928  1.00  0.00     0.273 C 
ATOM     69  H   UNL A   1      38.883  20.656  25.619  1.00  0.00     0.163 HD
ATOM     70  O   UNL A   1      36.741  19.840  24.875  1.00  0.00    -0.267 OA
BRANCH  68  71
ATOM     71  C   UNL A   1      36.168  22.081  24.422  1.00  0.00     0.170 A 
ATOM     72  C   UNL A   1      35.081  22.661  25.053  1.00  0.00     0.145 A 
ATOM     73  N   UNL A   1      36.323  22.666  23.191  1.00  0.00    -0.125 NA
ATOM     74  N   UNL A   1      34.575  23.520  24.120  1.00  0.00    -0.245 N 
ATOM     75  N   UNL A   1      35.331  23.527  23.010  1.00  0.00    -0.066 NA
BRANCH  74  76
ATOM     76  C   UNL A   1      33.383  24.304  24.208  1.00  0.00     0.148 C 
ATOM     77  C   UNL A   1      32.477  23.942  25.403  1.00  0.00     0.148 C 
ATOM     78  C   UNL A   1      33.582  25.668  24.914  1.00  0.00     0.148 C 
ATOM     79  N   UNL A   1      32.334  25.380  25.581  1.00  0.00    -0.338 N 
ATOM     80  C   UNL A   1      31.305  26.054  26.158  1.00  0.00     0.226 C 
ATOM     81  O   UNL A   1      30.357  25.431  26.647  1.00  0.00    -0.275 OA
BRANCH  80  82
ATOM     82  C   UNL A   1      31.322  27.574  26.230  1.00  0.00     0.083 C 
ATOM     83  C   UNL A   1      31.190  28.271  24.871  1.00  0.00     0.040 C 
ATOM     84  C   UNL A   1      32.511  28.114  27.029  1.00  0.00     0.018 C 
ATOM     85  C   UNL A   1      31.378  29.760  24.973  1.00  0.00    -0.030 C 
ATOM     86  C   UNL A   1      32.342  29.616  27.280  1.00  0.00     0.028 C 
ATOM     87  C   UNL A   1      31.879  30.364  26.062  1.00  0.00    -0.031 C 
ENDBRANCH  80  82
ENDBRANCH  74  76
ENDBRANCH  68  71
ENDBRANCH  66  67
ENDBRANCH  65  66
ENDBRANCH  64  65
ENDBRANCH   1  64
TORSDOF 15
ENDMDL
MODEL 2
REMARK VINA RESULT:     -11.3      2.496      3.771
REMARK SMILES O=C(NCCCCCCNC(=O)c1cn(C2CN(C(=O)[C@@H]3CC=CCC3)C2)nn1)c1ccc(-c2c3nc(c(-c4c(F)cccc4F)c4ccc([nH]4)c(-c4c(F)cccc4F)c4nc(c(-c5c(F)cccc5F)c5ccc2[nH]5)C=C4)C=C3)cc1
REMARK SMILES IDX 6 1 5 2 4 3 3 4 1 5 2 6 30 8 31 9 83 10 32 11 82 12 33 13
REMARK SMILES IDX 34 14 35 15 76 16 36 17 81 18 75 19 77 20 37 21 80 22 74 23
REMARK SMILES IDX 73 24 38 26 64 27 47 28 63 29 48 30 51 31 62 32 78 33 49 34
REMARK SMILES IDX 50 35 61 37 79 38 52 39 39 40 40 41 45 42 41 43 42 44 44 45
REMARK SMILES IDX 46 46 43 47 65 48 66 49 71 50 67 51 68 52 70 53 72 54 69 55
REMARK SMILES IDX 53 56 54 57 59 58 55 59 56 60 58 61 60 62 57 63 7 64 8 65
REMARK SMILES IDX 9 66 10 67 11 68 12 70 13 71 14 72 29 73 15 74 28 75 16 76
REMARK SMILES IDX 17 77 27 78 18 79 19 80 20 81 21 82 22 83 26 84 23 85 25 86
REMARK SMILES IDX 24 87
REMARK H PARENT 3 7 77 25 51 36 10 69
REMARK Flexibility Score: inf
ROOT
ATOM      1  C   UNL A   1      37.942  23.423  25.880  1.00  0.00     0.002 C 
ENDROOT
BRANCH   1   2
ATOM      2  C   UNL A   1      38.575  22.027  25.846  1.00  0.00     0.021 C 
BRANCH   2   3
ATOM      3  C   UNL A   1      39.909  21.906  26.584  1.00  0.00     0.116 C 
BRANCH   3   4
ATOM      4  N   UNL A   1      41.068  22.108  25.742  1.00  0.00    -0.352 N 
ATOM      5  O   UNL A   1      42.989  22.801  24.907  1.00  0.00    -0.269 OA
ATOM      6  C   UNL A   1      42.060  23.045  25.682  1.00  0.00     0.251 C 
ATOM      7  H   UNL A   1      41.165  21.409  25.055  1.00  0.00     0.163 HD
BRANCH   6   8
ATOM      8  C   UNL A   1      42.062  24.343  26.411  1.00  0.00     0.039 A 
ATOM      9  C   UNL A   1      42.770  24.626  27.579  1.00  0.00     0.014 A 
ATOM     10  C   UNL A   1      41.215  25.336  25.882  1.00  0.00     0.014 A 
ATOM     11  C   UNL A   1      42.558  25.820  28.260  1.00  0.00     0.010 A 
ATOM     12  C   UNL A   1      41.011  26.537  26.548  1.00  0.00     0.010 A 
ATOM     13  C   UNL A   1      41.651  26.756  27.762  1.00  0.00    -0.014 A 
BRANCH  13  14
ATOM     14  C   UNL A   1      41.487  28.010  28.488  1.00  0.00     0.031 A 
ATOM     15  C   UNL A   1      42.551  29.024  28.235  1.00  0.00     0.074 A 
ATOM     16  C   UNL A   1      40.387  28.299  29.211  1.00  0.00     0.049 A 
ATOM     17  N   UNL A   1      43.347  29.587  29.085  1.00  0.00    -0.248 NA
ATOM     18  C   UNL A   1      42.820  29.387  26.834  1.00  0.00     0.031 C 
ATOM     19  C   UNL A   1      39.140  27.534  29.300  1.00  0.00     0.029 A 
ATOM     20  N   UNL A   1      40.115  29.413  29.947  1.00  0.00    -0.354 N 
ATOM     21  C   UNL A   1      44.100  30.510  28.355  1.00  0.00     0.074 A 
ATOM     22  C   UNL A   1      43.834  30.242  26.967  1.00  0.00     0.031 C 
ATOM     23  C   UNL A   1      38.180  28.311  29.851  1.00  0.00     0.029 A 
ATOM     24  C   UNL A   1      38.774  29.571  30.270  1.00  0.00     0.049 A 
ATOM     25  H   UNL A   1      40.810  30.053  30.225  1.00  0.00     0.167 HD
ATOM     26  C   UNL A   1      44.713  31.568  28.955  1.00  0.00     0.037 A 
ATOM     27  C   UNL A   1      38.187  30.684  30.777  1.00  0.00     0.037 A 
ATOM     28  C   UNL A   1      44.890  31.340  30.366  1.00  0.00     0.049 A 
ATOM     29  C   UNL A   1      39.254  31.539  31.349  1.00  0.00     0.074 A 
ATOM     30  C   UNL A   1      45.553  30.399  31.130  1.00  0.00     0.029 A 
ATOM     31  N   UNL A   1      44.055  31.994  31.236  1.00  0.00    -0.354 N 
ATOM     32  N   UNL A   1      39.935  31.241  32.420  1.00  0.00    -0.248 NA
ATOM     33  C   UNL A   1      39.865  32.530  30.477  1.00  0.00     0.031 C 
ATOM     34  C   UNL A   1      44.723  30.203  32.273  1.00  0.00     0.029 A 
ATOM     35  C   UNL A   1      43.636  31.070  32.154  1.00  0.00     0.049 A 
ATOM     36  H   UNL A   1      43.805  32.945  31.206  1.00  0.00     0.167 HD
ATOM     37  C   UNL A   1      41.227  31.662  32.143  1.00  0.00     0.074 A 
ATOM     38  C   UNL A   1      41.104  32.529  30.975  1.00  0.00     0.031 C 
ATOM     39  C   UNL A   1      42.306  31.048  32.711  1.00  0.00     0.037 A 
BRANCH  26  40
ATOM     40  C   UNL A   1      44.790  32.957  28.356  1.00  0.00     0.057 A 
ATOM     41  C   UNL A   1      46.052  33.478  28.007  1.00  0.00     0.134 A 
ATOM     42  C   UNL A   1      43.751  33.908  28.413  1.00  0.00     0.134 A 
ATOM     43  F   UNL A   1      47.124  32.680  27.903  1.00  0.00    -0.206 F 
ATOM     44  C   UNL A   1      46.282  34.851  27.850  1.00  0.00     0.040 A 
ATOM     45  C   UNL A   1      43.962  35.275  28.209  1.00  0.00     0.040 A 
ATOM     46  F   UNL A   1      42.500  33.592  28.764  1.00  0.00    -0.206 F 
ATOM     47  C   UNL A   1      45.238  35.757  27.969  1.00  0.00     0.006 A 
ENDBRANCH  26  40
BRANCH  27  48
ATOM     48  C   UNL A   1      36.824  31.202  30.521  1.00  0.00     0.057 A 
ATOM     49  C   UNL A   1      35.979  31.585  31.572  1.00  0.00     0.134 A 
ATOM     50  C   UNL A   1      36.418  31.591  29.232  1.00  0.00     0.134 A 
ATOM     51  F   UNL A   1      36.301  31.302  32.843  1.00  0.00    -0.206 F 
ATOM     52  C   UNL A   1      34.810  32.329  31.356  1.00  0.00     0.040 A 
ATOM     53  C   UNL A   1      35.250  32.325  29.001  1.00  0.00     0.040 A 
ATOM     54  F   UNL A   1      37.190  31.350  28.162  1.00  0.00    -0.206 F 
ATOM     55  C   UNL A   1      34.448  32.709  30.068  1.00  0.00     0.006 A 
ENDBRANCH  27  48
BRANCH  39  56
ATOM     56  C   UNL A   1      42.054  30.075  33.827  1.00  0.00     0.057 A 
ATOM     57  C   UNL A   1      41.772  28.714  33.630  1.00  0.00     0.134 A 
ATOM     58  C   UNL A   1      42.256  30.495  35.145  1.00  0.00     0.134 A 
ATOM     59  F   UNL A   1      41.667  28.198  32.399  1.00  0.00    -0.206 F 
ATOM     60  C   UNL A   1      41.649  27.826  34.701  1.00  0.00     0.040 A 
ATOM     61  C   UNL A   1      42.169  29.610  36.222  1.00  0.00     0.040 A 
ATOM     62  F   UNL A   1      42.589  31.770  35.405  1.00  0.00    -0.206 F 
ATOM     63  C   UNL A   1      41.855  28.272  36.003  1.00  0.00     0.006 A 
ENDBRANCH  39  56
ENDBRANCH  13  14
ENDBRANCH   6   8
ENDBRANCH   3   4
ENDBRANCH   2   3
ENDBRANCH   1   2
BRANCH   1  64
ATOM     64  C   UNL A   1      36.686  23.601  25.022  1.00  0.00     0.002 C 
BRANCH  64  65
ATOM     65  C   UNL A   1      35.383  23.806  25.802  1.00  0.00     0.021 C 
BRANCH  65  66
ATOM     66  C   UNL A   1      34.748  22.524  26.334  1.00  0.00     0.116 C 
BRANCH  66  67
ATOM     67  N   UNL A   1      34.016  21.814  25.299  1.00  0.00    -0.351 N 
ATOM     68  C   UNL A   1      32.689  21.916  24.962  1.00  0.00     0.273 C 
ATOM     69  H   UNL A   1      34.542  21.174  24.767  1.00  0.00     0.163 HD
ATOM     70  O   UNL A   1      32.201  21.065  24.205  1.00  0.00    -0.267 OA
BRANCH  68  71
ATOM     71  C   UNL A   1      31.915  23.020  25.491  1.00  0.00     0.170 A 
ATOM     72  C   UNL A   1      31.785  24.295  24.967  1.00  0.00     0.145 A 
ATOM     73  N   UNL A   1      31.158  22.936  26.632  1.00  0.00    -0.125 NA
ATOM     74  N   UNL A   1      31.013  24.952  25.881  1.00  0.00    -0.245 N 
ATOM     75  N   UNL A   1      30.630  24.128  26.871  1.00  0.00    -0.066 NA
BRANCH  74  76
ATOM     76  C   UNL A   1      30.653  26.336  25.890  1.00  0.00     0.148 C 
ATOM     77  C   UNL A   1      31.796  27.286  25.474  1.00  0.00     0.148 C 
ATOM     78  C   UNL A   1      29.941  26.805  24.597  1.00  0.00     0.148 C 
ATOM     79  N   UNL A   1      30.781  27.977  24.692  1.00  0.00    -0.338 N 
ATOM     80  C   UNL A   1      30.763  29.279  24.308  1.00  0.00     0.226 C 
ATOM     81  O   UNL A   1      31.711  30.019  24.590  1.00  0.00    -0.275 OA
BRANCH  80  82
ATOM     82  C   UNL A   1      29.593  29.832  23.507  1.00  0.00     0.083 C 
ATOM     83  C   UNL A   1      29.823  29.858  21.991  1.00  0.00     0.040 C 
ATOM     84  C   UNL A   1      29.107  31.186  24.028  1.00  0.00     0.018 C 
ATOM     85  C   UNL A   1      28.714  30.561  21.257  1.00  0.00    -0.030 C 
ATOM     86  C   UNL A   1      27.786  31.571  23.353  1.00  0.00     0.028 C 
ATOM     87  C   UNL A   1      27.790  31.315  21.873  1.00  0.00    -0.031 C 
ENDBRANCH  80  82
ENDBRANCH  74  76
ENDBRANCH  68  71
ENDBRANCH  66  67
ENDBRANCH  65  66
ENDBRANCH  64  65
ENDBRANCH   1  64
TORSDOF 15
ENDMDL
MODEL 3
REMARK VINA RESULT:     -11.2      2.742      8.531
REMARK SMILES O=C(NCCCCCCNC(=O)c1cn(C2CN(C(=O)[C@@H]3CC=CCC3)C2)nn1)c1ccc(-c2c3nc(c(-c4c(F)cccc4F)c4ccc([nH]4)c(-c4c(F)cccc4F)c4nc(c(-c5c(F)cccc5F)c5ccc2[nH]5)C=C4)C=C3)cc1
REMARK SMILES IDX 6 1 5 2 4 3 3 4 1 5 2 6 30 8 31 9 83 10 32 11 82 12 33 13
REMARK SMILES IDX 34 14 35 15 76 16 36 17 81 18 75 19 77 20 37 21 80 22 74 23
REMARK SMILES IDX 73 24 38 26 64 27 47 28 63 29 48 30 51 31 62 32 78 33 49 34
REMARK SMILES IDX 50 35 61 37 79 38 52 39 39 40 40 41 45 42 41 43 42 44 44 45
REMARK SMILES IDX 46 46 43 47 65 48 66 49 71 50 67 51 68 52 70 53 72 54 69 55
REMARK SMILES IDX 53 56 54 57 59 58 55 59 56 60 58 61 60 62 57 63 7 64 8 65
REMARK SMILES IDX 9 66 10 67 11 68 12 70 13 71 14 72 29 73 15 74 28 75 16 76
REMARK SMILES IDX 17 77 27 78 18 79 19 80 20 81 21 82 22 83 26 84 23 85 25 86
REMARK SMILES IDX 24 87
REMARK H PARENT 3 7 77 25 51 36 10 69
REMARK Flexibility Score: inf
ROOT
ATOM      1  C   UNL A   1      34.762  29.785  27.591  1.00  0.00     0.002 C 
ENDROOT
BRANCH   1   2
ATOM      2  C   UNL A   1      34.035  31.120  27.391  1.00  0.00     0.021 C 
BRANCH   2   3
ATOM      3  C   UNL A   1      34.654  32.308  28.130  1.00  0.00     0.116 C 
BRANCH   3   4
ATOM      4  N   UNL A   1      34.388  32.320  29.552  1.00  0.00    -0.352 N 
ATOM      5  O   UNL A   1      34.592  32.327  31.749  1.00  0.00    -0.269 OA
ATOM      6  C   UNL A   1      35.127  32.058  30.670  1.00  0.00     0.251 C 
ATOM      7  H   UNL A   1      33.461  32.577  29.763  1.00  0.00     0.163 HD
BRANCH   6   8
ATOM      8  C   UNL A   1      36.470  31.416  30.680  1.00  0.00     0.039 A 
ATOM      9  C   UNL A   1      37.695  32.075  30.571  1.00  0.00     0.014 A 
ATOM     10  C   UNL A   1      36.469  30.009  30.748  1.00  0.00     0.014 A 
ATOM     11  C   UNL A   1      38.875  31.352  30.423  1.00  0.00     0.010 A 
ATOM     12  C   UNL A   1      37.644  29.281  30.617  1.00  0.00     0.010 A 
ATOM     13  C   UNL A   1      38.840  29.958  30.408  1.00  0.00    -0.014 A 
BRANCH  13  14
ATOM     14  C   UNL A   1      40.104  29.240  30.288  1.00  0.00     0.031 A 
ATOM     15  C   UNL A   1      40.849  29.062  31.568  1.00  0.00     0.074 A 
ATOM     16  C   UNL A   1      40.502  28.645  29.146  1.00  0.00     0.049 A 
ATOM     17  N   UNL A   1      42.044  29.457  31.866  1.00  0.00    -0.248 NA
ATOM     18  C   UNL A   1      40.126  28.446  32.692  1.00  0.00     0.031 C 
ATOM     19  C   UNL A   1      39.740  28.474  27.906  1.00  0.00     0.029 A 
ATOM     20  N   UNL A   1      41.655  27.965  28.892  1.00  0.00    -0.354 N 
ATOM     21  C   UNL A   1      42.296  28.981  33.155  1.00  0.00     0.074 A 
ATOM     22  C   UNL A   1      41.040  28.496  33.661  1.00  0.00     0.031 C 
ATOM     23  C   UNL A   1      40.355  27.553  27.130  1.00  0.00     0.029 A 
ATOM     24  C   UNL A   1      41.611  27.170  27.755  1.00  0.00     0.049 A 
ATOM     25  H   UNL A   1      42.452  28.030  29.467  1.00  0.00     0.167 HD
ATOM     26  C   UNL A   1      43.565  28.820  33.623  1.00  0.00     0.037 A 
ATOM     27  C   UNL A   1      42.508  26.218  27.395  1.00  0.00     0.037 A 
ATOM     28  C   UNL A   1      44.505  29.612  32.874  1.00  0.00     0.049 A 
ATOM     29  C   UNL A   1      43.758  26.463  28.153  1.00  0.00     0.074 A 
ATOM     30  C   UNL A   1      44.667  30.961  32.620  1.00  0.00     0.029 A 
ATOM     31  N   UNL A   1      45.312  28.972  31.968  1.00  0.00    -0.354 N 
ATOM     32  N   UNL A   1      44.548  27.480  27.951  1.00  0.00    -0.248 NA
ATOM     33  C   UNL A   1      43.909  25.800  29.439  1.00  0.00     0.031 C 
ATOM     34  C   UNL A   1      45.147  31.028  31.279  1.00  0.00     0.029 A 
ATOM     35  C   UNL A   1      45.291  29.718  30.821  1.00  0.00     0.049 A 
ATOM     36  H   UNL A   1      45.810  28.136  32.115  1.00  0.00     0.167 HD
ATOM     37  C   UNL A   1      44.972  27.851  29.218  1.00  0.00     0.074 A 
ATOM     38  C   UNL A   1      44.621  26.728  30.083  1.00  0.00     0.031 C 
ATOM     39  C   UNL A   1      45.310  29.144  29.498  1.00  0.00     0.037 A 
BRANCH  26  40
ATOM     40  C   UNL A   1      44.011  27.658  34.487  1.00  0.00     0.057 A 
ATOM     41  C   UNL A   1      44.689  27.927  35.693  1.00  0.00     0.134 A 
ATOM     42  C   UNL A   1      44.101  26.324  34.042  1.00  0.00     0.134 A 
ATOM     43  F   UNL A   1      44.674  29.153  36.235  1.00  0.00    -0.206 F 
ATOM     44  C   UNL A   1      45.491  26.974  36.334  1.00  0.00     0.040 A 
ATOM     45  C   UNL A   1      44.859  25.353  34.703  1.00  0.00     0.040 A 
ATOM     46  F   UNL A   1      43.549  25.904  32.898  1.00  0.00    -0.206 F 
ATOM     47  C   UNL A   1      45.592  25.686  35.829  1.00  0.00     0.006 A 
ENDBRANCH  26  40
BRANCH  27  48
ATOM     48  C   UNL A   1      42.258  24.939  26.692  1.00  0.00     0.057 A 
ATOM     49  C   UNL A   1      43.051  24.533  25.609  1.00  0.00     0.134 A 
ATOM     50  C   UNL A   1      41.412  23.957  27.237  1.00  0.00     0.134 A 
ATOM     51  F   UNL A   1      43.925  25.383  25.050  1.00  0.00    -0.206 F 
ATOM     52  C   UNL A   1      43.020  23.223  25.111  1.00  0.00     0.040 A 
ATOM     53  C   UNL A   1      41.363  22.649  26.743  1.00  0.00     0.040 A 
ATOM     54  F   UNL A   1      40.670  24.209  28.325  1.00  0.00    -0.206 F 
ATOM     55  C   UNL A   1      42.180  22.274  25.685  1.00  0.00     0.006 A 
ENDBRANCH  27  48
BRANCH  39  56
ATOM     56  C   UNL A   1      45.450  30.099  28.347  1.00  0.00     0.057 A 
ATOM     57  C   UNL A   1      44.383  30.828  27.800  1.00  0.00     0.134 A 
ATOM     58  C   UNL A   1      46.732  30.405  27.879  1.00  0.00     0.134 A 
ATOM     59  F   UNL A   1      43.134  30.680  28.258  1.00  0.00    -0.206 F 
ATOM     60  C   UNL A   1      44.580  31.782  26.799  1.00  0.00     0.040 A 
ATOM     61  C   UNL A   1      46.946  31.381  26.904  1.00  0.00     0.040 A 
ATOM     62  F   UNL A   1      47.807  29.791  28.400  1.00  0.00    -0.206 F 
ATOM     63  C   UNL A   1      45.867  32.066  26.352  1.00  0.00     0.006 A 
ENDBRANCH  39  56
ENDBRANCH  13  14
ENDBRANCH   6   8
ENDBRANCH   3   4
ENDBRANCH   2   3
ENDBRANCH   1   2
BRANCH   1  64
ATOM     64  C   UNL A   1      34.100  28.567  26.941  1.00  0.00     0.002 C 
BRANCH  64  65
ATOM     65  C   UNL A   1      32.779  28.847  26.217  1.00  0.00     0.021 C 
BRANCH  65  66
ATOM     66  C   UNL A   1      32.866  28.816  24.693  1.00  0.00     0.116 C 
BRANCH  66  67
ATOM     67  N   UNL A   1      31.566  28.594  24.083  1.00  0.00    -0.351 N 
ATOM     68  C   UNL A   1      31.219  27.698  23.103  1.00  0.00     0.273 C 
ATOM     69  H   UNL A   1      30.835  29.164  24.417  1.00  0.00     0.163 HD
ATOM     70  O   UNL A   1      30.114  27.815  22.554  1.00  0.00    -0.267 OA
BRANCH  68  71
ATOM     71  C   UNL A   1      32.148  26.641  22.759  1.00  0.00     0.170 A 
ATOM     72  C   UNL A   1      32.414  25.480  23.465  1.00  0.00     0.145 A 
ATOM     73  N   UNL A   1      32.915  26.648  21.622  1.00  0.00    -0.125 NA
ATOM     74  N   UNL A   1      33.408  24.877  22.749  1.00  0.00    -0.245 N 
ATOM     75  N   UNL A   1      33.696  25.577  21.638  1.00  0.00    -0.066 NA
BRANCH  74  76
ATOM     76  C   UNL A   1      34.133  23.691  23.085  1.00  0.00     0.148 C 
ATOM     77  C   UNL A   1      34.351  23.494  24.600  1.00  0.00     0.148 C 
ATOM     78  C   UNL A   1      33.253  22.419  23.157  1.00  0.00     0.148 C 
ATOM     79  N   UNL A   1      34.003  22.103  24.350  1.00  0.00    -0.338 N 
ATOM     80  C   UNL A   1      34.372  21.007  25.064  1.00  0.00     0.226 C 
ATOM     81  O   UNL A   1      35.055  21.137  26.084  1.00  0.00    -0.275 OA
BRANCH  80  82
ATOM     82  C   UNL A   1      33.927  19.618  24.630  1.00  0.00     0.083 C 
ATOM     83  C   UNL A   1      32.691  19.092  25.371  1.00  0.00     0.040 C 
ATOM     84  C   UNL A   1      35.069  18.600  24.645  1.00  0.00     0.018 C 
ATOM     85  C   UNL A   1      32.388  17.659  25.031  1.00  0.00    -0.030 C 
ATOM     86  C   UNL A   1      34.627  17.298  23.968  1.00  0.00     0.028 C 
ATOM     87  C   UNL A   1      33.252  16.860  24.385  1.00  0.00    -0.031 C 
ENDBRANCH  80  82
ENDBRANCH  74  76
ENDBRANCH  68  71
ENDBRANCH  66  67
ENDBRANCH  65  66
ENDBRANCH  64  65
ENDBRANCH   1  64
TORSDOF 15
ENDMDL
