MODEL 1
REMARK VINA RESULT:     -11.7      0.000      0.000
REMARK SMILES Cc1occc1C(=O)NN1C(=O)/C(=C\c2ccc(O[C@H](C)C(=O)NCCCCCCNC(=O)c3ccc(-c4c5nc(c(-c6c(F)cccc6F)c6ccc([nH]6)c(-c6c(F)cccc6F)c6nc(c(-c7c(F)cccc7F)c7ccc4[nH]7)C=C6)C=C5)cc3)cc2)SC1=S
REMARK SMILES IDX 26 1 25 2 24 3 22 4 23 5 20 7 21 8 19 9 18 10 15 11 16 12
REMARK SMILES IDX 89 13 17 14 88 15 14 16 10 17 11 18 91 19 12 20 13 21 90 22
REMARK SMILES IDX 92 23 9 24 7 25 8 26 6 28 1 29 2 30 3 31 4 32 5 33 27 34
REMARK SMILES IDX 28 35 29 36 30 37 31 38 32 39 33 41 34 42 35 43 87 44 36 45
REMARK SMILES IDX 86 46 37 47 38 48 39 49 80 50 40 51 85 52 79 53 81 54 41 55
REMARK SMILES IDX 84 56 78 57 77 58 42 60 68 61 51 62 67 63 52 64 55 65 66 66
REMARK SMILES IDX 82 67 53 68 54 69 65 71 83 72 56 73 43 74 44 75 49 76 45 77
REMARK SMILES IDX 46 78 48 79 50 80 47 81 69 82 70 83 75 84 71 85 72 86 74 87
REMARK SMILES IDX 76 88 73 89 57 90 58 91 63 92 59 93 60 94 62 95 64 96 61 97
REMARK H PARENT 24 6 9 27 31 40 81 59 55 70
REMARK Flexibility Score: inf
ROOT
ATOM      1  C   UNL A   1      35.074  31.432  28.415  1.00  0.00     0.021 C 
ENDROOT
BRANCH   1   2
ATOM      2  C   UNL A   1      34.500  30.561  27.302  1.00  0.00     0.116 C 
BRANCH   2   3
ATOM      3  N   UNL A   1      33.455  29.672  27.744  1.00  0.00    -0.353 N 
ATOM      4  C   UNL A   1      32.242  29.399  27.188  1.00  0.00     0.260 C 
ATOM      5  O   UNL A   1      31.602  28.473  27.705  1.00  0.00    -0.271 OA
ATOM      6  H   UNL A   1      33.648  29.187  28.578  1.00  0.00     0.163 HD
BRANCH   4   7
ATOM      7  C   UNL A   1      31.596  30.250  26.055  1.00  0.00     0.258 C 
ATOM      8  C   UNL A   1      31.379  31.676  26.553  1.00  0.00     0.064 C 
BRANCH   7   9
ATOM      9  O   UNL A   1      31.961  30.043  24.692  1.00  0.00    -0.481 OA
BRANCH   9  10
ATOM     10  C   UNL A   1      32.148  28.841  24.088  1.00  0.00     0.120 A 
ATOM     11  C   UNL A   1      32.265  26.247  22.992  1.00  0.00    -0.024 A 
ATOM     12  C   UNL A   1      33.412  27.037  23.087  1.00  0.00     0.012 A 
ATOM     13  C   UNL A   1      31.045  26.763  23.429  1.00  0.00     0.012 A 
ATOM     14  C   UNL A   1      33.348  28.331  23.605  1.00  0.00     0.047 A 
ATOM     15  C   UNL A   1      30.991  28.058  23.965  1.00  0.00     0.047 A 
BRANCH  11  16
ATOM     16  C   UNL A   1      32.414  24.946  22.336  1.00  0.00     0.029 C 
ATOM     17  N   UNL A   1      32.928  22.283  24.755  1.00  0.00    -0.198 N 
ATOM     18  C   UNL A   1      32.760  23.629  24.469  1.00  0.00     0.285 C 
ATOM     19  C   UNL A   1      32.636  21.364  23.771  1.00  0.00     0.168 C 
ATOM     20  O   UNL A   1      32.781  24.523  25.297  1.00  0.00    -0.266 OA
ATOM     21  C   UNL A   1      32.537  23.792  23.005  1.00  0.00     0.082 C 
ATOM     22  S   UNL A   1      32.399  22.236  22.253  1.00  0.00    -0.052 SA
ATOM     23  S   UNL A   1      32.496  19.711  23.916  1.00  0.00    -0.050 S 
BRANCH  17  24
ATOM     24  N   UNL A   1      33.163  21.958  26.083  1.00  0.00    -0.254 N 
ATOM     25  C   UNL A   1      34.336  22.126  26.783  1.00  0.00     0.273 C 
ATOM     26  O   UNL A   1      34.266  22.030  28.010  1.00  0.00    -0.267 OA
ATOM     27  H   UNL A   1      32.410  21.565  26.579  1.00  0.00     0.192 HD
BRANCH  25  28
ATOM     28  C   UNL A   1      35.638  22.271  26.139  1.00  0.00     0.082 A 
ATOM     29  C   UNL A   1      36.400  20.019  24.924  1.00  0.00     0.088 C 
ATOM     30  C   UNL A   1      36.454  21.410  25.416  1.00  0.00     0.113 A 
ATOM     31  O   UNL A   1      37.591  22.059  25.018  1.00  0.00    -0.469 OA
ATOM     32  C   UNL A   1      37.494  23.345  25.414  1.00  0.00     0.196 A 
ATOM     33  C   UNL A   1      36.314  23.539  26.080  1.00  0.00     0.056 A 
ENDBRANCH  25  28
ENDBRANCH  17  24
ENDBRANCH  11  16
ENDBRANCH   9  10
ENDBRANCH   7   9
ENDBRANCH   4   7
ENDBRANCH   2   3
ENDBRANCH   1   2
BRANCH   1  34
ATOM     34  C   UNL A   1      34.068  32.402  29.035  1.00  0.00     0.002 C 
BRANCH  34  35
ATOM     35  C   UNL A   1      34.348  33.891  28.787  1.00  0.00     0.002 C 
BRANCH  35  36
ATOM     36  C   UNL A   1      33.128  34.818  28.842  1.00  0.00     0.021 C 
BRANCH  36  37
ATOM     37  C   UNL A   1      33.364  36.153  29.545  1.00  0.00     0.116 C 
BRANCH  37  38
ATOM     38  N   UNL A   1      32.504  36.319  30.705  1.00  0.00    -0.352 N 
ATOM     39  C   UNL A   1      32.591  35.762  31.955  1.00  0.00     0.251 C 
ATOM     40  H   UNL A   1      31.741  36.927  30.574  1.00  0.00     0.163 HD
ATOM     41  O   UNL A   1      31.652  35.868  32.740  1.00  0.00    -0.269 OA
BRANCH  39  42
ATOM     42  C   UNL A   1      33.805  35.023  32.364  1.00  0.00     0.039 A 
ATOM     43  C   UNL A   1      33.670  33.713  32.833  1.00  0.00     0.014 A 
ATOM     44  C   UNL A   1      35.064  35.630  32.330  1.00  0.00     0.014 A 
ATOM     45  C   UNL A   1      34.803  32.993  33.220  1.00  0.00     0.010 A 
ATOM     46  C   UNL A   1      36.199  34.891  32.659  1.00  0.00     0.010 A 
ATOM     47  C   UNL A   1      36.079  33.567  33.109  1.00  0.00    -0.014 A 
BRANCH  47  48
ATOM     48  C   UNL A   1      37.300  32.801  33.465  1.00  0.00     0.031 A 
ATOM     49  C   UNL A   1      38.040  33.108  34.738  1.00  0.00     0.074 A 
ATOM     50  C   UNL A   1      37.773  31.872  32.614  1.00  0.00     0.049 A 
ATOM     51  N   UNL A   1      39.170  32.614  35.176  1.00  0.00    -0.248 NA
ATOM     52  C   UNL A   1      37.444  34.121  35.624  1.00  0.00     0.031 C 
ATOM     53  C   UNL A   1      37.166  31.508  31.332  1.00  0.00     0.029 A 
ATOM     54  N   UNL A   1      38.886  31.071  32.692  1.00  0.00    -0.354 N 
ATOM     55  C   UNL A   1      39.424  33.259  36.379  1.00  0.00     0.074 A 
ATOM     56  C   UNL A   1      38.356  34.216  36.580  1.00  0.00     0.031 C 
ATOM     57  C   UNL A   1      37.907  30.551  30.750  1.00  0.00     0.029 A 
ATOM     58  C   UNL A   1      39.057  30.257  31.599  1.00  0.00     0.049 A 
ATOM     59  H   UNL A   1      39.503  31.080  33.460  1.00  0.00     0.167 HD
ATOM     60  C   UNL A   1      40.441  33.057  37.250  1.00  0.00     0.037 A 
ATOM     61  C   UNL A   1      40.036  29.379  31.310  1.00  0.00     0.037 A 
ATOM     62  C   UNL A   1      41.488  32.088  37.063  1.00  0.00     0.049 A 
ATOM     63  C   UNL A   1      41.155  29.176  32.296  1.00  0.00     0.074 A 
ATOM     64  C   UNL A   1      42.545  31.785  37.906  1.00  0.00     0.029 A 
ATOM     65  N   UNL A   1      41.607  31.258  35.958  1.00  0.00    -0.354 N 
ATOM     66  N   UNL A   1      41.354  29.760  33.452  1.00  0.00    -0.248 NA
ATOM     67  C   UNL A   1      42.180  28.184  31.939  1.00  0.00     0.031 C 
ATOM     68  C   UNL A   1      43.319  30.791  37.298  1.00  0.00     0.029 A 
ATOM     69  C   UNL A   1      42.723  30.450  36.095  1.00  0.00     0.049 A 
ATOM     70  H   UNL A   1      40.989  31.246  35.192  1.00  0.00     0.167 HD
ATOM     71  C   UNL A   1      42.507  29.188  33.972  1.00  0.00     0.074 A 
ATOM     72  C   UNL A   1      42.955  28.200  33.014  1.00  0.00     0.031 C 
ATOM     73  C   UNL A   1      43.142  29.458  35.139  1.00  0.00     0.037 A 
BRANCH  60  74
ATOM     74  C   UNL A   1      40.465  33.891  38.497  1.00  0.00     0.057 A 
ATOM     75  C   UNL A   1      41.189  35.088  38.564  1.00  0.00     0.134 A 
ATOM     76  C   UNL A   1      39.716  33.524  39.622  1.00  0.00     0.134 A 
ATOM     77  F   UNL A   1      41.936  35.489  37.525  1.00  0.00    -0.206 F 
ATOM     78  C   UNL A   1      41.180  35.882  39.712  1.00  0.00     0.040 A 
ATOM     79  C   UNL A   1      39.680  34.323  40.767  1.00  0.00     0.040 A 
ATOM     80  F   UNL A   1      38.996  32.391  39.622  1.00  0.00    -0.206 F 
ATOM     81  C   UNL A   1      40.416  35.504  40.814  1.00  0.00     0.006 A 
ENDBRANCH  60  74
BRANCH  61  82
ATOM     82  C   UNL A   1      40.003  28.612  30.040  1.00  0.00     0.057 A 
ATOM     83  C   UNL A   1      39.299  27.406  29.944  1.00  0.00     0.134 A 
ATOM     84  C   UNL A   1      40.694  29.049  28.903  1.00  0.00     0.134 A 
ATOM     85  F   UNL A   1      38.632  26.927  31.006  1.00  0.00    -0.206 F 
ATOM     86  C   UNL A   1      39.308  26.645  28.774  1.00  0.00     0.040 A 
ATOM     87  C   UNL A   1      40.691  28.311  27.719  1.00  0.00     0.040 A 
ATOM     88  F   UNL A   1      41.374  30.205  28.926  1.00  0.00    -0.206 F 
ATOM     89  C   UNL A   1      40.005  27.099  27.657  1.00  0.00     0.006 A 
ENDBRANCH  61  82
BRANCH  73  90
ATOM     90  C   UNL A   1      44.362  28.648  35.460  1.00  0.00     0.057 A 
ATOM     91  C   UNL A   1      44.283  27.446  36.177  1.00  0.00     0.134 A 
ATOM     92  C   UNL A   1      45.625  29.057  35.015  1.00  0.00     0.134 A 
ATOM     93  F   UNL A   1      43.103  27.009  36.641  1.00  0.00    -0.206 F 
ATOM     94  C   UNL A   1      45.422  26.691  36.458  1.00  0.00     0.040 A 
ATOM     95  C   UNL A   1      46.768  28.297  35.268  1.00  0.00     0.040 A 
ATOM     96  F   UNL A   1      45.766  30.193  34.316  1.00  0.00    -0.206 F 
ATOM     97  C   UNL A   1      46.668  27.114  35.998  1.00  0.00     0.006 A 
ENDBRANCH  73  90
ENDBRANCH  47  48
ENDBRANCH  39  42
ENDBRANCH  37  38
ENDBRANCH  36  37
ENDBRANCH  35  36
ENDBRANCH  34  35
ENDBRANCH   1  34
TORSDOF 18
ENDMDL
MODEL 2
REMARK VINA RESULT:     -11.3      0.483      5.895
REMARK SMILES Cc1occc1C(=O)NN1C(=O)/C(=C\c2ccc(O[C@H](C)C(=O)NCCCCCCNC(=O)c3ccc(-c4c5nc(c(-c6c(F)cccc6F)c6ccc([nH]6)c(-c6c(F)cccc6F)c6nc(c(-c7c(F)cccc7F)c7ccc4[nH]7)C=C6)C=C5)cc3)cc2)SC1=S
REMARK SMILES IDX 26 1 25 2 24 3 22 4 23 5 20 7 21 8 19 9 18 10 15 11 16 12
REMARK SMILES IDX 89 13 17 14 88 15 14 16 10 17 11 18 91 19 12 20 13 21 90 22
REMARK SMILES IDX 92 23 9 24 7 25 8 26 6 28 1 29 2 30 3 31 4 32 5 33 27 34
REMARK SMILES IDX 28 35 29 36 30 37 31 38 32 39 33 41 34 42 35 43 87 44 36 45
REMARK SMILES IDX 86 46 37 47 38 48 39 49 80 50 40 51 85 52 79 53 81 54 41 55
REMARK SMILES IDX 84 56 78 57 77 58 42 60 68 61 51 62 67 63 52 64 55 65 66 66
REMARK SMILES IDX 82 67 53 68 54 69 65 71 83 72 56 73 43 74 44 75 49 76 45 77
REMARK SMILES IDX 46 78 48 79 50 80 47 81 69 82 70 83 75 84 71 85 72 86 74 87
REMARK SMILES IDX 76 88 73 89 57 90 58 91 63 92 59 93 60 94 62 95 64 96 61 97
REMARK H PARENT 24 6 9 27 31 40 81 59 55 70
REMARK Flexibility Score: inf
ROOT
ATOM      1  C   UNL A   1      35.338  30.811  28.458  1.00  0.00     0.021 C 
ENDROOT
BRANCH   1   2
ATOM      2  C   UNL A   1      34.389  30.440  27.324  1.00  0.00     0.116 C 
BRANCH   2   3
ATOM      3  N   UNL A   1      33.310  29.576  27.733  1.00  0.00    -0.353 N 
ATOM      4  C   UNL A   1      32.110  29.328  27.138  1.00  0.00     0.260 C 
ATOM      5  O   UNL A   1      31.433  28.417  27.634  1.00  0.00    -0.271 OA
ATOM      6  H   UNL A   1      33.465  29.089  28.574  1.00  0.00     0.163 HD
BRANCH   4   7
ATOM      7  C   UNL A   1      31.521  30.190  25.982  1.00  0.00     0.258 C 
ATOM      8  C   UNL A   1      31.322  31.622  26.469  1.00  0.00     0.064 C 
BRANCH   7   9
ATOM      9  O   UNL A   1      31.926  29.970  24.632  1.00  0.00    -0.481 OA
BRANCH   9  10
ATOM     10  C   UNL A   1      32.103  28.762  24.037  1.00  0.00     0.120 A 
ATOM     11  C   UNL A   1      32.196  26.160  22.957  1.00  0.00    -0.024 A 
ATOM     12  C   UNL A   1      33.352  26.937  23.057  1.00  0.00     0.012 A 
ATOM     13  C   UNL A   1      30.980  26.694  23.382  1.00  0.00     0.012 A 
ATOM     14  C   UNL A   1      33.300  28.235  23.566  1.00  0.00     0.047 A 
ATOM     15  C   UNL A   1      30.938  27.993  23.909  1.00  0.00     0.047 A 
BRANCH  11  16
ATOM     16  C   UNL A   1      32.334  24.854  22.310  1.00  0.00     0.029 C 
ATOM     17  N   UNL A   1      32.965  22.223  24.737  1.00  0.00    -0.198 N 
ATOM     18  C   UNL A   1      32.773  23.564  24.444  1.00  0.00     0.285 C 
ATOM     19  C   UNL A   1      32.646  21.290  23.775  1.00  0.00     0.168 C 
ATOM     20  O   UNL A   1      32.815  24.467  25.261  1.00  0.00    -0.266 OA
ATOM     21  C   UNL A   1      32.494  23.708  22.987  1.00  0.00     0.082 C 
ATOM     22  S   UNL A   1      32.345  22.143  22.257  1.00  0.00    -0.052 SA
ATOM     23  S   UNL A   1      32.529  19.638  23.943  1.00  0.00    -0.050 S 
BRANCH  17  24
ATOM     24  N   UNL A   1      33.253  21.916  26.060  1.00  0.00    -0.254 N 
ATOM     25  C   UNL A   1      34.495  21.866  26.648  1.00  0.00     0.273 C 
ATOM     26  O   UNL A   1      34.522  21.841  27.881  1.00  0.00    -0.267 OA
ATOM     27  H   UNL A   1      32.485  21.710  26.639  1.00  0.00     0.192 HD
BRANCH  25  28
ATOM     28  C   UNL A   1      35.733  21.709  25.891  1.00  0.00     0.082 A 
ATOM     29  C   UNL A   1      37.321  23.841  26.131  1.00  0.00     0.088 C 
ATOM     30  C   UNL A   1      36.842  22.519  25.683  1.00  0.00     0.113 A 
ATOM     31  O   UNL A   1      37.750  21.881  24.881  1.00  0.00    -0.469 OA
ATOM     32  C   UNL A   1      37.276  20.644  24.622  1.00  0.00     0.196 A 
ATOM     33  C   UNL A   1      36.063  20.474  25.232  1.00  0.00     0.056 A 
ENDBRANCH  25  28
ENDBRANCH  17  24
ENDBRANCH  11  16
ENDBRANCH   9  10
ENDBRANCH   7   9
ENDBRANCH   4   7
ENDBRANCH   2   3
ENDBRANCH   1   2
BRANCH   1  34
ATOM     34  C   UNL A   1      35.162  32.237  28.984  1.00  0.00     0.002 C 
BRANCH  34  35
ATOM     35  C   UNL A   1      34.527  33.229  28.001  1.00  0.00     0.002 C 
BRANCH  35  36
ATOM     36  C   UNL A   1      33.290  33.977  28.512  1.00  0.00     0.021 C 
BRANCH  36  37
ATOM     37  C   UNL A   1      33.564  35.371  29.073  1.00  0.00     0.116 C 
BRANCH  37  38
ATOM     38  N   UNL A   1      32.720  35.675  30.216  1.00  0.00    -0.352 N 
ATOM     39  C   UNL A   1      32.846  35.304  31.530  1.00  0.00     0.251 C 
ATOM     40  H   UNL A   1      31.935  36.235  30.017  1.00  0.00     0.163 HD
ATOM     41  O   UNL A   1      31.918  35.493  32.312  1.00  0.00    -0.269 OA
BRANCH  39  42
ATOM     42  C   UNL A   1      34.089  34.667  32.013  1.00  0.00     0.039 A 
ATOM     43  C   UNL A   1      34.047  33.330  32.421  1.00  0.00     0.014 A 
ATOM     44  C   UNL A   1      35.281  35.392  32.109  1.00  0.00     0.014 A 
ATOM     45  C   UNL A   1      35.211  32.705  32.876  1.00  0.00     0.010 A 
ATOM     46  C   UNL A   1      36.453  34.751  32.507  1.00  0.00     0.010 A 
ATOM     47  C   UNL A   1      36.429  33.403  32.896  1.00  0.00    -0.014 A 
BRANCH  47  48
ATOM     48  C   UNL A   1      37.686  32.742  33.326  1.00  0.00     0.031 A 
ATOM     49  C   UNL A   1      38.295  31.655  32.484  1.00  0.00     0.074 A 
ATOM     50  C   UNL A   1      38.245  33.079  34.504  1.00  0.00     0.049 A 
ATOM     51  N   UNL A   1      39.334  30.900  32.735  1.00  0.00    -0.248 NA
ATOM     52  C   UNL A   1      37.636  31.362  31.201  1.00  0.00     0.031 C 
ATOM     53  C   UNL A   1      37.730  34.092  35.428  1.00  0.00     0.029 A 
ATOM     54  N   UNL A   1      39.364  32.594  35.134  1.00  0.00    -0.354 N 
ATOM     55  C   UNL A   1      39.447  30.040  31.650  1.00  0.00     0.074 A 
ATOM     56  C   UNL A   1      38.344  30.332  30.761  1.00  0.00     0.031 C 
ATOM     57  C   UNL A   1      38.535  34.160  36.500  1.00  0.00     0.029 A 
ATOM     58  C   UNL A   1      39.604  33.176  36.356  1.00  0.00     0.049 A 
ATOM     59  H   UNL A   1      39.941  31.897  34.746  1.00  0.00     0.167 HD
ATOM     60  C   UNL A   1      40.399  29.107  31.405  1.00  0.00     0.037 A 
ATOM     61  C   UNL A   1      40.570  32.934  37.261  1.00  0.00     0.037 A 
ATOM     62  C   UNL A   1      41.510  28.834  32.276  1.00  0.00     0.049 A 
ATOM     63  C   UNL A   1      41.613  31.892  36.963  1.00  0.00     0.074 A 
ATOM     64  C   UNL A   1      42.545  27.931  32.099  1.00  0.00     0.029 A 
ATOM     65  N   UNL A   1      41.737  29.468  33.489  1.00  0.00    -0.354 N 
ATOM     66  N   UNL A   1      41.733  31.120  35.910  1.00  0.00    -0.248 NA
ATOM     67  C   UNL A   1      42.659  31.692  37.976  1.00  0.00     0.031 C 
ATOM     68  C   UNL A   1      43.383  27.999  33.217  1.00  0.00     0.029 A 
ATOM     69  C   UNL A   1      42.890  28.971  34.073  1.00  0.00     0.049 A 
ATOM     70  H   UNL A   1      41.163  30.168  33.876  1.00  0.00     0.167 HD
ATOM     71  C   UNL A   1      42.880  30.367  36.120  1.00  0.00     0.074 A 
ATOM     72  C   UNL A   1      43.429  30.784  37.394  1.00  0.00     0.031 C 
ATOM     73  C   UNL A   1      43.431  29.412  35.332  1.00  0.00     0.037 A 
BRANCH  60  74
ATOM     74  C   UNL A   1      40.289  28.320  30.133  1.00  0.00     0.057 A 
ATOM     75  C   UNL A   1      39.407  27.238  30.015  1.00  0.00     0.134 A 
ATOM     76  C   UNL A   1      41.029  28.678  28.999  1.00  0.00     0.134 A 
ATOM     77  F   UNL A   1      38.679  26.837  31.067  1.00  0.00    -0.206 F 
ATOM     78  C   UNL A   1      39.278  26.530  28.819  1.00  0.00     0.040 A 
ATOM     79  C   UNL A   1      40.891  27.992  27.791  1.00  0.00     0.040 A 
ATOM     80  F   UNL A   1      41.889  29.707  29.044  1.00  0.00    -0.206 F 
ATOM     81  C   UNL A   1      40.015  26.913  27.700  1.00  0.00     0.006 A 
ENDBRANCH  60  74
BRANCH  61  82
ATOM     82  C   UNL A   1      40.612  33.699  38.533  1.00  0.00     0.057 A 
ATOM     83  C   UNL A   1      41.484  34.782  38.694  1.00  0.00     0.134 A 
ATOM     84  C   UNL A   1      39.806  33.351  39.623  1.00  0.00     0.134 A 
ATOM     85  F   UNL A   1      42.293  35.153  37.690  1.00  0.00    -0.206 F 
ATOM     86  C   UNL A   1      41.576  35.474  39.903  1.00  0.00     0.040 A 
ATOM     87  C   UNL A   1      39.870  34.048  40.830  1.00  0.00     0.040 A 
ATOM     88  F   UNL A   1      38.938  32.333  39.527  1.00  0.00    -0.206 F 
ATOM     89  C   UNL A   1      40.766  35.107  40.975  1.00  0.00     0.006 A 
ENDBRANCH  61  82
BRANCH  73  90
ATOM     90  C   UNL A   1      44.708  28.785  35.803  1.00  0.00     0.057 A 
ATOM     91  C   UNL A   1      44.714  27.636  36.605  1.00  0.00     0.134 A 
ATOM     92  C   UNL A   1      45.945  29.317  35.421  1.00  0.00     0.134 A 
ATOM     93  F   UNL A   1      43.561  27.087  37.015  1.00  0.00    -0.206 F 
ATOM     94  C   UNL A   1      45.909  27.049  37.026  1.00  0.00     0.040 A 
ATOM     95  C   UNL A   1      47.146  28.725  35.815  1.00  0.00     0.040 A 
ATOM     96  F   UNL A   1      46.007  30.411  34.647  1.00  0.00    -0.206 F 
ATOM     97  C   UNL A   1      47.129  27.592  36.626  1.00  0.00     0.006 A 
ENDBRANCH  73  90
ENDBRANCH  47  48
ENDBRANCH  39  42
ENDBRANCH  37  38
ENDBRANCH  36  37
ENDBRANCH  35  36
ENDBRANCH  34  35
ENDBRANCH   1  34
TORSDOF 18
ENDMDL
MODEL 3
REMARK VINA RESULT:     -10.4      2.111      6.427
REMARK SMILES Cc1occc1C(=O)NN1C(=O)/C(=C\c2ccc(O[C@H](C)C(=O)NCCCCCCNC(=O)c3ccc(-c4c5nc(c(-c6c(F)cccc6F)c6ccc([nH]6)c(-c6c(F)cccc6F)c6nc(c(-c7c(F)cccc7F)c7ccc4[nH]7)C=C6)C=C5)cc3)cc2)SC1=S
REMARK SMILES IDX 26 1 25 2 24 3 22 4 23 5 20 7 21 8 19 9 18 10 15 11 16 12
REMARK SMILES IDX 89 13 17 14 88 15 14 16 10 17 11 18 91 19 12 20 13 21 90 22
REMARK SMILES IDX 92 23 9 24 7 25 8 26 6 28 1 29 2 30 3 31 4 32 5 33 27 34
REMARK SMILES IDX 28 35 29 36 30 37 31 38 32 39 33 41 34 42 35 43 87 44 36 45
REMARK SMILES IDX 86 46 37 47 38 48 39 49 80 50 40 51 85 52 79 53 81 54 41 55
REMARK SMILES IDX 84 56 78 57 77 58 42 60 68 61 51 62 67 63 52 64 55 65 66 66
REMARK SMILES IDX 82 67 53 68 54 69 65 71 83 72 56 73 43 74 44 75 49 76 45 77
REMARK SMILES IDX 46 78 48 79 50 80 47 81 69 82 70 83 75 84 71 85 72 86 74 87
REMARK SMILES IDX 76 88 73 89 57 90 58 91 63 92 59 93 60 94 62 95 64 96 61 97
REMARK H PARENT 24 6 9 27 31 40 81 59 55 70
REMARK Flexibility Score: inf
ROOT
ATOM      1  C   UNL A   1      35.912  29.499  27.910  1.00  0.00     0.021 C 
ENDROOT
BRANCH   1   2
ATOM      2  C   UNL A   1      34.727  29.311  26.969  1.00  0.00     0.116 C 
BRANCH   2   3
ATOM      3  N   UNL A   1      33.548  28.796  27.620  1.00  0.00    -0.353 N 
ATOM      4  C   UNL A   1      32.239  28.868  27.251  1.00  0.00     0.260 C 
ATOM      5  O   UNL A   1      31.444  28.201  27.927  1.00  0.00    -0.271 OA
ATOM      6  H   UNL A   1      33.715  28.317  28.463  1.00  0.00     0.163 HD
BRANCH   4   7
ATOM      7  C   UNL A   1      31.703  29.816  26.137  1.00  0.00     0.258 C 
ATOM      8  C   UNL A   1      31.645  31.244  26.670  1.00  0.00     0.064 C 
BRANCH   7   9
ATOM      9  O   UNL A   1      32.056  29.603  24.771  1.00  0.00    -0.481 OA
BRANCH   9  10
ATOM     10  C   UNL A   1      32.181  28.399  24.156  1.00  0.00     0.120 A 
ATOM     11  C   UNL A   1      32.148  25.827  23.003  1.00  0.00    -0.024 A 
ATOM     12  C   UNL A   1      33.353  26.487  23.247  1.00  0.00     0.012 A 
ATOM     13  C   UNL A   1      30.948  26.464  23.318  1.00  0.00     0.012 A 
ATOM     14  C   UNL A   1      33.368  27.771  23.793  1.00  0.00     0.047 A 
ATOM     15  C   UNL A   1      30.970  27.748  23.882  1.00  0.00     0.047 A 
BRANCH  11  16
ATOM     16  C   UNL A   1      32.232  24.530  22.329  1.00  0.00     0.029 C 
ATOM     17  N   UNL A   1      32.835  21.835  24.693  1.00  0.00    -0.198 N 
ATOM     18  C   UNL A   1      32.677  23.187  24.428  1.00  0.00     0.285 C 
ATOM     19  C   UNL A   1      32.467  20.931  23.720  1.00  0.00     0.168 C 
ATOM     20  O   UNL A   1      32.765  24.072  25.260  1.00  0.00    -0.266 OA
ATOM     21  C   UNL A   1      32.371  23.367  22.980  1.00  0.00     0.082 C 
ATOM     22  S   UNL A   1      32.159  21.821  22.226  1.00  0.00    -0.052 SA
ATOM     23  S   UNL A   1      32.303  19.280  23.861  1.00  0.00    -0.050 S 
BRANCH  17  24
ATOM     24  N   UNL A   1      33.142  21.494  26.002  1.00  0.00    -0.254 N 
ATOM     25  C   UNL A   1      34.380  21.534  26.601  1.00  0.00     0.273 C 
ATOM     26  O   UNL A   1      34.400  21.453  27.831  1.00  0.00    -0.267 OA
ATOM     27  H   UNL A   1      32.393  21.190  26.563  1.00  0.00     0.192 HD
BRANCH  25  28
ATOM     28  C   UNL A   1      35.631  21.528  25.851  1.00  0.00     0.082 A 
ATOM     29  C   UNL A   1      36.890  23.878  26.004  1.00  0.00     0.088 C 
ATOM     30  C   UNL A   1      36.612  22.483  25.610  1.00  0.00     0.113 A 
ATOM     31  O   UNL A   1      37.607  21.953  24.835  1.00  0.00    -0.469 OA
ATOM     32  C   UNL A   1      37.321  20.651  24.626  1.00  0.00     0.196 A 
ATOM     33  C   UNL A   1      36.142  20.330  25.242  1.00  0.00     0.056 A 
ENDBRANCH  25  28
ENDBRANCH  17  24
ENDBRANCH  11  16
ENDBRANCH   9  10
ENDBRANCH   7   9
ENDBRANCH   4   7
ENDBRANCH   2   3
ENDBRANCH   1   2
BRANCH   1  34
ATOM     34  C   UNL A   1      36.150  30.947  28.340  1.00  0.00     0.002 C 
BRANCH  34  35
ATOM     35  C   UNL A   1      35.265  31.994  27.649  1.00  0.00     0.002 C 
BRANCH  35  36
ATOM     36  C   UNL A   1      34.355  32.812  28.572  1.00  0.00     0.021 C 
BRANCH  36  37
ATOM     37  C   UNL A   1      34.773  34.268  28.766  1.00  0.00     0.116 C 
BRANCH  37  38
ATOM     38  N   UNL A   1      34.353  34.790  30.056  1.00  0.00    -0.352 N 
ATOM     39  C   UNL A   1      34.837  34.531  31.313  1.00  0.00     0.251 C 
ATOM     40  H   UNL A   1      33.605  35.429  30.023  1.00  0.00     0.163 HD
ATOM     41  O   UNL A   1      34.215  34.917  32.300  1.00  0.00    -0.269 OA
BRANCH  39  42
ATOM     42  C   UNL A   1      36.098  33.782  31.491  1.00  0.00     0.039 A 
ATOM     43  C   UNL A   1      36.067  32.565  32.179  1.00  0.00     0.014 A 
ATOM     44  C   UNL A   1      37.313  34.293  31.025  1.00  0.00     0.014 A 
ATOM     45  C   UNL A   1      37.246  31.836  32.355  1.00  0.00     0.010 A 
ATOM     46  C   UNL A   1      38.477  33.537  31.149  1.00  0.00     0.010 A 
ATOM     47  C   UNL A   1      38.455  32.303  31.817  1.00  0.00    -0.014 A 
BRANCH  47  48
ATOM     48  C   UNL A   1      39.708  31.518  31.948  1.00  0.00     0.031 A 
ATOM     49  C   UNL A   1      40.000  30.395  30.991  1.00  0.00     0.074 A 
ATOM     50  C   UNL A   1      40.553  31.779  32.963  1.00  0.00     0.049 A 
ATOM     51  N   UNL A   1      40.991  29.541  30.998  1.00  0.00    -0.248 NA
ATOM     52  C   UNL A   1      39.038  30.190  29.896  1.00  0.00     0.031 C 
ATOM     53  C   UNL A   1      40.364  32.818  33.978  1.00  0.00     0.029 A 
ATOM     54  N   UNL A   1      41.736  31.179  33.319  1.00  0.00    -0.354 N 
ATOM     55  C   UNL A   1      40.768  28.694  29.920  1.00  0.00     0.074 A 
ATOM     56  C   UNL A   1      39.523  29.106  29.308  1.00  0.00     0.031 C 
ATOM     57  C   UNL A   1      41.398  32.790  34.834  1.00  0.00     0.029 A 
ATOM     58  C   UNL A   1      42.305  31.712  34.450  1.00  0.00     0.049 A 
ATOM     59  H   UNL A   1      42.138  30.438  32.811  1.00  0.00     0.167 HD
ATOM     60  C   UNL A   1      41.543  27.680  29.465  1.00  0.00     0.037 A 
ATOM     61  C   UNL A   1      43.426  31.364  35.109  1.00  0.00     0.037 A 
ATOM     62  C   UNL A   1      42.794  27.288  30.057  1.00  0.00     0.049 A 
ATOM     63  C   UNL A   1      44.267  30.233  34.582  1.00  0.00     0.074 A 
ATOM     64  C   UNL A   1      43.669  26.295  29.648  1.00  0.00     0.029 A 
ATOM     65  N   UNL A   1      43.354  27.875  31.182  1.00  0.00    -0.354 N 
ATOM     66  N   UNL A   1      44.067  29.474  33.532  1.00  0.00    -0.248 NA
ATOM     67  C   UNL A   1      45.494  29.917  35.327  1.00  0.00     0.031 C 
ATOM     68  C   UNL A   1      44.744  26.262  30.542  1.00  0.00     0.029 A 
ATOM     69  C   UNL A   1      44.557  27.260  31.485  1.00  0.00     0.049 A 
ATOM     70  H   UNL A   1      42.955  28.618  31.689  1.00  0.00     0.167 HD
ATOM     71  C   UNL A   1      45.154  28.612  33.475  1.00  0.00     0.074 A 
ATOM     72  C   UNL A   1      46.018  28.952  34.585  1.00  0.00     0.031 C 
ATOM     73  C   UNL A   1      45.413  27.625  32.584  1.00  0.00     0.037 A 
BRANCH  60  74
ATOM     74  C   UNL A   1      41.068  26.931  28.255  1.00  0.00     0.057 A 
ATOM     75  C   UNL A   1      41.643  27.137  26.994  1.00  0.00     0.134 A 
ATOM     76  C   UNL A   1      40.067  25.958  28.358  1.00  0.00     0.134 A 
ATOM     77  F   UNL A   1      42.598  28.064  26.826  1.00  0.00    -0.206 F 
ATOM     78  C   UNL A   1      41.226  26.413  25.876  1.00  0.00     0.040 A 
ATOM     79  C   UNL A   1      39.659  25.210  27.252  1.00  0.00     0.040 A 
ATOM     80  F   UNL A   1      39.479  25.708  29.538  1.00  0.00    -0.206 F 
ATOM     81  C   UNL A   1      40.238  25.439  26.006  1.00  0.00     0.006 A 
ENDBRANCH  60  74
BRANCH  61  82
ATOM     82  C   UNL A   1      43.833  32.098  36.334  1.00  0.00     0.057 A 
ATOM     83  C   UNL A   1      44.640  33.238  36.256  1.00  0.00     0.134 A 
ATOM     84  C   UNL A   1      43.450  31.663  37.608  1.00  0.00     0.134 A 
ATOM     85  F   UNL A   1      45.052  33.694  35.063  1.00  0.00    -0.206 F 
ATOM     86  C   UNL A   1      45.079  33.904  37.402  1.00  0.00     0.040 A 
ATOM     87  C   UNL A   1      43.862  32.332  38.762  1.00  0.00     0.040 A 
ATOM     88  F   UNL A   1      42.664  30.585  37.749  1.00  0.00    -0.206 F 
ATOM     89  C   UNL A   1      44.687  33.451  38.659  1.00  0.00     0.006 A 
ENDBRANCH  61  82
BRANCH  73  90
ATOM     90  C   UNL A   1      46.698  26.871  32.750  1.00  0.00     0.057 A 
ATOM     91  C   UNL A   1      46.769  25.688  33.498  1.00  0.00     0.134 A 
ATOM     92  C   UNL A   1      47.869  27.314  32.123  1.00  0.00     0.134 A 
ATOM     93  F   UNL A   1      45.685  25.220  34.133  1.00  0.00    -0.206 F 
ATOM     94  C   UNL A   1      47.967  24.985  33.634  1.00  0.00     0.040 A 
ATOM     95  C   UNL A   1      49.067  26.606  32.231  1.00  0.00     0.040 A 
ATOM     96  F   UNL A   1      47.865  28.435  31.385  1.00  0.00    -0.206 F 
ATOM     97  C   UNL A   1      49.119  25.441  32.995  1.00  0.00     0.006 A 
ENDBRANCH  73  90
ENDBRANCH  47  48
ENDBRANCH  39  42
ENDBRANCH  37  38
ENDBRANCH  36  37
ENDBRANCH  35  36
ENDBRANCH  34  35
ENDBRANCH   1  34
TORSDOF 18
ENDMDL
