MODEL 1
REMARK VINA RESULT:     -11.3      0.000      0.000
REMARK SMILES Cc1n[nH]c(C(=O)N[C@@H](CC(C)C)C(=O)NCCCCCCNC(=O)c2ccc(-c3c4nc(c(-c5c(F)cccc5F)c5ccc([nH]5)c(-c5c(F)cccc5F)c5nc(c(-c6c(F)cccc6F)c6ccc3[nH]6)C=C5)C=C4)cc2)n1
REMARK SMILES IDX 19 1 18 2 17 3 16 4 14 5 15 6 9 8 8 9 6 10 7 11 5 13 1 14
REMARK SMILES IDX 2 15 3 16 80 17 4 18 10 20 11 21 12 22 13 23 20 24 21 25
REMARK SMILES IDX 22 26 23 27 24 28 25 30 26 31 27 32 79 33 28 34 78 35 29 36
REMARK SMILES IDX 30 37 31 38 72 39 32 40 77 41 71 42 73 43 33 44 76 45 70 46
REMARK SMILES IDX 69 47 34 49 60 50 43 51 59 52 44 53 47 54 58 55 74 56 45 57
REMARK SMILES IDX 46 58 57 60 75 61 48 62 35 63 36 64 41 65 37 66 38 67 40 68
REMARK SMILES IDX 42 69 39 70 61 71 62 72 67 73 63 74 64 75 66 76 68 77 65 78
REMARK SMILES IDX 49 79 50 80 55 81 51 82 52 83 54 84 56 85 53 86
REMARK H PARENT 16 7 8 12 4 19 23 29 73 48 47 59
REMARK Flexibility Score: inf
ROOT
ATOM      1  C   UNL A   1      31.490  27.598  25.225  1.00  0.00     0.002 C 
ENDROOT
BRANCH   1   2
ATOM      2  C   UNL A   1      31.070  26.776  26.448  1.00  0.00     0.021 C 
BRANCH   2   3
ATOM      3  C   UNL A   1      30.268  25.519  26.137  1.00  0.00     0.116 C 
BRANCH   3   4
ATOM      4  N   UNL A   1      30.678  24.339  26.871  1.00  0.00    -0.354 N 
ATOM      5  C   UNL A   1      31.866  23.667  26.880  1.00  0.00     0.242 C 
ATOM      6  O   UNL A   1      32.057  22.868  27.803  1.00  0.00    -0.273 OA
ATOM      7  H   UNL A   1      29.986  23.959  27.460  1.00  0.00     0.163 HD
BRANCH   5   8
ATOM      8  C   UNL A   1      32.986  23.885  25.834  1.00  0.00     0.172 C 
BRANCH   8   9
ATOM      9  N   UNL A   1      34.196  23.154  26.198  1.00  0.00    -0.338 N 
ATOM     10  C   UNL A   1      34.645  21.877  25.943  1.00  0.00     0.289 C 
ATOM     11  O   UNL A   1      35.848  21.728  26.194  1.00  0.00    -0.266 OA
ATOM     12  H   UNL A   1      34.822  23.686  26.740  1.00  0.00     0.164 HD
BRANCH  10  13
ATOM     13  C   UNL A   1      33.804  20.777  25.492  1.00  0.00     0.214 A 
ATOM     14  C   UNL A   1      33.274  17.812  23.601  1.00  0.00     0.092 C 
ATOM     15  C   UNL A   1      33.211  18.992  24.484  1.00  0.00     0.148 A 
ATOM     16  N   UNL A   1      32.159  19.256  25.261  1.00  0.00    -0.159 NA
ATOM     17  N   UNL A   1      34.228  19.899  24.590  1.00  0.00    -0.207 NA
ATOM     18  N   UNL A   1      32.540  20.402  25.848  1.00  0.00    -0.255 N 
ATOM     19  H   UNL A   1      31.972  20.915  26.468  1.00  0.00     0.192 HD
ENDBRANCH  10  13
ENDBRANCH   8   9
BRANCH   8  20
ATOM     20  C   UNL A   1      32.651  23.812  24.329  1.00  0.00     0.038 C 
BRANCH  20  21
ATOM     21  C   UNL A   1      33.732  24.135  23.289  1.00  0.00    -0.015 C 
ATOM     22  C   UNL A   1      33.618  23.248  22.041  1.00  0.00     0.007 C 
ATOM     23  C   UNL A   1      33.632  25.596  22.833  1.00  0.00     0.007 C 
ENDBRANCH  20  21
ENDBRANCH   8  20
ENDBRANCH   5   8
ENDBRANCH   3   4
ENDBRANCH   2   3
ENDBRANCH   1   2
BRANCH   1  24
ATOM     24  C   UNL A   1      31.888  29.067  25.450  1.00  0.00     0.002 C 
BRANCH  24  25
ATOM     25  C   UNL A   1      32.174  29.539  26.882  1.00  0.00     0.021 C 
BRANCH  25  26
ATOM     26  C   UNL A   1      33.635  29.809  27.205  1.00  0.00     0.116 C 
BRANCH  26  27
ATOM     27  N   UNL A   1      33.998  31.226  27.142  1.00  0.00    -0.352 N 
ATOM     28  C   UNL A   1      35.051  31.876  27.772  1.00  0.00     0.251 C 
ATOM     29  H   UNL A   1      33.421  31.791  26.580  1.00  0.00     0.163 HD
ATOM     30  O   UNL A   1      35.036  33.080  27.956  1.00  0.00    -0.269 OA
BRANCH  28  31
ATOM     31  C   UNL A   1      36.210  31.071  28.201  1.00  0.00     0.039 A 
ATOM     32  C   UNL A   1      36.389  29.735  27.828  1.00  0.00     0.014 A 
ATOM     33  C   UNL A   1      37.155  31.720  28.981  1.00  0.00     0.014 A 
ATOM     34  C   UNL A   1      37.571  29.091  28.194  1.00  0.00     0.010 A 
ATOM     35  C   UNL A   1      38.395  31.178  29.122  1.00  0.00     0.010 A 
ATOM     36  C   UNL A   1      38.573  29.833  28.834  1.00  0.00    -0.014 A 
BRANCH  36  37
ATOM     37  C   UNL A   1      39.889  29.294  29.147  1.00  0.00     0.031 A 
ATOM     38  C   UNL A   1      40.107  29.023  30.590  1.00  0.00     0.074 A 
ATOM     39  C   UNL A   1      40.680  28.809  28.160  1.00  0.00     0.049 A 
ATOM     40  N   UNL A   1      40.985  29.565  31.365  1.00  0.00    -0.248 NA
ATOM     41  C   UNL A   1      39.139  28.167  31.300  1.00  0.00     0.031 C 
ATOM     42  C   UNL A   1      40.405  28.770  26.715  1.00  0.00     0.029 A 
ATOM     43  N   UNL A   1      41.842  28.107  28.252  1.00  0.00    -0.354 N 
ATOM     44  C   UNL A   1      40.834  28.942  32.602  1.00  0.00     0.074 A 
ATOM     45  C   UNL A   1      39.562  28.275  32.562  1.00  0.00     0.031 C 
ATOM     46  C   UNL A   1      41.231  27.888  26.114  1.00  0.00     0.029 A 
ATOM     47  C   UNL A   1      42.192  27.416  27.090  1.00  0.00     0.049 A 
ATOM     48  H   UNL A   1      42.389  28.088  29.070  1.00  0.00     0.167 HD
ATOM     49  C   UNL A   1      41.896  28.798  33.442  1.00  0.00     0.037 A 
ATOM     50  C   UNL A   1      43.184  26.496  26.968  1.00  0.00     0.037 A 
ATOM     51  C   UNL A   1      42.985  29.658  33.041  1.00  0.00     0.049 A 
ATOM     52  C   UNL A   1      44.101  26.697  28.121  1.00  0.00     0.074 A 
ATOM     53  C   UNL A   1      43.123  31.021  32.864  1.00  0.00     0.029 A 
ATOM     54  N   UNL A   1      44.029  29.083  32.357  1.00  0.00    -0.354 N 
ATOM     55  N   UNL A   1      44.845  27.759  28.265  1.00  0.00    -0.248 NA
ATOM     56  C   UNL A   1      43.802  25.973  29.349  1.00  0.00     0.031 C 
ATOM     57  C   UNL A   1      43.925  31.158  31.693  1.00  0.00     0.029 A 
ATOM     58  C   UNL A   1      44.312  29.883  31.280  1.00  0.00     0.049 A 
ATOM     59  H   UNL A   1      44.491  28.247  32.597  1.00  0.00     0.167 HD
ATOM     60  C   UNL A   1      44.731  28.089  29.608  1.00  0.00     0.074 A 
ATOM     61  C   UNL A   1      44.136  26.911  30.241  1.00  0.00     0.031 C 
ATOM     62  C   UNL A   1      44.829  29.386  30.027  1.00  0.00     0.037 A 
BRANCH  49  63
ATOM     63  C   UNL A   1      42.117  27.615  34.355  1.00  0.00     0.057 A 
ATOM     64  C   UNL A   1      41.761  27.732  35.712  1.00  0.00     0.134 A 
ATOM     65  C   UNL A   1      42.920  26.498  34.045  1.00  0.00     0.134 A 
ATOM     66  F   UNL A   1      40.998  28.751  36.138  1.00  0.00    -0.206 F 
ATOM     67  C   UNL A   1      42.251  26.864  36.695  1.00  0.00     0.040 A 
ATOM     68  C   UNL A   1      43.370  25.595  35.012  1.00  0.00     0.040 A 
ATOM     69  F   UNL A   1      43.400  26.268  32.819  1.00  0.00    -0.206 F 
ATOM     70  C   UNL A   1      43.068  25.797  36.349  1.00  0.00     0.006 A 
ENDBRANCH  49  63
BRANCH  50  71
ATOM     71  C   UNL A   1      43.248  25.297  26.096  1.00  0.00     0.057 A 
ATOM     72  C   UNL A   1      44.319  25.090  25.212  1.00  0.00     0.134 A 
ATOM     73  C   UNL A   1      42.399  24.191  26.295  1.00  0.00     0.134 A 
ATOM     74  F   UNL A   1      45.208  26.066  24.982  1.00  0.00    -0.206 F 
ATOM     75  C   UNL A   1      44.547  23.856  24.587  1.00  0.00     0.040 A 
ATOM     76  C   UNL A   1      42.613  22.955  25.672  1.00  0.00     0.040 A 
ATOM     77  F   UNL A   1      41.384  24.245  27.168  1.00  0.00    -0.206 F 
ATOM     78  C   UNL A   1      43.699  22.779  24.825  1.00  0.00     0.006 A 
ENDBRANCH  50  71
BRANCH  62  79
ATOM     79  C   UNL A   1      45.285  30.421  29.032  1.00  0.00     0.057 A 
ATOM     80  C   UNL A   1      44.421  31.175  28.221  1.00  0.00     0.134 A 
ATOM     81  C   UNL A   1      46.633  30.790  29.022  1.00  0.00     0.134 A 
ATOM     82  F   UNL A   1      43.099  30.970  28.238  1.00  0.00    -0.206 F 
ATOM     83  C   UNL A   1      44.882  32.216  27.411  1.00  0.00     0.040 A 
ATOM     84  C   UNL A   1      47.103  31.852  28.243  1.00  0.00     0.040 A 
ATOM     85  F   UNL A   1      47.511  30.158  29.816  1.00  0.00    -0.206 F 
ATOM     86  C   UNL A   1      46.228  32.562  27.426  1.00  0.00     0.006 A 
ENDBRANCH  62  79
ENDBRANCH  36  37
ENDBRANCH  28  31
ENDBRANCH  26  27
ENDBRANCH  25  26
ENDBRANCH  24  25
ENDBRANCH   1  24
TORSDOF 17
ENDMDL
MODEL 2
REMARK VINA RESULT:     -11.3      1.569      2.746
REMARK SMILES Cc1n[nH]c(C(=O)N[C@@H](CC(C)C)C(=O)NCCCCCCNC(=O)c2ccc(-c3c4nc(c(-c5c(F)cccc5F)c5ccc([nH]5)c(-c5c(F)cccc5F)c5nc(c(-c6c(F)cccc6F)c6ccc3[nH]6)C=C5)C=C4)cc2)n1
REMARK SMILES IDX 19 1 18 2 17 3 16 4 14 5 15 6 9 8 8 9 6 10 7 11 5 13 1 14
REMARK SMILES IDX 2 15 3 16 80 17 4 18 10 20 11 21 12 22 13 23 20 24 21 25
REMARK SMILES IDX 22 26 23 27 24 28 25 30 26 31 27 32 79 33 28 34 78 35 29 36
REMARK SMILES IDX 30 37 31 38 72 39 32 40 77 41 71 42 73 43 33 44 76 45 70 46
REMARK SMILES IDX 69 47 34 49 60 50 43 51 59 52 44 53 47 54 58 55 74 56 45 57
REMARK SMILES IDX 46 58 57 60 75 61 48 62 35 63 36 64 41 65 37 66 38 67 40 68
REMARK SMILES IDX 42 69 39 70 61 71 62 72 67 73 63 74 64 75 66 76 68 77 65 78
REMARK SMILES IDX 49 79 50 80 55 81 51 82 52 83 54 84 56 85 53 86
REMARK H PARENT 16 7 8 12 4 19 23 29 73 48 47 59
REMARK Flexibility Score: inf
ROOT
ATOM      1  C   UNL A   1      32.893  26.337  25.740  1.00  0.00     0.002 C 
ENDROOT
BRANCH   1   2
ATOM      2  C   UNL A   1      32.004  25.234  26.327  1.00  0.00     0.021 C 
BRANCH   2   3
ATOM      3  C   UNL A   1      32.262  23.837  25.780  1.00  0.00     0.116 C 
BRANCH   3   4
ATOM      4  N   UNL A   1      33.054  22.982  26.642  1.00  0.00    -0.354 N 
ATOM      5  C   UNL A   1      33.900  21.955  26.340  1.00  0.00     0.242 C 
ATOM      6  O   UNL A   1      34.673  21.579  27.228  1.00  0.00    -0.273 OA
ATOM      7  H   UNL A   1      32.966  23.173  27.604  1.00  0.00     0.163 HD
BRANCH   5   8
ATOM      8  C   UNL A   1      33.973  21.281  24.948  1.00  0.00     0.172 C 
BRANCH   8   9
ATOM      9  N   UNL A   1      34.479  22.207  23.940  1.00  0.00    -0.338 N 
ATOM     10  C   UNL A   1      35.722  22.740  23.681  1.00  0.00     0.289 C 
ATOM     11  O   UNL A   1      35.797  23.273  22.567  1.00  0.00    -0.266 OA
ATOM     12  H   UNL A   1      33.785  22.516  23.314  1.00  0.00     0.164 HD
BRANCH  10  13
ATOM     13  C   UNL A   1      36.832  22.753  24.624  1.00  0.00     0.214 A 
ATOM     14  C   UNL A   1      38.788  24.335  27.138  1.00  0.00     0.092 C 
ATOM     15  C   UNL A   1      38.158  23.441  26.147  1.00  0.00     0.148 A 
ATOM     16  N   UNL A   1      38.537  22.173  25.978  1.00  0.00    -0.159 NA
ATOM     17  N   UNL A   1      37.131  23.833  25.336  1.00  0.00    -0.207 NA
ATOM     18  N   UNL A   1      37.718  21.779  24.989  1.00  0.00    -0.255 N 
ATOM     19  H   UNL A   1      37.752  20.888  24.572  1.00  0.00     0.192 HD
ENDBRANCH  10  13
ENDBRANCH   8   9
BRANCH   8  20
ATOM     20  C   UNL A   1      34.549  19.855  24.820  1.00  0.00     0.038 C 
BRANCH  20  21
ATOM     21  C   UNL A   1      33.607  18.669  24.573  1.00  0.00    -0.015 C 
ATOM     22  C   UNL A   1      32.455  19.032  23.627  1.00  0.00     0.007 C 
ATOM     23  C   UNL A   1      34.366  17.489  23.953  1.00  0.00     0.007 C 
ENDBRANCH  20  21
ENDBRANCH   8  20
ENDBRANCH   5   8
ENDBRANCH   3   4
ENDBRANCH   2   3
ENDBRANCH   1   2
BRANCH   1  24
ATOM     24  C   UNL A   1      32.554  27.795  26.092  1.00  0.00     0.002 C 
BRANCH  24  25
ATOM     25  C   UNL A   1      33.346  28.481  27.215  1.00  0.00     0.021 C 
BRANCH  25  26
ATOM     26  C   UNL A   1      34.462  29.408  26.758  1.00  0.00     0.116 C 
BRANCH  26  27
ATOM     27  N   UNL A   1      34.317  30.783  27.242  1.00  0.00    -0.352 N 
ATOM     28  C   UNL A   1      34.929  31.382  28.334  1.00  0.00     0.251 C 
ATOM     29  H   UNL A   1      33.708  31.357  26.724  1.00  0.00     0.163 HD
ATOM     30  O   UNL A   1      34.461  32.379  28.857  1.00  0.00    -0.269 OA
BRANCH  28  31
ATOM     31  C   UNL A   1      36.181  30.792  28.842  1.00  0.00     0.039 A 
ATOM     32  C   UNL A   1      36.268  29.478  29.313  1.00  0.00     0.014 A 
ATOM     33  C   UNL A   1      37.305  31.604  28.801  1.00  0.00     0.014 A 
ATOM     34  C   UNL A   1      37.519  28.976  29.671  1.00  0.00     0.010 A 
ATOM     35  C   UNL A   1      38.541  31.045  28.913  1.00  0.00     0.010 A 
ATOM     36  C   UNL A   1      38.652  29.773  29.454  1.00  0.00    -0.014 A 
BRANCH  36  37
ATOM     37  C   UNL A   1      40.012  29.302  29.673  1.00  0.00     0.031 A 
ATOM     38  C   UNL A   1      40.441  29.327  31.095  1.00  0.00     0.074 A 
ATOM     39  C   UNL A   1      40.666  28.625  28.700  1.00  0.00     0.049 A 
ATOM     40  N   UNL A   1      41.407  30.011  31.610  1.00  0.00    -0.248 NA
ATOM     41  C   UNL A   1      39.607  28.636  32.095  1.00  0.00     0.031 C 
ATOM     42  C   UNL A   1      40.188  28.296  27.347  1.00  0.00     0.029 A 
ATOM     43  N   UNL A   1      41.846  27.951  28.761  1.00  0.00    -0.354 N 
ATOM     44  C   UNL A   1      41.451  29.651  32.954  1.00  0.00     0.074 A 
ATOM     45  C   UNL A   1      40.202  28.995  33.234  1.00  0.00     0.031 C 
ATOM     46  C   UNL A   1      40.942  27.307  26.822  1.00  0.00     0.029 A 
ATOM     47  C   UNL A   1      42.044  27.038  27.723  1.00  0.00     0.049 A 
ATOM     48  H   UNL A   1      42.505  28.095  29.478  1.00  0.00     0.167 HD
ATOM     49  C   UNL A   1      42.625  29.675  33.643  1.00  0.00     0.037 A 
ATOM     50  C   UNL A   1      43.031  26.107  27.645  1.00  0.00     0.037 A 
ATOM     51  C   UNL A   1      43.623  30.431  32.925  1.00  0.00     0.049 A 
ATOM     52  C   UNL A   1      44.098  26.533  28.589  1.00  0.00     0.074 A 
ATOM     53  C   UNL A   1      43.700  31.730  32.460  1.00  0.00     0.029 A 
ATOM     54  N   UNL A   1      44.573  29.725  32.226  1.00  0.00    -0.354 N 
ATOM     55  N   UNL A   1      44.828  27.599  28.408  1.00  0.00    -0.248 NA
ATOM     56  C   UNL A   1      43.996  26.073  29.967  1.00  0.00     0.031 C 
ATOM     57  C   UNL A   1      44.323  31.624  31.182  1.00  0.00     0.029 A 
ATOM     58  C   UNL A   1      44.679  30.290  30.981  1.00  0.00     0.049 A 
ATOM     59  H   UNL A   1      45.085  28.953  32.559  1.00  0.00     0.167 HD
ATOM     60  C   UNL A   1      44.899  28.194  29.660  1.00  0.00     0.074 A 
ATOM     61  C   UNL A   1      44.431  27.171  30.596  1.00  0.00     0.031 C 
ATOM     62  C   UNL A   1      45.023  29.548  29.792  1.00  0.00     0.037 A 
BRANCH  49  63
ATOM     63  C   UNL A   1      43.003  28.699  34.734  1.00  0.00     0.057 A 
ATOM     64  C   UNL A   1      43.474  29.204  35.960  1.00  0.00     0.134 A 
ATOM     65  C   UNL A   1      43.212  27.318  34.540  1.00  0.00     0.134 A 
ATOM     66  F   UNL A   1      43.336  30.504  36.267  1.00  0.00    -0.206 F 
ATOM     67  C   UNL A   1      44.184  28.418  36.875  1.00  0.00     0.040 A 
ATOM     68  C   UNL A   1      43.873  26.513  35.471  1.00  0.00     0.040 A 
ATOM     69  F   UNL A   1      42.884  26.687  33.407  1.00  0.00    -0.206 F 
ATOM     70  C   UNL A   1      44.396  27.069  36.627  1.00  0.00     0.006 A 
ENDBRANCH  49  63
BRANCH  50  71
ATOM     71  C   UNL A   1      42.999  24.757  27.031  1.00  0.00     0.057 A 
ATOM     72  C   UNL A   1      42.341  23.685  27.654  1.00  0.00     0.134 A 
ATOM     73  C   UNL A   1      43.382  24.543  25.693  1.00  0.00     0.134 A 
ATOM     74  F   UNL A   1      41.900  23.798  28.915  1.00  0.00    -0.206 F 
ATOM     75  C   UNL A   1      42.058  22.487  26.983  1.00  0.00     0.040 A 
ATOM     76  C   UNL A   1      43.110  23.349  25.013  1.00  0.00     0.040 A 
ATOM     77  F   UNL A   1      43.954  25.517  24.972  1.00  0.00    -0.206 F 
ATOM     78  C   UNL A   1      42.433  22.320  25.653  1.00  0.00     0.006 A 
ENDBRANCH  50  71
BRANCH  62  79
ATOM     79  C   UNL A   1      45.307  30.359  28.553  1.00  0.00     0.057 A 
ATOM     80  C   UNL A   1      44.317  30.939  27.744  1.00  0.00     0.134 A 
ATOM     81  C   UNL A   1      46.630  30.711  28.273  1.00  0.00     0.134 A 
ATOM     82  F   UNL A   1      43.017  30.750  27.994  1.00  0.00    -0.206 F 
ATOM     83  C   UNL A   1      44.632  31.794  26.683  1.00  0.00     0.040 A 
ATOM     84  C   UNL A   1      46.957  31.591  27.238  1.00  0.00     0.040 A 
ATOM     85  F   UNL A   1      47.628  30.246  29.040  1.00  0.00    -0.206 F 
ATOM     86  C   UNL A   1      45.957  32.128  26.432  1.00  0.00     0.006 A 
ENDBRANCH  62  79
ENDBRANCH  36  37
ENDBRANCH  28  31
ENDBRANCH  26  27
ENDBRANCH  25  26
ENDBRANCH  24  25
ENDBRANCH   1  24
TORSDOF 17
ENDMDL
MODEL 3
REMARK VINA RESULT:     -11.2      2.567      6.380
REMARK SMILES Cc1n[nH]c(C(=O)N[C@@H](CC(C)C)C(=O)NCCCCCCNC(=O)c2ccc(-c3c4nc(c(-c5c(F)cccc5F)c5ccc([nH]5)c(-c5c(F)cccc5F)c5nc(c(-c6c(F)cccc6F)c6ccc3[nH]6)C=C5)C=C4)cc2)n1
REMARK SMILES IDX 19 1 18 2 17 3 16 4 14 5 15 6 9 8 8 9 6 10 7 11 5 13 1 14
REMARK SMILES IDX 2 15 3 16 80 17 4 18 10 20 11 21 12 22 13 23 20 24 21 25
REMARK SMILES IDX 22 26 23 27 24 28 25 30 26 31 27 32 79 33 28 34 78 35 29 36
REMARK SMILES IDX 30 37 31 38 72 39 32 40 77 41 71 42 73 43 33 44 76 45 70 46
REMARK SMILES IDX 69 47 34 49 60 50 43 51 59 52 44 53 47 54 58 55 74 56 45 57
REMARK SMILES IDX 46 58 57 60 75 61 48 62 35 63 36 64 41 65 37 66 38 67 40 68
REMARK SMILES IDX 42 69 39 70 61 71 62 72 67 73 63 74 64 75 66 76 68 77 65 78
REMARK SMILES IDX 49 79 50 80 55 81 51 82 52 83 54 84 56 85 53 86
REMARK H PARENT 16 7 8 12 4 19 23 29 73 48 47 59
REMARK Flexibility Score: inf
ROOT
ATOM      1  C   UNL A   1      32.087  30.423  25.839  1.00  0.00     0.002 C 
ENDROOT
BRANCH   1   2
ATOM      2  C   UNL A   1      31.404  29.163  25.295  1.00  0.00     0.021 C 
BRANCH   2   3
ATOM      3  C   UNL A   1      31.309  29.084  23.776  1.00  0.00     0.116 C 
BRANCH   3   4
ATOM      4  N   UNL A   1      32.585  29.058  23.089  1.00  0.00    -0.354 N 
ATOM      5  C   UNL A   1      33.273  28.019  22.533  1.00  0.00     0.242 C 
ATOM      6  O   UNL A   1      34.192  28.300  21.756  1.00  0.00    -0.273 OA
ATOM      7  H   UNL A   1      33.029  29.934  23.011  1.00  0.00     0.163 HD
BRANCH   5   8
ATOM      8  C   UNL A   1      32.935  26.529  22.786  1.00  0.00     0.172 C 
BRANCH   8   9
ATOM      9  N   UNL A   1      33.247  25.713  21.617  1.00  0.00    -0.338 N 
ATOM     10  C   UNL A   1      33.120  24.370  21.336  1.00  0.00     0.289 C 
ATOM     11  O   UNL A   1      33.242  24.114  20.132  1.00  0.00    -0.266 OA
ATOM     12  H   UNL A   1      33.630  26.231  20.873  1.00  0.00     0.164 HD
BRANCH  10  13
ATOM     13  C   UNL A   1      32.931  23.329  22.336  1.00  0.00     0.214 A 
ATOM     14  C   UNL A   1      34.166  21.148  24.860  1.00  0.00     0.092 C 
ATOM     15  C   UNL A   1      33.384  21.936  23.888  1.00  0.00     0.148 A 
ATOM     16  N   UNL A   1      32.053  21.869  23.812  1.00  0.00    -0.159 NA
ATOM     17  N   UNL A   1      33.954  22.805  23.002  1.00  0.00    -0.207 NA
ATOM     18  N   UNL A   1      31.801  22.720  22.803  1.00  0.00    -0.255 N 
ATOM     19  H   UNL A   1      30.900  22.886  22.441  1.00  0.00     0.192 HD
ENDBRANCH  10  13
ENDBRANCH   8   9
BRANCH   8  20
ATOM     20  C   UNL A   1      33.337  25.871  24.122  1.00  0.00     0.038 C 
BRANCH  20  21
ATOM     21  C   UNL A   1      32.311  25.756  25.257  1.00  0.00    -0.015 C 
ATOM     22  C   UNL A   1      30.900  25.452  24.733  1.00  0.00     0.007 C 
ATOM     23  C   UNL A   1      32.697  24.638  26.233  1.00  0.00     0.007 C 
ENDBRANCH  20  21
ENDBRANCH   8  20
ENDBRANCH   5   8
ENDBRANCH   3   4
ENDBRANCH   2   3
ENDBRANCH   1   2
BRANCH   1  24
ATOM     24  C   UNL A   1      32.965  30.277  27.093  1.00  0.00     0.002 C 
BRANCH  24  25
ATOM     25  C   UNL A   1      33.877  29.047  27.212  1.00  0.00     0.021 C 
BRANCH  25  26
ATOM     26  C   UNL A   1      35.300  29.328  27.668  1.00  0.00     0.116 C 
BRANCH  26  27
ATOM     27  N   UNL A   1      35.388  29.840  29.037  1.00  0.00    -0.352 N 
ATOM     28  C   UNL A   1      36.358  29.579  29.995  1.00  0.00     0.251 C 
ATOM     29  H   UNL A   1      34.667  30.450  29.313  1.00  0.00     0.163 HD
ATOM     30  O   UNL A   1      36.139  29.743  31.183  1.00  0.00    -0.269 OA
BRANCH  28  31
ATOM     31  C   UNL A   1      37.680  29.112  29.540  1.00  0.00     0.039 A 
ATOM     32  C   UNL A   1      38.369  29.699  28.473  1.00  0.00     0.014 A 
ATOM     33  C   UNL A   1      38.242  28.063  30.252  1.00  0.00     0.014 A 
ATOM     34  C   UNL A   1      39.661  29.257  28.186  1.00  0.00     0.010 A 
ATOM     35  C   UNL A   1      39.573  27.808  30.133  1.00  0.00     0.010 A 
ATOM     36  C   UNL A   1      40.255  28.314  29.036  1.00  0.00    -0.014 A 
BRANCH  36  37
ATOM     37  C   UNL A   1      41.638  27.880  28.903  1.00  0.00     0.031 A 
ATOM     38  C   UNL A   1      41.807  26.615  28.144  1.00  0.00     0.074 A 
ATOM     39  C   UNL A   1      42.652  28.733  29.181  1.00  0.00     0.049 A 
ATOM     40  N   UNL A   1      42.298  25.502  28.575  1.00  0.00    -0.248 NA
ATOM     41  C   UNL A   1      41.220  26.520  26.795  1.00  0.00     0.031 C 
ATOM     42  C   UNL A   1      42.562  30.122  29.661  1.00  0.00     0.029 A 
ATOM     43  N   UNL A   1      43.986  28.594  28.951  1.00  0.00    -0.354 N 
ATOM     44  C   UNL A   1      42.301  24.641  27.481  1.00  0.00     0.074 A 
ATOM     45  C   UNL A   1      41.433  25.235  26.500  1.00  0.00     0.031 C 
ATOM     46  C   UNL A   1      43.735  30.756  29.455  1.00  0.00     0.029 A 
ATOM     47  C   UNL A   1      44.705  29.791  28.979  1.00  0.00     0.049 A 
ATOM     48  H   UNL A   1      44.408  27.722  28.780  1.00  0.00     0.167 HD
ATOM     49  C   UNL A   1      43.238  23.659  27.371  1.00  0.00     0.037 A 
ATOM     50  C   UNL A   1      45.997  29.964  28.596  1.00  0.00     0.037 A 
ATOM     51  C   UNL A   1      43.901  23.442  28.634  1.00  0.00     0.049 A 
ATOM     52  C   UNL A   1      46.628  28.617  28.595  1.00  0.00     0.074 A 
ATOM     53  C   UNL A   1      43.474  23.095  29.902  1.00  0.00     0.029 A 
ATOM     54  N   UNL A   1      45.152  23.989  28.796  1.00  0.00    -0.354 N 
ATOM     55  N   UNL A   1      46.843  27.928  29.682  1.00  0.00    -0.248 NA
ATOM     56  C   UNL A   1      46.540  27.837  27.369  1.00  0.00     0.031 C 
ATOM     57  C   UNL A   1      44.257  23.897  30.783  1.00  0.00     0.029 A 
ATOM     58  C   UNL A   1      45.179  24.611  30.018  1.00  0.00     0.049 A 
ATOM     59  H   UNL A   1      45.895  23.943  28.151  1.00  0.00     0.167 HD
ATOM     60  C   UNL A   1      46.470  26.632  29.356  1.00  0.00     0.074 A 
ATOM     61  C   UNL A   1      46.363  26.621  27.896  1.00  0.00     0.031 C 
ATOM     62  C   UNL A   1      45.976  25.781  30.303  1.00  0.00     0.037 A 
BRANCH  49  63
ATOM     63  C   UNL A   1      43.841  23.187  26.068  1.00  0.00     0.057 A 
ATOM     64  C   UNL A   1      43.874  21.806  25.799  1.00  0.00     0.134 A 
ATOM     65  C   UNL A   1      44.646  23.977  25.222  1.00  0.00     0.134 A 
ATOM     66  F   UNL A   1      43.152  20.945  26.532  1.00  0.00    -0.206 F 
ATOM     67  C   UNL A   1      44.717  21.248  24.830  1.00  0.00     0.040 A 
ATOM     68  C   UNL A   1      45.451  23.435  24.217  1.00  0.00     0.040 A 
ATOM     69  F   UNL A   1      44.782  25.299  25.376  1.00  0.00    -0.206 F 
ATOM     70  C   UNL A   1      45.519  22.062  24.042  1.00  0.00     0.006 A 
ENDBRANCH  49  63
BRANCH  50  71
ATOM     71  C   UNL A   1      46.640  31.148  27.977  1.00  0.00     0.057 A 
ATOM     72  C   UNL A   1      46.063  31.804  26.878  1.00  0.00     0.134 A 
ATOM     73  C   UNL A   1      47.697  31.832  28.609  1.00  0.00     0.134 A 
ATOM     74  F   UNL A   1      45.025  31.258  26.229  1.00  0.00    -0.206 F 
ATOM     75  C   UNL A   1      46.491  33.069  26.450  1.00  0.00     0.040 A 
ATOM     76  C   UNL A   1      48.137  33.093  28.188  1.00  0.00     0.040 A 
ATOM     77  F   UNL A   1      48.280  31.340  29.710  1.00  0.00    -0.206 F 
ATOM     78  C   UNL A   1      47.524  33.724  27.113  1.00  0.00     0.006 A 
ENDBRANCH  50  71
BRANCH  62  79
ATOM     79  C   UNL A   1      46.054  26.203  31.748  1.00  0.00     0.057 A 
ATOM     80  C   UNL A   1      44.984  26.758  32.469  1.00  0.00     0.134 A 
ATOM     81  C   UNL A   1      47.198  25.873  32.481  1.00  0.00     0.134 A 
ATOM     82  F   UNL A   1      43.810  27.012  31.882  1.00  0.00    -0.206 F 
ATOM     83  C   UNL A   1      45.065  27.010  33.842  1.00  0.00     0.040 A 
ATOM     84  C   UNL A   1      47.280  26.087  33.859  1.00  0.00     0.040 A 
ATOM     85  F   UNL A   1      48.240  25.282  31.874  1.00  0.00    -0.206 F 
ATOM     86  C   UNL A   1      46.215  26.666  34.543  1.00  0.00     0.006 A 
ENDBRANCH  62  79
ENDBRANCH  36  37
ENDBRANCH  28  31
ENDBRANCH  26  27
ENDBRANCH  25  26
ENDBRANCH  24  25
ENDBRANCH   1  24
TORSDOF 17
ENDMDL
