MODEL 1
REMARK VINA RESULT:      -9.6      0.000      0.000
REMARK SMILES CC(=O)Oc1ccccc1SCCCCCC(=O)NCCCCCCNC(=O)c1ccc(-c2c3nc(c(-c4c(F)cccc4F)c4ccc([nH]4)c(-c4c(F)cccc4F)c4nc(c(-c5c(F)cccc5F)c5ccc2[nH]5)C=C4)C=C3)cc1
REMARK SMILES IDX 17 1 18 2 19 3 16 5 15 6 14 7 13 8 12 9 11 10 10 11 5 12
REMARK SMILES IDX 6 13 7 14 9 15 8 16 4 17 2 18 1 19 3 20 20 21 21 22 22 23
REMARK SMILES IDX 23 24 24 25 25 26 26 27 27 28 28 30 29 31 30 32 82 33 31 34
REMARK SMILES IDX 81 35 32 36 33 37 34 38 75 39 35 40 80 41 74 42 76 43 36 44
REMARK SMILES IDX 79 45 73 46 72 47 37 49 63 50 46 51 62 52 47 53 50 54 61 55
REMARK SMILES IDX 77 56 48 57 49 58 60 60 78 61 51 62 38 63 39 64 44 65 40 66
REMARK SMILES IDX 41 67 43 68 45 69 42 70 64 71 65 72 70 73 66 74 67 75 69 76
REMARK SMILES IDX 71 77 68 78 52 79 53 80 58 81 54 82 55 83 57 84 59 85 56 86
REMARK H PARENT 19 4 26 29 76 48 50 59
REMARK Flexibility Score: inf
ROOT
ATOM      1  C   UNL A   1      34.584  23.278  23.529  1.00  0.00     0.219 C 
ATOM      2  O   UNL A   1      34.730  23.396  22.311  1.00  0.00    -0.275 OA
ATOM      3  N   UNL A   1      35.540  23.778  24.356  1.00  0.00    -0.356 N 
ATOM      4  H   UNL A   1      36.241  24.319  23.928  1.00  0.00     0.163 HD
ENDROOT
BRANCH   1   5
ATOM      5  C   UNL A   1      33.359  22.609  24.118  1.00  0.00     0.100 C 
BRANCH   5   6
ATOM      6  C   UNL A   1      32.127  22.662  23.212  1.00  0.00     0.010 C 
BRANCH   6   7
ATOM      7  C   UNL A   1      30.888  23.498  23.609  1.00  0.00     0.001 C 
BRANCH   7   8
ATOM      8  C   UNL A   1      30.818  24.996  23.258  1.00  0.00     0.011 C 
BRANCH   8   9
ATOM      9  C   UNL A   1      31.680  25.639  22.141  1.00  0.00     0.075 C 
BRANCH   9  10
ATOM     10  S   UNL A   1      33.165  26.704  22.350  1.00  0.00    -0.122 SA
BRANCH  10  11
ATOM     11  C   UNL A   1      32.940  27.334  23.986  1.00  0.00     0.050 A 
ATOM     12  C   UNL A   1      32.039  28.363  24.289  1.00  0.00     0.144 A 
ATOM     13  C   UNL A   1      31.829  28.755  25.619  1.00  0.00     0.048 A 
ATOM     14  C   UNL A   1      32.524  28.130  26.655  1.00  0.00     0.004 A 
ATOM     15  C   UNL A   1      33.684  26.763  25.036  1.00  0.00     0.019 A 
ATOM     16  C   UNL A   1      33.469  27.150  26.363  1.00  0.00     0.001 A 
BRANCH  12  17
ATOM     17  O   UNL A   1      31.309  29.126  23.329  1.00  0.00    -0.426 OA
BRANCH  17  18
ATOM     18  C   UNL A   1      29.948  29.430  23.379  1.00  0.00     0.308 C 
ATOM     19  C   UNL A   1      29.123  28.219  23.105  1.00  0.00     0.139 C 
ATOM     20  O   UNL A   1      29.429  30.531  23.523  1.00  0.00    -0.252 OA
ENDBRANCH  17  18
ENDBRANCH  12  17
ENDBRANCH  10  11
ENDBRANCH   9  10
ENDBRANCH   8   9
ENDBRANCH   7   8
ENDBRANCH   6   7
ENDBRANCH   5   6
ENDBRANCH   1   5
BRANCH   3  21
ATOM     21  C   UNL A   1      35.655  23.610  25.786  1.00  0.00     0.116 C 
BRANCH  21  22
ATOM     22  C   UNL A   1      36.323  22.275  26.102  1.00  0.00     0.021 C 
BRANCH  22  23
ATOM     23  C   UNL A   1      37.405  21.879  25.107  1.00  0.00     0.002 C 
BRANCH  23  24
ATOM     24  C   UNL A   1      37.195  20.497  24.482  1.00  0.00     0.002 C 
BRANCH  24  25
ATOM     25  C   UNL A   1      38.205  19.421  24.901  1.00  0.00     0.021 C 
BRANCH  25  26
ATOM     26  C   UNL A   1      39.178  19.844  26.000  1.00  0.00     0.116 C 
BRANCH  26  27
ATOM     27  N   UNL A   1      40.434  19.118  25.910  1.00  0.00    -0.352 N 
ATOM     28  C   UNL A   1      41.721  19.580  25.971  1.00  0.00     0.251 C 
ATOM     29  H   UNL A   1      40.346  18.146  25.786  1.00  0.00     0.163 HD
ATOM     30  O   UNL A   1      42.648  18.874  25.587  1.00  0.00    -0.269 OA
BRANCH  28  31
ATOM     31  C   UNL A   1      41.995  20.927  26.505  1.00  0.00     0.039 A 
ATOM     32  C   UNL A   1      42.340  21.948  25.615  1.00  0.00     0.014 A 
ATOM     33  C   UNL A   1      41.968  21.169  27.881  1.00  0.00     0.014 A 
ATOM     34  C   UNL A   1      42.619  23.225  26.105  1.00  0.00     0.010 A 
ATOM     35  C   UNL A   1      42.182  22.457  28.363  1.00  0.00     0.010 A 
ATOM     36  C   UNL A   1      42.521  23.493  27.480  1.00  0.00    -0.014 A 
BRANCH  36  37
ATOM     37  C   UNL A   1      42.785  24.850  28.015  1.00  0.00     0.031 A 
ATOM     38  C   UNL A   1      44.170  25.230  28.459  1.00  0.00     0.074 A 
ATOM     39  C   UNL A   1      41.763  25.718  28.156  1.00  0.00     0.049 A 
ATOM     40  N   UNL A   1      44.584  26.338  29.017  1.00  0.00    -0.248 NA
ATOM     41  C   UNL A   1      45.226  24.220  28.276  1.00  0.00     0.031 C 
ATOM     42  C   UNL A   1      40.369  25.450  27.799  1.00  0.00     0.029 A 
ATOM     43  N   UNL A   1      41.740  26.998  28.647  1.00  0.00    -0.354 N 
ATOM     44  C   UNL A   1      45.938  26.152  29.268  1.00  0.00     0.074 A 
ATOM     45  C   UNL A   1      46.269  24.811  28.840  1.00  0.00     0.031 C 
ATOM     46  C   UNL A   1      39.629  26.538  28.066  1.00  0.00     0.029 A 
ATOM     47  C   UNL A   1      40.489  27.566  28.645  1.00  0.00     0.049 A 
ATOM     48  H   UNL A   1      42.544  27.466  28.970  1.00  0.00     0.167 HD
ATOM     49  C   UNL A   1      46.828  27.029  29.791  1.00  0.00     0.037 A 
ATOM     50  C   UNL A   1      40.082  28.777  29.072  1.00  0.00     0.037 A 
ATOM     51  C   UNL A   1      46.502  28.377  30.178  1.00  0.00     0.049 A 
ATOM     52  C   UNL A   1      41.094  29.729  29.644  1.00  0.00     0.074 A 
ATOM     53  C   UNL A   1      47.347  29.366  30.647  1.00  0.00     0.029 A 
ATOM     54  N   UNL A   1      45.228  28.923  30.140  1.00  0.00    -0.354 N 
ATOM     55  N   UNL A   1      42.385  29.567  29.806  1.00  0.00    -0.248 NA
ATOM     56  C   UNL A   1      40.593  31.038  30.088  1.00  0.00     0.031 C 
ATOM     57  C   UNL A   1      46.579  30.499  30.933  1.00  0.00     0.029 A 
ATOM     58  C   UNL A   1      45.262  30.229  30.599  1.00  0.00     0.049 A 
ATOM     59  H   UNL A   1      44.420  28.451  29.833  1.00  0.00     0.167 HD
ATOM     60  C   UNL A   1      42.854  30.761  30.338  1.00  0.00     0.074 A 
ATOM     61  C   UNL A   1      41.712  31.642  30.460  1.00  0.00     0.031 C 
ATOM     62  C   UNL A   1      44.117  31.096  30.696  1.00  0.00     0.037 A 
BRANCH  49  63
ATOM     63  C   UNL A   1      48.244  26.567  29.969  1.00  0.00     0.057 A 
ATOM     64  C   UNL A   1      48.669  25.923  31.137  1.00  0.00     0.134 A 
ATOM     65  C   UNL A   1      49.177  26.713  28.935  1.00  0.00     0.134 A 
ATOM     66  F   UNL A   1      47.827  25.762  32.169  1.00  0.00    -0.206 F 
ATOM     67  C   UNL A   1      49.976  25.454  31.277  1.00  0.00     0.040 A 
ATOM     68  C   UNL A   1      50.480  26.226  29.053  1.00  0.00     0.040 A 
ATOM     69  F   UNL A   1      48.833  27.316  27.786  1.00  0.00    -0.206 F 
ATOM     70  C   UNL A   1      50.883  25.597  30.229  1.00  0.00     0.006 A 
ENDBRANCH  49  63
BRANCH  50  71
ATOM     71  C   UNL A   1      38.655  29.169  28.961  1.00  0.00     0.057 A 
ATOM     72  C   UNL A   1      37.795  29.077  30.062  1.00  0.00     0.134 A 
ATOM     73  C   UNL A   1      38.107  29.613  27.751  1.00  0.00     0.134 A 
ATOM     74  F   UNL A   1      38.256  28.642  31.244  1.00  0.00    -0.206 F 
ATOM     75  C   UNL A   1      36.438  29.385  29.959  1.00  0.00     0.040 A 
ATOM     76  C   UNL A   1      36.758  29.948  27.639  1.00  0.00     0.040 A 
ATOM     77  F   UNL A   1      38.880  29.729  26.661  1.00  0.00    -0.206 F 
ATOM     78  C   UNL A   1      35.916  29.824  28.744  1.00  0.00     0.006 A 
ENDBRANCH  50  71
BRANCH  62  79
ATOM     79  C   UNL A   1      44.337  32.489  31.208  1.00  0.00     0.057 A 
ATOM     80  C   UNL A   1      44.608  33.559  30.347  1.00  0.00     0.134 A 
ATOM     81  C   UNL A   1      44.237  32.767  32.578  1.00  0.00     0.134 A 
ATOM     82  F   UNL A   1      44.731  33.355  29.026  1.00  0.00    -0.206 F 
ATOM     83  C   UNL A   1      44.796  34.854  30.833  1.00  0.00     0.040 A 
ATOM     84  C   UNL A   1      44.396  34.062  33.072  1.00  0.00     0.040 A 
ATOM     85  F   UNL A   1      43.969  31.787  33.454  1.00  0.00    -0.206 F 
ATOM     86  C   UNL A   1      44.682  35.109  32.198  1.00  0.00     0.006 A 
ENDBRANCH  62  79
ENDBRANCH  36  37
ENDBRANCH  28  31
ENDBRANCH  26  27
ENDBRANCH  25  26
ENDBRANCH  24  25
ENDBRANCH  23  24
ENDBRANCH  22  23
ENDBRANCH  21  22
ENDBRANCH   3  21
TORSDOF 21
ENDMDL
MODEL 2
REMARK VINA RESULT:      -9.5      1.736      6.353
REMARK SMILES CC(=O)Oc1ccccc1SCCCCCC(=O)NCCCCCCNC(=O)c1ccc(-c2c3nc(c(-c4c(F)cccc4F)c4ccc([nH]4)c(-c4c(F)cccc4F)c4nc(c(-c5c(F)cccc5F)c5ccc2[nH]5)C=C4)C=C3)cc1
REMARK SMILES IDX 17 1 18 2 19 3 16 5 15 6 14 7 13 8 12 9 11 10 10 11 5 12
REMARK SMILES IDX 6 13 7 14 9 15 8 16 4 17 2 18 1 19 3 20 20 21 21 22 22 23
REMARK SMILES IDX 23 24 24 25 25 26 26 27 27 28 28 30 29 31 30 32 82 33 31 34
REMARK SMILES IDX 81 35 32 36 33 37 34 38 75 39 35 40 80 41 74 42 76 43 36 44
REMARK SMILES IDX 79 45 73 46 72 47 37 49 63 50 46 51 62 52 47 53 50 54 61 55
REMARK SMILES IDX 77 56 48 57 49 58 60 60 78 61 51 62 38 63 39 64 44 65 40 66
REMARK SMILES IDX 41 67 43 68 45 69 42 70 64 71 65 72 70 73 66 74 67 75 69 76
REMARK SMILES IDX 71 77 68 78 52 79 53 80 58 81 54 82 55 83 57 84 59 85 56 86
REMARK H PARENT 19 4 26 29 76 48 50 59
REMARK Flexibility Score: inf
ROOT
ATOM      1  C   UNL A   1      34.373  23.319  23.504  1.00  0.00     0.219 C 
ATOM      2  O   UNL A   1      34.512  23.336  22.281  1.00  0.00    -0.275 OA
ATOM      3  N   UNL A   1      35.369  23.813  24.286  1.00  0.00    -0.356 N 
ATOM      4  H   UNL A   1      36.099  24.275  23.815  1.00  0.00     0.163 HD
ENDROOT
BRANCH   1   5
ATOM      5  C   UNL A   1      33.114  22.777  24.149  1.00  0.00     0.100 C 
BRANCH   5   6
ATOM      6  C   UNL A   1      31.893  22.780  23.227  1.00  0.00     0.010 C 
BRANCH   6   7
ATOM      7  C   UNL A   1      30.687  23.707  23.513  1.00  0.00     0.001 C 
BRANCH   7   8
ATOM      8  C   UNL A   1      30.732  25.187  23.094  1.00  0.00     0.011 C 
BRANCH   8   9
ATOM      9  C   UNL A   1      31.770  25.747  22.087  1.00  0.00     0.075 C 
BRANCH   9  10
ATOM     10  S   UNL A   1      33.188  26.860  22.448  1.00  0.00    -0.122 SA
BRANCH  10  11
ATOM     11  C   UNL A   1      32.829  27.393  24.095  1.00  0.00     0.050 A 
ATOM     12  C   UNL A   1      31.969  28.460  24.379  1.00  0.00     0.144 A 
ATOM     13  C   UNL A   1      31.642  28.776  25.706  1.00  0.00     0.048 A 
ATOM     14  C   UNL A   1      32.182  28.035  26.758  1.00  0.00     0.004 A 
ATOM     15  C   UNL A   1      33.420  26.701  25.170  1.00  0.00     0.019 A 
ATOM     16  C   UNL A   1      33.089  27.013  26.493  1.00  0.00     0.001 A 
BRANCH  12  17
ATOM     17  O   UNL A   1      31.396  29.335  23.409  1.00  0.00    -0.426 OA
BRANCH  17  18
ATOM     18  C   UNL A   1      30.092  29.278  22.914  1.00  0.00     0.308 C 
ATOM     19  C   UNL A   1      29.304  30.463  23.356  1.00  0.00     0.139 C 
ATOM     20  O   UNL A   1      29.567  28.368  22.283  1.00  0.00    -0.252 OA
ENDBRANCH  17  18
ENDBRANCH  12  17
ENDBRANCH  10  11
ENDBRANCH   9  10
ENDBRANCH   8   9
ENDBRANCH   7   8
ENDBRANCH   6   7
ENDBRANCH   5   6
ENDBRANCH   1   5
BRANCH   3  21
ATOM     21  C   UNL A   1      35.489  23.744  25.724  1.00  0.00     0.116 C 
BRANCH  21  22
ATOM     22  C   UNL A   1      36.106  22.409  26.132  1.00  0.00     0.021 C 
BRANCH  22  23
ATOM     23  C   UNL A   1      37.211  21.933  25.199  1.00  0.00     0.002 C 
BRANCH  23  24
ATOM     24  C   UNL A   1      37.019  20.501  24.692  1.00  0.00     0.002 C 
BRANCH  24  25
ATOM     25  C   UNL A   1      38.165  19.530  25.002  1.00  0.00     0.021 C 
BRANCH  25  26
ATOM     26  C   UNL A   1      39.198  20.050  26.000  1.00  0.00     0.116 C 
BRANCH  26  27
ATOM     27  N   UNL A   1      40.366  19.187  26.059  1.00  0.00    -0.352 N 
ATOM     28  C   UNL A   1      41.696  19.510  26.073  1.00  0.00     0.251 C 
ATOM     29  H   UNL A   1      40.170  18.223  26.095  1.00  0.00     0.163 HD
ATOM     30  O   UNL A   1      42.540  18.653  25.831  1.00  0.00    -0.269 OA
BRANCH  28  31
ATOM     31  C   UNL A   1      42.116  20.889  26.383  1.00  0.00     0.039 A 
ATOM     32  C   UNL A   1      42.383  21.231  27.711  1.00  0.00     0.014 A 
ATOM     33  C   UNL A   1      42.191  21.856  25.376  1.00  0.00     0.014 A 
ATOM     34  C   UNL A   1      42.766  22.536  28.024  1.00  0.00     0.010 A 
ATOM     35  C   UNL A   1      42.636  23.139  25.679  1.00  0.00     0.010 A 
ATOM     36  C   UNL A   1      42.916  23.493  27.007  1.00  0.00    -0.014 A 
BRANCH  36  37
ATOM     37  C   UNL A   1      43.351  24.876  27.318  1.00  0.00     0.031 A 
ATOM     38  C   UNL A   1      42.362  25.875  27.854  1.00  0.00     0.074 A 
ATOM     39  C   UNL A   1      44.620  25.246  27.058  1.00  0.00     0.049 A 
ATOM     40  N   UNL A   1      42.532  27.144  28.119  1.00  0.00    -0.248 NA
ATOM     41  C   UNL A   1      40.995  25.388  28.102  1.00  0.00     0.031 C 
ATOM     42  C   UNL A   1      45.658  24.379  26.499  1.00  0.00     0.029 A 
ATOM     43  N   UNL A   1      45.249  26.454  27.222  1.00  0.00    -0.354 N 
ATOM     44  C   UNL A   1      41.295  27.611  28.544  1.00  0.00     0.074 A 
ATOM     45  C   UNL A   1      40.372  26.500  28.464  1.00  0.00     0.031 C 
ATOM     46  C   UNL A   1      46.799  25.077  26.383  1.00  0.00     0.029 A 
ATOM     47  C   UNL A   1      46.564  26.448  26.825  1.00  0.00     0.049 A 
ATOM     48  H   UNL A   1      44.801  27.250  27.589  1.00  0.00     0.167 HD
ATOM     49  C   UNL A   1      40.963  28.850  28.980  1.00  0.00     0.037 A 
ATOM     50  C   UNL A   1      47.474  27.441  26.811  1.00  0.00     0.037 A 
ATOM     51  C   UNL A   1      41.894  29.941  29.095  1.00  0.00     0.049 A 
ATOM     52  C   UNL A   1      47.077  28.804  27.304  1.00  0.00     0.074 A 
ATOM     53  C   UNL A   1      41.674  31.212  29.595  1.00  0.00     0.029 A 
ATOM     54  N   UNL A   1      43.223  29.890  28.704  1.00  0.00    -0.354 N 
ATOM     55  N   UNL A   1      45.922  29.211  27.774  1.00  0.00    -0.248 NA
ATOM     56  C   UNL A   1      48.112  29.847  27.271  1.00  0.00     0.031 C 
ATOM     57  C   UNL A   1      42.858  31.943  29.469  1.00  0.00     0.029 A 
ATOM     58  C   UNL A   1      43.829  31.114  28.932  1.00  0.00     0.049 A 
ATOM     59  H   UNL A   1      43.670  29.100  28.320  1.00  0.00     0.167 HD
ATOM     60  C   UNL A   1      46.102  30.544  28.122  1.00  0.00     0.074 A 
ATOM     61  C   UNL A   1      47.479  30.873  27.821  1.00  0.00     0.031 C 
ATOM     62  C   UNL A   1      45.206  31.417  28.642  1.00  0.00     0.037 A 
BRANCH  49  63
ATOM     63  C   UNL A   1      39.537  29.095  29.374  1.00  0.00     0.057 A 
ATOM     64  C   UNL A   1      38.567  29.476  28.438  1.00  0.00     0.134 A 
ATOM     65  C   UNL A   1      39.116  28.886  30.693  1.00  0.00     0.134 A 
ATOM     66  F   UNL A   1      38.907  29.703  27.161  1.00  0.00    -0.206 F 
ATOM     67  C   UNL A   1      37.232  29.657  28.804  1.00  0.00     0.040 A 
ATOM     68  C   UNL A   1      37.779  29.040  31.066  1.00  0.00     0.040 A 
ATOM     69  F   UNL A   1      39.993  28.514  31.638  1.00  0.00    -0.206 F 
ATOM     70  C   UNL A   1      36.834  29.429  30.120  1.00  0.00     0.006 A 
ENDBRANCH  49  63
BRANCH  50  71
ATOM     71  C   UNL A   1      48.855  27.185  26.331  1.00  0.00     0.057 A 
ATOM     72  C   UNL A   1      49.183  27.317  24.976  1.00  0.00     0.134 A 
ATOM     73  C   UNL A   1      49.870  26.772  27.202  1.00  0.00     0.134 A 
ATOM     74  F   UNL A   1      48.249  27.692  24.090  1.00  0.00    -0.206 F 
ATOM     75  C   UNL A   1      50.461  27.022  24.500  1.00  0.00     0.040 A 
ATOM     76  C   UNL A   1      51.159  26.498  26.745  1.00  0.00     0.040 A 
ATOM     77  F   UNL A   1      49.622  26.633  28.513  1.00  0.00    -0.206 F 
ATOM     78  C   UNL A   1      51.455  26.613  25.387  1.00  0.00     0.006 A 
ENDBRANCH  50  71
BRANCH  62  79
ATOM     79  C   UNL A   1      45.701  32.797  28.962  1.00  0.00     0.057 A 
ATOM     80  C   UNL A   1      46.320  33.096  30.181  1.00  0.00     0.134 A 
ATOM     81  C   UNL A   1      45.589  33.828  28.020  1.00  0.00     0.134 A 
ATOM     82  F   UNL A   1      46.445  32.154  31.130  1.00  0.00    -0.206 F 
ATOM     83  C   UNL A   1      46.791  34.379  30.462  1.00  0.00     0.040 A 
ATOM     84  C   UNL A   1      46.080  35.108  28.280  1.00  0.00     0.040 A 
ATOM     85  F   UNL A   1      45.014  33.604  26.829  1.00  0.00    -0.206 F 
ATOM     86  C   UNL A   1      46.677  35.387  29.507  1.00  0.00     0.006 A 
ENDBRANCH  62  79
ENDBRANCH  36  37
ENDBRANCH  28  31
ENDBRANCH  26  27
ENDBRANCH  25  26
ENDBRANCH  24  25
ENDBRANCH  23  24
ENDBRANCH  22  23
ENDBRANCH  21  22
ENDBRANCH   3  21
TORSDOF 21
ENDMDL
MODEL 3
REMARK VINA RESULT:      -9.2      1.300      2.186
REMARK SMILES CC(=O)Oc1ccccc1SCCCCCC(=O)NCCCCCCNC(=O)c1ccc(-c2c3nc(c(-c4c(F)cccc4F)c4ccc([nH]4)c(-c4c(F)cccc4F)c4nc(c(-c5c(F)cccc5F)c5ccc2[nH]5)C=C4)C=C3)cc1
REMARK SMILES IDX 17 1 18 2 19 3 16 5 15 6 14 7 13 8 12 9 11 10 10 11 5 12
REMARK SMILES IDX 6 13 7 14 9 15 8 16 4 17 2 18 1 19 3 20 20 21 21 22 22 23
REMARK SMILES IDX 23 24 24 25 25 26 26 27 27 28 28 30 29 31 30 32 82 33 31 34
REMARK SMILES IDX 81 35 32 36 33 37 34 38 75 39 35 40 80 41 74 42 76 43 36 44
REMARK SMILES IDX 79 45 73 46 72 47 37 49 63 50 46 51 62 52 47 53 50 54 61 55
REMARK SMILES IDX 77 56 48 57 49 58 60 60 78 61 51 62 38 63 39 64 44 65 40 66
REMARK SMILES IDX 41 67 43 68 45 69 42 70 64 71 65 72 70 73 66 74 67 75 69 76
REMARK SMILES IDX 71 77 68 78 52 79 53 80 58 81 54 82 55 83 57 84 59 85 56 86
REMARK H PARENT 19 4 26 29 76 48 50 59
REMARK Flexibility Score: inf
ROOT
ATOM      1  C   UNL A   1      32.401  22.751  23.131  1.00  0.00     0.219 C 
ATOM      2  O   UNL A   1      31.170  22.697  23.148  1.00  0.00    -0.275 OA
ATOM      3  N   UNL A   1      33.104  21.994  24.014  1.00  0.00    -0.356 N 
ATOM      4  H   UNL A   1      32.581  21.346  24.539  1.00  0.00     0.163 HD
ENDROOT
BRANCH   1   5
ATOM      5  C   UNL A   1      33.140  23.626  22.139  1.00  0.00     0.100 C 
BRANCH   5   6
ATOM      6  C   UNL A   1      32.670  25.082  22.124  1.00  0.00     0.010 C 
BRANCH   6   7
ATOM      7  C   UNL A   1      33.597  26.218  22.617  1.00  0.00     0.001 C 
BRANCH   7   8
ATOM      8  C   UNL A   1      33.907  26.370  24.118  1.00  0.00     0.011 C 
BRANCH   8   9
ATOM      9  C   UNL A   1      33.201  25.528  25.212  1.00  0.00     0.075 C 
BRANCH   9  10
ATOM     10  S   UNL A   1      31.507  25.766  25.886  1.00  0.00    -0.122 SA
BRANCH  10  11
ATOM     11  C   UNL A   1      30.975  27.225  25.040  1.00  0.00     0.050 A 
ATOM     12  C   UNL A   1      31.335  28.515  25.449  1.00  0.00     0.144 A 
ATOM     13  C   UNL A   1      30.967  29.632  24.684  1.00  0.00     0.048 A 
ATOM     14  C   UNL A   1      30.229  29.468  23.511  1.00  0.00     0.004 A 
ATOM     15  C   UNL A   1      30.171  27.083  23.894  1.00  0.00     0.019 A 
ATOM     16  C   UNL A   1      29.810  28.196  23.128  1.00  0.00     0.001 A 
BRANCH  12  17
ATOM     17  O   UNL A   1      32.033  28.832  26.652  1.00  0.00    -0.426 OA
BRANCH  17  18
ATOM     18  C   UNL A   1      33.323  29.360  26.743  1.00  0.00     0.308 C 
ATOM     19  C   UNL A   1      33.291  30.744  27.296  1.00  0.00     0.139 C 
ATOM     20  O   UNL A   1      34.369  28.858  26.352  1.00  0.00    -0.252 OA
ENDBRANCH  17  18
ENDBRANCH  12  17
ENDBRANCH  10  11
ENDBRANCH   9  10
ENDBRANCH   8   9
ENDBRANCH   7   8
ENDBRANCH   6   7
ENDBRANCH   5   6
ENDBRANCH   1   5
BRANCH   3  21
ATOM     21  C   UNL A   1      34.523  22.024  24.279  1.00  0.00     0.116 C 
BRANCH  21  22
ATOM     22  C   UNL A   1      34.870  21.021  25.376  1.00  0.00     0.021 C 
BRANCH  22  23
ATOM     23  C   UNL A   1      35.875  19.963  24.944  1.00  0.00     0.002 C 
BRANCH  23  24
ATOM     24  C   UNL A   1      37.280  20.513  24.684  1.00  0.00     0.002 C 
BRANCH  24  25
ATOM     25  C   UNL A   1      38.431  19.524  24.909  1.00  0.00     0.021 C 
BRANCH  25  26
ATOM     26  C   UNL A   1      39.381  19.890  26.048  1.00  0.00     0.116 C 
BRANCH  26  27
ATOM     27  N   UNL A   1      40.618  19.129  25.978  1.00  0.00    -0.352 N 
ATOM     28  C   UNL A   1      41.916  19.560  26.008  1.00  0.00     0.251 C 
ATOM     29  H   UNL A   1      40.503  18.155  25.896  1.00  0.00     0.163 HD
ATOM     30  O   UNL A   1      42.821  18.814  25.645  1.00  0.00    -0.269 OA
BRANCH  28  31
ATOM     31  C   UNL A   1      42.230  20.921  26.481  1.00  0.00     0.039 A 
ATOM     32  C   UNL A   1      42.521  21.912  25.540  1.00  0.00     0.014 A 
ATOM     33  C   UNL A   1      42.292  21.204  27.848  1.00  0.00     0.014 A 
ATOM     34  C   UNL A   1      42.836  23.201  25.971  1.00  0.00     0.010 A 
ATOM     35  C   UNL A   1      42.542  22.505  28.275  1.00  0.00     0.010 A 
ATOM     36  C   UNL A   1      42.828  23.512  27.341  1.00  0.00    -0.014 A 
BRANCH  36  37
ATOM     37  C   UNL A   1      43.131  24.883  27.816  1.00  0.00     0.031 A 
ATOM     38  C   UNL A   1      44.556  25.301  28.054  1.00  0.00     0.074 A 
ATOM     39  C   UNL A   1      42.119  25.729  28.089  1.00  0.00     0.049 A 
ATOM     40  N   UNL A   1      45.017  26.427  28.533  1.00  0.00    -0.248 NA
ATOM     41  C   UNL A   1      45.599  24.312  27.735  1.00  0.00     0.031 C 
ATOM     42  C   UNL A   1      40.695  25.424  27.938  1.00  0.00     0.029 A 
ATOM     43  N   UNL A   1      42.134  27.016  28.563  1.00  0.00    -0.354 N 
ATOM     44  C   UNL A   1      46.397  26.276  28.592  1.00  0.00     0.074 A 
ATOM     45  C   UNL A   1      46.697  24.936  28.138  1.00  0.00     0.031 C 
ATOM     46  C   UNL A   1      39.974  26.500  28.294  1.00  0.00     0.029 A 
ATOM     47  C   UNL A   1      40.881  27.556  28.731  1.00  0.00     0.049 A 
ATOM     48  H   UNL A   1      42.963  27.507  28.762  1.00  0.00     0.167 HD
ATOM     49  C   UNL A   1      47.330  27.181  28.971  1.00  0.00     0.037 A 
ATOM     50  C   UNL A   1      40.509  28.763  29.196  1.00  0.00     0.037 A 
ATOM     51  C   UNL A   1      47.029  28.527  29.384  1.00  0.00     0.049 A 
ATOM     52  C   UNL A   1      41.569  29.748  29.607  1.00  0.00     0.074 A 
ATOM     53  C   UNL A   1      47.908  29.543  29.716  1.00  0.00     0.029 A 
ATOM     54  N   UNL A   1      45.750  29.043  29.521  1.00  0.00    -0.354 N 
ATOM     55  N   UNL A   1      42.873  29.617  29.586  1.00  0.00    -0.248 NA
ATOM     56  C   UNL A   1      41.103  31.052  30.101  1.00  0.00     0.031 C 
ATOM     57  C   UNL A   1      47.160  30.662  30.093  1.00  0.00     0.029 A 
ATOM     58  C   UNL A   1      45.816  30.357  29.953  1.00  0.00     0.049 A 
ATOM     59  H   UNL A   1      44.918  28.549  29.337  1.00  0.00     0.167 HD
ATOM     60  C   UNL A   1      43.383  30.830  30.031  1.00  0.00     0.074 A 
ATOM     61  C   UNL A   1      42.248  31.687  30.302  1.00  0.00     0.031 C 
ATOM     62  C   UNL A   1      44.675  31.200  30.201  1.00  0.00     0.037 A 
BRANCH  49  63
ATOM     63  C   UNL A   1      48.768  26.754  28.952  1.00  0.00     0.057 A 
ATOM     64  C   UNL A   1      49.576  26.936  27.822  1.00  0.00     0.134 A 
ATOM     65  C   UNL A   1      49.367  26.214  30.096  1.00  0.00     0.134 A 
ATOM     66  F   UNL A   1      49.061  27.437  26.691  1.00  0.00    -0.206 F 
ATOM     67  C   UNL A   1      50.927  26.579  27.827  1.00  0.00     0.040 A 
ATOM     68  C   UNL A   1      50.721  25.876  30.121  1.00  0.00     0.040 A 
ATOM     69  F   UNL A   1      48.650  26.020  31.214  1.00  0.00    -0.206 F 
ATOM     70  C   UNL A   1      51.504  26.056  28.983  1.00  0.00     0.006 A 
ENDBRANCH  49  63
BRANCH  50  71
ATOM     71  C   UNL A   1      39.071  29.121  29.284  1.00  0.00     0.057 A 
ATOM     72  C   UNL A   1      38.368  28.988  30.488  1.00  0.00     0.134 A 
ATOM     73  C   UNL A   1      38.358  29.573  28.168  1.00  0.00     0.134 A 
ATOM     74  F   UNL A   1      38.993  28.543  31.588  1.00  0.00    -0.206 F 
ATOM     75  C   UNL A   1      37.003  29.263  30.572  1.00  0.00     0.040 A 
ATOM     76  C   UNL A   1      36.998  29.876  28.243  1.00  0.00     0.040 A 
ATOM     77  F   UNL A   1      38.975  29.729  26.987  1.00  0.00    -0.206 F 
ATOM     78  C   UNL A   1      36.314  29.711  29.447  1.00  0.00     0.006 A 
ENDBRANCH  50  71
BRANCH  62  79
ATOM     79  C   UNL A   1      44.931  32.605  30.659  1.00  0.00     0.057 A 
ATOM     80  C   UNL A   1      45.047  33.668  29.755  1.00  0.00     0.134 A 
ATOM     81  C   UNL A   1      45.024  32.902  32.026  1.00  0.00     0.134 A 
ATOM     82  F   UNL A   1      44.981  33.447  28.433  1.00  0.00    -0.206 F 
ATOM     83  C   UNL A   1      45.269  34.974  30.193  1.00  0.00     0.040 A 
ATOM     84  C   UNL A   1      45.219  34.208  32.475  1.00  0.00     0.040 A 
ATOM     85  F   UNL A   1      44.912  31.929  32.943  1.00  0.00    -0.206 F 
ATOM     86  C   UNL A   1      45.348  35.247  31.557  1.00  0.00     0.006 A 
ENDBRANCH  62  79
ENDBRANCH  36  37
ENDBRANCH  28  31
ENDBRANCH  26  27
ENDBRANCH  25  26
ENDBRANCH  24  25
ENDBRANCH  23  24
ENDBRANCH  22  23
ENDBRANCH  21  22
ENDBRANCH   3  21
TORSDOF 21
ENDMDL
