MODEL 1
REMARK VINA RESULT:     -12.9      0.000      0.000
REMARK SMILES O=C(COc1cccc(NC(=O)c2ccc3c(c2)C(=O)N(c2ccccc2-c2ccccc2)C3=O)c1)NCCCCCCNC(=O)c1ccc(-c2c3nc(c(-c4c(F)cccc4F)c4ccc([nH]4)c(-c4c(F)cccc4F)c4nc(c(-c5c(F)cccc5F)c5ccc2[nH]5)C=C4)C=C3)cc1
REMARK SMILES IDX 38 1 37 2 1 3 2 4 3 6 4 7 5 8 6 9 36 10 7 11 9 12 8 13 10 14
REMARK SMILES IDX 11 15 12 17 13 18 14 19 18 20 15 21 17 22 16 23 19 24 34 25
REMARK SMILES IDX 20 26 21 27 35 28 22 29 23 30 27 31 24 32 26 33 25 34 28 35
REMARK SMILES IDX 29 36 33 37 30 38 32 39 31 40 39 41 40 42 41 43 42 44 43 45
REMARK SMILES IDX 44 46 45 47 46 49 47 50 48 51 100 52 49 53 99 54 50 55 51 56
REMARK SMILES IDX 52 57 93 58 53 59 98 60 92 61 94 62 54 63 97 64 91 65 90 66
REMARK SMILES IDX 55 68 81 69 64 70 80 71 65 72 68 73 79 74 95 75 66 76 67 77
REMARK SMILES IDX 78 79 96 80 69 81 56 82 57 83 62 84 58 85 59 86 61 87 63 88
REMARK SMILES IDX 60 89 82 90 83 91 88 92 84 93 85 94 87 95 89 96 86 97 70 98
REMARK SMILES IDX 71 99 76 100 72 101 73 102 75 103 77 104 74 105
REMARK H PARENT 37 5 10 16 44 48 94 67 68 78
REMARK Flexibility Score: inf
ROOT
ATOM      1  C   UNL A   1      42.914  22.589  27.878  1.00  0.00     0.116 C 
ENDROOT
BRANCH   1   2
ATOM      2  N   UNL A   1      41.719  22.759  27.083  1.00  0.00    -0.353 N 
ATOM      3  O   UNL A   1      40.550  20.991  27.974  1.00  0.00    -0.271 OA
ATOM      4  C   UNL A   1      40.590  21.988  27.260  1.00  0.00     0.257 C 
ATOM      5  H   UNL A   1      41.711  23.455  26.387  1.00  0.00     0.163 HD
BRANCH   4   6
ATOM      6  C   UNL A   1      39.364  22.500  26.503  1.00  0.00     0.329 C 
BRANCH   6   7
ATOM      7  O   UNL A   1      38.762  21.559  25.616  1.00  0.00    -0.484 OA
BRANCH   7   8
ATOM      8  C   UNL A   1      37.487  21.862  25.216  1.00  0.00     0.122 A 
ATOM      9  C   UNL A   1      37.167  23.215  25.193  1.00  0.00     0.046 A 
ATOM     10  C   UNL A   1      36.486  20.904  25.001  1.00  0.00     0.072 A 
ATOM     11  C   UNL A   1      35.854  23.605  24.960  1.00  0.00     0.006 A 
ATOM     12  C   UNL A   1      35.153  21.278  24.788  1.00  0.00     0.045 A 
ATOM     13  C   UNL A   1      34.855  22.641  24.781  1.00  0.00     0.026 A 
BRANCH  12  14
ATOM     14  N   UNL A   1      34.197  20.233  24.705  1.00  0.00    -0.322 N 
ATOM     15  C   UNL A   1      32.917  20.090  25.211  1.00  0.00     0.255 C 
ATOM     16  H   UNL A   1      34.505  19.455  24.186  1.00  0.00     0.170 HD
ATOM     17  O   UNL A   1      32.356  19.001  25.249  1.00  0.00    -0.269 OA
BRANCH  15  18
ATOM     18  C   UNL A   1      32.162  21.294  25.586  1.00  0.00     0.041 A 
ATOM     19  C   UNL A   1      32.198  21.775  26.915  1.00  0.00     0.015 A 
ATOM     20  C   UNL A   1      31.649  22.055  24.537  1.00  0.00     0.028 A 
ATOM     21  C   UNL A   1      31.895  23.121  27.173  1.00  0.00     0.015 A 
ATOM     22  C   UNL A   1      31.384  23.370  24.831  1.00  0.00     0.054 A 
ATOM     23  C   UNL A   1      31.559  23.910  26.082  1.00  0.00     0.053 A 
ATOM     24  C   UNL A   1      31.244  24.456  23.888  1.00  0.00     0.266 C 
ATOM     25  C   UNL A   1      31.575  25.365  25.903  1.00  0.00     0.266 C 
ATOM     26  O   UNL A   1      30.851  24.220  22.760  1.00  0.00    -0.268 OA
ATOM     27  N   UNL A   1      31.643  25.602  24.543  1.00  0.00    -0.242 N 
ATOM     28  O   UNL A   1      31.459  26.091  26.871  1.00  0.00    -0.268 OA
BRANCH  27  29
ATOM     29  C   UNL A   1      32.102  26.782  23.851  1.00  0.00     0.060 A 
ATOM     30  C   UNL A   1      33.496  27.046  23.831  1.00  0.00     0.027 A 
ATOM     31  C   UNL A   1      31.267  27.792  23.300  1.00  0.00     0.006 A 
ATOM     32  C   UNL A   1      34.055  28.214  23.306  1.00  0.00     0.002 A 
ATOM     33  C   UNL A   1      31.862  28.957  22.741  1.00  0.00     0.011 A 
ATOM     34  C   UNL A   1      33.235  29.171  22.748  1.00  0.00     0.001 A 
BRANCH  31  35
ATOM     35  C   UNL A   1      29.798  27.826  23.342  1.00  0.00    -0.016 A 
ATOM     36  C   UNL A   1      29.097  28.975  22.940  1.00  0.00     0.009 A 
ATOM     37  C   UNL A   1      29.068  26.747  23.871  1.00  0.00     0.009 A 
ATOM     38  C   UNL A   1      27.702  29.020  23.007  1.00  0.00     0.001 A 
ATOM     39  C   UNL A   1      27.674  26.794  23.943  1.00  0.00     0.001 A 
ATOM     40  C   UNL A   1      26.992  27.928  23.501  1.00  0.00     0.000 A 
ENDBRANCH  31  35
ENDBRANCH  27  29
ENDBRANCH  15  18
ENDBRANCH  12  14
ENDBRANCH   7   8
ENDBRANCH   6   7
ENDBRANCH   4   6
ENDBRANCH   1   2
BRANCH   1  41
ATOM     41  C   UNL A   1      44.063  23.462  27.393  1.00  0.00     0.021 C 
BRANCH  41  42
ATOM     42  C   UNL A   1      44.782  22.933  26.147  1.00  0.00     0.002 C 
BRANCH  42  43
ATOM     43  C   UNL A   1      45.172  23.987  25.105  1.00  0.00     0.002 C 
BRANCH  43  44
ATOM     44  C   UNL A   1      45.625  25.337  25.666  1.00  0.00     0.021 C 
BRANCH  44  45
ATOM     45  C   UNL A   1      44.644  26.488  25.469  1.00  0.00     0.116 C 
BRANCH  45  46
ATOM     46  N   UNL A   1      43.357  26.050  24.957  1.00  0.00    -0.352 N 
ATOM     47  C   UNL A   1      42.109  26.155  25.522  1.00  0.00     0.251 C 
ATOM     48  H   UNL A   1      43.383  25.612  24.074  1.00  0.00     0.163 HD
ATOM     49  O   UNL A   1      41.148  25.597  25.001  1.00  0.00    -0.269 OA
BRANCH  47  50
ATOM     50  C   UNL A   1      41.924  26.917  26.778  1.00  0.00     0.039 A 
ATOM     51  C   UNL A   1      42.259  28.274  26.796  1.00  0.00     0.014 A 
ATOM     52  C   UNL A   1      41.432  26.301  27.932  1.00  0.00     0.014 A 
ATOM     53  C   UNL A   1      42.038  29.028  27.951  1.00  0.00     0.010 A 
ATOM     54  C   UNL A   1      41.150  27.068  29.060  1.00  0.00     0.010 A 
ATOM     55  C   UNL A   1      41.448  28.439  29.081  1.00  0.00    -0.014 A 
BRANCH  55  56
ATOM     56  C   UNL A   1      41.128  29.244  30.289  1.00  0.00     0.031 A 
ATOM     57  C   UNL A   1      39.946  30.172  30.291  1.00  0.00     0.074 A 
ATOM     58  C   UNL A   1      41.941  29.188  31.361  1.00  0.00     0.049 A 
ATOM     59  N   UNL A   1      39.550  31.006  31.220  1.00  0.00    -0.248 NA
ATOM     60  C   UNL A   1      39.110  30.181  29.081  1.00  0.00     0.031 C 
ATOM     61  C   UNL A   1      43.145  28.363  31.469  1.00  0.00     0.029 A 
ATOM     62  N   UNL A   1      41.885  29.852  32.563  1.00  0.00    -0.354 N 
ATOM     63  C   UNL A   1      38.433  31.649  30.701  1.00  0.00     0.074 A 
ATOM     64  C   UNL A   1      38.242  31.143  29.358  1.00  0.00     0.031 C 
ATOM     65  C   UNL A   1      43.703  28.554  32.676  1.00  0.00     0.029 A 
ATOM     66  C   UNL A   1      42.918  29.540  33.412  1.00  0.00     0.049 A 
ATOM     67  H   UNL A   1      41.172  30.489  32.792  1.00  0.00     0.167 HD
ATOM     68  C   UNL A   1      37.628  32.561  31.296  1.00  0.00     0.037 A 
ATOM     69  C   UNL A   1      43.206  30.003  34.643  1.00  0.00     0.037 A 
ATOM     70  C   UNL A   1      37.806  33.047  32.640  1.00  0.00     0.049 A 
ATOM     71  C   UNL A   1      42.301  31.020  35.279  1.00  0.00     0.074 A 
ATOM     72  C   UNL A   1      37.009  33.927  33.350  1.00  0.00     0.029 A 
ATOM     73  N   UNL A   1      38.855  32.694  33.475  1.00  0.00    -0.354 N 
ATOM     74  N   UNL A   1      41.211  31.571  34.801  1.00  0.00    -0.248 NA
ATOM     75  C   UNL A   1      42.661  31.476  36.629  1.00  0.00     0.031 C 
ATOM     76  C   UNL A   1      37.598  34.138  34.602  1.00  0.00     0.029 A 
ATOM     77  C   UNL A   1      38.736  33.354  34.687  1.00  0.00     0.049 A 
ATOM     78  H   UNL A   1      39.577  32.067  33.240  1.00  0.00     0.167 HD
ATOM     79  C   UNL A   1      40.743  32.415  35.799  1.00  0.00     0.074 A 
ATOM     80  C   UNL A   1      41.659  32.295  36.914  1.00  0.00     0.031 C 
ATOM     81  C   UNL A   1      39.651  33.218  35.792  1.00  0.00     0.037 A 
BRANCH  68  82
ATOM     82  C   UNL A   1      36.476  33.093  30.494  1.00  0.00     0.057 A 
ATOM     83  C   UNL A   1      36.656  34.062  29.499  1.00  0.00     0.134 A 
ATOM     84  C   UNL A   1      35.178  32.607  30.694  1.00  0.00     0.134 A 
ATOM     85  F   UNL A   1      37.872  34.578  29.264  1.00  0.00    -0.206 F 
ATOM     86  C   UNL A   1      35.583  34.550  28.750  1.00  0.00     0.040 A 
ATOM     87  C   UNL A   1      34.102  33.066  29.933  1.00  0.00     0.040 A 
ATOM     88  F   UNL A   1      34.936  31.672  31.626  1.00  0.00    -0.206 F 
ATOM     89  C   UNL A   1      34.302  34.045  28.962  1.00  0.00     0.006 A 
ENDBRANCH  68  82
BRANCH  69  90
ATOM     90  C   UNL A   1      44.398  29.492  35.368  1.00  0.00     0.057 A 
ATOM     91  C   UNL A   1      45.652  30.089  35.201  1.00  0.00     0.134 A 
ATOM     92  C   UNL A   1      44.314  28.397  36.235  1.00  0.00     0.134 A 
ATOM     93  F   UNL A   1      45.799  31.129  34.367  1.00  0.00    -0.206 F 
ATOM     94  C   UNL A   1      46.786  29.605  35.857  1.00  0.00     0.040 A 
ATOM     95  C   UNL A   1      45.433  27.917  36.916  1.00  0.00     0.040 A 
ATOM     96  F   UNL A   1      43.137  27.786  36.442  1.00  0.00    -0.206 F 
ATOM     97  C   UNL A   1      46.676  28.518  36.722  1.00  0.00     0.006 A 
ENDBRANCH  69  90
BRANCH  81  98
ATOM     98  C   UNL A   1      39.367  34.002  37.039  1.00  0.00     0.057 A 
ATOM     99  C   UNL A   1      38.639  33.459  38.104  1.00  0.00     0.134 A 
ATOM    100  C   UNL A   1      39.861  35.304  37.189  1.00  0.00     0.134 A 
ATOM    101  F   UNL A   1      38.127  32.223  38.018  1.00  0.00    -0.206 F 
ATOM    102  C   UNL A   1      38.394  34.192  39.267  1.00  0.00     0.040 A 
ATOM    103  C   UNL A   1      39.645  36.037  38.357  1.00  0.00     0.040 A 
ATOM    104  F   UNL A   1      40.572  35.880  36.208  1.00  0.00    -0.206 F 
ATOM    105  C   UNL A   1      38.904  35.482  39.398  1.00  0.00     0.006 A 
ENDBRANCH  81  98
ENDBRANCH  55  56
ENDBRANCH  47  50
ENDBRANCH  45  46
ENDBRANCH  44  45
ENDBRANCH  43  44
ENDBRANCH  42  43
ENDBRANCH  41  42
ENDBRANCH   1  41
TORSDOF 19
ENDMDL
MODEL 2
REMARK VINA RESULT:     -12.0      4.717     10.408
REMARK SMILES O=C(COc1cccc(NC(=O)c2ccc3c(c2)C(=O)N(c2ccccc2-c2ccccc2)C3=O)c1)NCCCCCCNC(=O)c1ccc(-c2c3nc(c(-c4c(F)cccc4F)c4ccc([nH]4)c(-c4c(F)cccc4F)c4nc(c(-c5c(F)cccc5F)c5ccc2[nH]5)C=C4)C=C3)cc1
REMARK SMILES IDX 38 1 37 2 1 3 2 4 3 6 4 7 5 8 6 9 36 10 7 11 9 12 8 13 10 14
REMARK SMILES IDX 11 15 12 17 13 18 14 19 18 20 15 21 17 22 16 23 19 24 34 25
REMARK SMILES IDX 20 26 21 27 35 28 22 29 23 30 27 31 24 32 26 33 25 34 28 35
REMARK SMILES IDX 29 36 33 37 30 38 32 39 31 40 39 41 40 42 41 43 42 44 43 45
REMARK SMILES IDX 44 46 45 47 46 49 47 50 48 51 100 52 49 53 99 54 50 55 51 56
REMARK SMILES IDX 52 57 93 58 53 59 98 60 92 61 94 62 54 63 97 64 91 65 90 66
REMARK SMILES IDX 55 68 81 69 64 70 80 71 65 72 68 73 79 74 95 75 66 76 67 77
REMARK SMILES IDX 78 79 96 80 69 81 56 82 57 83 62 84 58 85 59 86 61 87 63 88
REMARK SMILES IDX 60 89 82 90 83 91 88 92 84 93 85 94 87 95 89 96 86 97 70 98
REMARK SMILES IDX 71 99 76 100 72 101 73 102 75 103 77 104 74 105
REMARK H PARENT 37 5 10 16 44 48 94 67 68 78
REMARK Flexibility Score: inf
ROOT
ATOM      1  C   UNL A   1      32.296  33.230  27.427  1.00  0.00     0.116 C 
ENDROOT
BRANCH   1   2
ATOM      2  N   UNL A   1      33.057  32.016  27.235  1.00  0.00    -0.353 N 
ATOM      3  O   UNL A   1      31.258  30.627  26.879  1.00  0.00    -0.271 OA
ATOM      4  C   UNL A   1      32.471  30.817  26.887  1.00  0.00     0.257 C 
ATOM      5  H   UNL A   1      34.033  32.047  27.355  1.00  0.00     0.163 HD
BRANCH   4   6
ATOM      6  C   UNL A   1      33.470  29.733  26.482  1.00  0.00     0.329 C 
BRANCH   6   7
ATOM      7  O   UNL A   1      33.921  29.798  25.131  1.00  0.00    -0.484 OA
BRANCH   7   8
ATOM      8  C   UNL A   1      33.350  28.888  24.278  1.00  0.00     0.122 A 
ATOM      9  C   UNL A   1      34.085  28.585  23.138  1.00  0.00     0.046 A 
ATOM     10  C   UNL A   1      32.043  28.401  24.417  1.00  0.00     0.072 A 
ATOM     11  C   UNL A   1      33.514  27.803  22.142  1.00  0.00     0.006 A 
ATOM     12  C   UNL A   1      31.443  27.630  23.412  1.00  0.00     0.045 A 
ATOM     13  C   UNL A   1      32.197  27.349  22.272  1.00  0.00     0.026 A 
BRANCH  12  14
ATOM     14  N   UNL A   1      30.077  27.291  23.592  1.00  0.00    -0.322 N 
ATOM     15  C   UNL A   1      29.446  26.287  24.304  1.00  0.00     0.255 C 
ATOM     16  H   UNL A   1      29.455  27.888  23.115  1.00  0.00     0.170 HD
ATOM     17  O   UNL A   1      28.267  26.007  24.118  1.00  0.00    -0.269 OA
BRANCH  15  18
ATOM     18  C   UNL A   1      30.168  25.633  25.404  1.00  0.00     0.041 A 
ATOM     19  C   UNL A   1      29.596  24.527  26.075  1.00  0.00     0.015 A 
ATOM     20  C   UNL A   1      31.508  25.981  25.559  1.00  0.00     0.028 A 
ATOM     21  C   UNL A   1      30.428  23.631  26.765  1.00  0.00     0.015 A 
ATOM     22  C   UNL A   1      32.286  25.066  26.226  1.00  0.00     0.054 A 
ATOM     23  C   UNL A   1      31.789  23.901  26.756  1.00  0.00     0.053 A 
ATOM     24  C   UNL A   1      33.727  24.961  26.181  1.00  0.00     0.266 C 
ATOM     25  C   UNL A   1      32.945  23.034  27.001  1.00  0.00     0.266 C 
ATOM     26  O   UNL A   1      34.391  25.958  25.964  1.00  0.00    -0.268 OA
ATOM     27  N   UNL A   1      34.032  23.633  26.393  1.00  0.00    -0.242 N 
ATOM     28  O   UNL A   1      32.821  22.048  27.701  1.00  0.00    -0.268 OA
BRANCH  27  29
ATOM     29  C   UNL A   1      35.274  23.035  25.964  1.00  0.00     0.060 A 
ATOM     30  C   UNL A   1      36.485  23.682  26.316  1.00  0.00     0.027 A 
ATOM     31  C   UNL A   1      35.392  21.919  25.091  1.00  0.00     0.006 A 
ATOM     32  C   UNL A   1      37.742  23.276  25.858  1.00  0.00     0.002 A 
ATOM     33  C   UNL A   1      36.685  21.504  24.666  1.00  0.00     0.011 A 
ATOM     34  C   UNL A   1      37.844  22.174  25.036  1.00  0.00     0.001 A 
BRANCH  31  35
ATOM     35  C   UNL A   1      34.285  21.183  24.462  1.00  0.00    -0.016 A 
ATOM     36  C   UNL A   1      33.384  21.838  23.607  1.00  0.00     0.009 A 
ATOM     37  C   UNL A   1      34.051  19.833  24.776  1.00  0.00     0.009 A 
ATOM     38  C   UNL A   1      32.314  21.146  23.033  1.00  0.00     0.001 A 
ATOM     39  C   UNL A   1      32.979  19.143  24.205  1.00  0.00     0.001 A 
ATOM     40  C   UNL A   1      32.117  19.798  23.327  1.00  0.00     0.000 A 
ENDBRANCH  31  35
ENDBRANCH  27  29
ENDBRANCH  15  18
ENDBRANCH  12  14
ENDBRANCH   7   8
ENDBRANCH   6   7
ENDBRANCH   4   6
ENDBRANCH   1   2
BRANCH   1  41
ATOM     41  C   UNL A   1      32.972  34.190  28.397  1.00  0.00     0.021 C 
BRANCH  41  42
ATOM     42  C   UNL A   1      34.391  34.606  27.994  1.00  0.00     0.002 C 
BRANCH  42  43
ATOM     43  C   UNL A   1      35.508  34.179  28.953  1.00  0.00     0.002 C 
BRANCH  43  44
ATOM     44  C   UNL A   1      36.500  33.153  28.400  1.00  0.00     0.021 C 
BRANCH  44  45
ATOM     45  C   UNL A   1      36.010  31.709  28.394  1.00  0.00     0.116 C 
BRANCH  45  46
ATOM     46  N   UNL A   1      35.712  31.210  29.726  1.00  0.00    -0.352 N 
ATOM     47  C   UNL A   1      36.397  30.296  30.490  1.00  0.00     0.251 C 
ATOM     48  H   UNL A   1      34.900  31.580  30.143  1.00  0.00     0.163 HD
ATOM     49  O   UNL A   1      35.915  29.888  31.542  1.00  0.00    -0.269 OA
BRANCH  47  50
ATOM     50  C   UNL A   1      37.706  29.777  30.032  1.00  0.00     0.039 A 
ATOM     51  C   UNL A   1      37.988  29.780  28.663  1.00  0.00     0.014 A 
ATOM     52  C   UNL A   1      38.646  29.283  30.940  1.00  0.00     0.014 A 
ATOM     53  C   UNL A   1      39.239  29.350  28.211  1.00  0.00     0.010 A 
ATOM     54  C   UNL A   1      39.916  28.919  30.495  1.00  0.00     0.010 A 
ATOM     55  C   UNL A   1      40.225  28.950  29.126  1.00  0.00    -0.014 A 
BRANCH  55  56
ATOM     56  C   UNL A   1      41.588  28.570  28.672  1.00  0.00     0.031 A 
ATOM     57  C   UNL A   1      41.881  27.158  28.248  1.00  0.00     0.074 A 
ATOM     58  C   UNL A   1      42.579  29.481  28.705  1.00  0.00     0.049 A 
ATOM     59  N   UNL A   1      43.020  26.620  27.892  1.00  0.00    -0.248 NA
ATOM     60  C   UNL A   1      40.748  26.220  28.246  1.00  0.00     0.031 C 
ATOM     61  C   UNL A   1      42.437  30.872  29.138  1.00  0.00     0.029 A 
ATOM     62  N   UNL A   1      43.909  29.370  28.379  1.00  0.00    -0.354 N 
ATOM     63  C   UNL A   1      42.745  25.282  27.640  1.00  0.00     0.074 A 
ATOM     64  C   UNL A   1      41.341  25.078  27.930  1.00  0.00     0.031 C 
ATOM     65  C   UNL A   1      43.626  31.489  29.034  1.00  0.00     0.029 A 
ATOM     66  C   UNL A   1      44.620  30.530  28.562  1.00  0.00     0.049 A 
ATOM     67  H   UNL A   1      44.313  28.536  28.047  1.00  0.00     0.167 HD
ATOM     68  C   UNL A   1      43.580  24.316  27.189  1.00  0.00     0.037 A 
ATOM     69  C   UNL A   1      45.928  30.792  28.378  1.00  0.00     0.037 A 
ATOM     70  C   UNL A   1      44.971  24.525  26.879  1.00  0.00     0.049 A 
ATOM     71  C   UNL A   1      46.836  29.701  27.882  1.00  0.00     0.074 A 
ATOM     72  C   UNL A   1      45.883  23.622  26.361  1.00  0.00     0.029 A 
ATOM     73  N   UNL A   1      45.650  25.720  27.061  1.00  0.00    -0.354 N 
ATOM     74  N   UNL A   1      46.547  28.456  27.587  1.00  0.00    -0.248 NA
ATOM     75  C   UNL A   1      48.249  30.052  27.688  1.00  0.00     0.031 C 
ATOM     76  C   UNL A   1      47.125  24.260  26.267  1.00  0.00     0.029 A 
ATOM     77  C   UNL A   1      46.975  25.573  26.683  1.00  0.00     0.049 A 
ATOM     78  H   UNL A   1      45.249  26.550  27.407  1.00  0.00     0.167 HD
ATOM     79  C   UNL A   1      47.734  27.886  27.148  1.00  0.00     0.074 A 
ATOM     80  C   UNL A   1      48.744  28.922  27.203  1.00  0.00     0.031 C 
ATOM     81  C   UNL A   1      47.967  26.616  26.736  1.00  0.00     0.037 A 
BRANCH  68  82
ATOM     82  C   UNL A   1      43.008  22.941  26.999  1.00  0.00     0.057 A 
ATOM     83  C   UNL A   1      42.707  22.112  28.088  1.00  0.00     0.134 A 
ATOM     84  C   UNL A   1      42.722  22.454  25.719  1.00  0.00     0.134 A 
ATOM     85  F   UNL A   1      42.968  22.514  29.341  1.00  0.00    -0.206 F 
ATOM     86  C   UNL A   1      42.169  20.836  27.908  1.00  0.00     0.040 A 
ATOM     87  C   UNL A   1      42.157  21.191  25.527  1.00  0.00     0.040 A 
ATOM     88  F   UNL A   1      42.977  23.199  24.632  1.00  0.00    -0.206 F 
ATOM     89  C   UNL A   1      41.885  20.376  26.624  1.00  0.00     0.006 A 
ENDBRANCH  68  82
BRANCH  69  90
ATOM     90  C   UNL A   1      46.457  32.154  28.644  1.00  0.00     0.057 A 
ATOM     91  C   UNL A   1      46.460  33.132  27.642  1.00  0.00     0.134 A 
ATOM     92  C   UNL A   1      46.976  32.507  29.894  1.00  0.00     0.134 A 
ATOM     93  F   UNL A   1      45.994  32.846  26.418  1.00  0.00    -0.206 F 
ATOM     94  C   UNL A   1      46.976  34.409  27.870  1.00  0.00     0.040 A 
ATOM     95  C   UNL A   1      47.473  33.787  30.143  1.00  0.00     0.040 A 
ATOM     96  F   UNL A   1      46.995  31.615  30.896  1.00  0.00    -0.206 F 
ATOM     97  C   UNL A   1      47.480  34.741  29.126  1.00  0.00     0.006 A 
ENDBRANCH  69  90
BRANCH  81  98
ATOM     98  C   UNL A   1      49.357  26.285  26.278  1.00  0.00     0.057 A 
ATOM     99  C   UNL A   1      49.818  26.634  25.004  1.00  0.00     0.134 A 
ATOM    100  C   UNL A   1      50.256  25.644  27.140  1.00  0.00     0.134 A 
ATOM    101  F   UNL A   1      49.003  27.237  24.126  1.00  0.00    -0.206 F 
ATOM    102  C   UNL A   1      51.120  26.336  24.594  1.00  0.00     0.040 A 
ATOM    103  C   UNL A   1      51.567  25.364  26.751  1.00  0.00     0.040 A 
ATOM    104  F   UNL A   1      49.878  25.290  28.378  1.00  0.00    -0.206 F 
ATOM    105  C   UNL A   1      52.000  25.706  25.472  1.00  0.00     0.006 A 
ENDBRANCH  81  98
ENDBRANCH  55  56
ENDBRANCH  47  50
ENDBRANCH  45  46
ENDBRANCH  44  45
ENDBRANCH  43  44
ENDBRANCH  42  43
ENDBRANCH  41  42
ENDBRANCH   1  41
TORSDOF 19
ENDMDL
MODEL 3
REMARK VINA RESULT:     -11.9     12.447     18.055
REMARK SMILES O=C(COc1cccc(NC(=O)c2ccc3c(c2)C(=O)N(c2ccccc2-c2ccccc2)C3=O)c1)NCCCCCCNC(=O)c1ccc(-c2c3nc(c(-c4c(F)cccc4F)c4ccc([nH]4)c(-c4c(F)cccc4F)c4nc(c(-c5c(F)cccc5F)c5ccc2[nH]5)C=C4)C=C3)cc1
REMARK SMILES IDX 38 1 37 2 1 3 2 4 3 6 4 7 5 8 6 9 36 10 7 11 9 12 8 13 10 14
REMARK SMILES IDX 11 15 12 17 13 18 14 19 18 20 15 21 17 22 16 23 19 24 34 25
REMARK SMILES IDX 20 26 21 27 35 28 22 29 23 30 27 31 24 32 26 33 25 34 28 35
REMARK SMILES IDX 29 36 33 37 30 38 32 39 31 40 39 41 40 42 41 43 42 44 43 45
REMARK SMILES IDX 44 46 45 47 46 49 47 50 48 51 100 52 49 53 99 54 50 55 51 56
REMARK SMILES IDX 52 57 93 58 53 59 98 60 92 61 94 62 54 63 97 64 91 65 90 66
REMARK SMILES IDX 55 68 81 69 64 70 80 71 65 72 68 73 79 74 95 75 66 76 67 77
REMARK SMILES IDX 78 79 96 80 69 81 56 82 57 83 62 84 58 85 59 86 61 87 63 88
REMARK SMILES IDX 60 89 82 90 83 91 88 92 84 93 85 94 87 95 89 96 86 97 70 98
REMARK SMILES IDX 71 99 76 100 72 101 73 102 75 103 77 104 74 105
REMARK H PARENT 37 5 10 16 44 48 94 67 68 78
REMARK Flexibility Score: inf
ROOT
ATOM      1  C   UNL A   1      41.608  43.052  21.414  1.00  0.00     0.116 C 
ENDROOT
BRANCH   1   2
ATOM      2  N   UNL A   1      42.604  43.221  20.382  1.00  0.00    -0.353 N 
ATOM      3  O   UNL A   1      41.136  43.541  18.641  1.00  0.00    -0.271 OA
ATOM      4  C   UNL A   1      42.282  43.541  19.080  1.00  0.00     0.257 C 
ATOM      5  H   UNL A   1      43.553  43.104  20.618  1.00  0.00     0.163 HD
BRANCH   4   6
ATOM      6  C   UNL A   1      43.485  43.926  18.219  1.00  0.00     0.329 C 
BRANCH   6   7
ATOM      7  O   UNL A   1      43.167  44.469  16.939  1.00  0.00    -0.484 OA
BRANCH   7   8
ATOM      8  C   UNL A   1      43.121  45.837  16.877  1.00  0.00     0.122 A 
ATOM      9  C   UNL A   1      41.855  46.393  16.724  1.00  0.00     0.046 A 
ATOM     10  C   UNL A   1      44.257  46.654  16.796  1.00  0.00     0.072 A 
ATOM     11  C   UNL A   1      41.729  47.756  16.488  1.00  0.00     0.006 A 
ATOM     12  C   UNL A   1      44.150  48.027  16.535  1.00  0.00     0.045 A 
ATOM     13  C   UNL A   1      42.870  48.559  16.374  1.00  0.00     0.026 A 
BRANCH  12  14
ATOM     14  N   UNL A   1      45.361  48.742  16.348  1.00  0.00    -0.322 N 
ATOM     15  C   UNL A   1      46.212  49.390  17.225  1.00  0.00     0.255 C 
ATOM     16  H   UNL A   1      45.653  48.787  15.409  1.00  0.00     0.170 HD
ATOM     17  O   UNL A   1      47.069  50.174  16.832  1.00  0.00    -0.269 OA
BRANCH  15  18
ATOM     18  C   UNL A   1      46.178  49.028  18.649  1.00  0.00     0.041 A 
ATOM     19  C   UNL A   1      45.008  49.244  19.412  1.00  0.00     0.015 A 
ATOM     20  C   UNL A   1      47.230  48.242  19.113  1.00  0.00     0.028 A 
ATOM     21  C   UNL A   1      44.799  48.500  20.584  1.00  0.00     0.015 A 
ATOM     22  C   UNL A   1      46.975  47.520  20.253  1.00  0.00     0.054 A 
ATOM     23  C   UNL A   1      45.785  47.588  20.934  1.00  0.00     0.053 A 
ATOM     24  C   UNL A   1      47.693  46.354  20.718  1.00  0.00     0.266 C 
ATOM     25  C   UNL A   1      45.743  46.412  21.808  1.00  0.00     0.266 C 
ATOM     26  O   UNL A   1      48.867  46.221  20.424  1.00  0.00    -0.268 OA
ATOM     27  N   UNL A   1      46.791  45.594  21.432  1.00  0.00    -0.242 N 
ATOM     28  O   UNL A   1      44.924  46.357  22.705  1.00  0.00    -0.268 OA
BRANCH  27  29
ATOM     29  C   UNL A   1      46.957  44.177  21.647  1.00  0.00     0.060 A 
ATOM     30  C   UNL A   1      46.387  43.286  20.703  1.00  0.00     0.027 A 
ATOM     31  C   UNL A   1      47.526  43.580  22.805  1.00  0.00     0.006 A 
ATOM     32  C   UNL A   1      46.368  41.897  20.861  1.00  0.00     0.002 A 
ATOM     33  C   UNL A   1      47.526  42.162  22.927  1.00  0.00     0.011 A 
ATOM     34  C   UNL A   1      46.950  41.331  21.975  1.00  0.00     0.001 A 
BRANCH  31  35
ATOM     35  C   UNL A   1      48.036  44.287  23.989  1.00  0.00    -0.016 A 
ATOM     36  C   UNL A   1      47.171  44.649  25.035  1.00  0.00     0.009 A 
ATOM     37  C   UNL A   1      49.379  44.698  24.058  1.00  0.00     0.009 A 
ATOM     38  C   UNL A   1      47.648  45.347  26.146  1.00  0.00     0.001 A 
ATOM     39  C   UNL A   1      49.854  45.400  25.168  1.00  0.00     0.001 A 
ATOM     40  C   UNL A   1      48.990  45.715  26.215  1.00  0.00     0.000 A 
ENDBRANCH  31  35
ENDBRANCH  27  29
ENDBRANCH  15  18
ENDBRANCH  12  14
ENDBRANCH   7   8
ENDBRANCH   6   7
ENDBRANCH   4   6
ENDBRANCH   1   2
BRANCH   1  41
ATOM     41  C   UNL A   1      42.185  42.442  22.684  1.00  0.00     0.021 C 
BRANCH  41  42
ATOM     42  C   UNL A   1      43.533  43.032  23.116  1.00  0.00     0.002 C 
BRANCH  42  43
ATOM     43  C   UNL A   1      43.809  43.027  24.623  1.00  0.00     0.002 C 
BRANCH  43  44
ATOM     44  C   UNL A   1      44.775  41.947  25.117  1.00  0.00     0.021 C 
BRANCH  44  45
ATOM     45  C   UNL A   1      44.215  41.007  26.180  1.00  0.00     0.116 C 
BRANCH  45  46
ATOM     46  N   UNL A   1      42.829  41.294  26.512  1.00  0.00    -0.352 N 
ATOM     47  C   UNL A   1      41.859  40.458  27.009  1.00  0.00     0.251 C 
ATOM     48  H   UNL A   1      42.543  42.224  26.357  1.00  0.00     0.163 HD
ATOM     49  O   UNL A   1      40.698  40.846  27.096  1.00  0.00    -0.269 OA
BRANCH  47  50
ATOM     50  C   UNL A   1      42.204  39.078  27.415  1.00  0.00     0.039 A 
ATOM     51  C   UNL A   1      42.720  38.863  28.696  1.00  0.00     0.014 A 
ATOM     52  C   UNL A   1      42.030  38.001  26.541  1.00  0.00     0.014 A 
ATOM     53  C   UNL A   1      42.998  37.562  29.124  1.00  0.00     0.010 A 
ATOM     54  C   UNL A   1      42.244  36.700  26.992  1.00  0.00     0.010 A 
ATOM     55  C   UNL A   1      42.728  36.467  28.288  1.00  0.00    -0.014 A 
BRANCH  55  56
ATOM     56  C   UNL A   1      42.938  35.072  28.755  1.00  0.00     0.031 A 
ATOM     57  C   UNL A   1      41.816  34.313  29.406  1.00  0.00     0.074 A 
ATOM     58  C   UNL A   1      44.158  34.512  28.653  1.00  0.00     0.049 A 
ATOM     59  N   UNL A   1      41.827  33.119  29.943  1.00  0.00    -0.248 NA
ATOM     60  C   UNL A   1      40.515  34.995  29.487  1.00  0.00     0.031 C 
ATOM     61  C   UNL A   1      45.342  35.158  28.083  1.00  0.00     0.029 A 
ATOM     62  N   UNL A   1      44.610  33.273  29.040  1.00  0.00    -0.354 N 
ATOM     63  C   UNL A   1      40.544  32.914  30.436  1.00  0.00     0.074 A 
ATOM     64  C   UNL A   1      39.795  34.125  30.179  1.00  0.00     0.031 C 
ATOM     65  C   UNL A   1      46.378  34.305  28.139  1.00  0.00     0.029 A 
ATOM     66  C   UNL A   1      45.943  33.069  28.781  1.00  0.00     0.049 A 
ATOM     67  H   UNL A   1      44.033  32.598  29.462  1.00  0.00     0.167 HD
ATOM     68  C   UNL A   1      40.032  31.810  31.031  1.00  0.00     0.037 A 
ATOM     69  C   UNL A   1      46.730  32.006  29.039  1.00  0.00     0.037 A 
ATOM     70  C   UNL A   1      40.772  30.597  31.266  1.00  0.00     0.049 A 
ATOM     71  C   UNL A   1      46.139  30.795  29.706  1.00  0.00     0.074 A 
ATOM     72  C   UNL A   1      40.323  29.406  31.809  1.00  0.00     0.029 A 
ATOM     73  N   UNL A   1      42.116  30.422  30.973  1.00  0.00    -0.354 N 
ATOM     74  N   UNL A   1      44.908  30.592  30.109  1.00  0.00    -0.248 NA
ATOM     75  C   UNL A   1      47.045  29.664  29.947  1.00  0.00     0.031 C 
ATOM     76  C   UNL A   1      41.406  28.523  31.881  1.00  0.00     0.029 A 
ATOM     77  C   UNL A   1      42.518  29.148  31.342  1.00  0.00     0.049 A 
ATOM     78  H   UNL A   1      42.698  31.103  30.564  1.00  0.00     0.167 HD
ATOM     79  C   UNL A   1      44.886  29.304  30.626  1.00  0.00     0.074 A 
ATOM     80  C   UNL A   1      46.222  28.768  30.474  1.00  0.00     0.031 C 
ATOM     81  C   UNL A   1      43.850  28.626  31.177  1.00  0.00     0.037 A 
BRANCH  68  82
ATOM     82  C   UNL A   1      38.597  31.864  31.467  1.00  0.00     0.057 A 
ATOM     83  C   UNL A   1      38.235  32.255  32.764  1.00  0.00     0.134 A 
ATOM     84  C   UNL A   1      37.564  31.555  30.575  1.00  0.00     0.134 A 
ATOM     85  F   UNL A   1      39.177  32.552  33.671  1.00  0.00    -0.206 F 
ATOM     86  C   UNL A   1      36.898  32.310  33.164  1.00  0.00     0.040 A 
ATOM     87  C   UNL A   1      36.223  31.633  30.954  1.00  0.00     0.040 A 
ATOM     88  F   UNL A   1      37.839  31.181  29.316  1.00  0.00    -0.206 F 
ATOM     89  C   UNL A   1      35.888  32.005  32.255  1.00  0.00     0.006 A 
ENDBRANCH  68  82
BRANCH  69  90
ATOM     90  C   UNL A   1      48.161  32.030  28.645  1.00  0.00     0.057 A 
ATOM     91  C   UNL A   1      48.568  31.576  27.385  1.00  0.00     0.134 A 
ATOM     92  C   UNL A   1      49.153  32.497  29.515  1.00  0.00     0.134 A 
ATOM     93  F   UNL A   1      47.666  31.098  26.516  1.00  0.00    -0.206 F 
ATOM     94  C   UNL A   1      49.913  31.570  27.010  1.00  0.00     0.040 A 
ATOM     95  C   UNL A   1      50.498  32.519  29.145  1.00  0.00     0.040 A 
ATOM     96  F   UNL A   1      48.825  32.950  30.734  1.00  0.00    -0.206 F 
ATOM     97  C   UNL A   1      50.882  32.048  27.890  1.00  0.00     0.006 A 
ENDBRANCH  69  90
BRANCH  81  98
ATOM     98  C   UNL A   1      44.111  27.218  31.625  1.00  0.00     0.057 A 
ATOM     99  C   UNL A   1      44.387  26.905  32.961  1.00  0.00     0.134 A 
ATOM    100  C   UNL A   1      44.048  26.157  30.711  1.00  0.00     0.134 A 
ATOM    101  F   UNL A   1      44.475  27.876  33.882  1.00  0.00    -0.206 F 
ATOM    102  C   UNL A   1      44.612  25.589  33.369  1.00  0.00     0.040 A 
ATOM    103  C   UNL A   1      44.246  24.835  31.112  1.00  0.00     0.040 A 
ATOM    104  F   UNL A   1      43.780  26.388  29.417  1.00  0.00    -0.206 F 
ATOM    105  C   UNL A   1      44.535  24.549  32.445  1.00  0.00     0.006 A 
ENDBRANCH  81  98
ENDBRANCH  55  56
ENDBRANCH  47  50
ENDBRANCH  45  46
ENDBRANCH  44  45
ENDBRANCH  43  44
ENDBRANCH  42  43
ENDBRANCH  41  42
ENDBRANCH   1  41
TORSDOF 19
ENDMDL
