MODEL 1
REMARK VINA RESULT:      -9.6      0.000      0.000
REMARK SMILES Cc1cc(C)cc(Oc2nc3ccccn3c(=O)c2/C=C2\SC(=S)N(CCC(=O)NCCCCCCNC(=O)c3ccc(-c4c5nc(c(-c6c(F)cccc6F)c6ccc([nH]6)c(-c6c(F)cccc6F)c6nc(c(-c7c(F)cccc7F)c7ccc4[nH]7)C=C6)C=C5)cc3)C2=O)c1
REMARK SMILES IDX 32 1 31 2 30 3 28 4 29 5 27 7 26 8 25 9 20 10 21 11 22 12
REMARK SMILES IDX 94 13 23 14 95 15 24 16 19 17 9 18 10 19 11 20 17 21 12 22
REMARK SMILES IDX 16 23 18 24 13 25 15 26 14 27 8 28 7 29 1 30 2 31 3 32 96 33
REMARK SMILES IDX 4 34 5 35 6 36 33 37 34 38 35 39 36 40 37 41 38 42 39 44
REMARK SMILES IDX 40 45 41 46 93 47 42 48 92 49 43 50 44 51 45 52 86 53 46 54
REMARK SMILES IDX 91 55 85 56 87 57 47 58 90 59 84 60 83 61 48 63 74 64 57 65
REMARK SMILES IDX 73 66 58 67 61 68 72 69 88 70 59 71 60 72 71 74 89 75 62 76
REMARK SMILES IDX 49 77 50 78 55 79 51 80 52 81 54 82 56 83 53 84 75 85 76 86
REMARK SMILES IDX 81 87 77 88 78 89 80 90 82 91 79 92 63 93 64 94 69 95 65 96
REMARK SMILES IDX 66 97 68 98 70 99 67 100
REMARK H PARENT 30 6 37 43 87 62 61 73
REMARK Flexibility Score: inf
ROOT
ATOM      1  C   UNL A   1      40.152  23.532  27.413  1.00  0.00     0.021 C 
ENDROOT
BRANCH   1   2
ATOM      2  C   UNL A   1      39.822  24.975  27.061  1.00  0.00     0.116 C 
BRANCH   2   3
ATOM      3  N   UNL A   1      39.150  25.628  28.161  1.00  0.00    -0.356 N 
ATOM      4  C   UNL A   1      39.564  26.659  28.953  1.00  0.00     0.221 C 
ATOM      5  O   UNL A   1      38.950  26.862  30.001  1.00  0.00    -0.275 OA
ATOM      6  H   UNL A   1      38.256  25.275  28.373  1.00  0.00     0.163 HD
BRANCH   4   7
ATOM      7  C   UNL A   1      40.701  27.580  28.538  1.00  0.00     0.122 C 
BRANCH   7   8
ATOM      8  C   UNL A   1      40.252  28.927  27.947  1.00  0.00     0.137 C 
BRANCH   8   9
ATOM      9  N   UNL A   1      39.784  29.867  28.978  1.00  0.00    -0.292 N 
ATOM     10  C   UNL A   1      37.125  30.423  31.254  1.00  0.00     0.041 C 
ATOM     11  C   UNL A   1      38.220  30.651  30.517  1.00  0.00     0.081 C 
ATOM     12  S   UNL A   1      39.634  31.491  30.983  1.00  0.00    -0.054 SA
ATOM     13  C   UNL A   1      38.431  30.060  29.171  1.00  0.00     0.266 C 
ATOM     14  C   UNL A   1      40.600  30.653  29.769  1.00  0.00     0.148 C 
ATOM     15  O   UNL A   1      37.532  29.801  28.386  1.00  0.00    -0.268 OA
ATOM     16  S   UNL A   1      42.256  30.820  29.700  1.00  0.00    -0.052 S 
BRANCH  10  17
ATOM     17  C   UNL A   1      36.840  31.001  32.561  1.00  0.00     0.104 A 
ATOM     18  C   UNL A   1      36.339  32.251  32.833  1.00  0.00     0.234 A 
ATOM     19  N   UNL A   1      36.293  32.841  34.067  1.00  0.00    -0.194 NA
ATOM     20  C   UNL A   1      37.311  32.516  34.772  1.00  0.00     0.143 A 
ATOM     21  C   UNL A   1      37.510  30.174  33.647  1.00  0.00     0.269 A 
ATOM     22  C   UNL A   1      38.325  33.824  35.773  1.00  0.00     0.048 A 
ATOM     23  N   UNL A   1      38.040  30.981  34.609  1.00  0.00    -0.267 N 
ATOM     24  O   UNL A   1      37.787  28.989  33.494  1.00  0.00    -0.268 OA
ATOM     25  C   UNL A   1      39.961  33.238  36.438  1.00  0.00     0.005 A 
ATOM     26  C   UNL A   1      39.539  30.504  35.325  1.00  0.00     0.096 A 
ATOM     27  C   UNL A   1      40.441  31.434  36.109  1.00  0.00     0.019 A 
BRANCH  18  28
ATOM     28  O   UNL A   1      36.259  33.268  31.875  1.00  0.00    -0.438 OA
BRANCH  28  29
ATOM     29  C   UNL A   1      35.086  33.794  31.414  1.00  0.00     0.130 A 
ATOM     30  C   UNL A   1      33.505  33.929  28.080  1.00  0.00     0.044 C 
ATOM     31  C   UNL A   1      33.722  34.228  29.525  1.00  0.00    -0.047 A 
ATOM     32  C   UNL A   1      33.206  35.374  30.145  1.00  0.00     0.007 A 
ATOM     33  C   UNL A   1      34.564  33.374  30.218  1.00  0.00     0.050 A 
ATOM     34  C   UNL A   1      33.582  35.712  31.450  1.00  0.00    -0.047 A 
ATOM     35  C   UNL A   1      33.013  36.952  32.088  1.00  0.00     0.044 C 
ATOM     36  C   UNL A   1      34.551  34.919  32.078  1.00  0.00     0.050 A 
ENDBRANCH  28  29
ENDBRANCH  18  28
ENDBRANCH  10  17
ENDBRANCH   8   9
ENDBRANCH   7   8
ENDBRANCH   4   7
ENDBRANCH   2   3
ENDBRANCH   1   2
BRANCH   1  37
ATOM     37  C   UNL A   1      39.646  22.342  26.584  1.00  0.00     0.002 C 
BRANCH  37  38
ATOM     38  C   UNL A   1      40.682  21.280  26.163  1.00  0.00     0.002 C 
BRANCH  38  39
ATOM     39  C   UNL A   1      42.152  21.685  26.303  1.00  0.00     0.021 C 
BRANCH  39  40
ATOM     40  C   UNL A   1      43.316  20.854  25.758  1.00  0.00     0.116 C 
BRANCH  40  41
ATOM     41  N   UNL A   1      43.982  21.475  24.622  1.00  0.00    -0.352 N 
ATOM     42  C   UNL A   1      44.642  22.661  24.396  1.00  0.00     0.251 C 
ATOM     43  H   UNL A   1      43.953  20.907  23.819  1.00  0.00     0.163 HD
ATOM     44  O   UNL A   1      44.977  22.904  23.234  1.00  0.00    -0.269 OA
BRANCH  42  45
ATOM     45  C   UNL A   1      44.961  23.712  25.392  1.00  0.00     0.039 A 
ATOM     46  C   UNL A   1      43.638  24.845  25.820  1.00  0.00     0.014 A 
ATOM     47  C   UNL A   1      46.514  23.887  26.293  1.00  0.00     0.014 A 
ATOM     48  C   UNL A   1      43.762  26.100  27.107  1.00  0.00     0.010 A 
ATOM     49  C   UNL A   1      46.663  25.284  27.770  1.00  0.00     0.010 A 
ATOM     50  C   UNL A   1      45.227  26.346  28.099  1.00  0.00    -0.014 A 
BRANCH  50  51
ATOM     51  C   UNL A   1      45.263  27.384  29.128  1.00  0.00     0.031 A 
ATOM     52  C   UNL A   1      45.680  28.763  28.742  1.00  0.00     0.074 A 
ATOM     53  C   UNL A   1      44.859  27.066  30.367  1.00  0.00     0.049 A 
ATOM     54  N   UNL A   1      45.693  29.861  29.444  1.00  0.00    -0.248 NA
ATOM     55  C   UNL A   1      46.157  28.935  27.365  1.00  0.00     0.031 C 
ATOM     56  C   UNL A   1      44.475  25.726  30.819  1.00  0.00     0.029 A 
ATOM     57  N   UNL A   1      44.683  27.853  31.470  1.00  0.00    -0.354 N 
ATOM     58  C   UNL A   1      46.151  30.847  28.575  1.00  0.00     0.074 A 
ATOM     59  C   UNL A   1      46.508  30.207  27.337  1.00  0.00     0.031 C 
ATOM     60  C   UNL A   1      44.060  25.795  32.094  1.00  0.00     0.029 A 
ATOM     61  C   UNL A   1      44.181  27.173  32.553  1.00  0.00     0.049 A 
ATOM     62  H   UNL A   1      44.895  28.814  31.487  1.00  0.00     0.167 HD
ATOM     63  C   UNL A   1      46.201  32.181  28.780  1.00  0.00     0.037 A 
ATOM     64  C   UNL A   1      43.855  27.638  33.772  1.00  0.00     0.037 A 
ATOM     65  C   UNL A   1      45.830  32.779  30.028  1.00  0.00     0.049 A 
ATOM     66  C   UNL A   1      44.007  29.119  34.004  1.00  0.00     0.074 A 
ATOM     67  C   UNL A   1      45.847  34.108  30.395  1.00  0.00     0.029 A 
ATOM     68  N   UNL A   1      45.373  32.056  31.124  1.00  0.00    -0.354 N 
ATOM     69  N   UNL A   1      44.394  30.056  33.166  1.00  0.00    -0.248 NA
ATOM     70  C   UNL A   1      43.659  29.612  35.340  1.00  0.00     0.031 C 
ATOM     71  C   UNL A   1      45.467  34.182  31.739  1.00  0.00     0.029 A 
ATOM     72  C   UNL A   1      45.130  32.910  32.181  1.00  0.00     0.049 A 
ATOM     73  H   UNL A   1      45.241  31.081  31.143  1.00  0.00     0.167 HD
ATOM     74  C   UNL A   1      44.304  31.254  33.863  1.00  0.00     0.074 A 
ATOM     75  C   UNL A   1      43.793  30.920  35.179  1.00  0.00     0.031 C 
ATOM     76  C   UNL A   1      44.617  32.515  33.469  1.00  0.00     0.037 A 
BRANCH  63  77
ATOM     77  C   UNL A   1      46.675  33.042  27.643  1.00  0.00     0.057 A 
ATOM     78  C   UNL A   1      45.782  33.641  26.742  1.00  0.00     0.134 A 
ATOM     79  C   UNL A   1      48.040  33.262  27.435  1.00  0.00     0.134 A 
ATOM     80  F   UNL A   1      44.459  33.448  26.862  1.00  0.00    -0.206 F 
ATOM     81  C   UNL A   1      46.231  34.403  25.661  1.00  0.00     0.040 A 
ATOM     82  C   UNL A   1      48.501  34.048  26.377  1.00  0.00     0.040 A 
ATOM     83  F   UNL A   1      48.951  32.712  28.250  1.00  0.00    -0.206 F 
ATOM     84  C   UNL A   1      47.595  34.615  25.482  1.00  0.00     0.006 A 
ENDBRANCH  63  77
BRANCH  64  85
ATOM     85  C   UNL A   1      43.358  26.725  34.835  1.00  0.00     0.057 A 
ATOM     86  C   UNL A   1      44.233  26.034  35.683  1.00  0.00     0.134 A 
ATOM     87  C   UNL A   1      41.987  26.485  35.004  1.00  0.00     0.134 A 
ATOM     88  F   UNL A   1      45.558  26.214  35.577  1.00  0.00    -0.206 F 
ATOM     89  C   UNL A   1      43.771  25.108  36.621  1.00  0.00     0.040 A 
ATOM     90  C   UNL A   1      41.509  25.590  35.962  1.00  0.00     0.040 A 
ATOM     91  F   UNL A   1      41.088  27.122  34.240  1.00  0.00    -0.206 F 
ATOM     92  C   UNL A   1      42.404  24.884  36.762  1.00  0.00     0.006 A 
ENDBRANCH  64  85
BRANCH  76  93
ATOM     93  C   UNL A   1      44.360  33.607  34.464  1.00  0.00     0.057 A 
ATOM     94  C   UNL A   1      45.360  34.084  35.319  1.00  0.00     0.134 A 
ATOM     95  C   UNL A   1      43.091  34.194  34.552  1.00  0.00     0.134 A 
ATOM     96  F   UNL A   1      46.595  33.560  35.282  1.00  0.00    -0.206 F 
ATOM     97  C   UNL A   1      45.091  35.063  36.274  1.00  0.00     0.040 A 
ATOM     98  C   UNL A   1      42.824  35.210  35.467  1.00  0.00     0.040 A 
ATOM     99  F   UNL A   1      42.096  33.801  33.743  1.00  0.00    -0.206 F 
ATOM    100  C   UNL A   1      43.820  35.632  36.345  1.00  0.00     0.006 A 
ENDBRANCH  76  93
ENDBRANCH  50  51
ENDBRANCH  42  45
ENDBRANCH  40  41
ENDBRANCH  39  40
ENDBRANCH  38  39
ENDBRANCH  37  38
ENDBRANCH   1  37
TORSDOF 18
ENDMDL
MODEL 2
REMARK VINA RESULT:      -9.3      3.302      9.474
REMARK SMILES Cc1cc(C)cc(Oc2nc3ccccn3c(=O)c2/C=C2\SC(=S)N(CCC(=O)NCCCCCCNC(=O)c3ccc(-c4c5nc(c(-c6c(F)cccc6F)c6ccc([nH]6)c(-c6c(F)cccc6F)c6nc(c(-c7c(F)cccc7F)c7ccc4[nH]7)C=C6)C=C5)cc3)C2=O)c1
REMARK SMILES IDX 32 1 31 2 30 3 28 4 29 5 27 7 26 8 25 9 20 10 21 11 22 12
REMARK SMILES IDX 94 13 23 14 95 15 24 16 19 17 9 18 10 19 11 20 17 21 12 22
REMARK SMILES IDX 16 23 18 24 13 25 15 26 14 27 8 28 7 29 1 30 2 31 3 32 96 33
REMARK SMILES IDX 4 34 5 35 6 36 33 37 34 38 35 39 36 40 37 41 38 42 39 44
REMARK SMILES IDX 40 45 41 46 93 47 42 48 92 49 43 50 44 51 45 52 86 53 46 54
REMARK SMILES IDX 91 55 85 56 87 57 47 58 90 59 84 60 83 61 48 63 74 64 57 65
REMARK SMILES IDX 73 66 58 67 61 68 72 69 88 70 59 71 60 72 71 74 89 75 62 76
REMARK SMILES IDX 49 77 50 78 55 79 51 80 52 81 54 82 56 83 53 84 75 85 76 86
REMARK SMILES IDX 81 87 77 88 78 89 80 90 82 91 79 92 63 93 64 94 69 95 65 96
REMARK SMILES IDX 66 97 68 98 70 99 67 100
REMARK H PARENT 30 6 37 43 87 62 61 73
REMARK Flexibility Score: inf
ROOT
ATOM      1  C   UNL A   1      45.974  34.979  35.892  1.00  0.00     0.021 C 
ENDROOT
BRANCH   1   2
ATOM      2  C   UNL A   1      45.403  35.534  34.595  1.00  0.00     0.116 C 
BRANCH   2   3
ATOM      3  N   UNL A   1      44.346  36.482  34.867  1.00  0.00    -0.356 N 
ATOM      4  C   UNL A   1      43.012  36.408  34.593  1.00  0.00     0.221 C 
ATOM      5  O   UNL A   1      42.352  37.446  34.660  1.00  0.00    -0.275 OA
ATOM      6  H   UNL A   1      44.632  37.308  35.320  1.00  0.00     0.163 HD
BRANCH   4   7
ATOM      7  C   UNL A   1      42.331  35.084  34.280  1.00  0.00     0.122 C 
BRANCH   7   8
ATOM      8  C   UNL A   1      41.691  34.390  35.494  1.00  0.00     0.137 C 
BRANCH   8   9
ATOM      9  N   UNL A   1      40.391  33.779  35.173  1.00  0.00    -0.292 N 
ATOM     10  C   UNL A   1      37.556  34.171  33.082  1.00  0.00     0.041 C 
ATOM     11  C   UNL A   1      38.337  33.723  34.074  1.00  0.00     0.081 C 
ATOM     12  S   UNL A   1      38.487  32.115  34.638  1.00  0.00    -0.054 SA
ATOM     13  C   UNL A   1      39.337  34.573  34.769  1.00  0.00     0.266 C 
ATOM     14  C   UNL A   1      40.091  32.435  35.296  1.00  0.00     0.148 C 
ATOM     15  O   UNL A   1      39.215  35.776  34.941  1.00  0.00    -0.268 OA
ATOM     16  S   UNL A   1      41.042  31.215  35.913  1.00  0.00    -0.052 S 
BRANCH  10  17
ATOM     17  C   UNL A   1      36.533  33.402  32.387  1.00  0.00     0.104 A 
ATOM     18  C   UNL A   1      36.719  32.441  31.422  1.00  0.00     0.234 A 
ATOM     19  N   UNL A   1      35.739  31.899  30.636  1.00  0.00    -0.194 NA
ATOM     20  C   UNL A   1      34.845  32.770  30.348  1.00  0.00     0.143 A 
ATOM     21  C   UNL A   1      35.171  34.046  32.596  1.00  0.00     0.269 A 
ATOM     22  C   UNL A   1      34.169  32.988  28.549  1.00  0.00     0.048 A 
ATOM     23  N   UNL A   1      34.441  34.012  31.446  1.00  0.00    -0.267 N 
ATOM     24  O   UNL A   1      34.921  34.752  33.567  1.00  0.00    -0.268 OA
ATOM     25  C   UNL A   1      33.156  34.520  28.249  1.00  0.00     0.005 A 
ATOM     26  C   UNL A   1      33.431  35.370  31.094  1.00  0.00     0.096 A 
ATOM     27  C   UNL A   1      32.859  35.671  29.725  1.00  0.00     0.019 A 
BRANCH  18  28
ATOM     28  O   UNL A   1      37.943  32.233  30.776  1.00  0.00    -0.438 OA
BRANCH  28  29
ATOM     29  C   UNL A   1      38.493  31.002  30.557  1.00  0.00     0.130 A 
ATOM     30  C   UNL A   1      39.072  28.989  27.516  1.00  0.00     0.044 C 
ATOM     31  C   UNL A   1      38.989  29.313  28.969  1.00  0.00    -0.047 A 
ATOM     32  C   UNL A   1      38.855  28.328  29.956  1.00  0.00     0.007 A 
ATOM     33  C   UNL A   1      38.934  30.656  29.306  1.00  0.00     0.050 A 
ATOM     34  C   UNL A   1      38.596  28.678  31.287  1.00  0.00    -0.047 A 
ATOM     35  C   UNL A   1      38.453  27.596  32.324  1.00  0.00     0.044 C 
ATOM     36  C   UNL A   1      38.393  30.034  31.578  1.00  0.00     0.050 A 
ENDBRANCH  28  29
ENDBRANCH  18  28
ENDBRANCH  10  17
ENDBRANCH   8   9
ENDBRANCH   7   8
ENDBRANCH   4   7
ENDBRANCH   2   3
ENDBRANCH   1   2
BRANCH   1  37
ATOM     37  C   UNL A   1      45.141  34.860  37.177  1.00  0.00     0.002 C 
BRANCH  37  38
ATOM     38  C   UNL A   1      45.271  35.995  38.212  1.00  0.00     0.002 C 
BRANCH  38  39
ATOM     39  C   UNL A   1      46.059  35.658  39.482  1.00  0.00     0.021 C 
BRANCH  39  40
ATOM     40  C   UNL A   1      47.580  35.495  39.518  1.00  0.00     0.116 C 
BRANCH  40  41
ATOM     41  N   UNL A   1      48.012  34.285  40.202  1.00  0.00    -0.352 N 
ATOM     42  C   UNL A   1      47.773  32.937  40.062  1.00  0.00     0.251 C 
ATOM     43  H   UNL A   1      48.623  34.479  40.949  1.00  0.00     0.163 HD
ATOM     44  O   UNL A   1      48.229  32.193  40.934  1.00  0.00    -0.269 OA
BRANCH  42  45
ATOM     45  C   UNL A   1      46.986  32.273  38.996  1.00  0.00     0.039 A 
ATOM     46  C   UNL A   1      47.852  31.895  37.472  1.00  0.00     0.014 A 
ATOM     47  C   UNL A   1      45.277  31.710  39.128  1.00  0.00     0.014 A 
ATOM     48  C   UNL A   1      47.133  30.966  36.105  1.00  0.00     0.010 A 
ATOM     49  C   UNL A   1      44.455  30.635  37.604  1.00  0.00     0.010 A 
ATOM     50  C   UNL A   1      45.468  30.317  36.131  1.00  0.00    -0.014 A 
BRANCH  50  51
ATOM     51  C   UNL A   1      44.944  29.571  34.987  1.00  0.00     0.031 A 
ATOM     52  C   UNL A   1      44.350  30.328  33.848  1.00  0.00     0.074 A 
ATOM     53  C   UNL A   1      45.076  28.237  34.985  1.00  0.00     0.049 A 
ATOM     54  N   UNL A   1      43.917  29.902  32.695  1.00  0.00    -0.248 NA
ATOM     55  C   UNL A   1      44.216  31.778  34.031  1.00  0.00     0.031 C 
ATOM     56  C   UNL A   1      45.613  27.432  36.085  1.00  0.00     0.029 A 
ATOM     57  N   UNL A   1      44.787  27.320  34.013  1.00  0.00    -0.354 N 
ATOM     58  C   UNL A   1      43.495  31.041  32.017  1.00  0.00     0.074 A 
ATOM     59  C   UNL A   1      43.616  32.157  32.919  1.00  0.00     0.031 C 
ATOM     60  C   UNL A   1      45.662  26.145  35.705  1.00  0.00     0.029 A 
ATOM     61  C   UNL A   1      45.130  26.034  34.353  1.00  0.00     0.049 A 
ATOM     62  H   UNL A   1      44.373  27.558  33.152  1.00  0.00     0.167 HD
ATOM     63  C   UNL A   1      43.103  31.149  30.729  1.00  0.00     0.037 A 
ATOM     64  C   UNL A   1      45.021  24.906  33.630  1.00  0.00     0.037 A 
ATOM     65  C   UNL A   1      43.002  30.012  29.863  1.00  0.00     0.049 A 
ATOM     66  C   UNL A   1      44.496  25.041  32.223  1.00  0.00     0.074 A 
ATOM     67  C   UNL A   1      42.601  29.957  28.543  1.00  0.00     0.029 A 
ATOM     68  N   UNL A   1      43.309  28.714  30.253  1.00  0.00    -0.354 N 
ATOM     69  N   UNL A   1      44.142  26.125  31.569  1.00  0.00    -0.248 NA
ATOM     70  C   UNL A   1      44.373  23.803  31.449  1.00  0.00     0.031 C 
ATOM     71  C   UNL A   1      42.598  28.613  28.157  1.00  0.00     0.029 A 
ATOM     72  C   UNL A   1      43.079  27.842  29.208  1.00  0.00     0.049 A 
ATOM     73  H   UNL A   1      43.640  28.455  31.143  1.00  0.00     0.167 HD
ATOM     74  C   UNL A   1      43.786  25.704  30.295  1.00  0.00     0.074 A 
ATOM     75  C   UNL A   1      44.003  24.270  30.266  1.00  0.00     0.031 C 
ATOM     76  C   UNL A   1      43.318  26.421  29.241  1.00  0.00     0.037 A 
BRANCH  63  77
ATOM     77  C   UNL A   1      42.761  32.519  30.218  1.00  0.00     0.057 A 
ATOM     78  C   UNL A   1      43.583  33.199  29.306  1.00  0.00     0.134 A 
ATOM     79  C   UNL A   1      41.607  33.177  30.654  1.00  0.00     0.134 A 
ATOM     80  F   UNL A   1      44.723  32.642  28.868  1.00  0.00    -0.206 F 
ATOM     81  C   UNL A   1      43.282  34.491  28.869  1.00  0.00     0.040 A 
ATOM     82  C   UNL A   1      41.278  34.456  30.200  1.00  0.00     0.040 A 
ATOM     83  F   UNL A   1      40.781  32.593  31.534  1.00  0.00    -0.206 F 
ATOM     84  C   UNL A   1      42.121  35.120  29.311  1.00  0.00     0.006 A 
ENDBRANCH  63  77
BRANCH  64  85
ATOM     85  C   UNL A   1      45.416  23.589  34.196  1.00  0.00     0.057 A 
ATOM     86  C   UNL A   1      46.759  23.208  34.309  1.00  0.00     0.134 A 
ATOM     87  C   UNL A   1      44.453  22.654  34.600  1.00  0.00     0.134 A 
ATOM     88  F   UNL A   1      47.735  24.052  33.940  1.00  0.00    -0.206 F 
ATOM     89  C   UNL A   1      47.128  21.936  34.755  1.00  0.00     0.040 A 
ATOM     90  C   UNL A   1      44.808  21.394  35.083  1.00  0.00     0.040 A 
ATOM     91  F   UNL A   1      43.148  22.954  34.536  1.00  0.00    -0.206 F 
ATOM     92  C   UNL A   1      46.150  21.025  35.144  1.00  0.00     0.006 A 
ENDBRANCH  64  85
BRANCH  76  93
ATOM     93  C   UNL A   1      43.066  25.658  27.975  1.00  0.00     0.057 A 
ATOM     94  C   UNL A   1      41.831  25.060  27.701  1.00  0.00     0.134 A 
ATOM     95  C   UNL A   1      44.078  25.535  27.014  1.00  0.00     0.134 A 
ATOM     96  F   UNL A   1      40.823  25.144  28.583  1.00  0.00    -0.206 F 
ATOM     97  C   UNL A   1      41.630  24.310  26.544  1.00  0.00     0.040 A 
ATOM     98  C   UNL A   1      43.872  24.832  25.830  1.00  0.00     0.040 A 
ATOM     99  F   UNL A   1      45.277  26.107  27.205  1.00  0.00    -0.206 F 
ATOM    100  C   UNL A   1      42.652  24.200  25.602  1.00  0.00     0.006 A 
ENDBRANCH  76  93
ENDBRANCH  50  51
ENDBRANCH  42  45
ENDBRANCH  40  41
ENDBRANCH  39  40
ENDBRANCH  38  39
ENDBRANCH  37  38
ENDBRANCH   1  37
TORSDOF 18
ENDMDL
MODEL 3
REMARK VINA RESULT:      -9.1      3.554      7.730
REMARK SMILES Cc1cc(C)cc(Oc2nc3ccccn3c(=O)c2/C=C2\SC(=S)N(CCC(=O)NCCCCCCNC(=O)c3ccc(-c4c5nc(c(-c6c(F)cccc6F)c6ccc([nH]6)c(-c6c(F)cccc6F)c6nc(c(-c7c(F)cccc7F)c7ccc4[nH]7)C=C6)C=C5)cc3)C2=O)c1
REMARK SMILES IDX 32 1 31 2 30 3 28 4 29 5 27 7 26 8 25 9 20 10 21 11 22 12
REMARK SMILES IDX 94 13 23 14 95 15 24 16 19 17 9 18 10 19 11 20 17 21 12 22
REMARK SMILES IDX 16 23 18 24 13 25 15 26 14 27 8 28 7 29 1 30 2 31 3 32 96 33
REMARK SMILES IDX 4 34 5 35 6 36 33 37 34 38 35 39 36 40 37 41 38 42 39 44
REMARK SMILES IDX 40 45 41 46 93 47 42 48 92 49 43 50 44 51 45 52 86 53 46 54
REMARK SMILES IDX 91 55 85 56 87 57 47 58 90 59 84 60 83 61 48 63 74 64 57 65
REMARK SMILES IDX 73 66 58 67 61 68 72 69 88 70 59 71 60 72 71 74 89 75 62 76
REMARK SMILES IDX 49 77 50 78 55 79 51 80 52 81 54 82 56 83 53 84 75 85 76 86
REMARK SMILES IDX 81 87 77 88 78 89 80 90 82 91 79 92 63 93 64 94 69 95 65 96
REMARK SMILES IDX 66 97 68 98 70 99 67 100
REMARK H PARENT 30 6 37 43 87 62 61 73
REMARK Flexibility Score: inf
ROOT
ATOM      1  C   UNL A   1      40.537  27.093  28.586  1.00  0.00     0.021 C 
ENDROOT
BRANCH   1   2
ATOM      2  C   UNL A   1      41.482  28.205  29.019  1.00  0.00     0.116 C 
BRANCH   2   3
ATOM      3  N   UNL A   1      42.477  27.701  29.938  1.00  0.00    -0.356 N 
ATOM      4  C   UNL A   1      42.568  27.839  31.292  1.00  0.00     0.221 C 
ATOM      5  O   UNL A   1      43.644  27.567  31.827  1.00  0.00    -0.275 OA
ATOM      6  H   UNL A   1      43.200  27.176  29.525  1.00  0.00     0.163 HD
BRANCH   4   7
ATOM      7  C   UNL A   1      41.372  28.250  32.137  1.00  0.00     0.122 C 
BRANCH   7   8
ATOM      8  C   UNL A   1      41.086  29.761  32.153  1.00  0.00     0.137 C 
BRANCH   8   9
ATOM      9  N   UNL A   1      39.659  30.062  32.348  1.00  0.00    -0.292 N 
ATOM     10  C   UNL A   1      37.337  32.740  32.318  1.00  0.00     0.041 C 
ATOM     11  C   UNL A   1      37.849  31.520  32.526  1.00  0.00     0.081 C 
ATOM     12  S   UNL A   1      37.075  30.012  32.305  1.00  0.00    -0.054 SA
ATOM     13  C   UNL A   1      39.277  31.285  32.863  1.00  0.00     0.266 C 
ATOM     14  C   UNL A   1      38.619  29.183  32.110  1.00  0.00     0.148 C 
ATOM     15  O   UNL A   1      39.971  32.065  33.495  1.00  0.00    -0.268 OA
ATOM     16  S   UNL A   1      38.702  27.582  31.659  1.00  0.00    -0.052 S 
BRANCH  10  17
ATOM     17  C   UNL A   1      35.942  33.041  32.023  1.00  0.00     0.104 A 
ATOM     18  C   UNL A   1      35.340  33.089  30.789  1.00  0.00     0.234 A 
ATOM     19  N   UNL A   1      34.092  33.588  30.529  1.00  0.00    -0.194 NA
ATOM     20  C   UNL A   1      33.829  34.588  31.284  1.00  0.00     0.143 A 
ATOM     21  C   UNL A   1      35.279  33.663  33.241  1.00  0.00     0.269 A 
ATOM     22  C   UNL A   1      33.055  36.220  30.591  1.00  0.00     0.048 A 
ATOM     23  N   UNL A   1      34.449  34.679  32.872  1.00  0.00    -0.267 N 
ATOM     24  O   UNL A   1      35.686  33.469  34.382  1.00  0.00    -0.268 OA
ATOM     25  C   UNL A   1      33.077  37.677  31.748  1.00  0.00     0.005 A 
ATOM     26  C   UNL A   1      34.362  36.063  33.903  1.00  0.00     0.096 A 
ATOM     27  C   UNL A   1      33.805  37.406  33.477  1.00  0.00     0.019 A 
BRANCH  18  28
ATOM     28  O   UNL A   1      36.056  33.097  29.587  1.00  0.00    -0.438 OA
BRANCH  28  29
ATOM     29  C   UNL A   1      36.033  32.080  28.676  1.00  0.00     0.130 A 
ATOM     30  C   UNL A   1      33.305  30.271  26.965  1.00  0.00     0.044 C 
ATOM     31  C   UNL A   1      34.691  30.584  27.418  1.00  0.00    -0.047 A 
ATOM     32  C   UNL A   1      35.709  29.621  27.453  1.00  0.00     0.007 A 
ATOM     33  C   UNL A   1      34.911  31.856  27.920  1.00  0.00     0.050 A 
ATOM     34  C   UNL A   1      36.941  29.905  28.054  1.00  0.00    -0.047 A 
ATOM     35  C   UNL A   1      38.014  28.849  28.078  1.00  0.00     0.044 C 
ATOM     36  C   UNL A   1      37.089  31.145  28.689  1.00  0.00     0.050 A 
ENDBRANCH  28  29
ENDBRANCH  18  28
ENDBRANCH  10  17
ENDBRANCH   8   9
ENDBRANCH   7   8
ENDBRANCH   4   7
ENDBRANCH   2   3
ENDBRANCH   1   2
BRANCH   1  37
ATOM     37  C   UNL A   1      41.007  25.880  27.769  1.00  0.00     0.002 C 
BRANCH  37  38
ATOM     38  C   UNL A   1      40.055  25.348  26.680  1.00  0.00     0.002 C 
BRANCH  38  39
ATOM     39  C   UNL A   1      39.755  23.847  26.726  1.00  0.00     0.021 C 
BRANCH  39  40
ATOM     40  C   UNL A   1      40.324  22.900  27.784  1.00  0.00     0.116 C 
BRANCH  40  41
ATOM     41  N   UNL A   1      41.343  22.000  27.262  1.00  0.00    -0.352 N 
ATOM     42  C   UNL A   1      42.598  22.145  26.717  1.00  0.00     0.251 C 
ATOM     43  H   UNL A   1      41.064  21.057  27.309  1.00  0.00     0.163 HD
ATOM     44  O   UNL A   1      43.130  21.132  26.256  1.00  0.00    -0.269 OA
BRANCH  42  45
ATOM     45  C   UNL A   1      43.375  23.400  26.579  1.00  0.00     0.039 A 
ATOM     46  C   UNL A   1      44.109  24.061  28.075  1.00  0.00     0.014 A 
ATOM     47  C   UNL A   1      43.744  24.259  25.036  1.00  0.00     0.014 A 
ATOM     48  C   UNL A   1      45.208  25.489  28.115  1.00  0.00     0.010 A 
ATOM     49  C   UNL A   1      45.005  25.860  25.057  1.00  0.00     0.010 A 
ATOM     50  C   UNL A   1      45.685  26.399  26.653  1.00  0.00    -0.014 A 
BRANCH  50  51
ATOM     51  C   UNL A   1      46.581  27.551  26.753  1.00  0.00     0.031 A 
ATOM     52  C   UNL A   1      48.053  27.323  26.686  1.00  0.00     0.074 A 
ATOM     53  C   UNL A   1      46.036  28.774  26.841  1.00  0.00     0.049 A 
ATOM     54  N   UNL A   1      49.033  28.182  26.650  1.00  0.00    -0.248 NA
ATOM     55  C   UNL A   1      48.493  25.924  26.657  1.00  0.00     0.031 C 
ATOM     56  C   UNL A   1      44.604  29.062  26.950  1.00  0.00     0.029 A 
ATOM     57  N   UNL A   1      46.624  30.008  26.830  1.00  0.00    -0.354 N 
ATOM     58  C   UNL A   1      50.190  27.417  26.565  1.00  0.00     0.074 A 
ATOM     59  C   UNL A   1      49.808  26.033  26.665  1.00  0.00     0.031 C 
ATOM     60  C   UNL A   1      44.422  30.393  26.946  1.00  0.00     0.029 A 
ATOM     61  C   UNL A   1      45.724  31.044  26.867  1.00  0.00     0.049 A 
ATOM     62  H   UNL A   1      47.599  30.141  26.800  1.00  0.00     0.167 HD
ATOM     63  C   UNL A   1      51.456  27.838  26.354  1.00  0.00     0.037 A 
ATOM     64  C   UNL A   1      45.950  32.368  26.832  1.00  0.00     0.037 A 
ATOM     65  C   UNL A   1      51.793  29.227  26.254  1.00  0.00     0.049 A 
ATOM     66  C   UNL A   1      47.382  32.816  26.687  1.00  0.00     0.074 A 
ATOM     67  C   UNL A   1      53.029  29.811  26.063  1.00  0.00     0.029 A 
ATOM     68  N   UNL A   1      50.863  30.256  26.346  1.00  0.00    -0.354 N 
ATOM     69  N   UNL A   1      48.471  32.089  26.559  1.00  0.00    -0.248 NA
ATOM     70  C   UNL A   1      47.618  34.262  26.661  1.00  0.00     0.031 C 
ATOM     71  C   UNL A   1      52.855  31.198  26.111  1.00  0.00     0.029 A 
ATOM     72  C   UNL A   1      51.500  31.476  26.245  1.00  0.00     0.049 A 
ATOM     73  H   UNL A   1      49.894  30.133  26.466  1.00  0.00     0.167 HD
ATOM     74  C   UNL A   1      49.516  32.989  26.403  1.00  0.00     0.074 A 
ATOM     75  C   UNL A   1      48.919  34.312  26.420  1.00  0.00     0.031 C 
ATOM     76  C   UNL A   1      50.847  32.761  26.265  1.00  0.00     0.037 A 
BRANCH  63  77
ATOM     77  C   UNL A   1      52.527  26.792  26.231  1.00  0.00     0.057 A 
ATOM     78  C   UNL A   1      52.759  26.103  25.031  1.00  0.00     0.134 A 
ATOM     79  C   UNL A   1      53.325  26.454  27.328  1.00  0.00     0.134 A 
ATOM     80  F   UNL A   1      52.011  26.353  23.945  1.00  0.00    -0.206 F 
ATOM     81  C   UNL A   1      53.726  25.100  24.936  1.00  0.00     0.040 A 
ATOM     82  C   UNL A   1      54.317  25.476  27.238  1.00  0.00     0.040 A 
ATOM     83  F   UNL A   1      53.151  27.064  28.510  1.00  0.00    -0.206 F 
ATOM     84  C   UNL A   1      54.514  24.789  26.041  1.00  0.00     0.006 A 
ENDBRANCH  63  77
BRANCH  64  85
ATOM     85  C   UNL A   1      44.831  33.343  26.923  1.00  0.00     0.057 A 
ATOM     86  C   UNL A   1      44.147  33.788  25.785  1.00  0.00     0.134 A 
ATOM     87  C   UNL A   1      44.442  33.890  28.154  1.00  0.00     0.134 A 
ATOM     88  F   UNL A   1      44.467  33.308  24.574  1.00  0.00    -0.206 F 
ATOM     89  C   UNL A   1      43.157  34.771  25.858  1.00  0.00     0.040 A 
ATOM     90  C   UNL A   1      43.428  34.845  28.247  1.00  0.00     0.040 A 
ATOM     91  F   UNL A   1      45.040  33.500  29.289  1.00  0.00    -0.206 F 
ATOM     92  C   UNL A   1      42.795  35.302  27.094  1.00  0.00     0.006 A 
ENDBRANCH  64  85
BRANCH  76  93
ATOM     93  C   UNL A   1      51.714  33.969  26.073  1.00  0.00     0.057 A 
ATOM     94  C   UNL A   1      52.080  34.428  24.803  1.00  0.00     0.134 A 
ATOM     95  C   UNL A   1      52.177  34.686  27.184  1.00  0.00     0.134 A 
ATOM     96  F   UNL A   1      51.668  33.782  23.701  1.00  0.00    -0.206 F 
ATOM     97  C   UNL A   1      52.930  35.521  24.643  1.00  0.00     0.040 A 
ATOM     98  C   UNL A   1      52.984  35.811  27.035  1.00  0.00     0.040 A 
ATOM     99  F   UNL A   1      51.841  34.314  28.429  1.00  0.00    -0.206 F 
ATOM    100  C   UNL A   1      53.379  36.219  25.763  1.00  0.00     0.006 A 
ENDBRANCH  76  93
ENDBRANCH  50  51
ENDBRANCH  42  45
ENDBRANCH  40  41
ENDBRANCH  39  40
ENDBRANCH  38  39
ENDBRANCH  37  38
ENDBRANCH   1  37
TORSDOF 18
ENDMDL
