MODEL 1
REMARK VINA RESULT:     -12.5      0.000      0.000
REMARK SMILES Cc1ccc(Cl)c2c1N[C@@H](c1ccc(C(=O)NCCCCCCNC(=O)c3ccc(-c4c5nc(c(-c6c(F)cccc6F)c6ccc([nH]6)c(-c6c(F)cccc6F)c6nc(c(-c7c(F)cccc7F)c7ccc4[nH]7)C=C6)C=C5)cc3)cc1)[C@H]1CC=C[C@@H]21
REMARK SMILES IDX 21 1 20 2 19 3 18 4 17 5 15 6 16 7 14 9 11 10 12 11 82 12
REMARK SMILES IDX 13 13 81 14 10 15 1 16 2 17 3 18 8 19 4 20 7 21 9 22 5 23
REMARK SMILES IDX 87 24 6 26 83 27 86 28 84 29 85 30 22 31 23 32 24 33 25 34
REMARK SMILES IDX 26 36 27 37 28 38 80 39 29 40 79 41 30 42 31 43 32 44 73 45
REMARK SMILES IDX 33 46 78 47 72 48 74 49 34 50 77 51 71 52 70 53 35 55 61 56
REMARK SMILES IDX 44 57 60 58 45 59 48 60 59 61 75 62 46 63 47 64 58 66 76 67
REMARK SMILES IDX 49 68 36 69 37 70 42 71 38 72 39 73 41 74 43 75 40 76 62 77
REMARK SMILES IDX 63 78 68 79 64 80 65 81 67 82 69 83 66 84 50 85 51 86 56 87
REMARK SMILES IDX 52 88 53 89 55 90 57 91 54 92
REMARK H PARENT 17 8 9 25 24 35 74 54 48 65
REMARK Flexibility Score: inf
ROOT
ATOM      1  C   UNL A   1      35.871  23.194  26.087  1.00  0.00     0.002 C 
ENDROOT
BRANCH   1   2
ATOM      2  C   UNL A   1      35.476  21.784  25.632  1.00  0.00     0.002 C 
BRANCH   2   3
ATOM      3  C   UNL A   1      34.338  21.144  26.440  1.00  0.00     0.021 C 
BRANCH   3   4
ATOM      4  C   UNL A   1      33.840  22.035  27.580  1.00  0.00     0.116 C 
BRANCH   4   5
ATOM      5  N   UNL A   1      32.395  22.037  27.580  1.00  0.00    -0.352 N 
ATOM      6  C   UNL A   1      31.481  22.971  27.176  1.00  0.00     0.251 C 
ATOM      7  O   UNL A   1      30.296  22.743  27.424  1.00  0.00    -0.269 OA
ATOM      8  H   UNL A   1      31.994  21.212  27.938  1.00  0.00     0.163 HD
BRANCH   6   9
ATOM      9  C   UNL A   1      31.841  24.174  26.376  1.00  0.00     0.039 A 
ATOM     10  C   UNL A   1      32.914  26.263  24.769  1.00  0.00    -0.025 A 
ATOM     11  C   UNL A   1      32.847  24.939  24.308  1.00  0.00     0.006 A 
ATOM     12  C   UNL A   1      32.291  26.536  25.997  1.00  0.00     0.006 A 
ATOM     13  C   UNL A   1      32.333  23.912  25.097  1.00  0.00     0.014 A 
ATOM     14  C   UNL A   1      31.751  25.505  26.785  1.00  0.00     0.014 A 
BRANCH  10  15
ATOM     15  C   UNL A   1      33.687  27.365  24.029  1.00  0.00     0.114 C 
ATOM     16  C   UNL A   1      34.815  29.675  27.505  1.00  0.00     0.046 C 
ATOM     17  C   UNL A   1      33.595  29.984  26.676  1.00  0.00    -0.027 A 
ATOM     18  C   UNL A   1      32.685  30.917  27.195  1.00  0.00     0.007 A 
ATOM     19  C   UNL A   1      33.340  29.379  25.423  1.00  0.00     0.043 A 
ATOM     20  C   UNL A   1      31.528  31.242  26.499  1.00  0.00     0.021 A 
ATOM     21  C   UNL A   1      32.149  29.696  24.717  1.00  0.00     0.001 A 
ATOM     22  N   UNL A   1      34.188  28.381  24.946  1.00  0.00    -0.377 N 
ATOM     23  C   UNL A   1      31.265  30.648  25.266  1.00  0.00     0.046 A 
ATOM     24  C   UNL A   1      31.873  29.052  23.374  1.00  0.00     0.051 C 
ATOM     25  H   UNL A   1      35.130  28.362  25.232  1.00  0.00     0.161 HD
ATOM     26  Cl  UNL A   1      29.827  31.162  24.451  1.00  0.00    -0.084 Cl
ATOM     27  C   UNL A   1      32.981  28.107  22.864  1.00  0.00     0.031 C 
ATOM     28  C   UNL A   1      30.665  28.153  23.262  1.00  0.00    -0.023 C 
ATOM     29  C   UNL A   1      32.266  27.205  21.848  1.00  0.00     0.034 C 
ATOM     30  C   UNL A   1      30.876  27.154  22.393  1.00  0.00    -0.030 C 
ENDBRANCH  10  15
ENDBRANCH   6   9
ENDBRANCH   4   5
ENDBRANCH   3   4
ENDBRANCH   2   3
ENDBRANCH   1   2
BRANCH   1  31
ATOM     31  C   UNL A   1      37.175  23.716  25.483  1.00  0.00     0.021 C 
BRANCH  31  32
ATOM     32  C   UNL A   1      38.175  24.210  26.522  1.00  0.00     0.116 C 
BRANCH  32  33
ATOM     33  N   UNL A   1      39.535  23.852  26.156  1.00  0.00    -0.352 N 
ATOM     34  C   UNL A   1      40.696  24.516  26.471  1.00  0.00     0.251 C 
ATOM     35  H   UNL A   1      39.637  23.035  25.617  1.00  0.00     0.163 HD
ATOM     36  O   UNL A   1      41.751  24.251  25.914  1.00  0.00    -0.269 OA
BRANCH  34  37
ATOM     37  C   UNL A   1      40.643  25.568  27.502  1.00  0.00     0.039 A 
ATOM     38  C   UNL A   1      41.513  26.655  27.415  1.00  0.00     0.014 A 
ATOM     39  C   UNL A   1      39.710  25.476  28.542  1.00  0.00     0.014 A 
ATOM     40  C   UNL A   1      41.429  27.674  28.363  1.00  0.00     0.010 A 
ATOM     41  C   UNL A   1      39.591  26.519  29.453  1.00  0.00     0.010 A 
ATOM     42  C   UNL A   1      40.464  27.615  29.382  1.00  0.00    -0.014 A 
BRANCH  42  43
ATOM     43  C   UNL A   1      40.419  28.651  30.438  1.00  0.00     0.031 A 
ATOM     44  C   UNL A   1      39.418  29.767  30.327  1.00  0.00     0.074 A 
ATOM     45  C   UNL A   1      41.270  28.596  31.478  1.00  0.00     0.049 A 
ATOM     46  N   UNL A   1      39.201  30.769  31.140  1.00  0.00    -0.248 NA
ATOM     47  C   UNL A   1      38.558  29.765  29.131  1.00  0.00     0.031 C 
ATOM     48  C   UNL A   1      42.305  27.581  31.678  1.00  0.00     0.029 A 
ATOM     49  N   UNL A   1      41.398  29.421  32.566  1.00  0.00    -0.354 N 
ATOM     50  C   UNL A   1      38.169  31.500  30.565  1.00  0.00     0.074 A 
ATOM     51  C   UNL A   1      37.857  30.875  29.299  1.00  0.00     0.031 C 
ATOM     52  C   UNL A   1      42.948  27.832  32.831  1.00  0.00     0.029 A 
ATOM     53  C   UNL A   1      42.382  29.031  33.441  1.00  0.00     0.049 A 
ATOM     54  H   UNL A   1      40.837  30.218  32.706  1.00  0.00     0.167 HD
ATOM     55  C   UNL A   1      37.510  32.571  31.064  1.00  0.00     0.037 A 
ATOM     56  C   UNL A   1      42.768  29.581  34.607  1.00  0.00     0.037 A 
ATOM     57  C   UNL A   1      37.822  33.199  32.320  1.00  0.00     0.049 A 
ATOM     58  C   UNL A   1      42.048  30.801  35.116  1.00  0.00     0.074 A 
ATOM     59  C   UNL A   1      37.223  34.296  32.913  1.00  0.00     0.029 A 
ATOM     60  N   UNL A   1      38.824  32.774  33.179  1.00  0.00    -0.354 N 
ATOM     61  N   UNL A   1      41.040  31.453  34.586  1.00  0.00    -0.248 NA
ATOM     62  C   UNL A   1      42.512  31.351  36.398  1.00  0.00     0.031 C 
ATOM     63  C   UNL A   1      37.879  34.547  34.125  1.00  0.00     0.029 A 
ATOM     64  C   UNL A   1      38.863  33.587  34.298  1.00  0.00     0.049 A 
ATOM     65  H   UNL A   1      39.419  32.007  33.017  1.00  0.00     0.167 HD
ATOM     66  C   UNL A   1      40.728  32.464  35.486  1.00  0.00     0.074 A 
ATOM     67  C   UNL A   1      41.641  32.328  36.601  1.00  0.00     0.031 C 
ATOM     68  C   UNL A   1      39.772  33.420  35.401  1.00  0.00     0.037 A 
BRANCH  55  69
ATOM     69  C   UNL A   1      36.374  33.107  30.247  1.00  0.00     0.057 A 
ATOM     70  C   UNL A   1      36.597  33.969  29.168  1.00  0.00     0.134 A 
ATOM     71  C   UNL A   1      35.047  32.756  30.532  1.00  0.00     0.134 A 
ATOM     72  F   UNL A   1      37.843  34.341  28.840  1.00  0.00    -0.206 F 
ATOM     73  C   UNL A   1      35.541  34.461  28.398  1.00  0.00     0.040 A 
ATOM     74  C   UNL A   1      33.985  33.223  29.757  1.00  0.00     0.040 A 
ATOM     75  F   UNL A   1      34.768  31.917  31.542  1.00  0.00    -0.206 F 
ATOM     76  C   UNL A   1      34.231  34.081  28.688  1.00  0.00     0.006 A 
ENDBRANCH  55  69
BRANCH  56  77
ATOM     77  C   UNL A   1      43.866  28.980  35.403  1.00  0.00     0.057 A 
ATOM     78  C   UNL A   1      43.617  28.000  36.369  1.00  0.00     0.134 A 
ATOM     79  C   UNL A   1      45.203  29.322  35.159  1.00  0.00     0.134 A 
ATOM     80  F   UNL A   1      42.359  27.632  36.652  1.00  0.00    -0.206 F 
ATOM     81  C   UNL A   1      44.657  27.370  37.055  1.00  0.00     0.040 A 
ATOM     82  C   UNL A   1      46.253  28.683  35.819  1.00  0.00     0.040 A 
ATOM     83  F   UNL A   1      45.505  30.239  34.228  1.00  0.00    -0.206 F 
ATOM     84  C   UNL A   1      45.981  27.702  36.770  1.00  0.00     0.006 A 
ENDBRANCH  56  77
BRANCH  68  85
ATOM     85  C   UNL A   1      39.647  34.356  36.567  1.00  0.00     0.057 A 
ATOM     86  C   UNL A   1      40.255  35.616  36.535  1.00  0.00     0.134 A 
ATOM     87  C   UNL A   1      38.924  34.011  37.716  1.00  0.00     0.134 A 
ATOM     88  F   UNL A   1      40.968  36.003  35.466  1.00  0.00    -0.206 F 
ATOM     89  C   UNL A   1      40.141  36.506  37.603  1.00  0.00     0.040 A 
ATOM     90  C   UNL A   1      38.782  34.903  38.779  1.00  0.00     0.040 A 
ATOM     91  F   UNL A   1      38.304  32.824  37.799  1.00  0.00    -0.206 F 
ATOM     92  C   UNL A   1      39.394  36.154  38.725  1.00  0.00     0.006 A 
ENDBRANCH  68  85
ENDBRANCH  42  43
ENDBRANCH  34  37
ENDBRANCH  32  33
ENDBRANCH  31  32
ENDBRANCH   1  31
TORSDOF 14
ENDMDL
MODEL 2
REMARK VINA RESULT:     -12.5      2.720      8.383
REMARK SMILES Cc1ccc(Cl)c2c1N[C@@H](c1ccc(C(=O)NCCCCCCNC(=O)c3ccc(-c4c5nc(c(-c6c(F)cccc6F)c6ccc([nH]6)c(-c6c(F)cccc6F)c6nc(c(-c7c(F)cccc7F)c7ccc4[nH]7)C=C6)C=C5)cc3)cc1)[C@H]1CC=C[C@@H]21
REMARK SMILES IDX 21 1 20 2 19 3 18 4 17 5 15 6 16 7 14 9 11 10 12 11 82 12
REMARK SMILES IDX 13 13 81 14 10 15 1 16 2 17 3 18 8 19 4 20 7 21 9 22 5 23
REMARK SMILES IDX 87 24 6 26 83 27 86 28 84 29 85 30 22 31 23 32 24 33 25 34
REMARK SMILES IDX 26 36 27 37 28 38 80 39 29 40 79 41 30 42 31 43 32 44 73 45
REMARK SMILES IDX 33 46 78 47 72 48 74 49 34 50 77 51 71 52 70 53 35 55 61 56
REMARK SMILES IDX 44 57 60 58 45 59 48 60 59 61 75 62 46 63 47 64 58 66 76 67
REMARK SMILES IDX 49 68 36 69 37 70 42 71 38 72 39 73 41 74 43 75 40 76 62 77
REMARK SMILES IDX 63 78 68 79 64 80 65 81 67 82 69 83 66 84 50 85 51 86 56 87
REMARK SMILES IDX 52 88 53 89 55 90 57 91 54 92
REMARK H PARENT 17 8 9 25 24 35 74 54 48 65
REMARK Flexibility Score: inf
ROOT
ATOM      1  C   UNL A   1      34.516  34.901  28.022  1.00  0.00     0.002 C 
ENDROOT
BRANCH   1   2
ATOM      2  C   UNL A   1      35.149  33.692  28.720  1.00  0.00     0.002 C 
BRANCH   2   3
ATOM      3  C   UNL A   1      34.186  32.525  28.980  1.00  0.00     0.021 C 
BRANCH   3   4
ATOM      4  C   UNL A   1      33.872  31.717  27.719  1.00  0.00     0.116 C 
BRANCH   4   5
ATOM      5  N   UNL A   1      34.968  30.814  27.452  1.00  0.00    -0.352 N 
ATOM      6  C   UNL A   1      35.009  29.464  27.234  1.00  0.00     0.251 C 
ATOM      7  O   UNL A   1      36.121  28.939  27.163  1.00  0.00    -0.269 OA
ATOM      8  H   UNL A   1      35.849  31.252  27.421  1.00  0.00     0.163 HD
BRANCH   6   9
ATOM      9  C   UNL A   1      33.795  28.640  26.982  1.00  0.00     0.039 A 
ATOM     10  C   UNL A   1      31.613  27.053  26.077  1.00  0.00    -0.025 A 
ATOM     11  C   UNL A   1      32.945  26.677  25.843  1.00  0.00     0.006 A 
ATOM     12  C   UNL A   1      31.408  28.167  26.907  1.00  0.00     0.006 A 
ATOM     13  C   UNL A   1      34.015  27.458  26.275  1.00  0.00     0.014 A 
ATOM     14  C   UNL A   1      32.487  28.944  27.363  1.00  0.00     0.014 A 
BRANCH  10  15
ATOM     15  C   UNL A   1      30.419  26.351  25.414  1.00  0.00     0.114 C 
ATOM     16  C   UNL A   1      31.957  22.317  25.635  1.00  0.00     0.046 C 
ATOM     17  C   UNL A   1      32.114  23.188  24.415  1.00  0.00    -0.027 A 
ATOM     18  C   UNL A   1      32.984  22.739  23.412  1.00  0.00     0.007 A 
ATOM     19  C   UNL A   1      31.430  24.416  24.252  1.00  0.00     0.043 A 
ATOM     20  C   UNL A   1      33.195  23.494  22.265  1.00  0.00     0.021 A 
ATOM     21  C   UNL A   1      31.657  25.199  23.088  1.00  0.00     0.001 A 
ATOM     22  N   UNL A   1      30.640  24.916  25.284  1.00  0.00    -0.377 N 
ATOM     23  C   UNL A   1      32.530  24.707  22.096  1.00  0.00     0.046 A 
ATOM     24  C   UNL A   1      30.926  26.513  22.908  1.00  0.00     0.051 C 
ATOM     25  H   UNL A   1      30.230  24.297  25.931  1.00  0.00     0.161 HD
ATOM     26  Cl  UNL A   1      32.815  25.544  20.608  1.00  0.00    -0.084 Cl
ATOM     27  C   UNL A   1      29.932  26.866  24.034  1.00  0.00     0.031 C 
ATOM     28  C   UNL A   1      31.753  27.775  22.859  1.00  0.00    -0.023 C 
ATOM     29  C   UNL A   1      29.765  28.388  23.923  1.00  0.00     0.034 C 
ATOM     30  C   UNL A   1      31.095  28.815  23.390  1.00  0.00    -0.030 C 
ENDBRANCH  10  15
ENDBRANCH   6   9
ENDBRANCH   4   5
ENDBRANCH   3   4
ENDBRANCH   2   3
ENDBRANCH   1   2
BRANCH   1  31
ATOM     31  C   UNL A   1      33.230  35.411  28.672  1.00  0.00     0.021 C 
BRANCH  31  32
ATOM     32  C   UNL A   1      33.462  36.496  29.717  1.00  0.00     0.116 C 
BRANCH  32  33
ATOM     33  N   UNL A   1      32.492  36.406  30.796  1.00  0.00    -0.352 N 
ATOM     34  C   UNL A   1      32.526  35.584  31.896  1.00  0.00     0.251 C 
ATOM     35  H   UNL A   1      31.715  37.008  30.730  1.00  0.00     0.163 HD
ATOM     36  O   UNL A   1      31.544  35.432  32.606  1.00  0.00    -0.269 OA
BRANCH  34  37
ATOM     37  C   UNL A   1      33.783  34.877  32.201  1.00  0.00     0.039 A 
ATOM     38  C   UNL A   1      34.984  35.586  32.194  1.00  0.00     0.014 A 
ATOM     39  C   UNL A   1      33.756  33.513  32.514  1.00  0.00     0.014 A 
ATOM     40  C   UNL A   1      36.167  34.928  32.529  1.00  0.00     0.010 A 
ATOM     41  C   UNL A   1      34.926  32.874  32.902  1.00  0.00     0.010 A 
ATOM     42  C   UNL A   1      36.144  33.571  32.893  1.00  0.00    -0.014 A 
BRANCH  42  43
ATOM     43  C   UNL A   1      37.402  32.845  33.174  1.00  0.00     0.031 A 
ATOM     44  C   UNL A   1      38.144  33.133  34.448  1.00  0.00     0.074 A 
ATOM     45  C   UNL A   1      37.876  31.945  32.294  1.00  0.00     0.049 A 
ATOM     46  N   UNL A   1      39.256  32.608  34.897  1.00  0.00    -0.248 NA
ATOM     47  C   UNL A   1      37.569  34.165  35.328  1.00  0.00     0.031 C 
ATOM     48  C   UNL A   1      37.261  31.603  31.011  1.00  0.00     0.029 A 
ATOM     49  N   UNL A   1      38.993  31.151  32.350  1.00  0.00    -0.354 N 
ATOM     50  C   UNL A   1      39.497  33.228  36.116  1.00  0.00     0.074 A 
ATOM     51  C   UNL A   1      38.465  34.224  36.300  1.00  0.00     0.031 C 
ATOM     52  C   UNL A   1      37.999  30.654  30.410  1.00  0.00     0.029 A 
ATOM     53  C   UNL A   1      39.143  30.333  31.257  1.00  0.00     0.049 A 
ATOM     54  H   UNL A   1      39.628  31.167  33.102  1.00  0.00     0.167 HD
ATOM     55  C   UNL A   1      40.468  32.966  37.022  1.00  0.00     0.037 A 
ATOM     56  C   UNL A   1      40.095  29.422  30.986  1.00  0.00     0.037 A 
ATOM     57  C   UNL A   1      41.500  31.981  36.839  1.00  0.00     0.049 A 
ATOM     58  C   UNL A   1      41.189  29.182  31.991  1.00  0.00     0.074 A 
ATOM     59  C   UNL A   1      42.537  31.643  37.690  1.00  0.00     0.029 A 
ATOM     60  N   UNL A   1      41.617  31.170  35.720  1.00  0.00    -0.354 N 
ATOM     61  N   UNL A   1      41.378  29.741  33.163  1.00  0.00    -0.248 NA
ATOM     62  C   UNL A   1      42.196  28.171  31.639  1.00  0.00     0.031 C 
ATOM     63  C   UNL A   1      43.295  30.639  37.075  1.00  0.00     0.029 A 
ATOM     64  C   UNL A   1      42.710  30.332  35.857  1.00  0.00     0.049 A 
ATOM     65  H   UNL A   1      41.011  31.187  34.944  1.00  0.00     0.167 HD
ATOM     66  C   UNL A   1      42.499  29.123  33.701  1.00  0.00     0.074 A 
ATOM     67  C   UNL A   1      42.937  28.137  32.736  1.00  0.00     0.031 C 
ATOM     68  C   UNL A   1      43.115  29.349  34.887  1.00  0.00     0.037 A 
BRANCH  55  69
ATOM     69  C   UNL A   1      40.431  33.750  38.298  1.00  0.00     0.057 A 
ATOM     70  C   UNL A   1      41.228  34.886  38.476  1.00  0.00     0.134 A 
ATOM     71  C   UNL A   1      39.590  33.376  39.356  1.00  0.00     0.134 A 
ATOM     72  F   UNL A   1      42.053  35.299  37.503  1.00  0.00    -0.206 F 
ATOM     73  C   UNL A   1      41.188  35.625  39.661  1.00  0.00     0.040 A 
ATOM     74  C   UNL A   1      39.524  34.119  40.535  1.00  0.00     0.040 A 
ATOM     75  F   UNL A   1      38.786  32.307  39.239  1.00  0.00    -0.206 F 
ATOM     76  C   UNL A   1      40.328  35.246  40.690  1.00  0.00     0.006 A 
ENDBRANCH  55  69
BRANCH  56  77
ATOM     77  C   UNL A   1      40.055  28.634  29.729  1.00  0.00     0.057 A 
ATOM     78  C   UNL A   1      40.777  29.025  28.597  1.00  0.00     0.134 A 
ATOM     79  C   UNL A   1      39.348  27.426  29.659  1.00  0.00     0.134 A 
ATOM     80  F   UNL A   1      41.471  30.173  28.599  1.00  0.00    -0.206 F 
ATOM     81  C   UNL A   1      40.812  28.237  27.445  1.00  0.00     0.040 A 
ATOM     82  C   UNL A   1      39.393  26.618  28.523  1.00  0.00     0.040 A 
ATOM     83  F   UNL A   1      38.654  26.989  30.720  1.00  0.00    -0.206 F 
ATOM     84  C   UNL A   1      40.129  27.022  27.411  1.00  0.00     0.006 A 
ENDBRANCH  56  77
BRANCH  68  85
ATOM     85  C   UNL A   1      44.293  28.479  35.213  1.00  0.00     0.057 A 
ATOM     86  C   UNL A   1      45.585  28.862  34.831  1.00  0.00     0.134 A 
ATOM     87  C   UNL A   1      44.150  27.270  35.904  1.00  0.00     0.134 A 
ATOM     88  F   UNL A   1      45.787  30.006  34.160  1.00  0.00    -0.206 F 
ATOM     89  C   UNL A   1      46.696  28.075  35.135  1.00  0.00     0.040 A 
ATOM     90  C   UNL A   1      45.256  26.488  36.235  1.00  0.00     0.040 A 
ATOM     91  F   UNL A   1      42.940  26.858  36.311  1.00  0.00    -0.206 F 
ATOM     92  C   UNL A   1      46.534  26.889  35.848  1.00  0.00     0.006 A 
ENDBRANCH  68  85
ENDBRANCH  42  43
ENDBRANCH  34  37
ENDBRANCH  32  33
ENDBRANCH  31  32
ENDBRANCH   1  31
TORSDOF 14
ENDMDL
MODEL 3
REMARK VINA RESULT:     -12.4      4.800      8.561
REMARK SMILES Cc1ccc(Cl)c2c1N[C@@H](c1ccc(C(=O)NCCCCCCNC(=O)c3ccc(-c4c5nc(c(-c6c(F)cccc6F)c6ccc([nH]6)c(-c6c(F)cccc6F)c6nc(c(-c7c(F)cccc7F)c7ccc4[nH]7)C=C6)C=C5)cc3)cc1)[C@H]1CC=C[C@@H]21
REMARK SMILES IDX 21 1 20 2 19 3 18 4 17 5 15 6 16 7 14 9 11 10 12 11 82 12
REMARK SMILES IDX 13 13 81 14 10 15 1 16 2 17 3 18 8 19 4 20 7 21 9 22 5 23
REMARK SMILES IDX 87 24 6 26 83 27 86 28 84 29 85 30 22 31 23 32 24 33 25 34
REMARK SMILES IDX 26 36 27 37 28 38 80 39 29 40 79 41 30 42 31 43 32 44 73 45
REMARK SMILES IDX 33 46 78 47 72 48 74 49 34 50 77 51 71 52 70 53 35 55 61 56
REMARK SMILES IDX 44 57 60 58 45 59 48 60 59 61 75 62 46 63 47 64 58 66 76 67
REMARK SMILES IDX 49 68 36 69 37 70 42 71 38 72 39 73 41 74 43 75 40 76 62 77
REMARK SMILES IDX 63 78 68 79 64 80 65 81 67 82 69 83 66 84 50 85 51 86 56 87
REMARK SMILES IDX 52 88 53 89 55 90 57 91 54 92
REMARK H PARENT 17 8 9 25 24 35 74 54 48 65
REMARK Flexibility Score: inf
ROOT
ATOM      1  C   UNL A   1      36.670  19.326  25.001  1.00  0.00     0.002 C 
ENDROOT
BRANCH   1   2
ATOM      2  C   UNL A   1      35.712  20.519  24.892  1.00  0.00     0.002 C 
BRANCH   2   3
ATOM      3  C   UNL A   1      35.671  21.424  26.131  1.00  0.00     0.021 C 
BRANCH   3   4
ATOM      4  C   UNL A   1      36.287  22.801  25.885  1.00  0.00     0.116 C 
BRANCH   4   5
ATOM      5  N   UNL A   1      36.715  22.888  24.507  1.00  0.00    -0.352 N 
ATOM      6  C   UNL A   1      36.020  23.062  23.342  1.00  0.00     0.251 C 
ATOM      7  O   UNL A   1      36.652  22.963  22.289  1.00  0.00    -0.269 OA
ATOM      8  H   UNL A   1      37.689  22.806  24.385  1.00  0.00     0.163 HD
BRANCH   6   9
ATOM      9  C   UNL A   1      34.586  23.461  23.298  1.00  0.00     0.039 A 
ATOM     10  C   UNL A   1      31.924  24.418  23.606  1.00  0.00    -0.025 A 
ATOM     11  C   UNL A   1      33.030  25.277  23.693  1.00  0.00     0.006 A 
ATOM     12  C   UNL A   1      32.181  23.095  23.211  1.00  0.00     0.006 A 
ATOM     13  C   UNL A   1      34.336  24.809  23.554  1.00  0.00     0.014 A 
ATOM     14  C   UNL A   1      33.496  22.626  23.048  1.00  0.00     0.014 A 
BRANCH  10  15
ATOM     15  C   UNL A   1      30.501  24.850  23.989  1.00  0.00     0.114 C 
ATOM     16  C   UNL A   1      30.595  28.761  22.152  1.00  0.00     0.046 C 
ATOM     17  C   UNL A   1      30.910  28.532  23.607  1.00  0.00    -0.027 A 
ATOM     18  C   UNL A   1      31.468  29.602  24.321  1.00  0.00     0.007 A 
ATOM     19  C   UNL A   1      30.670  27.301  24.264  1.00  0.00     0.043 A 
ATOM     20  C   UNL A   1      31.802  29.464  25.662  1.00  0.00     0.021 A 
ATOM     21  C   UNL A   1      31.027  27.151  25.630  1.00  0.00     0.001 A 
ATOM     22  N   UNL A   1      30.208  26.205  23.540  1.00  0.00    -0.377 N 
ATOM     23  C   UNL A   1      31.574  28.255  26.317  1.00  0.00     0.046 A 
ATOM     24  C   UNL A   1      30.770  25.837  26.338  1.00  0.00     0.051 C 
ATOM     25  H   UNL A   1      29.682  26.346  22.720  1.00  0.00     0.161 HD
ATOM     26  Cl  UNL A   1      31.970  28.201  28.001  1.00  0.00    -0.084 Cl
ATOM     27  C   UNL A   1      30.077  24.758  25.478  1.00  0.00     0.031 C 
ATOM     28  C   UNL A   1      31.966  25.065  26.843  1.00  0.00    -0.023 C 
ATOM     29  C   UNL A   1      30.425  23.438  26.180  1.00  0.00     0.034 C 
ATOM     30  C   UNL A   1      31.758  23.743  26.785  1.00  0.00    -0.030 C 
ENDBRANCH  10  15
ENDBRANCH   6   9
ENDBRANCH   4   5
ENDBRANCH   3   4
ENDBRANCH   2   3
ENDBRANCH   1   2
BRANCH   1  31
ATOM     31  C   UNL A   1      38.116  19.634  24.611  1.00  0.00     0.021 C 
BRANCH  31  32
ATOM     32  C   UNL A   1      39.026  19.902  25.804  1.00  0.00     0.116 C 
BRANCH  32  33
ATOM     33  N   UNL A   1      40.138  18.967  25.841  1.00  0.00    -0.352 N 
ATOM     34  C   UNL A   1      41.476  19.250  25.968  1.00  0.00     0.251 C 
ATOM     35  H   UNL A   1      39.903  18.013  25.765  1.00  0.00     0.163 HD
ATOM     36  O   UNL A   1      42.328  18.403  25.750  1.00  0.00    -0.269 OA
BRANCH  34  37
ATOM     37  C   UNL A   1      41.866  20.613  26.370  1.00  0.00     0.039 A 
ATOM     38  C   UNL A   1      42.023  20.907  27.725  1.00  0.00     0.014 A 
ATOM     39  C   UNL A   1      42.094  21.589  25.393  1.00  0.00     0.014 A 
ATOM     40  C   UNL A   1      42.439  22.183  28.103  1.00  0.00     0.010 A 
ATOM     41  C   UNL A   1      42.562  22.842  25.769  1.00  0.00     0.010 A 
ATOM     42  C   UNL A   1      42.718  23.155  27.128  1.00  0.00    -0.014 A 
BRANCH  42  43
ATOM     43  C   UNL A   1      43.083  24.534  27.521  1.00  0.00     0.031 A 
ATOM     44  C   UNL A   1      44.525  24.955  27.459  1.00  0.00     0.074 A 
ATOM     45  C   UNL A   1      42.136  25.394  27.935  1.00  0.00     0.049 A 
ATOM     46  N   UNL A   1      45.063  26.112  27.747  1.00  0.00    -0.248 NA
ATOM     47  C   UNL A   1      45.493  23.930  27.033  1.00  0.00     0.031 C 
ATOM     48  C   UNL A   1      40.710  25.091  28.067  1.00  0.00     0.029 A 
ATOM     49  N   UNL A   1      42.235  26.705  28.325  1.00  0.00    -0.354 N 
ATOM     50  C   UNL A   1      46.424  25.960  27.516  1.00  0.00     0.074 A 
ATOM     51  C   UNL A   1      46.641  24.580  27.143  1.00  0.00     0.031 C 
ATOM     52  C   UNL A   1      40.065  26.193  28.487  1.00  0.00     0.029 A 
ATOM     53  C   UNL A   1      41.032  27.270  28.669  1.00  0.00     0.049 A 
ATOM     54  H   UNL A   1      43.089  27.194  28.356  1.00  0.00     0.167 HD
ATOM     55  C   UNL A   1      47.401  26.894  27.571  1.00  0.00     0.037 A 
ATOM     56  C   UNL A   1      40.752  28.523  29.073  1.00  0.00     0.037 A 
ATOM     57  C   UNL A   1      47.190  28.265  27.948  1.00  0.00     0.049 A 
ATOM     58  C   UNL A   1      41.866  29.530  29.168  1.00  0.00     0.074 A 
ATOM     59  C   UNL A   1      48.113  29.290  28.045  1.00  0.00     0.029 A 
ATOM     60  N   UNL A   1      45.957  28.801  28.286  1.00  0.00    -0.354 N 
ATOM     61  N   UNL A   1      43.142  29.385  28.899  1.00  0.00    -0.248 NA
ATOM     62  C   UNL A   1      41.495  30.882  29.609  1.00  0.00     0.031 C 
ATOM     63  C   UNL A   1      47.440  30.445  28.463  1.00  0.00     0.029 A 
ATOM     64  C   UNL A   1      46.094  30.143  28.595  1.00  0.00     0.049 A 
ATOM     65  H   UNL A   1      45.109  28.301  28.304  1.00  0.00     0.167 HD
ATOM     66  C   UNL A   1      43.716  30.634  29.103  1.00  0.00     0.074 A 
ATOM     67  C   UNL A   1      42.647  31.525  29.501  1.00  0.00     0.031 C 
ATOM     68  C   UNL A   1      45.011  31.012  28.973  1.00  0.00     0.037 A 
BRANCH  55  69
ATOM     69  C   UNL A   1      48.781  26.451  27.188  1.00  0.00     0.057 A 
ATOM     70  C   UNL A   1      49.681  25.967  28.144  1.00  0.00     0.134 A 
ATOM     71  C   UNL A   1      49.215  26.499  25.856  1.00  0.00     0.134 A 
ATOM     72  F   UNL A   1      49.327  25.892  29.436  1.00  0.00    -0.206 F 
ATOM     73  C   UNL A   1      50.963  25.544  27.789  1.00  0.00     0.040 A 
ATOM     74  C   UNL A   1      50.486  26.058  25.485  1.00  0.00     0.040 A 
ATOM     75  F   UNL A   1      48.393  26.935  24.888  1.00  0.00    -0.206 F 
ATOM     76  C   UNL A   1      51.365  25.581  26.455  1.00  0.00     0.006 A 
ENDBRANCH  55  69
BRANCH  56  77
ATOM     77  C   UNL A   1      39.358  28.924  29.389  1.00  0.00     0.057 A 
ATOM     78  C   UNL A   1      38.513  29.464  28.415  1.00  0.00     0.134 A 
ATOM     79  C   UNL A   1      38.818  28.704  30.664  1.00  0.00     0.134 A 
ATOM     80  F   UNL A   1      38.971  29.703  27.177  1.00  0.00    -0.206 F 
ATOM     81  C   UNL A   1      37.176  29.758  28.690  1.00  0.00     0.040 A 
ATOM     82  C   UNL A   1      37.478  28.970  30.945  1.00  0.00     0.040 A 
ATOM     83  F   UNL A   1      39.575  28.168  31.633  1.00  0.00    -0.206 F 
ATOM     84  C   UNL A   1      36.652  29.497  29.955  1.00  0.00     0.006 A 
ENDBRANCH  56  77
BRANCH  68  85
ATOM     85  C   UNL A   1      45.320  32.459  29.221  1.00  0.00     0.057 A 
ATOM     86  C   UNL A   1      45.708  32.894  30.494  1.00  0.00     0.134 A 
ATOM     87  C   UNL A   1      45.236  33.417  28.203  1.00  0.00     0.134 A 
ATOM     88  F   UNL A   1      45.799  32.026  31.513  1.00  0.00    -0.206 F 
ATOM     89  C   UNL A   1      46.012  34.232  30.744  1.00  0.00     0.040 A 
ATOM     90  C   UNL A   1      45.562  34.753  28.436  1.00  0.00     0.040 A 
ATOM     91  F   UNL A   1      44.886  33.059  26.959  1.00  0.00    -0.206 F 
ATOM     92  C   UNL A   1      45.949  35.165  29.710  1.00  0.00     0.006 A 
ENDBRANCH  68  85
ENDBRANCH  42  43
ENDBRANCH  34  37
ENDBRANCH  32  33
ENDBRANCH  31  32
ENDBRANCH   1  31
TORSDOF 14
ENDMDL
