MODEL 1
REMARK VINA RESULT:     -10.8      0.000      0.000
REMARK SMILES C/C(=C/C[N@H+]1C[C@H]2CCC[N@H+]2C[C@@H]1C)C(=O)NCCCCCCNC(=O)c1ccc(-c2c3nc(c(-c4c(F)cccc4F)c4ccc([nH]4)c(-c4c(F)cccc4F)c4nc(c(-c5c(F)cccc5F)c5ccc2[nH]5)C=C4)C=C3)cc1
REMARK SMILES IDX 20 1 19 2 18 3 17 4 15 5 16 6 2 8 1 9 3 10 4 11 5 12 6 13
REMARK SMILES IDX 13 14 7 16 12 17 14 18 8 19 11 20 9 21 10 22 21 24 22 25
REMARK SMILES IDX 23 26 24 27 25 28 26 30 27 31 28 32 80 33 29 34 79 35 30 36
REMARK SMILES IDX 31 37 32 38 73 39 33 40 78 41 72 42 74 43 34 44 77 45 71 46
REMARK SMILES IDX 70 47 35 49 61 50 44 51 60 52 45 53 48 54 59 55 75 56 46 57
REMARK SMILES IDX 47 58 58 60 76 61 49 62 36 63 37 64 42 65 38 66 39 67 41 68
REMARK SMILES IDX 43 69 40 70 62 71 63 72 68 73 64 74 65 75 67 76 69 77 66 78
REMARK SMILES IDX 50 79 51 80 56 81 52 82 53 83 55 84 57 85 54 86
REMARK H PARENT 17 7 5 15 11 23 24 29 74 48 48 59
REMARK Flexibility Score: inf
ROOT
ATOM      1  C   UNL A   1      33.795  30.330  27.387  1.00  0.00     0.002 C 
ENDROOT
BRANCH   1   2
ATOM      2  C   UNL A   1      34.393  28.955  27.056  1.00  0.00     0.021 C 
BRANCH   2   3
ATOM      3  C   UNL A   1      33.418  27.855  26.654  1.00  0.00     0.116 C 
BRANCH   3   4
ATOM      4  N   UNL A   1      33.921  26.756  25.860  1.00  0.00    -0.352 N 
ATOM      5  C   UNL A   1      33.299  25.748  25.174  1.00  0.00     0.246 C 
ATOM      6  O   UNL A   1      34.042  24.985  24.547  1.00  0.00    -0.270 OA
ATOM      7  H   UNL A   1      34.903  26.728  25.800  1.00  0.00     0.163 HD
BRANCH   5   8
ATOM      8  C   UNL A   1      31.804  25.439  25.188  1.00  0.00     0.015 C 
ATOM      9  C   UNL A   1      31.415  24.668  26.432  1.00  0.00     0.050 C 
ATOM     10  C   UNL A   1      30.863  25.650  24.233  1.00  0.00     0.042 C 
BRANCH  10  11
ATOM     11  C   UNL A   1      31.126  26.320  22.937  1.00  0.00     0.292 C 
BRANCH  11  12
ATOM     12  N   UNL A   1      30.738  27.694  22.635  1.00  0.00    -0.320 N 
ATOM     13  C   UNL A   1      29.299  27.950  22.837  1.00  0.00     0.328 C 
ATOM     14  C   UNL A   1      31.536  28.568  23.560  1.00  0.00     0.237 C 
ATOM     15  H   UNL A   1      30.920  27.884  21.649  1.00  0.00     0.348 HD
ATOM     16  C   UNL A   1      28.977  29.450  22.598  1.00  0.00     0.240 C 
ATOM     17  C   UNL A   1      30.821  29.800  24.166  1.00  0.00     0.328 C 
ATOM     18  C   UNL A   1      32.881  28.908  22.904  1.00  0.00     0.081 C 
ATOM     19  C   UNL A   1      27.554  29.838  22.993  1.00  0.00     0.077 C 
ATOM     20  N   UNL A   1      29.853  30.435  23.280  1.00  0.00    -0.323 N 
ATOM     21  C   UNL A   1      27.675  31.320  23.300  1.00  0.00     0.068 C 
ATOM     22  C   UNL A   1      29.012  31.393  24.006  1.00  0.00     0.263 C 
ATOM     23  H   UNL A   1      30.403  30.925  22.574  1.00  0.00     0.348 HD
ENDBRANCH  11  12
ENDBRANCH  10  11
ENDBRANCH   5   8
ENDBRANCH   3   4
ENDBRANCH   2   3
ENDBRANCH   1   2
BRANCH   1  24
ATOM     24  C   UNL A   1      32.275  30.522  27.274  1.00  0.00     0.002 C 
BRANCH  24  25
ATOM     25  C   UNL A   1      31.746  31.937  27.036  1.00  0.00     0.021 C 
BRANCH  25  26
ATOM     26  C   UNL A   1      32.779  33.041  26.850  1.00  0.00     0.116 C 
BRANCH  26  27
ATOM     27  N   UNL A   1      32.520  34.220  27.653  1.00  0.00    -0.352 N 
ATOM     28  C   UNL A   1      33.127  34.649  28.805  1.00  0.00     0.251 C 
ATOM     29  H   UNL A   1      31.798  34.800  27.321  1.00  0.00     0.163 HD
ATOM     30  O   UNL A   1      32.674  35.634  29.396  1.00  0.00    -0.269 OA
BRANCH  28  31
ATOM     31  C   UNL A   1      34.303  33.945  29.367  1.00  0.00     0.039 A 
ATOM     32  C   UNL A   1      35.582  34.358  28.976  1.00  0.00     0.014 A 
ATOM     33  C   UNL A   1      34.165  32.856  30.231  1.00  0.00     0.014 A 
ATOM     34  C   UNL A   1      36.713  33.704  29.472  1.00  0.00     0.010 A 
ATOM     35  C   UNL A   1      35.294  32.262  30.794  1.00  0.00     0.010 A 
ATOM     36  C   UNL A   1      36.580  32.661  30.401  1.00  0.00    -0.014 A 
BRANCH  36  37
ATOM     37  C   UNL A   1      37.770  31.938  30.923  1.00  0.00     0.031 A 
ATOM     38  C   UNL A   1      38.327  32.288  32.279  1.00  0.00     0.074 A 
ATOM     39  C   UNL A   1      38.369  30.994  30.171  1.00  0.00     0.049 A 
ATOM     40  N   UNL A   1      39.381  31.812  32.890  1.00  0.00    -0.248 NA
ATOM     41  C   UNL A   1      37.618  33.333  33.036  1.00  0.00     0.031 C 
ATOM     42  C   UNL A   1      37.950  30.585  28.830  1.00  0.00     0.029 A 
ATOM     43  N   UNL A   1      39.465  30.207  30.430  1.00  0.00    -0.354 N 
ATOM     44  C   UNL A   1      39.466  32.505  34.093  1.00  0.00     0.074 A 
ATOM     45  C   UNL A   1      38.399  33.481  34.095  1.00  0.00     0.031 C 
ATOM     46  C   UNL A   1      38.758  29.604  28.396  1.00  0.00     0.029 A 
ATOM     47  C   UNL A   1      39.775  29.341  29.410  1.00  0.00     0.049 A 
ATOM     48  H   UNL A   1      39.980  30.260  31.268  1.00  0.00     0.167 HD
ATOM     49  C   UNL A   1      40.333  32.326  35.118  1.00  0.00     0.037 A 
ATOM     50  C   UNL A   1      40.769  28.438  29.304  1.00  0.00     0.037 A 
ATOM     51  C   UNL A   1      41.381  31.338  35.124  1.00  0.00     0.049 A 
ATOM     52  C   UNL A   1      41.733  28.272  30.449  1.00  0.00     0.074 A 
ATOM     53  C   UNL A   1      42.290  31.051  36.126  1.00  0.00     0.029 A 
ATOM     54  N   UNL A   1      41.654  30.473  34.076  1.00  0.00    -0.354 N 
ATOM     55  N   UNL A   1      41.769  28.898  31.600  1.00  0.00    -0.248 NA
ATOM     56  C   UNL A   1      42.789  27.263  30.283  1.00  0.00     0.031 C 
ATOM     57  C   UNL A   1      43.144  30.044  35.666  1.00  0.00     0.029 A 
ATOM     58  C   UNL A   1      42.729  29.663  34.401  1.00  0.00     0.049 A 
ATOM     59  H   UNL A   1      41.159  30.441  33.225  1.00  0.00     0.167 HD
ATOM     60  C   UNL A   1      42.820  28.332  32.311  1.00  0.00     0.074 A 
ATOM     61  C   UNL A   1      43.389  27.305  31.463  1.00  0.00     0.031 C 
ATOM     62  C   UNL A   1      43.272  28.631  33.554  1.00  0.00     0.037 A 
BRANCH  49  63
ATOM     63  C   UNL A   1      40.179  33.214  36.320  1.00  0.00     0.057 A 
ATOM     64  C   UNL A   1      40.907  34.405  36.457  1.00  0.00     0.134 A 
ATOM     65  C   UNL A   1      39.272  32.895  37.338  1.00  0.00     0.134 A 
ATOM     66  F   UNL A   1      41.803  34.766  35.524  1.00  0.00    -0.206 F 
ATOM     67  C   UNL A   1      40.762  35.228  37.576  1.00  0.00     0.040 A 
ATOM     68  C   UNL A   1      39.094  33.726  38.446  1.00  0.00     0.040 A 
ATOM     69  F   UNL A   1      38.536  31.775  37.269  1.00  0.00    -0.206 F 
ATOM     70  C   UNL A   1      39.847  34.892  38.571  1.00  0.00     0.006 A 
ENDBRANCH  49  63
BRANCH  50  71
ATOM     71  C   UNL A   1      40.893  27.597  28.086  1.00  0.00     0.057 A 
ATOM     72  C   UNL A   1      41.613  28.042  26.969  1.00  0.00     0.134 A 
ATOM     73  C   UNL A   1      40.277  26.344  27.993  1.00  0.00     0.134 A 
ATOM     74  F   UNL A   1      42.212  29.243  26.988  1.00  0.00    -0.206 F 
ATOM     75  C   UNL A   1      41.690  27.289  25.797  1.00  0.00     0.040 A 
ATOM     76  C   UNL A   1      40.370  25.565  26.838  1.00  0.00     0.040 A 
ATOM     77  F   UNL A   1      39.580  25.853  29.030  1.00  0.00    -0.206 F 
ATOM     78  C   UNL A   1      41.068  26.043  25.731  1.00  0.00     0.006 A 
ENDBRANCH  50  71
BRANCH  62  79
ATOM     79  C   UNL A   1      44.396  27.798  34.098  1.00  0.00     0.057 A 
ATOM     80  C   UNL A   1      44.175  26.585  34.759  1.00  0.00     0.134 A 
ATOM     81  C   UNL A   1      45.726  28.207  33.924  1.00  0.00     0.134 A 
ATOM     82  F   UNL A   1      42.926  26.141  34.967  1.00  0.00    -0.206 F 
ATOM     83  C   UNL A   1      45.234  25.820  35.254  1.00  0.00     0.040 A 
ATOM     84  C   UNL A   1      46.793  27.437  34.386  1.00  0.00     0.040 A 
ATOM     85  F   UNL A   1      46.009  29.355  33.289  1.00  0.00    -0.206 F 
ATOM     86  C   UNL A   1      46.548  26.243  35.062  1.00  0.00     0.006 A 
ENDBRANCH  62  79
ENDBRANCH  36  37
ENDBRANCH  28  31
ENDBRANCH  26  27
ENDBRANCH  25  26
ENDBRANCH  24  25
ENDBRANCH   1  24
TORSDOF 15
ENDMDL
MODEL 2
REMARK VINA RESULT:     -10.8      2.374      4.236
REMARK SMILES C/C(=C/C[N@H+]1C[C@H]2CCC[N@H+]2C[C@@H]1C)C(=O)NCCCCCCNC(=O)c1ccc(-c2c3nc(c(-c4c(F)cccc4F)c4ccc([nH]4)c(-c4c(F)cccc4F)c4nc(c(-c5c(F)cccc5F)c5ccc2[nH]5)C=C4)C=C3)cc1
REMARK SMILES IDX 20 1 19 2 18 3 17 4 15 5 16 6 2 8 1 9 3 10 4 11 5 12 6 13
REMARK SMILES IDX 13 14 7 16 12 17 14 18 8 19 11 20 9 21 10 22 21 24 22 25
REMARK SMILES IDX 23 26 24 27 25 28 26 30 27 31 28 32 80 33 29 34 79 35 30 36
REMARK SMILES IDX 31 37 32 38 73 39 33 40 78 41 72 42 74 43 34 44 77 45 71 46
REMARK SMILES IDX 70 47 35 49 61 50 44 51 60 52 45 53 48 54 59 55 75 56 46 57
REMARK SMILES IDX 47 58 58 60 76 61 49 62 36 63 37 64 42 65 38 66 39 67 41 68
REMARK SMILES IDX 43 69 40 70 62 71 63 72 68 73 64 74 65 75 67 76 69 77 66 78
REMARK SMILES IDX 50 79 51 80 56 81 52 82 53 83 55 84 57 85 54 86
REMARK H PARENT 17 7 5 15 11 23 24 29 74 48 48 59
REMARK Flexibility Score: inf
ROOT
ATOM      1  C   UNL A   1      32.402  29.922  26.899  1.00  0.00     0.002 C 
ENDROOT
BRANCH   1   2
ATOM      2  C   UNL A   1      31.916  28.564  27.425  1.00  0.00     0.021 C 
BRANCH   2   3
ATOM      3  C   UNL A   1      31.628  27.484  26.389  1.00  0.00     0.116 C 
BRANCH   3   4
ATOM      4  N   UNL A   1      31.224  26.178  26.862  1.00  0.00    -0.352 N 
ATOM      5  C   UNL A   1      31.031  24.982  26.225  1.00  0.00     0.246 C 
ATOM      6  O   UNL A   1      30.725  24.028  26.951  1.00  0.00    -0.270 OA
ATOM      7  H   UNL A   1      31.056  26.142  27.831  1.00  0.00     0.163 HD
BRANCH   5   8
ATOM      8  C   UNL A   1      31.073  24.747  24.718  1.00  0.00     0.015 C 
ATOM      9  C   UNL A   1      29.902  25.412  24.027  1.00  0.00     0.050 C 
ATOM     10  C   UNL A   1      31.907  23.970  23.981  1.00  0.00     0.042 C 
BRANCH  10  11
ATOM     11  C   UNL A   1      33.044  23.203  24.543  1.00  0.00     0.292 C 
BRANCH  11  12
ATOM     12  N   UNL A   1      32.979  21.789  24.898  1.00  0.00    -0.320 N 
ATOM     13  C   UNL A   1      32.623  20.919  23.762  1.00  0.00     0.328 C 
ATOM     14  C   UNL A   1      34.346  21.421  25.401  1.00  0.00     0.237 C 
ATOM     15  H   UNL A   1      32.246  21.653  25.595  1.00  0.00     0.348 HD
ATOM     16  C   UNL A   1      32.674  19.426  24.186  1.00  0.00     0.240 C 
ATOM     17  C   UNL A   1      34.899  20.031  25.002  1.00  0.00     0.328 C 
ATOM     18  C   UNL A   1      34.424  21.695  26.908  1.00  0.00     0.081 C 
ATOM     19  C   UNL A   1      32.527  18.455  23.016  1.00  0.00     0.077 C 
ATOM     20  N   UNL A   1      33.891  18.982  24.910  1.00  0.00    -0.323 N 
ATOM     21  C   UNL A   1      33.233  17.207  23.515  1.00  0.00     0.068 C 
ATOM     22  C   UNL A   1      34.424  17.785  24.250  1.00  0.00     0.263 C 
ATOM     23  H   UNL A   1      33.634  18.759  25.872  1.00  0.00     0.348 HD
ENDBRANCH  11  12
ENDBRANCH  10  11
ENDBRANCH   5   8
ENDBRANCH   3   4
ENDBRANCH   2   3
ENDBRANCH   1   2
BRANCH   1  24
ATOM     24  C   UNL A   1      31.409  30.819  26.143  1.00  0.00     0.002 C 
BRANCH  24  25
ATOM     25  C   UNL A   1      31.355  32.302  26.517  1.00  0.00     0.021 C 
BRANCH  25  26
ATOM     26  C   UNL A   1      32.670  32.969  26.899  1.00  0.00     0.116 C 
BRANCH  26  27
ATOM     27  N   UNL A   1      32.500  34.212  27.626  1.00  0.00    -0.352 N 
ATOM     28  C   UNL A   1      33.163  34.683  28.730  1.00  0.00     0.251 C 
ATOM     29  H   UNL A   1      31.801  34.809  27.273  1.00  0.00     0.163 HD
ATOM     30  O   UNL A   1      32.783  35.730  29.262  1.00  0.00    -0.269 OA
BRANCH  28  31
ATOM     31  C   UNL A   1      34.315  33.953  29.308  1.00  0.00     0.039 A 
ATOM     32  C   UNL A   1      35.608  34.330  28.928  1.00  0.00     0.014 A 
ATOM     33  C   UNL A   1      34.140  32.874  30.179  1.00  0.00     0.014 A 
ATOM     34  C   UNL A   1      36.716  33.651  29.441  1.00  0.00     0.010 A 
ATOM     35  C   UNL A   1      35.246  32.254  30.757  1.00  0.00     0.010 A 
ATOM     36  C   UNL A   1      36.546  32.617  30.375  1.00  0.00    -0.014 A 
BRANCH  36  37
ATOM     37  C   UNL A   1      37.711  31.867  30.914  1.00  0.00     0.031 A 
ATOM     38  C   UNL A   1      38.229  32.176  32.296  1.00  0.00     0.074 A 
ATOM     39  C   UNL A   1      38.324  30.937  30.157  1.00  0.00     0.049 A 
ATOM     40  N   UNL A   1      39.259  31.672  32.927  1.00  0.00    -0.248 NA
ATOM     41  C   UNL A   1      37.508  33.209  33.058  1.00  0.00     0.031 C 
ATOM     42  C   UNL A   1      37.942  30.567  28.793  1.00  0.00     0.029 A 
ATOM     43  N   UNL A   1      39.403  30.131  30.429  1.00  0.00    -0.354 N 
ATOM     44  C   UNL A   1      39.313  32.333  34.149  1.00  0.00     0.074 A 
ATOM     45  C   UNL A   1      38.258  33.320  34.144  1.00  0.00     0.031 C 
ATOM     46  C   UNL A   1      38.754  29.589  28.359  1.00  0.00     0.029 A 
ATOM     47  C   UNL A   1      39.735  29.288  29.396  1.00  0.00     0.049 A 
ATOM     48  H   UNL A   1      39.892  30.156  31.283  1.00  0.00     0.167 HD
ATOM     49  C   UNL A   1      40.146  32.117  35.196  1.00  0.00     0.037 A 
ATOM     50  C   UNL A   1      40.723  28.377  29.298  1.00  0.00     0.037 A 
ATOM     51  C   UNL A   1      41.183  31.117  35.208  1.00  0.00     0.049 A 
ATOM     52  C   UNL A   1      41.648  28.170  30.467  1.00  0.00     0.074 A 
ATOM     53  C   UNL A   1      42.057  30.794  36.230  1.00  0.00     0.029 A 
ATOM     54  N   UNL A   1      41.480  30.277  34.146  1.00  0.00    -0.354 N 
ATOM     55  N   UNL A   1      41.655  28.766  31.635  1.00  0.00    -0.248 NA
ATOM     56  C   UNL A   1      42.699  27.154  30.307  1.00  0.00     0.031 C 
ATOM     57  C   UNL A   1      42.914  29.790  35.770  1.00  0.00     0.029 A 
ATOM     58  C   UNL A   1      42.535  29.446  34.483  1.00  0.00     0.049 A 
ATOM     59  H   UNL A   1      41.011  30.272  33.280  1.00  0.00     0.167 HD
ATOM     60  C   UNL A   1      42.677  28.169  32.363  1.00  0.00     0.074 A 
ATOM     61  C   UNL A   1      43.261  27.158  31.507  1.00  0.00     0.031 C 
ATOM     62  C   UNL A   1      43.093  28.430  33.626  1.00  0.00     0.037 A 
BRANCH  49  63
ATOM     63  C   UNL A   1      39.964  32.975  36.415  1.00  0.00     0.057 A 
ATOM     64  C   UNL A   1      39.015  32.668  37.401  1.00  0.00     0.134 A 
ATOM     65  C   UNL A   1      40.765  34.105  36.625  1.00  0.00     0.134 A 
ATOM     66  F   UNL A   1      38.206  31.606  37.258  1.00  0.00    -0.206 F 
ATOM     67  C   UNL A   1      38.848  33.468  38.532  1.00  0.00     0.040 A 
ATOM     68  C   UNL A   1      40.629  34.896  37.768  1.00  0.00     0.040 A 
ATOM     69  F   UNL A   1      41.698  34.456  35.727  1.00  0.00    -0.206 F 
ATOM     70  C   UNL A   1      39.663  34.582  38.722  1.00  0.00     0.006 A 
ENDBRANCH  49  63
BRANCH  50  71
ATOM     71  C   UNL A   1      40.876  27.566  28.062  1.00  0.00     0.057 A 
ATOM     72  C   UNL A   1      40.227  26.333  27.921  1.00  0.00     0.134 A 
ATOM     73  C   UNL A   1      41.692  27.986  27.005  1.00  0.00     0.134 A 
ATOM     74  F   UNL A   1      39.445  25.866  28.905  1.00  0.00    -0.206 F 
ATOM     75  C   UNL A   1      40.406  25.535  26.790  1.00  0.00     0.040 A 
ATOM     76  C   UNL A   1      41.858  27.213  25.855  1.00  0.00     0.040 A 
ATOM     77  F   UNL A   1      42.334  29.163  27.071  1.00  0.00    -0.206 F 
ATOM     78  C   UNL A   1      41.223  25.976  25.751  1.00  0.00     0.006 A 
ENDBRANCH  50  71
BRANCH  62  79
ATOM     79  C   UNL A   1      44.191  27.571  34.183  1.00  0.00     0.057 A 
ATOM     80  C   UNL A   1      43.936  26.345  34.808  1.00  0.00     0.134 A 
ATOM     81  C   UNL A   1      45.530  27.967  34.058  1.00  0.00     0.134 A 
ATOM     82  F   UNL A   1      42.676  25.912  34.969  1.00  0.00    -0.206 F 
ATOM     83  C   UNL A   1      44.970  25.556  35.315  1.00  0.00     0.040 A 
ATOM     84  C   UNL A   1      46.574  27.173  34.533  1.00  0.00     0.040 A 
ATOM     85  F   UNL A   1      45.846  29.126  33.460  1.00  0.00    -0.206 F 
ATOM     86  C   UNL A   1      46.295  25.967  35.172  1.00  0.00     0.006 A 
ENDBRANCH  62  79
ENDBRANCH  36  37
ENDBRANCH  28  31
ENDBRANCH  26  27
ENDBRANCH  25  26
ENDBRANCH  24  25
ENDBRANCH   1  24
TORSDOF 15
ENDMDL
MODEL 3
REMARK VINA RESULT:     -10.7      4.185      9.072
REMARK SMILES C/C(=C/C[N@H+]1C[C@H]2CCC[N@H+]2C[C@@H]1C)C(=O)NCCCCCCNC(=O)c1ccc(-c2c3nc(c(-c4c(F)cccc4F)c4ccc([nH]4)c(-c4c(F)cccc4F)c4nc(c(-c5c(F)cccc5F)c5ccc2[nH]5)C=C4)C=C3)cc1
REMARK SMILES IDX 20 1 19 2 18 3 17 4 15 5 16 6 2 8 1 9 3 10 4 11 5 12 6 13
REMARK SMILES IDX 13 14 7 16 12 17 14 18 8 19 11 20 9 21 10 22 21 24 22 25
REMARK SMILES IDX 23 26 24 27 25 28 26 30 27 31 28 32 80 33 29 34 79 35 30 36
REMARK SMILES IDX 31 37 32 38 73 39 33 40 78 41 72 42 74 43 34 44 77 45 71 46
REMARK SMILES IDX 70 47 35 49 61 50 44 51 60 52 45 53 48 54 59 55 75 56 46 57
REMARK SMILES IDX 47 58 58 60 76 61 49 62 36 63 37 64 42 65 38 66 39 67 41 68
REMARK SMILES IDX 43 69 40 70 62 71 63 72 68 73 64 74 65 75 67 76 69 77 66 78
REMARK SMILES IDX 50 79 51 80 56 81 52 82 53 83 55 84 57 85 54 86
REMARK H PARENT 17 7 5 15 11 23 24 29 74 48 48 59
REMARK Flexibility Score: inf
ROOT
ATOM      1  C   UNL A   1      36.511  21.736  24.829  1.00  0.00     0.002 C 
ENDROOT
BRANCH   1   2
ATOM      2  C   UNL A   1      35.674  22.515  25.854  1.00  0.00     0.021 C 
BRANCH   2   3
ATOM      3  C   UNL A   1      34.678  21.715  26.685  1.00  0.00     0.116 C 
BRANCH   3   4
ATOM      4  N   UNL A   1      33.279  22.069  26.598  1.00  0.00    -0.352 N 
ATOM      5  C   UNL A   1      32.374  22.021  25.572  1.00  0.00     0.246 C 
ATOM      6  O   UNL A   1      31.220  22.361  25.855  1.00  0.00    -0.270 OA
ATOM      7  H   UNL A   1      32.903  22.410  27.441  1.00  0.00     0.163 HD
BRANCH   5   8
ATOM      8  C   UNL A   1      32.680  21.675  24.117  1.00  0.00     0.015 C 
ATOM      9  C   UNL A   1      32.592  20.183  23.878  1.00  0.00     0.050 C 
ATOM     10  C   UNL A   1      33.108  22.471  23.105  1.00  0.00     0.042 C 
BRANCH  10  11
ATOM     11  C   UNL A   1      33.313  23.934  23.225  1.00  0.00     0.292 C 
BRANCH  11  12
ATOM     12  N   UNL A   1      32.679  24.767  24.242  1.00  0.00    -0.320 N 
ATOM     13  C   UNL A   1      33.625  25.662  24.934  1.00  0.00     0.328 C 
ATOM     14  C   UNL A   1      31.647  25.590  23.524  1.00  0.00     0.237 C 
ATOM     15  H   UNL A   1      32.280  24.167  24.964  1.00  0.00     0.348 HD
ATOM     16  C   UNL A   1      32.869  26.588  25.925  1.00  0.00     0.240 C 
ATOM     17  C   UNL A   1      31.478  27.063  23.970  1.00  0.00     0.328 C 
ATOM     18  C   UNL A   1      30.324  24.815  23.475  1.00  0.00     0.081 C 
ATOM     19  C   UNL A   1      33.746  27.686  26.523  1.00  0.00     0.077 C 
ATOM     20  N   UNL A   1      31.672  27.291  25.397  1.00  0.00    -0.323 N 
ATOM     21  C   UNL A   1      32.745  28.772  26.874  1.00  0.00     0.068 C 
ATOM     22  C   UNL A   1      31.792  28.721  25.699  1.00  0.00     0.263 C 
ATOM     23  H   UNL A   1      30.843  26.910  25.854  1.00  0.00     0.348 HD
ENDBRANCH  11  12
ENDBRANCH  10  11
ENDBRANCH   5   8
ENDBRANCH   3   4
ENDBRANCH   2   3
ENDBRANCH   1   2
BRANCH   1  24
ATOM     24  C   UNL A   1      36.394  20.205  24.790  1.00  0.00     0.002 C 
BRANCH  24  25
ATOM     25  C   UNL A   1      37.679  19.384  24.917  1.00  0.00     0.021 C 
BRANCH  25  26
ATOM     26  C   UNL A   1      38.826  20.009  25.699  1.00  0.00     0.116 C 
BRANCH  26  27
ATOM     27  N   UNL A   1      40.029  19.199  25.713  1.00  0.00    -0.352 N 
ATOM     28  C   UNL A   1      41.316  19.542  26.038  1.00  0.00     0.251 C 
ATOM     29  H   UNL A   1      39.901  18.260  25.448  1.00  0.00     0.163 HD
ATOM     30  O   UNL A   1      42.220  18.718  25.874  1.00  0.00    -0.269 OA
BRANCH  28  31
ATOM     31  C   UNL A   1      41.648  20.887  26.563  1.00  0.00     0.039 A 
ATOM     32  C   UNL A   1      41.489  21.130  27.932  1.00  0.00     0.014 A 
ATOM     33  C   UNL A   1      42.064  21.922  25.723  1.00  0.00     0.014 A 
ATOM     34  C   UNL A   1      41.775  22.392  28.458  1.00  0.00     0.010 A 
ATOM     35  C   UNL A   1      42.433  23.155  26.261  1.00  0.00     0.010 A 
ATOM     36  C   UNL A   1      42.268  23.412  27.629  1.00  0.00    -0.014 A 
BRANCH  36  37
ATOM     37  C   UNL A   1      42.556  24.769  28.166  1.00  0.00     0.031 A 
ATOM     38  C   UNL A   1      43.961  25.133  28.571  1.00  0.00     0.074 A 
ATOM     39  C   UNL A   1      41.558  25.660  28.321  1.00  0.00     0.049 A 
ATOM     40  N   UNL A   1      44.410  26.241  29.105  1.00  0.00    -0.248 NA
ATOM     41  C   UNL A   1      44.995  24.103  28.375  1.00  0.00     0.031 C 
ATOM     42  C   UNL A   1      40.150  25.421  27.998  1.00  0.00     0.029 A 
ATOM     43  N   UNL A   1      41.575  26.950  28.792  1.00  0.00    -0.354 N 
ATOM     44  C   UNL A   1      45.769  26.035  29.316  1.00  0.00     0.074 A 
ATOM     45  C   UNL A   1      46.058  24.676  28.919  1.00  0.00     0.031 C 
ATOM     46  C   UNL A   1      39.445  26.535  28.253  1.00  0.00     0.029 A 
ATOM     47  C   UNL A   1      40.341  27.554  28.792  1.00  0.00     0.049 A 
ATOM     48  H   UNL A   1      42.395  27.399  29.103  1.00  0.00     0.167 HD
ATOM     49  C   UNL A   1      46.700  26.909  29.770  1.00  0.00     0.037 A 
ATOM     50  C   UNL A   1      39.975  28.789  29.184  1.00  0.00     0.037 A 
ATOM     51  C   UNL A   1      46.414  28.270  30.144  1.00  0.00     0.049 A 
ATOM     52  C   UNL A   1      41.025  29.734  29.704  1.00  0.00     0.074 A 
ATOM     53  C   UNL A   1      47.291  29.246  30.582  1.00  0.00     0.029 A 
ATOM     54  N   UNL A   1      45.153  28.846  30.118  1.00  0.00    -0.354 N 
ATOM     55  N   UNL A   1      42.314  29.543  29.849  1.00  0.00    -0.248 NA
ATOM     56  C   UNL A   1      40.569  31.073  30.105  1.00  0.00     0.031 C 
ATOM     57  C   UNL A   1      46.553  30.399  30.866  1.00  0.00     0.029 A 
ATOM     58  C   UNL A   1      45.226  30.160  30.548  1.00  0.00     0.049 A 
ATOM     59  H   UNL A   1      44.328  28.388  29.837  1.00  0.00     0.167 HD
ATOM     60  C   UNL A   1      42.828  30.747  30.316  1.00  0.00     0.074 A 
ATOM     61  C   UNL A   1      41.713  31.663  30.420  1.00  0.00     0.031 C 
ATOM     62  C   UNL A   1      44.109  31.067  30.627  1.00  0.00     0.037 A 
BRANCH  49  63
ATOM     63  C   UNL A   1      48.115  26.417  29.881  1.00  0.00     0.057 A 
ATOM     64  C   UNL A   1      49.035  26.567  28.832  1.00  0.00     0.134 A 
ATOM     65  C   UNL A   1      48.577  25.815  31.058  1.00  0.00     0.134 A 
ATOM     66  F   UNL A   1      48.656  27.125  27.671  1.00  0.00    -0.206 F 
ATOM     67  C   UNL A   1      50.349  26.108  28.938  1.00  0.00     0.040 A 
ATOM     68  C   UNL A   1      49.898  25.381  31.188  1.00  0.00     0.040 A 
ATOM     69  F   UNL A   1      47.755  25.646  32.105  1.00  0.00    -0.206 F 
ATOM     70  C   UNL A   1      50.785  25.521  30.123  1.00  0.00     0.006 A 
ENDBRANCH  49  63
BRANCH  50  71
ATOM     71  C   UNL A   1      38.558  29.222  29.075  1.00  0.00     0.057 A 
ATOM     72  C   UNL A   1      38.035  29.687  27.861  1.00  0.00     0.134 A 
ATOM     73  C   UNL A   1      37.699  29.209  30.180  1.00  0.00     0.134 A 
ATOM     74  F   UNL A   1      38.811  29.741  26.769  1.00  0.00    -0.206 F 
ATOM     75  C   UNL A   1      36.722  30.150  27.757  1.00  0.00     0.040 A 
ATOM     76  C   UNL A   1      36.375  29.642  30.085  1.00  0.00     0.040 A 
ATOM     77  F   UNL A   1      38.133  28.766  31.370  1.00  0.00    -0.206 F 
ATOM     78  C   UNL A   1      35.887  30.126  28.872  1.00  0.00     0.006 A 
ENDBRANCH  50  71
BRANCH  62  79
ATOM     79  C   UNL A   1      44.384  32.481  31.048  1.00  0.00     0.057 A 
ATOM     80  C   UNL A   1      44.657  33.496  30.125  1.00  0.00     0.134 A 
ATOM     81  C   UNL A   1      44.339  32.835  32.404  1.00  0.00     0.134 A 
ATOM     82  F   UNL A   1      44.724  33.223  28.813  1.00  0.00    -0.206 F 
ATOM     83  C   UNL A   1      44.905  34.808  30.534  1.00  0.00     0.040 A 
ATOM     84  C   UNL A   1      44.555  34.148  32.824  1.00  0.00     0.040 A 
ATOM     85  F   UNL A   1      44.072  31.913  33.342  1.00  0.00    -0.206 F 
ATOM     86  C   UNL A   1      44.847  35.138  31.888  1.00  0.00     0.006 A 
ENDBRANCH  62  79
ENDBRANCH  36  37
ENDBRANCH  28  31
ENDBRANCH  26  27
ENDBRANCH  25  26
ENDBRANCH  24  25
ENDBRANCH   1  24
TORSDOF 15
ENDMDL
