MODEL 1
REMARK VINA RESULT:     -11.2      0.000      0.000
REMARK SMILES CCCn1cc(S(=O)(=O)N[C@H]2C=C[C@@H](C(=O)NCCCCCCNC(=O)c3ccc(-c4c5nc(c(-c6c(F)cccc6F)c6ccc([nH]6)c(-c6c(F)cccc6F)c6nc(c(-c7c(F)cccc7F)c7ccc4[nH]7)C=C6)C=C5)cc3)C2)nc1C
REMARK SMILES IDX 19 1 18 2 17 3 15 4 16 5 14 7 11 8 12 9 81 10 13 11 10 12
REMARK SMILES IDX 7 14 8 15 9 16 6 17 4 18 5 19 83 20 82 21 84 22 3 23 2 24
REMARK SMILES IDX 1 25 20 26 21 27 22 28 23 29 24 30 25 31 26 33 27 34 28 35
REMARK SMILES IDX 80 36 29 37 79 38 30 39 31 40 32 41 73 42 33 43 78 44 72 45
REMARK SMILES IDX 74 46 34 47 77 48 71 49 70 50 35 52 61 53 44 54 60 55 45 56
REMARK SMILES IDX 48 57 59 58 75 59 46 60 47 61 58 63 76 64 49 65 36 66 37 67
REMARK SMILES IDX 42 68 38 69 39 70 41 71 43 72 40 73 62 74 63 75 68 76 64 77
REMARK SMILES IDX 65 78 67 79 69 80 66 81 50 82 51 83 56 84 52 85 53 86 55 87
REMARK SMILES IDX 57 88 54 89
REMARK H PARENT 17 6 10 13 24 32 74 51 48 62
REMARK Flexibility Score: inf
ROOT
ATOM      1  C   UNL A   1      39.432  23.163  26.079  1.00  0.00     0.021 C 
ENDROOT
BRANCH   1   2
ATOM      2  C   UNL A   1      38.086  23.729  26.522  1.00  0.00     0.116 C 
BRANCH   2   3
ATOM      3  N   UNL A   1      37.158  23.889  25.422  1.00  0.00    -0.356 N 
ATOM      4  C   UNL A   1      35.976  23.251  25.188  1.00  0.00     0.226 C 
ATOM      5  O   UNL A   1      35.306  23.630  24.222  1.00  0.00    -0.274 OA
ATOM      6  H   UNL A   1      37.417  24.555  24.746  1.00  0.00     0.163 HD
BRANCH   4   7
ATOM      7  C   UNL A   1      35.450  22.120  26.086  1.00  0.00     0.103 C 
ATOM      8  C   UNL A   1      33.411  21.603  27.372  1.00  0.00     0.093 C 
ATOM      9  C   UNL A   1      33.423  20.926  26.047  1.00  0.00    -0.011 C 
ATOM     10  C   UNL A   1      34.633  22.545  27.317  1.00  0.00     0.042 C 
ATOM     11  C   UNL A   1      34.542  21.178  25.358  1.00  0.00    -0.016 C 
BRANCH   8  12
ATOM     12  N   UNL A   1      32.204  22.323  27.752  1.00  0.00    -0.203 NA
ATOM     13  H   UNL A   1      31.680  21.657  28.319  1.00  0.00     0.142 HD
BRANCH  12  14
ATOM     14  S   UNL A   1      31.051  23.034  26.774  1.00  0.00     0.260 S 
ATOM     15  O   UNL A   1      29.852  23.260  27.557  1.00  0.00    -0.205 OA
ATOM     16  O   UNL A   1      31.015  22.230  25.577  1.00  0.00    -0.205 OA
BRANCH  14  17
ATOM     17  C   UNL A   1      31.536  24.616  26.242  1.00  0.00     0.188 A 
ATOM     18  N   UNL A   1      32.671  26.257  25.325  1.00  0.00    -0.334 N 
ATOM     19  C   UNL A   1      32.389  24.908  25.205  1.00  0.00     0.129 A 
ATOM     20  C   UNL A   1      31.838  26.756  26.305  1.00  0.00     0.107 A 
ATOM     21  N   UNL A   1      31.176  25.775  26.888  1.00  0.00    -0.221 NA
ATOM     22  C   UNL A   1      31.674  28.167  26.739  1.00  0.00     0.088 C 
BRANCH  18  23
ATOM     23  C   UNL A   1      33.742  26.839  24.534  1.00  0.00     0.123 C 
BRANCH  23  24
ATOM     24  C   UNL A   1      33.518  27.300  23.098  1.00  0.00     0.018 C 
ATOM     25  C   UNL A   1      33.879  28.760  22.863  1.00  0.00     0.006 C 
ENDBRANCH  23  24
ENDBRANCH  18  23
ENDBRANCH  14  17
ENDBRANCH  12  14
ENDBRANCH   8  12
ENDBRANCH   4   7
ENDBRANCH   2   3
ENDBRANCH   1   2
BRANCH   1  26
ATOM     26  C   UNL A   1      39.709  21.739  26.561  1.00  0.00     0.002 C 
BRANCH  26  27
ATOM     27  C   UNL A   1      40.836  21.584  27.593  1.00  0.00     0.002 C 
BRANCH  27  28
ATOM     28  C   UNL A   1      41.878  20.486  27.329  1.00  0.00     0.021 C 
BRANCH  28  29
ATOM     29  C   UNL A   1      41.899  19.952  25.902  1.00  0.00     0.116 C 
BRANCH  29  30
ATOM     30  N   UNL A   1      43.249  19.621  25.457  1.00  0.00    -0.352 N 
ATOM     31  C   UNL A   1      44.296  20.462  25.156  1.00  0.00     0.251 C 
ATOM     32  H   UNL A   1      43.439  18.660  25.360  1.00  0.00     0.163 HD
ATOM     33  O   UNL A   1      45.254  20.053  24.506  1.00  0.00    -0.269 OA
BRANCH  31  34
ATOM     34  C   UNL A   1      44.247  21.872  25.585  1.00  0.00     0.039 A 
ATOM     35  C   UNL A   1      43.414  22.766  24.911  1.00  0.00     0.014 A 
ATOM     36  C   UNL A   1      45.012  22.300  26.668  1.00  0.00     0.014 A 
ATOM     37  C   UNL A   1      43.281  24.065  25.396  1.00  0.00     0.010 A 
ATOM     38  C   UNL A   1      44.804  23.557  27.207  1.00  0.00     0.010 A 
ATOM     39  C   UNL A   1      43.946  24.455  26.572  1.00  0.00    -0.014 A 
BRANCH  39  40
ATOM     40  C   UNL A   1      43.619  25.754  27.171  1.00  0.00     0.031 A 
ATOM     41  C   UNL A   1      44.535  26.876  26.813  1.00  0.00     0.074 A 
ATOM     42  C   UNL A   1      42.503  26.051  27.870  1.00  0.00     0.049 A 
ATOM     43  N   UNL A   1      45.326  27.527  27.602  1.00  0.00    -0.248 NA
ATOM     44  C   UNL A   1      44.636  27.272  25.401  1.00  0.00     0.031 C 
ATOM     45  C   UNL A   1      41.319  25.217  28.091  1.00  0.00     0.029 A 
ATOM     46  N   UNL A   1      42.159  27.236  28.465  1.00  0.00    -0.354 N 
ATOM     47  C   UNL A   1      45.895  28.538  26.830  1.00  0.00     0.074 A 
ATOM     48  C   UNL A   1      45.536  28.256  25.464  1.00  0.00     0.031 C 
ATOM     49  C   UNL A   1      40.313  25.982  28.569  1.00  0.00     0.029 A 
ATOM     50  C   UNL A   1      40.830  27.309  28.853  1.00  0.00     0.049 A 
ATOM     51  H   UNL A   1      42.799  27.970  28.607  1.00  0.00     0.167 HD
ATOM     52  C   UNL A   1      46.427  29.650  27.408  1.00  0.00     0.037 A 
ATOM     53  C   UNL A   1      40.182  28.377  29.370  1.00  0.00     0.037 A 
ATOM     54  C   UNL A   1      46.656  29.457  28.816  1.00  0.00     0.049 A 
ATOM     55  C   UNL A   1      41.191  29.267  29.982  1.00  0.00     0.074 A 
ATOM     56  C   UNL A   1      47.436  28.631  29.599  1.00  0.00     0.029 A 
ATOM     57  N   UNL A   1      45.737  30.025  29.657  1.00  0.00    -0.354 N 
ATOM     58  N   UNL A   1      41.862  28.983  31.062  1.00  0.00    -0.248 NA
ATOM     59  C   UNL A   1      41.677  30.418  29.234  1.00  0.00     0.031 C 
ATOM     60  C   UNL A   1      46.699  28.443  30.808  1.00  0.00     0.029 A 
ATOM     61  C   UNL A   1      45.519  29.181  30.712  1.00  0.00     0.049 A 
ATOM     62  H   UNL A   1      45.303  30.899  29.524  1.00  0.00     0.167 HD
ATOM     63  C   UNL A   1      43.080  29.610  30.885  1.00  0.00     0.074 A 
ATOM     64  C   UNL A   1      42.835  30.619  29.866  1.00  0.00     0.031 C 
ATOM     65  C   UNL A   1      44.230  29.044  31.355  1.00  0.00     0.037 A 
BRANCH  52  66
ATOM     66  C   UNL A   1      46.350  31.044  26.819  1.00  0.00     0.057 A 
ATOM     67  C   UNL A   1      47.514  31.839  26.784  1.00  0.00     0.134 A 
ATOM     68  C   UNL A   1      45.145  31.742  26.609  1.00  0.00     0.134 A 
ATOM     69  F   UNL A   1      48.725  31.296  26.985  1.00  0.00    -0.206 F 
ATOM     70  C   UNL A   1      47.471  33.232  26.643  1.00  0.00     0.040 A 
ATOM     71  C   UNL A   1      45.097  33.128  26.414  1.00  0.00     0.040 A 
ATOM     72  F   UNL A   1      43.949  31.148  26.687  1.00  0.00    -0.206 F 
ATOM     73  C   UNL A   1      46.257  33.882  26.467  1.00  0.00     0.006 A 
ENDBRANCH  52  66
BRANCH  53  74
ATOM     74  C   UNL A   1      38.758  28.756  29.267  1.00  0.00     0.057 A 
ATOM     75  C   UNL A   1      37.931  28.786  30.399  1.00  0.00     0.134 A 
ATOM     76  C   UNL A   1      38.243  29.363  28.108  1.00  0.00     0.134 A 
ATOM     77  F   UNL A   1      38.342  28.259  31.560  1.00  0.00    -0.206 F 
ATOM     78  C   UNL A   1      36.683  29.420  30.392  1.00  0.00     0.040 A 
ATOM     79  C   UNL A   1      36.993  29.990  28.085  1.00  0.00     0.040 A 
ATOM     80  F   UNL A   1      38.970  29.444  26.984  1.00  0.00    -0.206 F 
ATOM     81  C   UNL A   1      36.216  30.039  29.236  1.00  0.00     0.006 A 
ENDBRANCH  53  74
BRANCH  65  82
ATOM     82  C   UNL A   1      44.103  28.031  32.456  1.00  0.00     0.057 A 
ATOM     83  C   UNL A   1      44.004  26.647  32.260  1.00  0.00     0.134 A 
ATOM     84  C   UNL A   1      44.154  28.483  33.781  1.00  0.00     0.134 A 
ATOM     85  F   UNL A   1      44.048  26.111  31.034  1.00  0.00    -0.206 F 
ATOM     86  C   UNL A   1      43.893  25.760  33.336  1.00  0.00     0.040 A 
ATOM     87  C   UNL A   1      44.084  27.604  34.863  1.00  0.00     0.040 A 
ATOM     88  F   UNL A   1      44.300  29.791  34.045  1.00  0.00    -0.206 F 
ATOM     89  C   UNL A   1      43.934  26.238  34.643  1.00  0.00     0.006 A 
ENDBRANCH  65  82
ENDBRANCH  39  40
ENDBRANCH  31  34
ENDBRANCH  29  30
ENDBRANCH  28  29
ENDBRANCH  27  28
ENDBRANCH  26  27
ENDBRANCH   1  26
TORSDOF 18
ENDMDL
MODEL 2
REMARK VINA RESULT:     -10.5      2.479      3.804
REMARK SMILES CCCn1cc(S(=O)(=O)N[C@H]2C=C[C@@H](C(=O)NCCCCCCNC(=O)c3ccc(-c4c5nc(c(-c6c(F)cccc6F)c6ccc([nH]6)c(-c6c(F)cccc6F)c6nc(c(-c7c(F)cccc7F)c7ccc4[nH]7)C=C6)C=C5)cc3)C2)nc1C
REMARK SMILES IDX 19 1 18 2 17 3 15 4 16 5 14 7 11 8 12 9 81 10 13 11 10 12
REMARK SMILES IDX 7 14 8 15 9 16 6 17 4 18 5 19 83 20 82 21 84 22 3 23 2 24
REMARK SMILES IDX 1 25 20 26 21 27 22 28 23 29 24 30 25 31 26 33 27 34 28 35
REMARK SMILES IDX 80 36 29 37 79 38 30 39 31 40 32 41 73 42 33 43 78 44 72 45
REMARK SMILES IDX 74 46 34 47 77 48 71 49 70 50 35 52 61 53 44 54 60 55 45 56
REMARK SMILES IDX 48 57 59 58 75 59 46 60 47 61 58 63 76 64 49 65 36 66 37 67
REMARK SMILES IDX 42 68 38 69 39 70 41 71 43 72 40 73 62 74 63 75 68 76 64 77
REMARK SMILES IDX 65 78 67 79 69 80 66 81 50 82 51 83 56 84 52 85 53 86 55 87
REMARK SMILES IDX 57 88 54 89
REMARK H PARENT 17 6 10 13 24 32 74 51 48 62
REMARK Flexibility Score: inf
ROOT
ATOM      1  C   UNL A   1      35.021  23.464  26.262  1.00  0.00     0.021 C 
ENDROOT
BRANCH   1   2
ATOM      2  C   UNL A   1      34.004  22.335  26.404  1.00  0.00     0.116 C 
BRANCH   2   3
ATOM      3  N   UNL A   1      32.830  22.732  27.152  1.00  0.00    -0.356 N 
ATOM      4  C   UNL A   1      31.553  22.931  26.715  1.00  0.00     0.226 C 
ATOM      5  O   UNL A   1      30.692  23.176  27.566  1.00  0.00    -0.274 OA
ATOM      6  H   UNL A   1      32.973  22.879  28.114  1.00  0.00     0.163 HD
BRANCH   4   7
ATOM      7  C   UNL A   1      31.157  22.834  25.233  1.00  0.00     0.103 C 
ATOM      8  C   UNL A   1      31.941  23.713  23.067  1.00  0.00     0.093 C 
ATOM      9  C   UNL A   1      32.428  22.330  23.319  1.00  0.00    -0.011 C 
ATOM     10  C   UNL A   1      31.283  24.121  24.403  1.00  0.00     0.042 C 
ATOM     11  C   UNL A   1      31.980  21.836  24.479  1.00  0.00    -0.016 C 
BRANCH   8  12
ATOM     12  N   UNL A   1      32.915  24.704  22.633  1.00  0.00    -0.203 NA
ATOM     13  H   UNL A   1      33.579  24.762  23.404  1.00  0.00     0.142 HD
BRANCH  12  14
ATOM     14  S   UNL A   1      32.668  26.293  22.177  1.00  0.00     0.260 S 
ATOM     15  O   UNL A   1      31.313  26.428  21.679  1.00  0.00    -0.205 OA
ATOM     16  O   UNL A   1      33.800  26.636  21.352  1.00  0.00    -0.205 OA
BRANCH  14  17
ATOM     17  C   UNL A   1      32.750  27.378  23.532  1.00  0.00     0.188 A 
ATOM     18  N   UNL A   1      33.111  28.193  25.539  1.00  0.00    -0.334 N 
ATOM     19  C   UNL A   1      33.579  27.267  24.624  1.00  0.00     0.129 A 
ATOM     20  C   UNL A   1      32.150  28.944  24.896  1.00  0.00     0.107 A 
ATOM     21  N   UNL A   1      31.898  28.443  23.702  1.00  0.00    -0.221 NA
ATOM     22  C   UNL A   1      31.419  30.131  25.408  1.00  0.00     0.088 C 
BRANCH  18  23
ATOM     23  C   UNL A   1      33.608  28.165  26.904  1.00  0.00     0.123 C 
BRANCH  23  24
ATOM     24  C   UNL A   1      34.758  29.058  27.358  1.00  0.00     0.018 C 
ATOM     25  C   UNL A   1      34.386  30.531  27.450  1.00  0.00     0.006 C 
ENDBRANCH  23  24
ENDBRANCH  18  23
ENDBRANCH  14  17
ENDBRANCH  12  14
ENDBRANCH   8  12
ENDBRANCH   4   7
ENDBRANCH   2   3
ENDBRANCH   1   2
BRANCH   1  26
ATOM     26  C   UNL A   1      35.541  23.671  24.840  1.00  0.00     0.002 C 
BRANCH  26  27
ATOM     27  C   UNL A   1      37.038  23.406  24.624  1.00  0.00     0.002 C 
BRANCH  27  28
ATOM     28  C   UNL A   1      37.685  22.311  25.485  1.00  0.00     0.021 C 
BRANCH  28  29
ATOM     29  C   UNL A   1      38.796  22.795  26.409  1.00  0.00     0.116 C 
BRANCH  29  30
ATOM     30  N   UNL A   1      40.094  22.229  26.055  1.00  0.00    -0.352 N 
ATOM     31  C   UNL A   1      41.315  22.853  25.951  1.00  0.00     0.251 C 
ATOM     32  H   UNL A   1      40.096  21.263  25.863  1.00  0.00     0.163 HD
ATOM     33  O   UNL A   1      42.239  22.314  25.348  1.00  0.00    -0.269 OA
BRANCH  31  34
ATOM     34  C   UNL A   1      41.503  24.193  26.536  1.00  0.00     0.039 A 
ATOM     35  C   UNL A   1      41.015  25.312  25.859  1.00  0.00     0.014 A 
ATOM     36  C   UNL A   1      42.144  24.337  27.764  1.00  0.00     0.014 A 
ATOM     37  C   UNL A   1      41.088  26.560  26.473  1.00  0.00     0.010 A 
ATOM     38  C   UNL A   1      42.126  25.558  28.415  1.00  0.00     0.010 A 
ATOM     39  C   UNL A   1      41.609  26.683  27.773  1.00  0.00    -0.014 A 
BRANCH  39  40
ATOM     40  C   UNL A   1      41.475  27.967  28.470  1.00  0.00     0.031 A 
ATOM     41  C   UNL A   1      42.558  28.958  28.204  1.00  0.00     0.074 A 
ATOM     42  C   UNL A   1      40.407  28.379  29.186  1.00  0.00     0.049 A 
ATOM     43  N   UNL A   1      43.426  29.418  29.044  1.00  0.00    -0.248 NA
ATOM     44  C   UNL A   1      42.741  29.441  26.827  1.00  0.00     0.031 C 
ATOM     45  C   UNL A   1      39.105  27.723  29.336  1.00  0.00     0.029 A 
ATOM     46  N   UNL A   1      40.239  29.554  29.869  1.00  0.00    -0.354 N 
ATOM     47  C   UNL A   1      44.156  30.385  28.356  1.00  0.00     0.074 A 
ATOM     48  C   UNL A   1      43.781  30.266  26.970  1.00  0.00     0.031 C 
ATOM     49  C   UNL A   1      38.221  28.595  29.868  1.00  0.00     0.029 A 
ATOM     50  C   UNL A   1      38.930  29.801  30.255  1.00  0.00     0.049 A 
ATOM     51  H   UNL A   1      40.982  30.167  30.070  1.00  0.00     0.167 HD
ATOM     52  C   UNL A   1      44.844  31.354  29.020  1.00  0.00     0.037 A 
ATOM     53  C   UNL A   1      38.446  30.913  30.852  1.00  0.00     0.037 A 
ATOM     54  C   UNL A   1      45.017  31.022  30.410  1.00  0.00     0.049 A 
ATOM     55  C   UNL A   1      39.569  31.589  31.535  1.00  0.00     0.074 A 
ATOM     56  C   UNL A   1      45.649  30.028  31.130  1.00  0.00     0.029 A 
ATOM     57  N   UNL A   1      44.183  31.659  31.289  1.00  0.00    -0.354 N 
ATOM     58  N   UNL A   1      40.172  31.123  32.592  1.00  0.00    -0.248 NA
ATOM     59  C   UNL A   1      40.238  32.704  30.880  1.00  0.00     0.031 C 
ATOM     60  C   UNL A   1      44.873  29.865  32.318  1.00  0.00     0.029 A 
ATOM     61  C   UNL A   1      43.821  30.781  32.274  1.00  0.00     0.049 A 
ATOM     62  H   UNL A   1      43.890  32.597  31.222  1.00  0.00     0.167 HD
ATOM     63  C   UNL A   1      41.475  31.567  32.469  1.00  0.00     0.074 A 
ATOM     64  C   UNL A   1      41.404  32.676  31.531  1.00  0.00     0.031 C 
ATOM     65  C   UNL A   1      42.516  30.796  32.899  1.00  0.00     0.037 A 
BRANCH  52  66
ATOM     66  C   UNL A   1      44.991  32.784  28.541  1.00  0.00     0.057 A 
ATOM     67  C   UNL A   1      43.833  33.566  28.351  1.00  0.00     0.134 A 
ATOM     68  C   UNL A   1      46.161  33.298  27.950  1.00  0.00     0.134 A 
ATOM     69  F   UNL A   1      42.650  33.179  28.852  1.00  0.00    -0.206 F 
ATOM     70  C   UNL A   1      43.826  34.719  27.556  1.00  0.00     0.040 A 
ATOM     71  C   UNL A   1      46.174  34.478  27.197  1.00  0.00     0.040 A 
ATOM     72  F   UNL A   1      47.325  32.639  27.973  1.00  0.00    -0.206 F 
ATOM     73  C   UNL A   1      44.999  35.173  26.967  1.00  0.00     0.006 A 
ENDBRANCH  52  66
BRANCH  53  74
ATOM     74  C   UNL A   1      37.099  31.514  30.772  1.00  0.00     0.057 A 
ATOM     75  C   UNL A   1      36.232  31.502  31.874  1.00  0.00     0.134 A 
ATOM     76  C   UNL A   1      36.733  32.357  29.708  1.00  0.00     0.134 A 
ATOM     77  F   UNL A   1      36.506  30.752  32.951  1.00  0.00    -0.206 F 
ATOM     78  C   UNL A   1      35.091  32.311  31.934  1.00  0.00     0.040 A 
ATOM     79  C   UNL A   1      35.591  33.163  29.750  1.00  0.00     0.040 A 
ATOM     80  F   UNL A   1      37.518  32.493  28.628  1.00  0.00    -0.206 F 
ATOM     81  C   UNL A   1      34.775  33.157  30.875  1.00  0.00     0.006 A 
ENDBRANCH  53  74
BRANCH  65  82
ATOM     82  C   UNL A   1      42.217  29.734  33.917  1.00  0.00     0.057 A 
ATOM     83  C   UNL A   1      41.828  28.422  33.613  1.00  0.00     0.134 A 
ATOM     84  C   UNL A   1      42.402  30.043  35.271  1.00  0.00     0.134 A 
ATOM     85  F   UNL A   1      41.722  28.002  32.347  1.00  0.00    -0.206 F 
ATOM     86  C   UNL A   1      41.571  27.482  34.616  1.00  0.00     0.040 A 
ATOM     87  C   UNL A   1      42.187  29.102  36.279  1.00  0.00     0.040 A 
ATOM     88  F   UNL A   1      42.825  31.264  35.635  1.00  0.00    -0.206 F 
ATOM     89  C   UNL A   1      41.751  27.820  35.954  1.00  0.00     0.006 A 
ENDBRANCH  65  82
ENDBRANCH  39  40
ENDBRANCH  31  34
ENDBRANCH  29  30
ENDBRANCH  28  29
ENDBRANCH  27  28
ENDBRANCH  26  27
ENDBRANCH   1  26
TORSDOF 18
ENDMDL
MODEL 3
REMARK VINA RESULT:     -10.5      2.448      4.050
REMARK SMILES CCCn1cc(S(=O)(=O)N[C@H]2C=C[C@@H](C(=O)NCCCCCCNC(=O)c3ccc(-c4c5nc(c(-c6c(F)cccc6F)c6ccc([nH]6)c(-c6c(F)cccc6F)c6nc(c(-c7c(F)cccc7F)c7ccc4[nH]7)C=C6)C=C5)cc3)C2)nc1C
REMARK SMILES IDX 19 1 18 2 17 3 15 4 16 5 14 7 11 8 12 9 81 10 13 11 10 12
REMARK SMILES IDX 7 14 8 15 9 16 6 17 4 18 5 19 83 20 82 21 84 22 3 23 2 24
REMARK SMILES IDX 1 25 20 26 21 27 22 28 23 29 24 30 25 31 26 33 27 34 28 35
REMARK SMILES IDX 80 36 29 37 79 38 30 39 31 40 32 41 73 42 33 43 78 44 72 45
REMARK SMILES IDX 74 46 34 47 77 48 71 49 70 50 35 52 61 53 44 54 60 55 45 56
REMARK SMILES IDX 48 57 59 58 75 59 46 60 47 61 58 63 76 64 49 65 36 66 37 67
REMARK SMILES IDX 42 68 38 69 39 70 41 71 43 72 40 73 62 74 63 75 68 76 64 77
REMARK SMILES IDX 65 78 67 79 69 80 66 81 50 82 51 83 56 84 52 85 53 86 55 87
REMARK SMILES IDX 57 88 54 89
REMARK H PARENT 17 6 10 13 24 32 74 51 48 62
REMARK Flexibility Score: inf
ROOT
ATOM      1  C   UNL A   1      33.744  21.692  26.179  1.00  0.00     0.021 C 
ENDROOT
BRANCH   1   2
ATOM      2  C   UNL A   1      33.858  23.201  26.373  1.00  0.00     0.116 C 
BRANCH   2   3
ATOM      3  N   UNL A   1      32.568  23.857  26.412  1.00  0.00    -0.356 N 
ATOM      4  C   UNL A   1      31.833  24.382  25.390  1.00  0.00     0.226 C 
ATOM      5  O   UNL A   1      30.706  24.808  25.659  1.00  0.00    -0.274 OA
ATOM      6  H   UNL A   1      32.162  23.935  27.305  1.00  0.00     0.163 HD
BRANCH   4   7
ATOM      7  C   UNL A   1      32.342  24.430  23.940  1.00  0.00     0.103 C 
ATOM      8  C   UNL A   1      32.144  25.911  21.980  1.00  0.00     0.093 C 
ATOM      9  C   UNL A   1      33.410  26.140  22.728  1.00  0.00    -0.011 C 
ATOM     10  C   UNL A   1      31.351  24.941  22.882  1.00  0.00     0.042 C 
ATOM     11  C   UNL A   1      33.536  25.317  23.775  1.00  0.00    -0.016 C 
BRANCH   8  12
ATOM     12  N   UNL A   1      31.347  27.078  21.627  1.00  0.00    -0.203 NA
ATOM     13  H   UNL A   1      32.003  27.700  21.157  1.00  0.00     0.142 HD
BRANCH  12  14
ATOM     14  S   UNL A   1      30.460  28.085  22.622  1.00  0.00     0.260 S 
ATOM     15  O   UNL A   1      29.243  27.400  23.013  1.00  0.00    -0.205 OA
ATOM     16  O   UNL A   1      30.409  29.354  21.936  1.00  0.00    -0.205 OA
BRANCH  14  17
ATOM     17  C   UNL A   1      31.282  28.412  24.117  1.00  0.00     0.188 A 
ATOM     18  N   UNL A   1      32.846  28.898  25.581  1.00  0.00    -0.334 N 
ATOM     19  C   UNL A   1      32.449  29.122  24.274  1.00  0.00     0.129 A 
ATOM     20  C   UNL A   1      31.818  28.223  26.204  1.00  0.00     0.107 A 
ATOM     21  N   UNL A   1      30.887  27.894  25.328  1.00  0.00    -0.221 NA
ATOM     22  C   UNL A   1      31.705  27.840  27.634  1.00  0.00     0.088 C 
BRANCH  18  23
ATOM     23  C   UNL A   1      34.176  29.302  26.005  1.00  0.00     0.123 C 
BRANCH  23  24
ATOM     24  C   UNL A   1      34.397  30.149  27.253  1.00  0.00     0.018 C 
ATOM     25  C   UNL A   1      35.609  29.725  28.070  1.00  0.00     0.006 C 
ENDBRANCH  23  24
ENDBRANCH  18  23
ENDBRANCH  14  17
ENDBRANCH  12  14
ENDBRANCH   8  12
ENDBRANCH   4   7
ENDBRANCH   2   3
ENDBRANCH   1   2
BRANCH   1  26
ATOM     26  C   UNL A   1      34.390  21.168  24.896  1.00  0.00     0.002 C 
BRANCH  26  27
ATOM     27  C   UNL A   1      35.880  20.809  24.989  1.00  0.00     0.002 C 
BRANCH  27  28
ATOM     28  C   UNL A   1      36.884  21.863  24.498  1.00  0.00     0.021 C 
BRANCH  28  29
ATOM     29  C   UNL A   1      37.768  22.461  25.586  1.00  0.00     0.116 C 
BRANCH  29  30
ATOM     30  N   UNL A   1      39.009  21.714  25.761  1.00  0.00    -0.352 N 
ATOM     31  C   UNL A   1      40.208  22.132  26.290  1.00  0.00     0.251 C 
ATOM     32  H   UNL A   1      38.985  20.777  25.458  1.00  0.00     0.163 HD
ATOM     33  O   UNL A   1      41.234  21.491  26.085  1.00  0.00    -0.269 OA
BRANCH  31  34
ATOM     34  C   UNL A   1      40.264  23.377  27.077  1.00  0.00     0.039 A 
ATOM     35  C   UNL A   1      41.388  23.645  27.860  1.00  0.00     0.014 A 
ATOM     36  C   UNL A   1      39.210  24.287  27.022  1.00  0.00     0.014 A 
ATOM     37  C   UNL A   1      41.487  24.875  28.504  1.00  0.00     0.010 A 
ATOM     38  C   UNL A   1      39.353  25.546  27.580  1.00  0.00     0.010 A 
ATOM     39  C   UNL A   1      40.486  25.849  28.334  1.00  0.00    -0.014 A 
BRANCH  39  40
ATOM     40  C   UNL A   1      40.723  27.203  28.848  1.00  0.00     0.031 A 
ATOM     41  C   UNL A   1      41.887  27.921  28.254  1.00  0.00     0.074 A 
ATOM     42  C   UNL A   1      39.909  27.897  29.672  1.00  0.00     0.049 A 
ATOM     43  N   UNL A   1      42.974  28.287  28.851  1.00  0.00    -0.248 NA
ATOM     44  C   UNL A   1      41.873  28.202  26.811  1.00  0.00     0.031 C 
ATOM     45  C   UNL A   1      38.570  27.536  30.144  1.00  0.00     0.029 A 
ATOM     46  N   UNL A   1      40.092  29.149  30.195  1.00  0.00    -0.354 N 
ATOM     47  C   UNL A   1      43.709  29.006  27.912  1.00  0.00     0.074 A 
ATOM     48  C   UNL A   1      43.049  28.813  26.647  1.00  0.00     0.031 C 
ATOM     49  C   UNL A   1      37.978  28.620  30.689  1.00  0.00     0.029 A 
ATOM     50  C   UNL A   1      38.951  29.695  30.765  1.00  0.00     0.049 A 
ATOM     51  H   UNL A   1      40.955  29.620  30.170  1.00  0.00     0.167 HD
ATOM     52  C   UNL A   1      44.675  29.884  28.296  1.00  0.00     0.037 A 
ATOM     53  C   UNL A   1      38.799  30.940  31.268  1.00  0.00     0.037 A 
ATOM     54  C   UNL A   1      45.063  29.680  29.667  1.00  0.00     0.049 A 
ATOM     55  C   UNL A   1      40.138  31.448  31.637  1.00  0.00     0.074 A 
ATOM     56  C   UNL A   1      45.641  28.665  30.402  1.00  0.00     0.029 A 
ATOM     57  N   UNL A   1      44.547  30.564  30.576  1.00  0.00    -0.354 N 
ATOM     58  N   UNL A   1      40.848  30.990  32.628  1.00  0.00    -0.248 NA
ATOM     59  C   UNL A   1      40.847  32.327  30.719  1.00  0.00     0.031 C 
ATOM     60  C   UNL A   1      45.103  28.793  31.719  1.00  0.00     0.029 A 
ATOM     61  C   UNL A   1      44.241  29.890  31.727  1.00  0.00     0.049 A 
ATOM     62  H   UNL A   1      44.416  31.529  30.425  1.00  0.00     0.167 HD
ATOM     63  C   UNL A   1      42.157  31.147  32.215  1.00  0.00     0.074 A 
ATOM     64  C   UNL A   1      42.096  32.138  31.151  1.00  0.00     0.031 C 
ATOM     65  C   UNL A   1      43.112  30.236  32.562  1.00  0.00     0.037 A 
BRANCH  52  66
ATOM     66  C   UNL A   1      44.973  31.195  27.595  1.00  0.00     0.057 A 
ATOM     67  C   UNL A   1      46.244  31.390  27.018  1.00  0.00     0.134 A 
ATOM     68  C   UNL A   1      44.205  32.365  27.757  1.00  0.00     0.134 A 
ATOM     69  F   UNL A   1      47.079  30.358  26.823  1.00  0.00    -0.206 F 
ATOM     70  C   UNL A   1      46.745  32.663  26.714  1.00  0.00     0.040 A 
ATOM     71  C   UNL A   1      44.678  33.635  27.407  1.00  0.00     0.040 A 
ATOM     72  F   UNL A   1      43.010  32.360  28.358  1.00  0.00    -0.206 F 
ATOM     73  C   UNL A   1      45.964  33.793  26.919  1.00  0.00     0.006 A 
ENDBRANCH  52  66
BRANCH  53  74
ATOM     74  C   UNL A   1      37.590  31.787  31.339  1.00  0.00     0.057 A 
ATOM     75  C   UNL A   1      37.077  32.417  30.197  1.00  0.00     0.134 A 
ATOM     76  C   UNL A   1      36.753  31.775  32.468  1.00  0.00     0.134 A 
ATOM     77  F   UNL A   1      37.787  32.457  29.061  1.00  0.00    -0.206 F 
ATOM     78  C   UNL A   1      35.790  32.966  30.165  1.00  0.00     0.040 A 
ATOM     79  C   UNL A   1      35.469  32.330  32.453  1.00  0.00     0.040 A 
ATOM     80  F   UNL A   1      37.117  31.150  33.597  1.00  0.00    -0.206 F 
ATOM     81  C   UNL A   1      34.975  32.910  31.291  1.00  0.00     0.006 A 
ENDBRANCH  53  74
BRANCH  65  82
ATOM     82  C   UNL A   1      42.841  29.374  33.762  1.00  0.00     0.057 A 
ATOM     83  C   UNL A   1      42.148  28.156  33.731  1.00  0.00     0.134 A 
ATOM     84  C   UNL A   1      43.372  29.770  34.996  1.00  0.00     0.134 A 
ATOM     85  F   UNL A   1      41.689  27.644  32.582  1.00  0.00    -0.206 F 
ATOM     86  C   UNL A   1      41.937  27.402  34.889  1.00  0.00     0.040 A 
ATOM     87  C   UNL A   1      43.203  29.006  36.152  1.00  0.00     0.040 A 
ATOM     88  F   UNL A   1      44.093  30.899  35.092  1.00  0.00    -0.206 F 
ATOM     89  C   UNL A   1      42.466  27.826  36.105  1.00  0.00     0.006 A 
ENDBRANCH  65  82
ENDBRANCH  39  40
ENDBRANCH  31  34
ENDBRANCH  29  30
ENDBRANCH  28  29
ENDBRANCH  27  28
ENDBRANCH  26  27
ENDBRANCH   1  26
TORSDOF 18
ENDMDL
