MODEL 1
REMARK VINA RESULT:     -12.6      0.000      0.000
REMARK SMILES O=C(NC1(C(=O)NCCCCCCNC(=O)c2ccc(-c3c4nc(c(-c5c(F)cccc5F)c5ccc([nH]5)c(-c5c(F)cccc5F)c5nc(c(-c6c(F)cccc6F)c6ccc3[nH]6)C=C5)C=C4)cc2)CC[NH2+]CC1)OCC1c2ccccc2-c2ccccc21
REMARK SMILES IDX 9 1 8 2 7 3 5 4 6 5 4 7 71 8 75 9 72 10 74 11 73 12 3 15
REMARK SMILES IDX 1 16 2 17 76 19 77 20 78 21 79 22 90 23 80 24 84 25 85 26
REMARK SMILES IDX 89 27 81 28 83 29 86 30 88 31 82 32 87 33 10 34 11 35 12 36
REMARK SMILES IDX 13 37 14 38 15 39 16 41 17 42 18 43 70 44 19 45 69 46 20 47
REMARK SMILES IDX 21 48 22 49 63 50 23 51 68 52 62 53 64 54 24 55 67 56 61 57
REMARK SMILES IDX 60 58 25 60 51 61 34 62 50 63 35 64 38 65 49 66 65 67 36 68
REMARK SMILES IDX 37 69 48 71 66 72 39 73 26 74 27 75 32 76 28 77 29 78 31 79
REMARK SMILES IDX 33 80 30 81 52 82 53 83 58 84 54 85 55 86 57 87 59 88 56 89
REMARK SMILES IDX 40 90 41 91 46 92 42 93 43 94 45 95 47 96 44 97
REMARK H PARENT 7 6 73 13 73 14 3 18 14 40 64 59 38 70
REMARK Flexibility Score: inf
ROOT
ATOM      1  C   UNL A   1      37.399  23.573  25.964  1.00  0.00     0.021 C 
ENDROOT
BRANCH   1   2
ATOM      2  C   UNL A   1      35.934  23.264  25.651  1.00  0.00     0.116 C 
BRANCH   2   3
ATOM      3  N   UNL A   1      35.237  22.921  26.870  1.00  0.00    -0.354 N 
ATOM      4  C   UNL A   1      33.937  22.599  27.109  1.00  0.00     0.246 C 
ATOM      5  O   UNL A   1      33.640  22.452  28.303  1.00  0.00    -0.272 OA
ATOM      6  H   UNL A   1      35.805  22.922  27.673  1.00  0.00     0.163 HD
BRANCH   4   7
ATOM      7  C   UNL A   1      32.923  22.235  25.980  1.00  0.00     0.132 C 
ATOM      8  C   UNL A   1      32.937  23.125  24.733  1.00  0.00     0.100 C 
ATOM      9  C   UNL A   1      33.273  20.794  25.524  1.00  0.00     0.100 C 
ATOM     10  C   UNL A   1      31.964  22.575  23.705  1.00  0.00     0.263 C 
ATOM     11  C   UNL A   1      32.456  20.316  24.321  1.00  0.00     0.263 C 
ATOM     12  N   UNL A   1      32.454  21.285  23.232  1.00  0.00    -0.346 N 
ATOM     13  H   UNL A   1      33.405  21.395  22.878  1.00  0.00     0.346 HD
ATOM     14  H   UNL A   1      31.842  20.949  22.489  1.00  0.00     0.346 HD
BRANCH   7  15
ATOM     15  N   UNL A   1      31.577  22.233  26.642  1.00  0.00    -0.307 N 
ATOM     16  O   UNL A   1      29.640  23.102  27.444  1.00  0.00    -0.225 OA
ATOM     17  C   UNL A   1      30.759  23.280  26.966  1.00  0.00     0.408 C 
ATOM     18  H   UNL A   1      31.229  21.343  26.879  1.00  0.00     0.168 HD
BRANCH  17  19
ATOM     19  O   UNL A   1      31.251  24.487  26.608  1.00  0.00    -0.449 OA
BRANCH  19  20
ATOM     20  C   UNL A   1      30.319  25.476  26.151  1.00  0.00     0.248 C 
BRANCH  20  21
ATOM     21  C   UNL A   1      30.871  26.326  24.966  1.00  0.00     0.088 C 
ATOM     22  C   UNL A   1      29.933  27.288  24.225  1.00  0.00    -0.029 A 
ATOM     23  C   UNL A   1      32.020  27.270  25.349  1.00  0.00    -0.029 A 
ATOM     24  C   UNL A   1      28.685  27.061  23.666  1.00  0.00     0.005 A 
ATOM     25  C   UNL A   1      30.536  28.567  24.114  1.00  0.00    -0.014 A 
ATOM     26  C   UNL A   1      31.785  28.566  24.839  1.00  0.00    -0.014 A 
ATOM     27  C   UNL A   1      33.144  27.006  26.118  1.00  0.00     0.005 A 
ATOM     28  C   UNL A   1      28.069  28.105  22.961  1.00  0.00     0.000 A 
ATOM     29  C   UNL A   1      29.927  29.601  23.416  1.00  0.00     0.009 A 
ATOM     30  C   UNL A   1      32.618  29.627  25.175  1.00  0.00     0.009 A 
ATOM     31  C   UNL A   1      33.979  28.074  26.463  1.00  0.00     0.000 A 
ATOM     32  C   UNL A   1      28.691  29.357  22.821  1.00  0.00     0.001 A 
ATOM     33  C   UNL A   1      33.707  29.377  26.015  1.00  0.00     0.001 A 
ENDBRANCH  20  21
ENDBRANCH  19  20
ENDBRANCH  17  19
ENDBRANCH   7  15
ENDBRANCH   4   7
ENDBRANCH   2   3
ENDBRANCH   1   2
BRANCH   1  34
ATOM     34  C   UNL A   1      38.271  22.321  25.843  1.00  0.00     0.002 C 
BRANCH  34  35
ATOM     35  C   UNL A   1      37.772  21.331  24.781  1.00  0.00     0.002 C 
BRANCH  35  36
ATOM     36  C   UNL A   1      38.440  19.956  24.831  1.00  0.00     0.021 C 
BRANCH  36  37
ATOM     37  C   UNL A   1      39.148  19.669  26.148  1.00  0.00     0.116 C 
BRANCH  37  38
ATOM     38  N   UNL A   1      40.413  18.984  25.930  1.00  0.00    -0.352 N 
ATOM     39  C   UNL A   1      41.685  19.494  25.902  1.00  0.00     0.251 C 
ATOM     40  H   UNL A   1      40.346  18.014  25.781  1.00  0.00     0.163 HD
ATOM     41  O   UNL A   1      42.605  18.834  25.431  1.00  0.00    -0.269 OA
BRANCH  39  42
ATOM     42  C   UNL A   1      41.946  20.842  26.444  1.00  0.00     0.039 A 
ATOM     43  C   UNL A   1      42.241  21.884  25.563  1.00  0.00     0.014 A 
ATOM     44  C   UNL A   1      41.939  21.068  27.824  1.00  0.00     0.014 A 
ATOM     45  C   UNL A   1      42.499  23.160  26.065  1.00  0.00     0.010 A 
ATOM     46  C   UNL A   1      42.106  22.356  28.316  1.00  0.00     0.010 A 
ATOM     47  C   UNL A   1      42.417  23.410  27.445  1.00  0.00    -0.014 A 
BRANCH  47  48
ATOM     48  C   UNL A   1      42.702  24.756  27.999  1.00  0.00     0.031 A 
ATOM     49  C   UNL A   1      44.111  25.132  28.368  1.00  0.00     0.074 A 
ATOM     50  C   UNL A   1      41.693  25.621  28.212  1.00  0.00     0.049 A 
ATOM     51  N   UNL A   1      44.562  26.242  28.896  1.00  0.00    -0.248 NA
ATOM     52  C   UNL A   1      45.149  24.113  28.142  1.00  0.00     0.031 C 
ATOM     53  C   UNL A   1      40.281  25.361  27.930  1.00  0.00     0.029 A 
ATOM     54  N   UNL A   1      41.704  26.897  28.716  1.00  0.00    -0.354 N 
ATOM     55  C   UNL A   1      45.925  26.045  29.082  1.00  0.00     0.074 A 
ATOM     56  C   UNL A   1      46.216  24.690  28.669  1.00  0.00     0.031 C 
ATOM     57  C   UNL A   1      39.565  26.458  28.230  1.00  0.00     0.029 A 
ATOM     58  C   UNL A   1      40.462  27.480  28.762  1.00  0.00     0.049 A 
ATOM     59  H   UNL A   1      42.524  27.351  29.016  1.00  0.00     0.167 HD
ATOM     60  C   UNL A   1      46.855  26.921  29.531  1.00  0.00     0.037 A 
ATOM     61  C   UNL A   1      40.089  28.703  29.183  1.00  0.00     0.037 A 
ATOM     62  C   UNL A   1      46.562  28.275  29.920  1.00  0.00     0.049 A 
ATOM     63  C   UNL A   1      41.137  29.654  29.694  1.00  0.00     0.074 A 
ATOM     64  C   UNL A   1      47.439  29.264  30.331  1.00  0.00     0.029 A 
ATOM     65  N   UNL A   1      45.291  28.830  29.953  1.00  0.00    -0.354 N 
ATOM     66  N   UNL A   1      42.433  29.482  29.798  1.00  0.00    -0.248 NA
ATOM     67  C   UNL A   1      40.669  30.974  30.135  1.00  0.00     0.031 C 
ATOM     68  C   UNL A   1      46.692  30.396  30.671  1.00  0.00     0.029 A 
ATOM     69  C   UNL A   1      45.356  30.137  30.405  1.00  0.00     0.049 A 
ATOM     70  H   UNL A   1      44.464  28.362  29.693  1.00  0.00     0.167 HD
ATOM     71  C   UNL A   1      42.940  30.684  30.275  1.00  0.00     0.074 A 
ATOM     72  C   UNL A   1      41.810  31.578  30.435  1.00  0.00     0.031 C 
ATOM     73  C   UNL A   1      44.225  31.020  30.549  1.00  0.00     0.037 A 
BRANCH  60  74
ATOM     74  C   UNL A   1      48.271  26.427  29.641  1.00  0.00     0.057 A 
ATOM     75  C   UNL A   1      49.198  26.580  28.601  1.00  0.00     0.134 A 
ATOM     76  C   UNL A   1      48.716  25.795  30.809  1.00  0.00     0.134 A 
ATOM     77  F   UNL A   1      48.837  27.167  27.449  1.00  0.00    -0.206 F 
ATOM     78  C   UNL A   1      50.499  26.083  28.700  1.00  0.00     0.040 A 
ATOM     79  C   UNL A   1      50.025  25.325  30.934  1.00  0.00     0.040 A 
ATOM     80  F   UNL A   1      47.888  25.622  31.850  1.00  0.00    -0.206 F 
ATOM     81  C   UNL A   1      50.917  25.458  29.873  1.00  0.00     0.006 A 
ENDBRANCH  60  74
BRANCH  61  82
ATOM     82  C   UNL A   1      38.665  29.115  29.099  1.00  0.00     0.057 A 
ATOM     83  C   UNL A   1      38.133  29.621  27.907  1.00  0.00     0.134 A 
ATOM     84  C   UNL A   1      37.805  29.017  30.199  1.00  0.00     0.134 A 
ATOM     85  F   UNL A   1      38.913  29.753  26.824  1.00  0.00    -0.206 F 
ATOM     86  C   UNL A   1      36.802  30.032  27.815  1.00  0.00     0.040 A 
ATOM     87  C   UNL A   1      36.464  29.400  30.113  1.00  0.00     0.040 A 
ATOM     88  F   UNL A   1      38.250  28.532  31.367  1.00  0.00    -0.206 F 
ATOM     89  C   UNL A   1      35.963  29.917  28.921  1.00  0.00     0.006 A 
ENDBRANCH  61  82
BRANCH  73  90
ATOM     90  C   UNL A   1      44.489  32.432  30.991  1.00  0.00     0.057 A 
ATOM     91  C   UNL A   1      44.526  32.799  32.342  1.00  0.00     0.134 A 
ATOM     92  C   UNL A   1      44.743  33.433  30.043  1.00  0.00     0.134 A 
ATOM     93  F   UNL A   1      44.279  31.894  33.301  1.00  0.00    -0.206 F 
ATOM     94  C   UNL A   1      44.774  34.116  32.734  1.00  0.00     0.040 A 
ATOM     95  C   UNL A   1      45.027  34.745  30.423  1.00  0.00     0.040 A 
ATOM     96  F   UNL A   1      44.735  33.149  28.732  1.00  0.00    -0.206 F 
ATOM     97  C   UNL A   1      45.033  35.092  31.772  1.00  0.00     0.006 A 
ENDBRANCH  73  90
ENDBRANCH  47  48
ENDBRANCH  39  42
ENDBRANCH  37  38
ENDBRANCH  36  37
ENDBRANCH  35  36
ENDBRANCH  34  35
ENDBRANCH   1  34
TORSDOF 17
ENDMDL
MODEL 2
REMARK VINA RESULT:     -12.6      4.168      9.205
REMARK SMILES O=C(NC1(C(=O)NCCCCCCNC(=O)c2ccc(-c3c4nc(c(-c5c(F)cccc5F)c5ccc([nH]5)c(-c5c(F)cccc5F)c5nc(c(-c6c(F)cccc6F)c6ccc3[nH]6)C=C5)C=C4)cc2)CC[NH2+]CC1)OCC1c2ccccc2-c2ccccc21
REMARK SMILES IDX 9 1 8 2 7 3 5 4 6 5 4 7 71 8 75 9 72 10 74 11 73 12 3 15
REMARK SMILES IDX 1 16 2 17 76 19 77 20 78 21 79 22 90 23 80 24 84 25 85 26
REMARK SMILES IDX 89 27 81 28 83 29 86 30 88 31 82 32 87 33 10 34 11 35 12 36
REMARK SMILES IDX 13 37 14 38 15 39 16 41 17 42 18 43 70 44 19 45 69 46 20 47
REMARK SMILES IDX 21 48 22 49 63 50 23 51 68 52 62 53 64 54 24 55 67 56 61 57
REMARK SMILES IDX 60 58 25 60 51 61 34 62 50 63 35 64 38 65 49 66 65 67 36 68
REMARK SMILES IDX 37 69 48 71 66 72 39 73 26 74 27 75 32 76 28 77 29 78 31 79
REMARK SMILES IDX 33 80 30 81 52 82 53 83 58 84 54 85 55 86 57 87 59 88 56 89
REMARK SMILES IDX 40 90 41 91 46 92 42 93 43 94 45 95 47 96 44 97
REMARK H PARENT 7 6 73 13 73 14 3 18 14 40 64 59 38 70
REMARK Flexibility Score: inf
ROOT
ATOM      1  C   UNL A   1      34.178  28.920  27.056  1.00  0.00     0.021 C 
ENDROOT
BRANCH   1   2
ATOM      2  C   UNL A   1      33.396  28.252  25.924  1.00  0.00     0.116 C 
BRANCH   2   3
ATOM      3  N   UNL A   1      34.020  28.555  24.655  1.00  0.00    -0.354 N 
ATOM      4  C   UNL A   1      33.686  28.219  23.381  1.00  0.00     0.246 C 
ATOM      5  O   UNL A   1      34.502  28.563  22.513  1.00  0.00    -0.272 OA
ATOM      6  H   UNL A   1      34.833  29.104  24.728  1.00  0.00     0.163 HD
BRANCH   4   7
ATOM      7  C   UNL A   1      32.299  27.625  22.985  1.00  0.00     0.132 C 
ATOM      8  C   UNL A   1      31.704  26.581  23.935  1.00  0.00     0.100 C 
ATOM      9  C   UNL A   1      31.310  28.820  22.933  1.00  0.00     0.100 C 
ATOM     10  C   UNL A   1      30.319  26.185  23.453  1.00  0.00     0.263 C 
ATOM     11  C   UNL A   1      29.858  28.404  22.685  1.00  0.00     0.263 C 
ATOM     12  N   UNL A   1      29.428  27.334  23.577  1.00  0.00    -0.346 N 
ATOM     13  H   UNL A   1      29.446  27.671  24.540  1.00  0.00     0.346 HD
ATOM     14  H   UNL A   1      28.482  27.050  23.324  1.00  0.00     0.346 HD
BRANCH   7  15
ATOM     15  N   UNL A   1      32.483  27.072  21.603  1.00  0.00    -0.307 N 
ATOM     16  O   UNL A   1      32.993  25.529  20.020  1.00  0.00    -0.225 OA
ATOM     17  C   UNL A   1      32.977  25.862  21.202  1.00  0.00     0.408 C 
ATOM     18  H   UNL A   1      32.206  27.672  20.873  1.00  0.00     0.168 HD
BRANCH  17  19
ATOM     19  O   UNL A   1      33.327  25.052  22.226  1.00  0.00    -0.449 OA
BRANCH  19  20
ATOM     20  C   UNL A   1      33.248  23.636  22.011  1.00  0.00     0.248 C 
BRANCH  20  21
ATOM     21  C   UNL A   1      33.658  22.808  23.267  1.00  0.00     0.088 C 
ATOM     22  C   UNL A   1      35.004  23.085  23.948  1.00  0.00    -0.029 A 
ATOM     23  C   UNL A   1      32.693  22.945  24.454  1.00  0.00    -0.029 A 
ATOM     24  C   UNL A   1      36.278  23.157  23.406  1.00  0.00     0.005 A 
ATOM     25  C   UNL A   1      34.820  23.241  25.346  1.00  0.00    -0.014 A 
ATOM     26  C   UNL A   1      33.408  23.203  25.644  1.00  0.00    -0.014 A 
ATOM     27  C   UNL A   1      31.307  22.891  24.460  1.00  0.00     0.005 A 
ATOM     28  C   UNL A   1      37.364  23.342  24.274  1.00  0.00     0.000 A 
ATOM     29  C   UNL A   1      35.894  23.423  26.206  1.00  0.00     0.009 A 
ATOM     30  C   UNL A   1      32.741  23.503  26.826  1.00  0.00     0.009 A 
ATOM     31  C   UNL A   1      30.634  23.200  25.647  1.00  0.00     0.000 A 
ATOM     32  C   UNL A   1      37.177  23.456  25.661  1.00  0.00     0.001 A 
ATOM     33  C   UNL A   1      31.344  23.527  26.814  1.00  0.00     0.001 A 
ENDBRANCH  20  21
ENDBRANCH  19  20
ENDBRANCH  17  19
ENDBRANCH   7  15
ENDBRANCH   4   7
ENDBRANCH   2   3
ENDBRANCH   1   2
BRANCH   1  34
ATOM     34  C   UNL A   1      33.685  30.347  27.308  1.00  0.00     0.002 C 
BRANCH  34  35
ATOM     35  C   UNL A   1      32.181  30.525  27.061  1.00  0.00     0.002 C 
BRANCH  35  36
ATOM     36  C   UNL A   1      31.701  31.977  27.086  1.00  0.00     0.021 C 
BRANCH  36  37
ATOM     37  C   UNL A   1      32.811  32.991  26.845  1.00  0.00     0.116 C 
BRANCH  37  38
ATOM     38  N   UNL A   1      32.590  34.209  27.610  1.00  0.00    -0.352 N 
ATOM     39  C   UNL A   1      33.124  34.588  28.814  1.00  0.00     0.251 C 
ATOM     40  H   UNL A   1      31.967  34.853  27.205  1.00  0.00     0.163 HD
ATOM     41  O   UNL A   1      32.622  35.510  29.449  1.00  0.00    -0.269 OA
BRANCH  39  42
ATOM     42  C   UNL A   1      34.310  33.887  29.343  1.00  0.00     0.039 A 
ATOM     43  C   UNL A   1      35.581  34.296  28.933  1.00  0.00     0.014 A 
ATOM     44  C   UNL A   1      34.167  32.800  30.211  1.00  0.00     0.014 A 
ATOM     45  C   UNL A   1      36.709  33.635  29.420  1.00  0.00     0.010 A 
ATOM     46  C   UNL A   1      35.292  32.201  30.763  1.00  0.00     0.010 A 
ATOM     47  C   UNL A   1      36.574  32.593  30.352  1.00  0.00    -0.014 A 
BRANCH  47  48
ATOM     48  C   UNL A   1      37.760  31.867  30.868  1.00  0.00     0.031 A 
ATOM     49  C   UNL A   1      38.326  32.219  32.217  1.00  0.00     0.074 A 
ATOM     50  C   UNL A   1      38.354  30.927  30.109  1.00  0.00     0.049 A 
ATOM     51  N   UNL A   1      39.373  31.728  32.831  1.00  0.00    -0.248 NA
ATOM     52  C   UNL A   1      37.641  33.287  32.964  1.00  0.00     0.031 C 
ATOM     53  C   UNL A   1      37.923  30.523  28.771  1.00  0.00     0.029 A 
ATOM     54  N   UNL A   1      39.450  30.141  30.359  1.00  0.00    -0.354 N 
ATOM     55  C   UNL A   1      39.482  32.439  34.020  1.00  0.00     0.074 A 
ATOM     56  C   UNL A   1      38.434  33.435  34.013  1.00  0.00     0.031 C 
ATOM     57  C   UNL A   1      38.723  29.538  28.332  1.00  0.00     0.029 A 
ATOM     58  C   UNL A   1      39.745  29.270  29.340  1.00  0.00     0.049 A 
ATOM     59  H   UNL A   1      39.975  30.197  31.190  1.00  0.00     0.167 HD
ATOM     60  C   UNL A   1      40.358  32.262  35.037  1.00  0.00     0.037 A 
ATOM     61  C   UNL A   1      40.728  28.357  29.232  1.00  0.00     0.037 A 
ATOM     62  C   UNL A   1      41.385  31.254  35.046  1.00  0.00     0.049 A 
ATOM     63  C   UNL A   1      41.701  28.189  30.368  1.00  0.00     0.074 A 
ATOM     64  C   UNL A   1      42.286  30.949  36.052  1.00  0.00     0.029 A 
ATOM     65  N   UNL A   1      41.654  30.389  33.995  1.00  0.00    -0.354 N 
ATOM     66  N   UNL A   1      41.750  28.818  31.517  1.00  0.00    -0.248 NA
ATOM     67  C   UNL A   1      42.748  27.174  30.193  1.00  0.00     0.031 C 
ATOM     68  C   UNL A   1      43.137  29.943  35.585  1.00  0.00     0.029 A 
ATOM     69  C   UNL A   1      42.724  29.571  34.315  1.00  0.00     0.049 A 
ATOM     70  H   UNL A   1      41.156  30.362  33.145  1.00  0.00     0.167 HD
ATOM     71  C   UNL A   1      42.805  28.247  32.219  1.00  0.00     0.074 A 
ATOM     72  C   UNL A   1      43.363  27.218  31.366  1.00  0.00     0.031 C 
ATOM     73  C   UNL A   1      43.263  28.542  33.461  1.00  0.00     0.037 A 
BRANCH  60  74
ATOM     74  C   UNL A   1      40.250  33.194  36.211  1.00  0.00     0.057 A 
ATOM     75  C   UNL A   1      41.018  34.362  36.311  1.00  0.00     0.134 A 
ATOM     76  C   UNL A   1      39.357  32.922  37.256  1.00  0.00     0.134 A 
ATOM     77  F   UNL A   1      41.902  34.679  35.351  1.00  0.00    -0.206 F 
ATOM     78  C   UNL A   1      40.937  35.199  37.425  1.00  0.00     0.040 A 
ATOM     79  C   UNL A   1      39.242  33.771  38.359  1.00  0.00     0.040 A 
ATOM     80  F   UNL A   1      38.582  31.828  37.225  1.00  0.00    -0.206 F 
ATOM     81  C   UNL A   1      40.041  34.907  38.451  1.00  0.00     0.006 A 
ENDBRANCH  60  74
BRANCH  61  82
ATOM     82  C   UNL A   1      40.817  27.500  28.023  1.00  0.00     0.057 A 
ATOM     83  C   UNL A   1      40.146  26.273  27.962  1.00  0.00     0.134 A 
ATOM     84  C   UNL A   1      41.568  27.881  26.905  1.00  0.00     0.134 A 
ATOM     85  F   UNL A   1      39.423  25.847  29.009  1.00  0.00    -0.206 F 
ATOM     86  C   UNL A   1      40.234  25.445  26.842  1.00  0.00     0.040 A 
ATOM     87  C   UNL A   1      41.643  27.074  25.767  1.00  0.00     0.040 A 
ATOM     88  F   UNL A   1      42.227  29.049  26.896  1.00  0.00    -0.206 F 
ATOM     89  C   UNL A   1      40.981  25.849  25.738  1.00  0.00     0.006 A 
ENDBRANCH  61  82
BRANCH  73  90
ATOM     90  C   UNL A   1      44.388  27.703  33.998  1.00  0.00     0.057 A 
ATOM     91  C   UNL A   1      45.730  28.087  33.886  1.00  0.00     0.134 A 
ATOM     92  C   UNL A   1      44.115  26.502  34.669  1.00  0.00     0.134 A 
ATOM     93  F   UNL A   1      46.063  29.218  33.245  1.00  0.00    -0.206 F 
ATOM     94  C   UNL A   1      46.761  27.294  34.393  1.00  0.00     0.040 A 
ATOM     95  C   UNL A   1      45.133  25.719  35.210  1.00  0.00     0.040 A 
ATOM     96  F   UNL A   1      42.851  26.079  34.823  1.00  0.00    -0.206 F 
ATOM     97  C   UNL A   1      46.463  26.109  35.064  1.00  0.00     0.006 A 
ENDBRANCH  73  90
ENDBRANCH  47  48
ENDBRANCH  39  42
ENDBRANCH  37  38
ENDBRANCH  36  37
ENDBRANCH  35  36
ENDBRANCH  34  35
ENDBRANCH   1  34
TORSDOF 17
ENDMDL
MODEL 3
REMARK VINA RESULT:     -12.6      1.397      6.172
REMARK SMILES O=C(NC1(C(=O)NCCCCCCNC(=O)c2ccc(-c3c4nc(c(-c5c(F)cccc5F)c5ccc([nH]5)c(-c5c(F)cccc5F)c5nc(c(-c6c(F)cccc6F)c6ccc3[nH]6)C=C5)C=C4)cc2)CC[NH2+]CC1)OCC1c2ccccc2-c2ccccc21
REMARK SMILES IDX 9 1 8 2 7 3 5 4 6 5 4 7 71 8 75 9 72 10 74 11 73 12 3 15
REMARK SMILES IDX 1 16 2 17 76 19 77 20 78 21 79 22 90 23 80 24 84 25 85 26
REMARK SMILES IDX 89 27 81 28 83 29 86 30 88 31 82 32 87 33 10 34 11 35 12 36
REMARK SMILES IDX 13 37 14 38 15 39 16 41 17 42 18 43 70 44 19 45 69 46 20 47
REMARK SMILES IDX 21 48 22 49 63 50 23 51 68 52 62 53 64 54 24 55 67 56 61 57
REMARK SMILES IDX 60 58 25 60 51 61 34 62 50 63 35 64 38 65 49 66 65 67 36 68
REMARK SMILES IDX 37 69 48 71 66 72 39 73 26 74 27 75 32 76 28 77 29 78 31 79
REMARK SMILES IDX 33 80 30 81 52 82 53 83 58 84 54 85 55 86 57 87 59 88 56 89
REMARK SMILES IDX 40 90 41 91 46 92 42 93 43 94 45 95 47 96 44 97
REMARK H PARENT 7 6 73 13 73 14 3 18 14 40 64 59 38 70
REMARK Flexibility Score: inf
ROOT
ATOM      1  C   UNL A   1      36.407  22.827  24.204  1.00  0.00     0.021 C 
ENDROOT
BRANCH   1   2
ATOM      2  C   UNL A   1      35.637  23.902  24.973  1.00  0.00     0.116 C 
BRANCH   2   3
ATOM      3  N   UNL A   1      35.232  23.384  26.260  1.00  0.00    -0.354 N 
ATOM      4  C   UNL A   1      34.070  22.816  26.680  1.00  0.00     0.246 C 
ATOM      5  O   UNL A   1      34.013  22.566  27.893  1.00  0.00    -0.272 OA
ATOM      6  H   UNL A   1      35.921  23.456  26.958  1.00  0.00     0.163 HD
BRANCH   4   7
ATOM      7  C   UNL A   1      32.957  22.318  25.706  1.00  0.00     0.132 C 
ATOM      8  C   UNL A   1      32.785  23.104  24.403  1.00  0.00     0.100 C 
ATOM      9  C   UNL A   1      33.329  20.861  25.323  1.00  0.00     0.100 C 
ATOM     10  C   UNL A   1      31.734  22.431  23.537  1.00  0.00     0.263 C 
ATOM     11  C   UNL A   1      32.410  20.253  24.261  1.00  0.00     0.263 C 
ATOM     12  N   UNL A   1      32.236  21.129  23.110  1.00  0.00    -0.346 N 
ATOM     13  H   UNL A   1      33.134  21.252  22.642  1.00  0.00     0.346 HD
ATOM     14  H   UNL A   1      31.564  20.708  22.470  1.00  0.00     0.346 HD
BRANCH   7  15
ATOM     15  N   UNL A   1      31.695  22.311  26.517  1.00  0.00    -0.307 N 
ATOM     16  O   UNL A   1      29.807  23.153  27.453  1.00  0.00    -0.225 OA
ATOM     17  C   UNL A   1      30.852  23.340  26.835  1.00  0.00     0.408 C 
ATOM     18  H   UNL A   1      31.433  21.432  26.875  1.00  0.00     0.168 HD
BRANCH  17  19
ATOM     19  O   UNL A   1      31.224  24.530  26.311  1.00  0.00    -0.449 OA
BRANCH  19  20
ATOM     20  C   UNL A   1      30.190  25.394  25.821  1.00  0.00     0.248 C 
BRANCH  20  21
ATOM     21  C   UNL A   1      30.743  26.729  25.236  1.00  0.00     0.088 C 
ATOM     22  C   UNL A   1      31.801  27.517  26.019  1.00  0.00    -0.029 A 
ATOM     23  C   UNL A   1      31.434  26.580  23.873  1.00  0.00    -0.029 A 
ATOM     24  C   UNL A   1      31.803  27.931  27.342  1.00  0.00     0.005 A 
ATOM     25  C   UNL A   1      32.883  27.858  25.169  1.00  0.00    -0.014 A 
ATOM     26  C   UNL A   1      32.680  27.246  23.876  1.00  0.00    -0.014 A 
ATOM     27  C   UNL A   1      31.011  25.879  22.753  1.00  0.00     0.005 A 
ATOM     28  C   UNL A   1      32.871  28.723  27.792  1.00  0.00     0.000 A 
ATOM     29  C   UNL A   1      33.939  28.641  25.613  1.00  0.00     0.009 A 
ATOM     30  C   UNL A   1      33.551  27.135  22.799  1.00  0.00     0.009 A 
ATOM     31  C   UNL A   1      31.890  25.760  21.671  1.00  0.00     0.000 A 
ATOM     32  C   UNL A   1      33.919  29.089  26.932  1.00  0.00     0.001 A 
ATOM     33  C   UNL A   1      33.158  26.362  21.703  1.00  0.00     0.001 A 
ENDBRANCH  20  21
ENDBRANCH  19  20
ENDBRANCH  17  19
ENDBRANCH   7  15
ENDBRANCH   4   7
ENDBRANCH   2   3
ENDBRANCH   1   2
BRANCH   1  34
ATOM     34  C   UNL A   1      37.064  21.824  25.155  1.00  0.00     0.002 C 
BRANCH  34  35
ATOM     35  C   UNL A   1      36.778  20.361  24.791  1.00  0.00     0.002 C 
BRANCH  35  36
ATOM     36  C   UNL A   1      37.964  19.415  24.984  1.00  0.00     0.021 C 
BRANCH  36  37
ATOM     37  C   UNL A   1      39.122  20.037  25.750  1.00  0.00     0.116 C 
BRANCH  37  38
ATOM     38  N   UNL A   1      40.207  19.085  25.933  1.00  0.00    -0.352 N 
ATOM     39  C   UNL A   1      41.546  19.316  26.114  1.00  0.00     0.251 C 
ATOM     40  H   UNL A   1      39.942  18.137  25.926  1.00  0.00     0.163 HD
ATOM     41  O   UNL A   1      42.355  18.405  25.972  1.00  0.00    -0.269 OA
BRANCH  39  42
ATOM     42  C   UNL A   1      42.013  20.667  26.485  1.00  0.00     0.039 A 
ATOM     43  C   UNL A   1      42.128  20.998  27.837  1.00  0.00     0.014 A 
ATOM     44  C   UNL A   1      42.297  21.618  25.500  1.00  0.00     0.014 A 
ATOM     45  C   UNL A   1      42.559  22.274  28.200  1.00  0.00     0.010 A 
ATOM     46  C   UNL A   1      42.811  22.857  25.862  1.00  0.00     0.010 A 
ATOM     47  C   UNL A   1      42.921  23.208  27.215  1.00  0.00    -0.014 A 
BRANCH  47  48
ATOM     48  C   UNL A   1      43.366  24.575  27.581  1.00  0.00     0.031 A 
ATOM     49  C   UNL A   1      42.352  25.615  27.970  1.00  0.00     0.074 A 
ATOM     50  C   UNL A   1      44.673  24.893  27.519  1.00  0.00     0.049 A 
ATOM     51  N   UNL A   1      42.534  26.872  28.290  1.00  0.00    -0.248 NA
ATOM     52  C   UNL A   1      40.941  25.196  27.971  1.00  0.00     0.031 C 
ATOM     53  C   UNL A   1      45.748  23.984  27.121  1.00  0.00     0.029 A 
ATOM     54  N   UNL A   1      45.317  26.072  27.793  1.00  0.00    -0.354 N 
ATOM     55  C   UNL A   1      41.265  27.394  28.508  1.00  0.00     0.074 A 
ATOM     56  C   UNL A   1      40.319  26.337  28.225  1.00  0.00     0.031 C 
ATOM     57  C   UNL A   1      46.923  24.628  27.212  1.00  0.00     0.029 A 
ATOM     58  C   UNL A   1      46.679  26.004  27.636  1.00  0.00     0.049 A 
ATOM     59  H   UNL A   1      44.847  26.890  28.076  1.00  0.00     0.167 HD
ATOM     60  C   UNL A   1      40.918  28.632  28.932  1.00  0.00     0.037 A 
ATOM     61  C   UNL A   1      47.625  26.945  27.816  1.00  0.00     0.037 A 
ATOM     62  C   UNL A   1      41.865  29.673  29.233  1.00  0.00     0.049 A 
ATOM     63  C   UNL A   1      47.215  28.319  28.271  1.00  0.00     0.074 A 
ATOM     64  C   UNL A   1      41.624  30.943  29.727  1.00  0.00     0.029 A 
ATOM     65  N   UNL A   1      43.238  29.566  29.061  1.00  0.00    -0.354 N 
ATOM     66  N   UNL A   1      46.018  28.780  28.544  1.00  0.00    -0.248 NA
ATOM     67  C   UNL A   1      48.293  29.301  28.454  1.00  0.00     0.031 C 
ATOM     68  C   UNL A   1      42.843  31.624  29.795  1.00  0.00     0.029 A 
ATOM     69  C   UNL A   1      43.853  30.756  29.411  1.00  0.00     0.049 A 
ATOM     70  H   UNL A   1      43.705  28.761  28.738  1.00  0.00     0.167 HD
ATOM     71  C   UNL A   1      46.202  30.089  28.970  1.00  0.00     0.074 A 
ATOM     72  C   UNL A   1      47.627  30.346  28.924  1.00  0.00     0.031 C 
ATOM     73  C   UNL A   1      45.275  30.994  29.371  1.00  0.00     0.037 A 
BRANCH  60  74
ATOM     74  C   UNL A   1      39.451  28.927  29.074  1.00  0.00     0.057 A 
ATOM     75  C   UNL A   1      38.772  28.773  30.290  1.00  0.00     0.134 A 
ATOM     76  C   UNL A   1      38.706  29.379  27.977  1.00  0.00     0.134 A 
ATOM     77  F   UNL A   1      39.421  28.333  31.380  1.00  0.00    -0.206 F 
ATOM     78  C   UNL A   1      37.401  29.012  30.400  1.00  0.00     0.040 A 
ATOM     79  C   UNL A   1      37.342  29.656  28.083  1.00  0.00     0.040 A 
ATOM     80  F   UNL A   1      39.290  29.560  26.783  1.00  0.00    -0.206 F 
ATOM     81  C   UNL A   1      36.683  29.462  29.294  1.00  0.00     0.006 A 
ENDBRANCH  60  74
BRANCH  61  82
ATOM     82  C   UNL A   1      49.056  26.608  27.609  1.00  0.00     0.057 A 
ATOM     83  C   UNL A   1      49.674  26.833  26.373  1.00  0.00     0.134 A 
ATOM     84  C   UNL A   1      49.837  26.055  28.630  1.00  0.00     0.134 A 
ATOM     85  F   UNL A   1      48.973  27.345  25.351  1.00  0.00    -0.206 F 
ATOM     86  C   UNL A   1      51.013  26.503  26.153  1.00  0.00     0.040 A 
ATOM     87  C   UNL A   1      51.185  25.746  28.432  1.00  0.00     0.040 A 
ATOM     88  F   UNL A   1      49.307  25.825  29.840  1.00  0.00    -0.206 F 
ATOM     89  C   UNL A   1      51.773  25.962  27.188  1.00  0.00     0.006 A 
ENDBRANCH  61  82
BRANCH  73  90
ATOM     90  C   UNL A   1      45.776  32.327  29.851  1.00  0.00     0.057 A 
ATOM     91  C   UNL A   1      46.132  32.558  31.186  1.00  0.00     0.134 A 
ATOM     92  C   UNL A   1      45.933  33.389  28.950  1.00  0.00     0.134 A 
ATOM     93  F   UNL A   1      45.994  31.589  32.104  1.00  0.00    -0.206 F 
ATOM     94  C   UNL A   1      46.596  33.804  31.613  1.00  0.00     0.040 A 
ATOM     95  C   UNL A   1      46.429  34.628  29.357  1.00  0.00     0.040 A 
ATOM     96  F   UNL A   1      45.622  33.235  27.653  1.00  0.00    -0.206 F 
ATOM     97  C   UNL A   1      46.753  34.841  30.695  1.00  0.00     0.006 A 
ENDBRANCH  73  90
ENDBRANCH  47  48
ENDBRANCH  39  42
ENDBRANCH  37  38
ENDBRANCH  36  37
ENDBRANCH  35  36
ENDBRANCH  34  35
ENDBRANCH   1  34
TORSDOF 17
ENDMDL
