MODEL 1
REMARK VINA RESULT:     -11.2      0.000      0.000
REMARK SMILES CSc1ncc(Cl)c(C(=O)Nc2ccsc2C(=O)NCCCCCCNC(=O)c2ccc(-c3c4nc(c(-c5c(F)cccc5F)c5ccc([nH]5)c(-c5c(F)cccc5F)c5nc(c(-c6c(F)cccc6F)c6ccc3[nH]6)C=C5)C=C4)cc2)n1
REMARK SMILES IDX 22 1 21 2 20 3 19 4 17 5 18 6 16 8 12 9 13 10 14 11 15 12
REMARK SMILES IDX 11 13 9 14 10 15 8 17 3 18 4 19 83 20 5 21 6 22 7 23 2 24
REMARK SMILES IDX 1 25 23 26 24 27 25 28 26 29 27 30 28 32 29 33 30 34 82 35
REMARK SMILES IDX 31 36 81 37 32 38 33 39 34 40 75 41 35 42 80 43 74 44 76 45
REMARK SMILES IDX 36 46 79 47 73 48 72 49 37 51 63 52 46 53 62 54 47 55 50 56
REMARK SMILES IDX 61 57 77 58 48 59 49 60 60 62 78 63 51 64 38 65 39 66 44 67
REMARK SMILES IDX 40 68 41 69 43 70 45 71 42 72 64 73 65 74 70 75 66 76 67 77
REMARK SMILES IDX 69 78 71 79 68 80 52 81 53 82 58 83 54 84 55 85 57 86 59 87
REMARK SMILES IDX 56 88
REMARK H PARENT 19 7 11 16 26 31 76 50 50 61
REMARK Flexibility Score: inf
ROOT
ATOM      1  C   UNL A   1      32.216  29.854  26.978  1.00  0.00     0.002 C 
ENDROOT
BRANCH   1   2
ATOM      2  C   UNL A   1      33.250  28.960  26.297  1.00  0.00     0.021 C 
BRANCH   2   3
ATOM      3  C   UNL A   1      33.021  27.458  26.382  1.00  0.00     0.116 C 
BRANCH   3   4
ATOM      4  N   UNL A   1      34.018  26.606  25.783  1.00  0.00    -0.351 N 
ATOM      5  C   UNL A   1      33.906  25.456  25.019  1.00  0.00     0.263 C 
ATOM      6  O   UNL A   1      34.996  25.011  24.639  1.00  0.00    -0.268 OA
ATOM      7  H   UNL A   1      34.946  26.894  25.945  1.00  0.00     0.163 HD
BRANCH   5   8
ATOM      8  C   UNL A   1      32.633  24.780  24.714  1.00  0.00     0.115 A 
ATOM      9  C   UNL A   1      31.805  23.865  25.365  1.00  0.00     0.065 A 
ATOM     10  C   UNL A   1      30.692  23.444  24.572  1.00  0.00     0.038 A 
ATOM     11  C   UNL A   1      30.681  24.034  23.333  1.00  0.00     0.068 A 
ATOM     12  S   UNL A   1      31.983  25.112  23.133  1.00  0.00    -0.137 S 
BRANCH   9  13
ATOM     13  N   UNL A   1      32.014  23.430  26.654  1.00  0.00    -0.319 N 
ATOM     14  C   UNL A   1      32.944  22.538  27.152  1.00  0.00     0.276 C 
ATOM     15  O   UNL A   1      32.974  22.427  28.383  1.00  0.00    -0.267 OA
ATOM     16  H   UNL A   1      31.405  23.813  27.325  1.00  0.00     0.170 HD
BRANCH  14  17
ATOM     17  C   UNL A   1      33.952  21.769  26.343  1.00  0.00     0.151 A 
ATOM     18  C   UNL A   1      36.180  21.828  25.716  1.00  0.00     0.188 A 
ATOM     19  N   UNL A   1      36.073  20.713  24.985  1.00  0.00    -0.230 NA
ATOM     20  N   UNL A   1      35.185  22.338  26.447  1.00  0.00    -0.216 NA
ATOM     21  C   UNL A   1      34.840  20.185  24.884  1.00  0.00     0.137 A 
ATOM     22  C   UNL A   1      33.712  20.720  25.473  1.00  0.00     0.090 A 
ATOM     23  Cl  UNL A   1      32.210  20.142  24.883  1.00  0.00    -0.080 Cl
BRANCH  18  24
ATOM     24  S   UNL A   1      37.642  22.820  25.567  1.00  0.00    -0.090 SA
ATOM     25  C   UNL A   1      38.902  21.620  26.049  1.00  0.00     0.094 C 
ENDBRANCH  18  24
ENDBRANCH  14  17
ENDBRANCH   9  13
ENDBRANCH   5   8
ENDBRANCH   3   4
ENDBRANCH   2   3
ENDBRANCH   1   2
BRANCH   1  26
ATOM     26  C   UNL A   1      31.393  30.782  26.082  1.00  0.00     0.002 C 
BRANCH  26  27
ATOM     27  C   UNL A   1      31.290  32.253  26.497  1.00  0.00     0.021 C 
BRANCH  27  28
ATOM     28  C   UNL A   1      32.493  32.841  27.227  1.00  0.00     0.116 C 
BRANCH  28  29
ATOM     29  N   UNL A   1      32.297  34.225  27.627  1.00  0.00    -0.352 N 
ATOM     30  C   UNL A   1      32.973  34.980  28.551  1.00  0.00     0.251 C 
ATOM     31  H   UNL A   1      31.568  34.693  27.161  1.00  0.00     0.163 HD
ATOM     32  O   UNL A   1      32.567  36.111  28.826  1.00  0.00    -0.269 OA
BRANCH  30  33
ATOM     33  C   UNL A   1      34.168  34.448  29.244  1.00  0.00     0.039 A 
ATOM     34  C   UNL A   1      33.996  33.804  30.473  1.00  0.00     0.014 A 
ATOM     35  C   UNL A   1      35.452  34.600  28.714  1.00  0.00     0.014 A 
ATOM     36  C   UNL A   1      35.098  33.261  31.138  1.00  0.00     0.010 A 
ATOM     37  C   UNL A   1      36.541  33.996  29.342  1.00  0.00     0.010 A 
ATOM     38  C   UNL A   1      36.377  33.324  30.562  1.00  0.00    -0.014 A 
BRANCH  38  39
ATOM     39  C   UNL A   1      37.547  32.689  31.224  1.00  0.00     0.031 A 
ATOM     40  C   UNL A   1      38.206  31.481  30.615  1.00  0.00     0.074 A 
ATOM     41  C   UNL A   1      37.989  33.170  32.402  1.00  0.00     0.049 A 
ATOM     42  N   UNL A   1      39.208  30.769  31.065  1.00  0.00    -0.248 NA
ATOM     43  C   UNL A   1      37.652  30.996  29.341  1.00  0.00     0.031 C 
ATOM     44  C   UNL A   1      37.409  34.306  33.122  1.00  0.00     0.029 A 
ATOM     45  N   UNL A   1      39.022  32.760  33.208  1.00  0.00    -0.354 N 
ATOM     46  C   UNL A   1      39.396  29.750  30.139  1.00  0.00     0.074 A 
ATOM     47  C   UNL A   1      38.370  29.904  29.130  1.00  0.00     0.031 C 
ATOM     48  C   UNL A   1      38.109  34.517  34.248  1.00  0.00     0.029 A 
ATOM     49  C   UNL A   1      39.160  33.510  34.351  1.00  0.00     0.049 A 
ATOM     50  H   UNL A   1      39.607  32.000  32.988  1.00  0.00     0.167 HD
ATOM     51  C   UNL A   1      40.348  28.786  30.119  1.00  0.00     0.037 A 
ATOM     52  C   UNL A   1      40.032  33.394  35.371  1.00  0.00     0.037 A 
ATOM     53  C   UNL A   1      41.377  28.644  31.116  1.00  0.00     0.049 A 
ATOM     54  C   UNL A   1      41.070  32.307  35.334  1.00  0.00     0.074 A 
ATOM     55  C   UNL A   1      42.420  27.735  31.156  1.00  0.00     0.029 A 
ATOM     56  N   UNL A   1      41.489  29.429  32.255  1.00  0.00    -0.354 N 
ATOM     57  N   UNL A   1      41.280  31.395  34.416  1.00  0.00    -0.248 NA
ATOM     58  C   UNL A   1      41.998  32.238  36.471  1.00  0.00     0.031 C 
ATOM     59  C   UNL A   1      43.133  27.936  32.342  1.00  0.00     0.029 A 
ATOM     60  C   UNL A   1      42.569  29.009  33.015  1.00  0.00     0.049 A 
ATOM     61  H   UNL A   1      40.890  30.173  32.489  1.00  0.00     0.167 HD
ATOM     62  C   UNL A   1      42.379  30.665  34.849  1.00  0.00     0.074 A 
ATOM     63  C   UNL A   1      42.801  31.250  36.104  1.00  0.00     0.031 C 
ATOM     64  C   UNL A   1      42.984  29.604  34.260  1.00  0.00     0.037 A 
BRANCH  51  65
ATOM     65  C   UNL A   1      40.322  27.810  28.978  1.00  0.00     0.057 A 
ATOM     66  C   UNL A   1      39.557  26.636  29.026  1.00  0.00     0.134 A 
ATOM     67  C   UNL A   1      41.041  28.062  27.803  1.00  0.00     0.134 A 
ATOM     68  F   UNL A   1      38.851  26.328  30.124  1.00  0.00    -0.206 F 
ATOM     69  C   UNL A   1      39.533  25.735  27.959  1.00  0.00     0.040 A 
ATOM     70  C   UNL A   1      41.002  27.182  26.719  1.00  0.00     0.040 A 
ATOM     71  F   UNL A   1      41.788  29.170  27.684  1.00  0.00    -0.206 F 
ATOM     72  C   UNL A   1      40.252  26.012  26.799  1.00  0.00     0.006 A 
ENDBRANCH  51  65
BRANCH  52  73
ATOM     73  C   UNL A   1      39.976  34.348  36.509  1.00  0.00     0.057 A 
ATOM     74  C   UNL A   1      39.248  34.051  37.666  1.00  0.00     0.134 A 
ATOM     75  C   UNL A   1      40.638  35.581  36.464  1.00  0.00     0.134 A 
ATOM     76  F   UNL A   1      38.576  32.894  37.763  1.00  0.00    -0.206 F 
ATOM     77  C   UNL A   1      39.160  34.953  38.729  1.00  0.00     0.040 A 
ATOM     78  C   UNL A   1      40.582  36.481  37.529  1.00  0.00     0.040 A 
ATOM     79  F   UNL A   1      41.358  35.925  35.386  1.00  0.00    -0.206 F 
ATOM     80  C   UNL A   1      39.834  36.171  38.662  1.00  0.00     0.006 A 
ENDBRANCH  52  73
BRANCH  64  81
ATOM     81  C   UNL A   1      44.193  29.035  34.944  1.00  0.00     0.057 A 
ATOM     82  C   UNL A   1      44.099  27.990  35.871  1.00  0.00     0.134 A 
ATOM     83  C   UNL A   1      45.473  29.519  34.645  1.00  0.00     0.134 A 
ATOM     84  F   UNL A   1      42.902  27.489  36.212  1.00  0.00    -0.206 F 
ATOM     85  C   UNL A   1      45.232  27.464  36.496  1.00  0.00     0.040 A 
ATOM     86  C   UNL A   1      46.615  28.983  35.240  1.00  0.00     0.040 A 
ATOM     87  F   UNL A   1      45.637  30.513  33.758  1.00  0.00    -0.206 F 
ATOM     88  C   UNL A   1      46.496  27.956  36.176  1.00  0.00     0.006 A 
ENDBRANCH  64  81
ENDBRANCH  38  39
ENDBRANCH  30  33
ENDBRANCH  28  29
ENDBRANCH  27  28
ENDBRANCH  26  27
ENDBRANCH   1  26
TORSDOF 16
ENDMDL
MODEL 2
REMARK VINA RESULT:     -11.1      4.569      9.370
REMARK SMILES CSc1ncc(Cl)c(C(=O)Nc2ccsc2C(=O)NCCCCCCNC(=O)c2ccc(-c3c4nc(c(-c5c(F)cccc5F)c5ccc([nH]5)c(-c5c(F)cccc5F)c5nc(c(-c6c(F)cccc6F)c6ccc3[nH]6)C=C5)C=C4)cc2)n1
REMARK SMILES IDX 22 1 21 2 20 3 19 4 17 5 18 6 16 8 12 9 13 10 14 11 15 12
REMARK SMILES IDX 11 13 9 14 10 15 8 17 3 18 4 19 83 20 5 21 6 22 7 23 2 24
REMARK SMILES IDX 1 25 23 26 24 27 25 28 26 29 27 30 28 32 29 33 30 34 82 35
REMARK SMILES IDX 31 36 81 37 32 38 33 39 34 40 75 41 35 42 80 43 74 44 76 45
REMARK SMILES IDX 36 46 79 47 73 48 72 49 37 51 63 52 46 53 62 54 47 55 50 56
REMARK SMILES IDX 61 57 77 58 48 59 49 60 60 62 78 63 51 64 38 65 39 66 44 67
REMARK SMILES IDX 40 68 41 69 43 70 45 71 42 72 64 73 65 74 70 75 66 76 67 77
REMARK SMILES IDX 69 78 71 79 68 80 52 81 53 82 58 83 54 84 55 85 57 86 59 87
REMARK SMILES IDX 56 88
REMARK H PARENT 19 7 11 16 26 31 76 50 50 61
REMARK Flexibility Score: inf
ROOT
ATOM      1  C   UNL A   1      36.715  21.811  24.285  1.00  0.00     0.002 C 
ENDROOT
BRANCH   1   2
ATOM      2  C   UNL A   1      36.826  22.991  25.249  1.00  0.00     0.021 C 
BRANCH   2   3
ATOM      3  C   UNL A   1      35.539  23.737  25.573  1.00  0.00     0.116 C 
BRANCH   3   4
ATOM      4  N   UNL A   1      34.716  23.200  26.627  1.00  0.00    -0.351 N 
ATOM      5  C   UNL A   1      33.346  23.021  26.723  1.00  0.00     0.263 C 
ATOM      6  O   UNL A   1      32.993  22.485  27.780  1.00  0.00    -0.268 OA
ATOM      7  H   UNL A   1      35.217  22.906  27.422  1.00  0.00     0.163 HD
BRANCH   5   8
ATOM      8  C   UNL A   1      32.376  23.462  25.704  1.00  0.00     0.115 A 
ATOM      9  C   UNL A   1      31.444  24.493  25.590  1.00  0.00     0.065 A 
ATOM     10  C   UNL A   1      30.663  24.421  24.394  1.00  0.00     0.038 A 
ATOM     11  C   UNL A   1      31.001  23.344  23.613  1.00  0.00     0.068 A 
ATOM     12  S   UNL A   1      32.271  22.440  24.297  1.00  0.00    -0.137 S 
BRANCH   9  13
ATOM     13  N   UNL A   1      31.306  25.502  26.515  1.00  0.00    -0.319 N 
ATOM     14  C   UNL A   1      31.288  26.872  26.342  1.00  0.00     0.276 C 
ATOM     15  O   UNL A   1      31.028  27.537  27.351  1.00  0.00    -0.267 OA
ATOM     16  H   UNL A   1      31.205  25.200  27.447  1.00  0.00     0.170 HD
BRANCH  14  17
ATOM     17  C   UNL A   1      31.477  27.599  25.039  1.00  0.00     0.151 A 
ATOM     18  C   UNL A   1      30.276  28.758  23.433  1.00  0.00     0.188 A 
ATOM     19  N   UNL A   1      31.362  28.973  22.681  1.00  0.00    -0.230 NA
ATOM     20  N   UNL A   1      30.304  28.150  24.622  1.00  0.00    -0.216 NA
ATOM     21  C   UNL A   1      32.503  28.402  23.107  1.00  0.00     0.137 A 
ATOM     22  C   UNL A   1      32.608  27.622  24.241  1.00  0.00     0.090 A 
ATOM     23  Cl  UNL A   1      34.025  26.666  24.367  1.00  0.00    -0.080 Cl
BRANCH  18  24
ATOM     24  S   UNL A   1      28.676  29.099  22.753  1.00  0.00    -0.090 SA
ATOM     25  C   UNL A   1      29.079  30.454  21.629  1.00  0.00     0.094 C 
ENDBRANCH  18  24
ENDBRANCH  14  17
ENDBRANCH   9  13
ENDBRANCH   5   8
ENDBRANCH   3   4
ENDBRANCH   2   3
ENDBRANCH   1   2
BRANCH   1  26
ATOM     26  C   UNL A   1      36.547  20.419  24.898  1.00  0.00     0.002 C 
BRANCH  26  27
ATOM     27  C   UNL A   1      37.792  19.530  24.976  1.00  0.00     0.021 C 
BRANCH  27  28
ATOM     28  C   UNL A   1      38.967  20.070  25.784  1.00  0.00     0.116 C 
BRANCH  28  29
ATOM     29  N   UNL A   1      40.131  19.201  25.751  1.00  0.00    -0.352 N 
ATOM     30  C   UNL A   1      41.450  19.482  26.001  1.00  0.00     0.251 C 
ATOM     31  H   UNL A   1      39.943  18.264  25.515  1.00  0.00     0.163 HD
ATOM     32  O   UNL A   1      42.305  18.617  25.800  1.00  0.00    -0.269 OA
BRANCH  30  33
ATOM     33  C   UNL A   1      41.867  20.819  26.481  1.00  0.00     0.039 A 
ATOM     34  C   UNL A   1      42.275  21.769  25.540  1.00  0.00     0.014 A 
ATOM     35  C   UNL A   1      41.888  21.136  27.841  1.00  0.00     0.014 A 
ATOM     36  C   UNL A   1      42.644  23.051  25.956  1.00  0.00     0.010 A 
ATOM     37  C   UNL A   1      42.186  22.436  28.249  1.00  0.00     0.010 A 
ATOM     38  C   UNL A   1      42.572  23.406  27.312  1.00  0.00    -0.014 A 
BRANCH  38  39
ATOM     39  C   UNL A   1      42.893  24.786  27.761  1.00  0.00     0.031 A 
ATOM     40  C   UNL A   1      44.322  25.210  27.962  1.00  0.00     0.074 A 
ATOM     41  C   UNL A   1      41.894  25.648  28.034  1.00  0.00     0.049 A 
ATOM     42  N   UNL A   1      44.795  26.355  28.385  1.00  0.00    -0.248 NA
ATOM     43  C   UNL A   1      45.359  24.207  27.669  1.00  0.00     0.031 C 
ATOM     44  C   UNL A   1      40.465  25.347  27.924  1.00  0.00     0.029 A 
ATOM     45  N   UNL A   1      41.926  26.950  28.469  1.00  0.00    -0.354 N 
ATOM     46  C   UNL A   1      46.176  26.207  28.420  1.00  0.00     0.074 A 
ATOM     47  C   UNL A   1      46.462  24.844  28.027  1.00  0.00     0.031 C 
ATOM     48  C   UNL A   1      39.759  26.439  28.258  1.00  0.00     0.029 A 
ATOM     49  C   UNL A   1      40.681  27.503  28.643  1.00  0.00     0.049 A 
ATOM     50  H   UNL A   1      42.762  27.439  28.641  1.00  0.00     0.167 HD
ATOM     51  C   UNL A   1      47.121  27.126  28.731  1.00  0.00     0.037 A 
ATOM     52  C   UNL A   1      40.321  28.728  29.071  1.00  0.00     0.037 A 
ATOM     53  C   UNL A   1      46.834  28.487  29.107  1.00  0.00     0.049 A 
ATOM     54  C   UNL A   1      41.388  29.727  29.425  1.00  0.00     0.074 A 
ATOM     55  C   UNL A   1      47.724  29.510  29.387  1.00  0.00     0.029 A 
ATOM     56  N   UNL A   1      45.560  29.012  29.264  1.00  0.00    -0.354 N 
ATOM     57  N   UNL A   1      42.692  29.595  29.384  1.00  0.00    -0.248 NA
ATOM     58  C   UNL A   1      40.933  31.050  29.877  1.00  0.00     0.031 C 
ATOM     59  C   UNL A   1      46.989  30.640  29.761  1.00  0.00     0.029 A 
ATOM     60  C   UNL A   1      45.640  30.338  29.660  1.00  0.00     0.049 A 
ATOM     61  H   UNL A   1      44.722  28.516  29.116  1.00  0.00     0.167 HD
ATOM     62  C   UNL A   1      43.212  30.821  29.775  1.00  0.00     0.074 A 
ATOM     63  C   UNL A   1      42.083  31.691  30.033  1.00  0.00     0.031 C 
ATOM     64  C   UNL A   1      44.509  31.195  29.908  1.00  0.00     0.037 A 
BRANCH  51  65
ATOM     65  C   UNL A   1      48.557  26.691  28.673  1.00  0.00     0.057 A 
ATOM     66  C   UNL A   1      49.198  26.106  29.774  1.00  0.00     0.134 A 
ATOM     67  C   UNL A   1      49.300  26.826  27.493  1.00  0.00     0.134 A 
ATOM     68  F   UNL A   1      48.548  25.955  30.938  1.00  0.00    -0.206 F 
ATOM     69  C   UNL A   1      50.532  25.697  29.712  1.00  0.00     0.040 A 
ATOM     70  C   UNL A   1      50.626  26.395  27.411  1.00  0.00     0.040 A 
ATOM     71  F   UNL A   1      48.748  27.369  26.398  1.00  0.00    -0.206 F 
ATOM     72  C   UNL A   1      51.247  25.836  28.525  1.00  0.00     0.006 A 
ENDBRANCH  51  65
BRANCH  52  73
ATOM     73  C   UNL A   1      38.884  29.090  29.170  1.00  0.00     0.057 A 
ATOM     74  C   UNL A   1      38.179  29.562  28.057  1.00  0.00     0.134 A 
ATOM     75  C   UNL A   1      38.183  28.985  30.378  1.00  0.00     0.134 A 
ATOM     76  F   UNL A   1      38.799  29.703  26.876  1.00  0.00    -0.206 F 
ATOM     77  C   UNL A   1      36.837  29.937  28.143  1.00  0.00     0.040 A 
ATOM     78  C   UNL A   1      36.834  29.331  30.474  1.00  0.00     0.040 A 
ATOM     79  F   UNL A   1      38.799  28.536  31.481  1.00  0.00    -0.206 F 
ATOM     80  C   UNL A   1      36.160  29.817  29.356  1.00  0.00     0.006 A 
ENDBRANCH  52  73
BRANCH  64  81
ATOM     81  C   UNL A   1      44.777  32.616  30.311  1.00  0.00     0.057 A 
ATOM     82  C   UNL A   1      44.961  32.986  31.650  1.00  0.00     0.134 A 
ATOM     83  C   UNL A   1      44.885  33.622  29.342  1.00  0.00     0.134 A 
ATOM     84  F   UNL A   1      44.857  32.074  32.628  1.00  0.00    -0.206 F 
ATOM     85  C   UNL A   1      45.217  34.310  32.011  1.00  0.00     0.040 A 
ATOM     86  C   UNL A   1      45.170  34.943  29.689  1.00  0.00     0.040 A 
ATOM     87  F   UNL A   1      44.730  33.335  28.040  1.00  0.00    -0.206 F 
ATOM     88  C   UNL A   1      45.329  35.292  31.029  1.00  0.00     0.006 A 
ENDBRANCH  64  81
ENDBRANCH  38  39
ENDBRANCH  30  33
ENDBRANCH  28  29
ENDBRANCH  27  28
ENDBRANCH  26  27
ENDBRANCH   1  26
TORSDOF 16
ENDMDL
MODEL 3
REMARK VINA RESULT:     -11.0      1.786      6.399
REMARK SMILES CSc1ncc(Cl)c(C(=O)Nc2ccsc2C(=O)NCCCCCCNC(=O)c2ccc(-c3c4nc(c(-c5c(F)cccc5F)c5ccc([nH]5)c(-c5c(F)cccc5F)c5nc(c(-c6c(F)cccc6F)c6ccc3[nH]6)C=C5)C=C4)cc2)n1
REMARK SMILES IDX 22 1 21 2 20 3 19 4 17 5 18 6 16 8 12 9 13 10 14 11 15 12
REMARK SMILES IDX 11 13 9 14 10 15 8 17 3 18 4 19 83 20 5 21 6 22 7 23 2 24
REMARK SMILES IDX 1 25 23 26 24 27 25 28 26 29 27 30 28 32 29 33 30 34 82 35
REMARK SMILES IDX 31 36 81 37 32 38 33 39 34 40 75 41 35 42 80 43 74 44 76 45
REMARK SMILES IDX 36 46 79 47 73 48 72 49 37 51 63 52 46 53 62 54 47 55 50 56
REMARK SMILES IDX 61 57 77 58 48 59 49 60 60 62 78 63 51 64 38 65 39 66 44 67
REMARK SMILES IDX 40 68 41 69 43 70 45 71 42 72 64 73 65 74 70 75 66 76 67 77
REMARK SMILES IDX 69 78 71 79 68 80 52 81 53 82 58 83 54 84 55 85 57 86 59 87
REMARK SMILES IDX 56 88
REMARK H PARENT 19 7 11 16 26 31 76 50 50 61
REMARK Flexibility Score: inf
ROOT
ATOM      1  C   UNL A   1      32.358  29.595  27.158  1.00  0.00     0.002 C 
ENDROOT
BRANCH   1   2
ATOM      2  C   UNL A   1      31.748  28.200  27.271  1.00  0.00     0.021 C 
BRANCH   2   3
ATOM      3  C   UNL A   1      31.769  27.337  26.017  1.00  0.00     0.116 C 
BRANCH   3   4
ATOM      4  N   UNL A   1      30.641  27.446  25.126  1.00  0.00    -0.351 N 
ATOM      5  C   UNL A   1      30.268  26.700  24.020  1.00  0.00     0.263 C 
ATOM      6  O   UNL A   1      29.199  27.067  23.518  1.00  0.00    -0.268 OA
ATOM      7  H   UNL A   1      30.024  28.182  25.342  1.00  0.00     0.163 HD
BRANCH   5   8
ATOM      8  C   UNL A   1      31.070  25.605  23.445  1.00  0.00     0.115 A 
ATOM      9  C   UNL A   1      31.254  24.250  23.717  1.00  0.00     0.065 A 
ATOM     10  C   UNL A   1      32.245  23.635  22.889  1.00  0.00     0.038 A 
ATOM     11  C   UNL A   1      32.805  24.519  22.001  1.00  0.00     0.068 A 
ATOM     12  S   UNL A   1      32.124  26.073  22.139  1.00  0.00    -0.137 S 
BRANCH   9  13
ATOM     13  N   UNL A   1      30.534  23.558  24.664  1.00  0.00    -0.319 N 
ATOM     14  C   UNL A   1      30.896  22.472  25.438  1.00  0.00     0.276 C 
ATOM     15  O   UNL A   1      30.076  22.130  26.298  1.00  0.00    -0.267 OA
ATOM     16  H   UNL A   1      29.619  23.886  24.812  1.00  0.00     0.170 HD
BRANCH  14  17
ATOM     17  C   UNL A   1      32.209  21.741  25.374  1.00  0.00     0.151 A 
ATOM     18  C   UNL A   1      33.080  19.639  24.942  1.00  0.00     0.188 A 
ATOM     19  N   UNL A   1      34.335  20.040  25.168  1.00  0.00    -0.230 NA
ATOM     20  N   UNL A   1      32.022  20.455  24.967  1.00  0.00    -0.216 NA
ATOM     21  C   UNL A   1      34.488  21.309  25.588  1.00  0.00     0.137 A 
ATOM     22  C   UNL A   1      33.447  22.191  25.796  1.00  0.00     0.090 A 
ATOM     23  Cl  UNL A   1      33.821  23.589  26.715  1.00  0.00    -0.080 Cl
BRANCH  18  24
ATOM     24  S   UNL A   1      32.740  17.905  24.802  1.00  0.00    -0.090 SA
ATOM     25  C   UNL A   1      34.360  17.295  24.286  1.00  0.00     0.094 C 
ENDBRANCH  18  24
ENDBRANCH  14  17
ENDBRANCH   9  13
ENDBRANCH   5   8
ENDBRANCH   3   4
ENDBRANCH   2   3
ENDBRANCH   1   2
BRANCH   1  26
ATOM     26  C   UNL A   1      31.617  30.615  26.290  1.00  0.00     0.002 C 
BRANCH  26  27
ATOM     27  C   UNL A   1      31.471  32.036  26.843  1.00  0.00     0.021 C 
BRANCH  27  28
ATOM     28  C   UNL A   1      32.756  32.837  27.015  1.00  0.00     0.116 C 
BRANCH  28  29
ATOM     29  N   UNL A   1      32.547  34.120  27.666  1.00  0.00    -0.352 N 
ATOM     30  C   UNL A   1      33.199  34.684  28.732  1.00  0.00     0.251 C 
ATOM     31  H   UNL A   1      31.827  34.669  27.281  1.00  0.00     0.163 HD
ATOM     32  O   UNL A   1      32.783  35.743  29.209  1.00  0.00    -0.269 OA
BRANCH  30  33
ATOM     33  C   UNL A   1      34.379  34.028  29.339  1.00  0.00     0.039 A 
ATOM     34  C   UNL A   1      34.170  33.041  30.308  1.00  0.00     0.014 A 
ATOM     35  C   UNL A   1      35.682  34.392  28.989  1.00  0.00     0.014 A 
ATOM     36  C   UNL A   1      35.260  32.379  30.878  1.00  0.00     0.010 A 
ATOM     37  C   UNL A   1      36.766  33.681  29.504  1.00  0.00     0.010 A 
ATOM     38  C   UNL A   1      36.568  32.671  30.456  1.00  0.00    -0.014 A 
BRANCH  38  39
ATOM     39  C   UNL A   1      37.732  31.924  31.001  1.00  0.00     0.031 A 
ATOM     40  C   UNL A   1      38.273  32.247  32.368  1.00  0.00     0.074 A 
ATOM     41  C   UNL A   1      38.335  30.985  30.246  1.00  0.00     0.049 A 
ATOM     42  N   UNL A   1      39.302  31.734  32.993  1.00  0.00    -0.248 NA
ATOM     43  C   UNL A   1      37.580  33.303  33.123  1.00  0.00     0.031 C 
ATOM     44  C   UNL A   1      37.938  30.610  28.888  1.00  0.00     0.029 A 
ATOM     45  N   UNL A   1      39.417  30.181  30.509  1.00  0.00    -0.354 N 
ATOM     46  C   UNL A   1      39.386  32.408  34.205  1.00  0.00     0.074 A 
ATOM     47  C   UNL A   1      38.337  33.405  34.204  1.00  0.00     0.031 C 
ATOM     48  C   UNL A   1      38.747  29.633  28.447  1.00  0.00     0.029 A 
ATOM     49  C   UNL A   1      39.743  29.341  29.473  1.00  0.00     0.049 A 
ATOM     50  H   UNL A   1      39.911  30.206  31.360  1.00  0.00     0.167 HD
ATOM     51  C   UNL A   1      40.243  32.203  35.234  1.00  0.00     0.037 A 
ATOM     52  C   UNL A   1      40.739  28.441  29.358  1.00  0.00     0.037 A 
ATOM     53  C   UNL A   1      41.277  31.200  35.239  1.00  0.00     0.049 A 
ATOM     54  C   UNL A   1      41.687  28.242  30.508  1.00  0.00     0.074 A 
ATOM     55  C   UNL A   1      42.161  30.878  36.254  1.00  0.00     0.029 A 
ATOM     56  N   UNL A   1      41.571  30.362  34.173  1.00  0.00    -0.354 N 
ATOM     57  N   UNL A   1      41.709  28.838  31.675  1.00  0.00    -0.248 NA
ATOM     58  C   UNL A   1      42.746  27.239  30.326  1.00  0.00     0.031 C 
ATOM     59  C   UNL A   1      43.021  29.879  35.786  1.00  0.00     0.029 A 
ATOM     60  C   UNL A   1      42.638  29.540  34.498  1.00  0.00     0.049 A 
ATOM     61  H   UNL A   1      41.093  30.354  33.312  1.00  0.00     0.167 HD
ATOM     62  C   UNL A   1      42.760  28.263  32.377  1.00  0.00     0.074 A 
ATOM     63  C   UNL A   1      43.343  27.260  31.510  1.00  0.00     0.031 C 
ATOM     64  C   UNL A   1      43.204  28.540  33.628  1.00  0.00     0.037 A 
BRANCH  51  65
ATOM     65  C   UNL A   1      40.097  33.081  36.444  1.00  0.00     0.057 A 
ATOM     66  C   UNL A   1      39.191  32.781  37.471  1.00  0.00     0.134 A 
ATOM     67  C   UNL A   1      40.895  34.221  36.602  1.00  0.00     0.134 A 
ATOM     68  F   UNL A   1      38.390  31.709  37.379  1.00  0.00    -0.206 F 
ATOM     69  C   UNL A   1      39.064  33.598  38.596  1.00  0.00     0.040 A 
ATOM     70  C   UNL A   1      40.797  35.029  37.737  1.00  0.00     0.040 A 
ATOM     71  F   UNL A   1      41.789  34.564  35.664  1.00  0.00    -0.206 F 
ATOM     72  C   UNL A   1      39.874  34.722  38.734  1.00  0.00     0.006 A 
ENDBRANCH  51  65
BRANCH  52  73
ATOM     73  C   UNL A   1      40.878  27.640  28.115  1.00  0.00     0.057 A 
ATOM     74  C   UNL A   1      40.278  26.381  27.995  1.00  0.00     0.134 A 
ATOM     75  C   UNL A   1      41.621  28.106  27.023  1.00  0.00     0.134 A 
ATOM     76  F   UNL A   1      39.570  25.871  29.013  1.00  0.00    -0.206 F 
ATOM     77  C   UNL A   1      40.429  25.604  26.845  1.00  0.00     0.040 A 
ATOM     78  C   UNL A   1      41.759  27.351  25.857  1.00  0.00     0.040 A 
ATOM     79  F   UNL A   1      42.217  29.306  27.072  1.00  0.00    -0.206 F 
ATOM     80  C   UNL A   1      41.169  26.093  25.769  1.00  0.00     0.006 A 
ENDBRANCH  52  73
BRANCH  64  81
ATOM     81  C   UNL A   1      44.349  27.721  34.150  1.00  0.00     0.057 A 
ATOM     82  C   UNL A   1      45.678  28.150  34.048  1.00  0.00     0.134 A 
ATOM     83  C   UNL A   1      44.113  26.498  34.792  1.00  0.00     0.134 A 
ATOM     84  F   UNL A   1      45.973  29.305  33.433  1.00  0.00    -0.206 F 
ATOM     85  C   UNL A   1      46.733  27.381  34.543  1.00  0.00     0.040 A 
ATOM     86  C   UNL A   1      45.156  25.735  35.316  1.00  0.00     0.040 A 
ATOM     87  F   UNL A   1      42.863  26.030  34.932  1.00  0.00    -0.206 F 
ATOM     88  C   UNL A   1      46.473  26.173  35.186  1.00  0.00     0.006 A 
ENDBRANCH  64  81
ENDBRANCH  38  39
ENDBRANCH  30  33
ENDBRANCH  28  29
ENDBRANCH  27  28
ENDBRANCH  26  27
ENDBRANCH   1  26
TORSDOF 16
ENDMDL
