MODEL 1
REMARK VINA RESULT:     -11.8      0.000      0.000
REMARK SMILES COc1ccc(C(=O)N[C@H](C(=O)NCCCCCCNC(=O)c2ccc(-c3c4nc(c(-c5c(F)cccc5F)c5ccc([nH]5)c(-c5c(F)cccc5F)c5nc(c(-c6c(F)cccc6F)c6ccc3[nH]6)C=C5)C=C4)cc2)C2=C(C)N=N[C@H]2C)c(F)c1F
REMARK SMILES IDX 16 1 15 2 14 3 13 4 11 5 12 6 10 8 9 9 7 10 8 11 6 13 3 14
REMARK SMILES IDX 4 15 86 16 5 17 84 18 87 19 85 20 2 21 1 22 77 23 78 24
REMARK SMILES IDX 82 25 79 26 80 27 81 28 83 29 17 30 18 31 19 32 20 33 21 34
REMARK SMILES IDX 22 36 23 37 24 38 76 39 25 40 75 41 26 42 27 43 28 44 69 45
REMARK SMILES IDX 29 46 74 47 68 48 70 49 30 50 73 51 67 52 66 53 31 55 57 56
REMARK SMILES IDX 40 57 56 58 41 59 44 60 55 61 71 62 42 63 43 64 54 66 72 67
REMARK SMILES IDX 45 68 32 69 33 70 38 71 34 72 35 73 37 74 39 75 36 76 58 77
REMARK SMILES IDX 59 78 64 79 60 80 61 81 63 82 65 83 62 84 46 85 47 86 52 87
REMARK SMILES IDX 48 88 49 89 51 90 53 91 50 92
REMARK H PARENT 13 7 9 12 20 35 70 54 44 65
REMARK Flexibility Score: inf
ROOT
ATOM      1  C   UNL A   1      33.009  30.322  26.358  1.00  0.00     0.002 C 
ENDROOT
BRANCH   1   2
ATOM      2  C   UNL A   1      33.539  29.376  25.267  1.00  0.00     0.021 C 
BRANCH   2   3
ATOM      3  C   UNL A   1      33.931  27.988  25.786  1.00  0.00     0.116 C 
BRANCH   3   4
ATOM      4  N   UNL A   1      33.125  27.690  26.951  1.00  0.00    -0.354 N 
ATOM      5  C   UNL A   1      31.936  27.018  26.959  1.00  0.00     0.247 C 
ATOM      6  O   UNL A   1      31.030  27.519  27.623  1.00  0.00    -0.272 OA
ATOM      7  H   UNL A   1      33.467  28.000  27.820  1.00  0.00     0.163 HD
BRANCH   5   8
ATOM      8  C   UNL A   1      31.793  25.729  26.099  1.00  0.00     0.202 C 
BRANCH   8   9
ATOM      9  N   UNL A   1      30.820  24.770  26.637  1.00  0.00    -0.336 N 
ATOM     10  C   UNL A   1      30.831  23.416  26.873  1.00  0.00     0.255 C 
ATOM     11  O   UNL A   1      29.846  22.947  27.450  1.00  0.00    -0.269 OA
ATOM     12  H   UNL A   1      29.966  25.193  26.885  1.00  0.00     0.165 HD
BRANCH  10  13
ATOM     13  C   UNL A   1      31.863  22.463  26.392  1.00  0.00     0.078 A 
ATOM     14  C   UNL A   1      33.743  20.742  25.185  1.00  0.00     0.157 A 
ATOM     15  C   UNL A   1      32.434  20.781  24.712  1.00  0.00     0.050 A 
ATOM     16  C   UNL A   1      34.073  21.481  26.319  1.00  0.00     0.201 A 
ATOM     17  C   UNL A   1      31.504  21.644  25.305  1.00  0.00     0.021 A 
ATOM     18  C   UNL A   1      33.134  22.304  26.932  1.00  0.00     0.175 A 
ATOM     19  F   UNL A   1      35.320  21.428  26.813  1.00  0.00    -0.200 F 
ATOM     20  F   UNL A   1      33.499  22.938  28.050  1.00  0.00    -0.203 F 
BRANCH  14  21
ATOM     21  O   UNL A   1      34.730  19.972  24.634  1.00  0.00    -0.494 OA
ATOM     22  C   UNL A   1      34.444  18.576  24.622  1.00  0.00     0.278 C 
ENDBRANCH  14  21
ENDBRANCH  10  13
ENDBRANCH   8   9
BRANCH   8  23
ATOM     23  C   UNL A   1      31.666  25.908  24.614  1.00  0.00     0.011 C 
ATOM     24  C   UNL A   1      31.047  26.776  23.798  1.00  0.00     0.064 C 
ATOM     25  C   UNL A   1      32.243  24.876  23.683  1.00  0.00     0.156 C 
ATOM     26  C   UNL A   1      30.221  27.988  24.072  1.00  0.00     0.069 C 
ATOM     27  N   UNL A   1      31.188  26.443  22.471  1.00  0.00    -0.160 NA
ATOM     28  N   UNL A   1      31.840  25.376  22.346  1.00  0.00    -0.181 NA
ATOM     29  C   UNL A   1      33.753  24.696  23.677  1.00  0.00     0.040 C 
ENDBRANCH   8  23
ENDBRANCH   5   8
ENDBRANCH   3   4
ENDBRANCH   2   3
ENDBRANCH   1   2
BRANCH   1  30
ATOM     30  C   UNL A   1      31.598  30.859  26.105  1.00  0.00     0.002 C 
BRANCH  30  31
ATOM     31  C   UNL A   1      31.402  32.316  26.520  1.00  0.00     0.021 C 
BRANCH  31  32
ATOM     32  C   UNL A   1      32.603  32.929  27.227  1.00  0.00     0.116 C 
BRANCH  32  33
ATOM     33  N   UNL A   1      32.354  34.298  27.651  1.00  0.00    -0.352 N 
ATOM     34  C   UNL A   1      32.962  34.998  28.661  1.00  0.00     0.251 C 
ATOM     35  H   UNL A   1      31.660  34.783  27.148  1.00  0.00     0.163 HD
ATOM     36  O   UNL A   1      32.527  36.087  29.022  1.00  0.00    -0.269 OA
BRANCH  34  37
ATOM     37  C   UNL A   1      34.137  34.406  29.329  1.00  0.00     0.039 A 
ATOM     38  C   UNL A   1      33.953  33.664  30.496  1.00  0.00     0.014 A 
ATOM     39  C   UNL A   1      35.412  34.554  28.774  1.00  0.00     0.014 A 
ATOM     40  C   UNL A   1      35.045  33.023  31.081  1.00  0.00     0.010 A 
ATOM     41  C   UNL A   1      36.483  33.852  29.313  1.00  0.00     0.010 A 
ATOM     42  C   UNL A   1      36.311  33.087  30.477  1.00  0.00    -0.014 A 
BRANCH  42  43
ATOM     43  C   UNL A   1      37.477  32.372  31.055  1.00  0.00     0.031 A 
ATOM     44  C   UNL A   1      38.118  32.882  32.315  1.00  0.00     0.074 A 
ATOM     45  C   UNL A   1      37.996  31.309  30.410  1.00  0.00     0.049 A 
ATOM     46  N   UNL A   1      39.188  32.449  32.931  1.00  0.00    -0.248 NA
ATOM     47  C   UNL A   1      37.491  34.052  32.950  1.00  0.00     0.031 C 
ATOM     48  C   UNL A   1      37.491  30.747  29.157  1.00  0.00     0.029 A 
ATOM     49  N   UNL A   1      39.074  30.518  30.719  1.00  0.00    -0.354 N 
ATOM     50  C   UNL A   1      39.369  33.300  34.015  1.00  0.00     0.074 A 
ATOM     51  C   UNL A   1      38.334  34.309  33.938  1.00  0.00     0.031 C 
ATOM     52  C   UNL A   1      38.244  29.690  28.814  1.00  0.00     0.029 A 
ATOM     53  C   UNL A   1      39.308  29.523  29.799  1.00  0.00     0.049 A 
ATOM     54  H   UNL A   1      39.628  30.650  31.522  1.00  0.00     0.167 HD
ATOM     55  C   UNL A   1      40.298  33.234  34.997  1.00  0.00     0.037 A 
ATOM     56  C   UNL A   1      40.278  28.590  29.752  1.00  0.00     0.037 A 
ATOM     57  C   UNL A   1      41.310  32.214  35.082  1.00  0.00     0.049 A 
ATOM     58  C   UNL A   1      41.304  28.543  30.850  1.00  0.00     0.074 A 
ATOM     59  C   UNL A   1      42.260  32.024  36.069  1.00  0.00     0.029 A 
ATOM     60  N   UNL A   1      41.503  31.213  34.142  1.00  0.00    -0.354 N 
ATOM     61  N   UNL A   1      41.424  29.314  31.904  1.00  0.00    -0.248 NA
ATOM     62  C   UNL A   1      42.328  27.493  30.756  1.00  0.00     0.031 C 
ATOM     63  C   UNL A   1      43.061  30.938  35.702  1.00  0.00     0.029 A 
ATOM     64  C   UNL A   1      42.573  30.416  34.514  1.00  0.00     0.049 A 
ATOM     65  H   UNL A   1      40.959  31.088  33.331  1.00  0.00     0.167 HD
ATOM     66  C   UNL A   1      42.513  28.823  32.615  1.00  0.00     0.074 A 
ATOM     67  C   UNL A   1      43.011  27.681  31.876  1.00  0.00     0.031 C 
ATOM     68  C   UNL A   1      43.049  29.275  33.774  1.00  0.00     0.037 A 
BRANCH  55  69
ATOM     69  C   UNL A   1      40.261  34.295  36.058  1.00  0.00     0.057 A 
ATOM     70  C   UNL A   1      39.500  34.147  37.226  1.00  0.00     0.134 A 
ATOM     71  C   UNL A   1      41.020  35.464  35.928  1.00  0.00     0.134 A 
ATOM     72  F   UNL A   1      38.739  33.057  37.409  1.00  0.00    -0.206 F 
ATOM     73  C   UNL A   1      39.472  35.137  38.211  1.00  0.00     0.040 A 
ATOM     74  C   UNL A   1      41.025  36.446  36.919  1.00  0.00     0.040 A 
ATOM     75  F   UNL A   1      41.776  35.668  34.838  1.00  0.00    -0.206 F 
ATOM     76  C   UNL A   1      40.243  36.287  38.061  1.00  0.00     0.006 A 
ENDBRANCH  55  69
BRANCH  56  77
ATOM     77  C   UNL A   1      40.314  27.611  28.637  1.00  0.00     0.057 A 
ATOM     78  C   UNL A   1      39.628  26.395  28.721  1.00  0.00     0.134 A 
ATOM     79  C   UNL A   1      41.043  27.860  27.467  1.00  0.00     0.134 A 
ATOM     80  F   UNL A   1      38.926  26.091  29.823  1.00  0.00    -0.206 F 
ATOM     81  C   UNL A   1      39.680  25.451  27.693  1.00  0.00     0.040 A 
ATOM     82  C   UNL A   1      41.082  26.937  26.420  1.00  0.00     0.040 A 
ATOM     83  F   UNL A   1      41.715  29.010  27.319  1.00  0.00    -0.206 F 
ATOM     84  C   UNL A   1      40.407  25.724  26.536  1.00  0.00     0.006 A 
ENDBRANCH  56  77
BRANCH  68  85
ATOM     85  C   UNL A   1      44.209  28.510  34.342  1.00  0.00     0.057 A 
ATOM     86  C   UNL A   1      44.029  27.386  35.156  1.00  0.00     0.134 A 
ATOM     87  C   UNL A   1      45.524  28.880  34.029  1.00  0.00     0.134 A 
ATOM     88  F   UNL A   1      42.797  26.987  35.503  1.00  0.00    -0.206 F 
ATOM     89  C   UNL A   1      45.118  26.669  35.658  1.00  0.00     0.040 A 
ATOM     90  C   UNL A   1      46.618  28.154  34.500  1.00  0.00     0.040 A 
ATOM     91  F   UNL A   1      45.765  29.942  33.246  1.00  0.00    -0.206 F 
ATOM     92  C   UNL A   1      46.416  27.048  35.322  1.00  0.00     0.006 A 
ENDBRANCH  68  85
ENDBRANCH  42  43
ENDBRANCH  34  37
ENDBRANCH  32  33
ENDBRANCH  31  32
ENDBRANCH  30  31
ENDBRANCH   1  30
TORSDOF 17
ENDMDL
MODEL 2
REMARK VINA RESULT:     -11.8      1.328      6.325
REMARK SMILES COc1ccc(C(=O)N[C@H](C(=O)NCCCCCCNC(=O)c2ccc(-c3c4nc(c(-c5c(F)cccc5F)c5ccc([nH]5)c(-c5c(F)cccc5F)c5nc(c(-c6c(F)cccc6F)c6ccc3[nH]6)C=C5)C=C4)cc2)C2=C(C)N=N[C@H]2C)c(F)c1F
REMARK SMILES IDX 16 1 15 2 14 3 13 4 11 5 12 6 10 8 9 9 7 10 8 11 6 13 3 14
REMARK SMILES IDX 4 15 86 16 5 17 84 18 87 19 85 20 2 21 1 22 77 23 78 24
REMARK SMILES IDX 82 25 79 26 80 27 81 28 83 29 17 30 18 31 19 32 20 33 21 34
REMARK SMILES IDX 22 36 23 37 24 38 76 39 25 40 75 41 26 42 27 43 28 44 69 45
REMARK SMILES IDX 29 46 74 47 68 48 70 49 30 50 73 51 67 52 66 53 31 55 57 56
REMARK SMILES IDX 40 57 56 58 41 59 44 60 55 61 71 62 42 63 43 64 54 66 72 67
REMARK SMILES IDX 45 68 32 69 33 70 38 71 34 72 35 73 37 74 39 75 36 76 58 77
REMARK SMILES IDX 59 78 64 79 60 80 61 81 63 82 65 83 62 84 46 85 47 86 52 87
REMARK SMILES IDX 48 88 49 89 51 90 53 91 50 92
REMARK H PARENT 13 7 9 12 20 35 70 54 44 65
REMARK Flexibility Score: inf
ROOT
ATOM      1  C   UNL A   1      32.506  29.840  27.009  1.00  0.00     0.002 C 
ENDROOT
BRANCH   1   2
ATOM      2  C   UNL A   1      31.812  28.494  27.282  1.00  0.00     0.021 C 
BRANCH   2   3
ATOM      3  C   UNL A   1      32.592  27.280  26.767  1.00  0.00     0.116 C 
BRANCH   3   4
ATOM      4  N   UNL A   1      31.716  26.128  26.792  1.00  0.00    -0.354 N 
ATOM      5  C   UNL A   1      30.797  25.792  25.839  1.00  0.00     0.247 C 
ATOM      6  O   UNL A   1      29.681  25.475  26.244  1.00  0.00    -0.272 OA
ATOM      7  H   UNL A   1      31.790  25.529  27.569  1.00  0.00     0.163 HD
BRANCH   5   8
ATOM      8  C   UNL A   1      31.198  25.891  24.339  1.00  0.00     0.202 C 
BRANCH   8   9
ATOM      9  N   UNL A   1      31.150  24.604  23.633  1.00  0.00    -0.336 N 
ATOM     10  C   UNL A   1      31.901  23.454  23.673  1.00  0.00     0.255 C 
ATOM     11  O   UNL A   1      31.496  22.504  22.997  1.00  0.00    -0.269 OA
ATOM     12  H   UNL A   1      30.413  24.554  22.983  1.00  0.00     0.165 HD
BRANCH  10  13
ATOM     13  C   UNL A   1      33.208  23.299  24.361  1.00  0.00     0.078 A 
ATOM     14  C   UNL A   1      35.794  23.241  25.485  1.00  0.00     0.157 A 
ATOM     15  C   UNL A   1      35.639  23.286  24.102  1.00  0.00     0.050 A 
ATOM     16  C   UNL A   1      34.662  23.118  26.287  1.00  0.00     0.201 A 
ATOM     17  C   UNL A   1      34.354  23.326  23.545  1.00  0.00     0.021 A 
ATOM     18  C   UNL A   1      33.388  23.114  25.727  1.00  0.00     0.175 A 
ATOM     19  F   UNL A   1      34.791  23.035  27.620  1.00  0.00    -0.200 F 
ATOM     20  F   UNL A   1      32.350  22.933  26.547  1.00  0.00    -0.203 F 
BRANCH  14  21
ATOM     21  O   UNL A   1      37.006  23.254  26.116  1.00  0.00    -0.494 OA
ATOM     22  C   UNL A   1      37.939  22.303  25.612  1.00  0.00     0.278 C 
ENDBRANCH  14  21
ENDBRANCH  10  13
ENDBRANCH   8   9
BRANCH   8  23
ATOM     23  C   UNL A   1      30.593  27.009  23.541  1.00  0.00     0.011 C 
ATOM     24  C   UNL A   1      29.351  27.461  23.305  1.00  0.00     0.064 C 
ATOM     25  C   UNL A   1      31.467  27.858  22.656  1.00  0.00     0.156 C 
ATOM     26  C   UNL A   1      28.016  27.015  23.798  1.00  0.00     0.069 C 
ATOM     27  N   UNL A   1      29.334  28.507  22.411  1.00  0.00    -0.160 NA
ATOM     28  N   UNL A   1      30.493  28.766  22.003  1.00  0.00    -0.181 NA
ATOM     29  C   UNL A   1      32.527  28.717  23.328  1.00  0.00     0.040 C 
ENDBRANCH   8  23
ENDBRANCH   5   8
ENDBRANCH   3   4
ENDBRANCH   2   3
ENDBRANCH   1   2
BRANCH   1  30
ATOM     30  C   UNL A   1      31.712  30.796  26.115  1.00  0.00     0.002 C 
BRANCH  30  31
ATOM     31  C   UNL A   1      31.382  32.135  26.771  1.00  0.00     0.021 C 
BRANCH  31  32
ATOM     32  C   UNL A   1      32.585  32.841  27.383  1.00  0.00     0.116 C 
BRANCH  32  33
ATOM     33  N   UNL A   1      32.329  34.251  27.629  1.00  0.00    -0.352 N 
ATOM     34  C   UNL A   1      32.940  35.079  28.537  1.00  0.00     0.251 C 
ATOM     35  H   UNL A   1      31.629  34.664  27.074  1.00  0.00     0.163 HD
ATOM     36  O   UNL A   1      32.499  36.203  28.758  1.00  0.00    -0.269 OA
BRANCH  34  37
ATOM     37  C   UNL A   1      34.122  34.584  29.267  1.00  0.00     0.039 A 
ATOM     38  C   UNL A   1      33.952  34.018  30.531  1.00  0.00     0.014 A 
ATOM     39  C   UNL A   1      35.390  34.647  28.680  1.00  0.00     0.014 A 
ATOM     40  C   UNL A   1      35.051  33.463  31.187  1.00  0.00     0.010 A 
ATOM     41  C   UNL A   1      36.467  34.026  29.300  1.00  0.00     0.010 A 
ATOM     42  C   UNL A   1      36.310  33.435  30.564  1.00  0.00    -0.014 A 
BRANCH  42  43
ATOM     43  C   UNL A   1      37.482  32.806  31.222  1.00  0.00     0.031 A 
ATOM     44  C   UNL A   1      38.136  31.605  30.598  1.00  0.00     0.074 A 
ATOM     45  C   UNL A   1      37.912  33.274  32.409  1.00  0.00     0.049 A 
ATOM     46  N   UNL A   1      39.115  30.867  31.055  1.00  0.00    -0.248 NA
ATOM     47  C   UNL A   1      37.597  31.156  29.304  1.00  0.00     0.031 C 
ATOM     48  C   UNL A   1      37.333  34.405  33.137  1.00  0.00     0.029 A 
ATOM     49  N   UNL A   1      38.935  32.847  33.219  1.00  0.00    -0.354 N 
ATOM     50  C   UNL A   1      39.299  29.862  30.113  1.00  0.00     0.074 A 
ATOM     51  C   UNL A   1      38.292  30.049  29.091  1.00  0.00     0.031 C 
ATOM     52  C   UNL A   1      38.021  34.595  34.274  1.00  0.00     0.029 A 
ATOM     53  C   UNL A   1      39.062  33.577  34.377  1.00  0.00     0.049 A 
ATOM     54  H   UNL A   1      39.521  32.089  32.993  1.00  0.00     0.167 HD
ATOM     55  C   UNL A   1      40.236  28.885  30.091  1.00  0.00     0.037 A 
ATOM     56  C   UNL A   1      39.917  33.435  35.407  1.00  0.00     0.037 A 
ATOM     57  C   UNL A   1      41.250  28.717  31.098  1.00  0.00     0.049 A 
ATOM     58  C   UNL A   1      40.942  32.336  35.363  1.00  0.00     0.074 A 
ATOM     59  C   UNL A   1      42.282  27.797  31.137  1.00  0.00     0.029 A 
ATOM     60  N   UNL A   1      41.359  29.488  32.245  1.00  0.00    -0.354 N 
ATOM     61  N   UNL A   1      41.148  31.433  34.435  1.00  0.00    -0.248 NA
ATOM     62  C   UNL A   1      41.860  32.239  36.507  1.00  0.00     0.031 C 
ATOM     63  C   UNL A   1      42.984  27.978  32.332  1.00  0.00     0.029 A 
ATOM     64  C   UNL A   1      42.425  29.049  33.010  1.00  0.00     0.049 A 
ATOM     65  H   UNL A   1      40.764  30.238  32.480  1.00  0.00     0.167 HD
ATOM     66  C   UNL A   1      42.236  30.683  34.866  1.00  0.00     0.074 A 
ATOM     67  C   UNL A   1      42.653  31.245  36.134  1.00  0.00     0.031 C 
ATOM     68  C   UNL A   1      42.835  29.627  34.265  1.00  0.00     0.037 A 
BRANCH  55  69
ATOM     69  C   UNL A   1      40.206  27.923  28.939  1.00  0.00     0.057 A 
ATOM     70  C   UNL A   1      40.906  28.170  27.750  1.00  0.00     0.134 A 
ATOM     71  C   UNL A   1      39.497  26.719  29.031  1.00  0.00     0.134 A 
ATOM     72  F   UNL A   1      41.595  29.310  27.590  1.00  0.00    -0.206 F 
ATOM     73  C   UNL A   1      40.876  27.269  26.683  1.00  0.00     0.040 A 
ATOM     74  C   UNL A   1      39.484  25.797  27.983  1.00  0.00     0.040 A 
ATOM     75  F   UNL A   1      38.809  26.416  30.142  1.00  0.00    -0.206 F 
ATOM     76  C   UNL A   1      40.169  26.074  26.802  1.00  0.00     0.006 A 
ENDBRANCH  55  69
BRANCH  56  77
ATOM     77  C   UNL A   1      39.853  34.368  36.561  1.00  0.00     0.057 A 
ATOM     78  C   UNL A   1      40.539  35.588  36.541  1.00  0.00     0.134 A 
ATOM     79  C   UNL A   1      39.117  34.061  37.712  1.00  0.00     0.134 A 
ATOM     80  F   UNL A   1      41.275  35.931  35.474  1.00  0.00    -0.206 F 
ATOM     81  C   UNL A   1      40.514  36.459  37.631  1.00  0.00     0.040 A 
ATOM     82  C   UNL A   1      39.062  34.935  38.799  1.00  0.00     0.040 A 
ATOM     83  F   UNL A   1      38.430  32.912  37.790  1.00  0.00    -0.206 F 
ATOM     84  C   UNL A   1      39.770  36.134  38.764  1.00  0.00     0.006 A 
ENDBRANCH  56  77
BRANCH  68  85
ATOM     85  C   UNL A   1      44.035  29.036  34.947  1.00  0.00     0.057 A 
ATOM     86  C   UNL A   1      45.336  29.474  34.673  1.00  0.00     0.134 A 
ATOM     87  C   UNL A   1      43.878  28.045  35.926  1.00  0.00     0.134 A 
ATOM     88  F   UNL A   1      45.556  30.410  33.738  1.00  0.00    -0.206 F 
ATOM     89  C   UNL A   1      46.441  28.932  35.333  1.00  0.00     0.040 A 
ATOM     90  C   UNL A   1      44.972  27.517  36.612  1.00  0.00     0.040 A 
ATOM     91  F   UNL A   1      42.657  27.588  36.242  1.00  0.00    -0.206 F 
ATOM     92  C   UNL A   1      46.259  27.957  36.311  1.00  0.00     0.006 A 
ENDBRANCH  68  85
ENDBRANCH  42  43
ENDBRANCH  34  37
ENDBRANCH  32  33
ENDBRANCH  31  32
ENDBRANCH  30  31
ENDBRANCH   1  30
TORSDOF 17
ENDMDL
MODEL 3
REMARK VINA RESULT:     -11.8      0.438      5.964
REMARK SMILES COc1ccc(C(=O)N[C@H](C(=O)NCCCCCCNC(=O)c2ccc(-c3c4nc(c(-c5c(F)cccc5F)c5ccc([nH]5)c(-c5c(F)cccc5F)c5nc(c(-c6c(F)cccc6F)c6ccc3[nH]6)C=C5)C=C4)cc2)C2=C(C)N=N[C@H]2C)c(F)c1F
REMARK SMILES IDX 16 1 15 2 14 3 13 4 11 5 12 6 10 8 9 9 7 10 8 11 6 13 3 14
REMARK SMILES IDX 4 15 86 16 5 17 84 18 87 19 85 20 2 21 1 22 77 23 78 24
REMARK SMILES IDX 82 25 79 26 80 27 81 28 83 29 17 30 18 31 19 32 20 33 21 34
REMARK SMILES IDX 22 36 23 37 24 38 76 39 25 40 75 41 26 42 27 43 28 44 69 45
REMARK SMILES IDX 29 46 74 47 68 48 70 49 30 50 73 51 67 52 66 53 31 55 57 56
REMARK SMILES IDX 40 57 56 58 41 59 44 60 55 61 71 62 42 63 43 64 54 66 72 67
REMARK SMILES IDX 45 68 32 69 33 70 38 71 34 72 35 73 37 74 39 75 36 76 58 77
REMARK SMILES IDX 59 78 64 79 60 80 61 81 63 82 65 83 62 84 46 85 47 86 52 87
REMARK SMILES IDX 48 88 49 89 51 90 53 91 50 92
REMARK H PARENT 13 7 9 12 20 35 70 54 44 65
REMARK Flexibility Score: inf
ROOT
ATOM      1  C   UNL A   1      33.159  30.231  26.421  1.00  0.00     0.002 C 
ENDROOT
BRANCH   1   2
ATOM      2  C   UNL A   1      33.782  29.349  25.326  1.00  0.00     0.021 C 
BRANCH   2   3
ATOM      3  C   UNL A   1      33.987  27.890  25.747  1.00  0.00     0.116 C 
BRANCH   3   4
ATOM      4  N   UNL A   1      33.163  27.627  26.907  1.00  0.00    -0.354 N 
ATOM      5  C   UNL A   1      31.956  26.988  26.912  1.00  0.00     0.247 C 
ATOM      6  O   UNL A   1      31.057  27.521  27.561  1.00  0.00    -0.272 OA
ATOM      7  H   UNL A   1      33.505  27.938  27.776  1.00  0.00     0.163 HD
BRANCH   5   8
ATOM      8  C   UNL A   1      31.787  25.693  26.066  1.00  0.00     0.202 C 
BRANCH   8   9
ATOM      9  N   UNL A   1      30.771  24.775  26.596  1.00  0.00    -0.336 N 
ATOM     10  C   UNL A   1      30.733  23.426  26.858  1.00  0.00     0.255 C 
ATOM     11  O   UNL A   1      29.719  22.998  27.417  1.00  0.00    -0.269 OA
ATOM     12  H   UNL A   1      29.924  25.228  26.813  1.00  0.00     0.165 HD
BRANCH  10  13
ATOM     13  C   UNL A   1      31.748  22.433  26.422  1.00  0.00     0.078 A 
ATOM     14  C   UNL A   1      33.596  20.624  25.297  1.00  0.00     0.157 A 
ATOM     15  C   UNL A   1      32.289  20.670  24.817  1.00  0.00     0.050 A 
ATOM     16  C   UNL A   1      33.937  21.403  26.400  1.00  0.00     0.201 A 
ATOM     17  C   UNL A   1      31.375  21.576  25.369  1.00  0.00     0.021 A 
ATOM     18  C   UNL A   1      33.013  22.271  26.974  1.00  0.00     0.175 A 
ATOM     19  F   UNL A   1      35.181  21.346  26.901  1.00  0.00    -0.200 F 
ATOM     20  F   UNL A   1      33.387  22.944  28.065  1.00  0.00    -0.203 F 
BRANCH  14  21
ATOM     21  O   UNL A   1      34.568  19.812  24.784  1.00  0.00    -0.494 OA
ATOM     22  C   UNL A   1      34.108  18.518  24.403  1.00  0.00     0.278 C 
ENDBRANCH  14  21
ENDBRANCH  10  13
ENDBRANCH   8   9
BRANCH   8  23
ATOM     23  C   UNL A   1      31.696  25.856  24.577  1.00  0.00     0.011 C 
ATOM     24  C   UNL A   1      31.139  26.744  23.737  1.00  0.00     0.064 C 
ATOM     25  C   UNL A   1      32.232  24.779  23.670  1.00  0.00     0.156 C 
ATOM     26  C   UNL A   1      30.376  28.002  23.978  1.00  0.00     0.069 C 
ATOM     27  N   UNL A   1      31.286  26.383  22.418  1.00  0.00    -0.160 NA
ATOM     28  N   UNL A   1      31.880  25.281  22.319  1.00  0.00    -0.181 NA
ATOM     29  C   UNL A   1      33.729  24.518  23.695  1.00  0.00     0.040 C 
ENDBRANCH   8  23
ENDBRANCH   5   8
ENDBRANCH   3   4
ENDBRANCH   2   3
ENDBRANCH   1   2
BRANCH   1  30
ATOM     30  C   UNL A   1      31.738  30.713  26.118  1.00  0.00     0.002 C 
BRANCH  30  31
ATOM     31  C   UNL A   1      31.402  32.080  26.713  1.00  0.00     0.021 C 
BRANCH  31  32
ATOM     32  C   UNL A   1      32.591  32.794  27.340  1.00  0.00     0.116 C 
BRANCH  32  33
ATOM     33  N   UNL A   1      32.311  34.194  27.615  1.00  0.00    -0.352 N 
ATOM     34  C   UNL A   1      32.909  35.014  28.537  1.00  0.00     0.251 C 
ATOM     35  H   UNL A   1      31.601  34.605  27.069  1.00  0.00     0.163 HD
ATOM     36  O   UNL A   1      32.449  36.125  28.782  1.00  0.00    -0.269 OA
BRANCH  34  37
ATOM     37  C   UNL A   1      34.103  34.527  29.254  1.00  0.00     0.039 A 
ATOM     38  C   UNL A   1      33.948  33.949  30.515  1.00  0.00     0.014 A 
ATOM     39  C   UNL A   1      35.365  34.609  28.658  1.00  0.00     0.014 A 
ATOM     40  C   UNL A   1      35.058  33.401  31.158  1.00  0.00     0.010 A 
ATOM     41  C   UNL A   1      36.453  33.995  29.265  1.00  0.00     0.010 A 
ATOM     42  C   UNL A   1      36.312  33.392  30.525  1.00  0.00    -0.014 A 
BRANCH  42  43
ATOM     43  C   UNL A   1      37.497  32.771  31.169  1.00  0.00     0.031 A 
ATOM     44  C   UNL A   1      38.155  31.579  30.534  1.00  0.00     0.074 A 
ATOM     45  C   UNL A   1      37.934  33.238  32.354  1.00  0.00     0.049 A 
ATOM     46  N   UNL A   1      39.145  30.848  30.978  1.00  0.00    -0.248 NA
ATOM     47  C   UNL A   1      37.608  31.130  29.243  1.00  0.00     0.031 C 
ATOM     48  C   UNL A   1      37.352  34.360  33.092  1.00  0.00     0.029 A 
ATOM     49  N   UNL A   1      38.968  32.817  33.152  1.00  0.00    -0.354 N 
ATOM     50  C   UNL A   1      39.329  29.848  30.031  1.00  0.00     0.074 A 
ATOM     51  C   UNL A   1      38.311  30.031  29.019  1.00  0.00     0.031 C 
ATOM     52  C   UNL A   1      38.049  34.552  34.224  1.00  0.00     0.029 A 
ATOM     53  C   UNL A   1      39.101  33.544  34.312  1.00  0.00     0.049 A 
ATOM     54  H   UNL A   1      39.560  32.065  32.917  1.00  0.00     0.167 HD
ATOM     55  C   UNL A   1      40.275  28.880  29.995  1.00  0.00     0.037 A 
ATOM     56  C   UNL A   1      39.966  33.404  35.334  1.00  0.00     0.037 A 
ATOM     57  C   UNL A   1      41.300  28.717  30.991  1.00  0.00     0.049 A 
ATOM     58  C   UNL A   1      41.001  32.315  35.275  1.00  0.00     0.074 A 
ATOM     59  C   UNL A   1      42.341  27.806  31.016  1.00  0.00     0.029 A 
ATOM     60  N   UNL A   1      41.413  29.485  32.141  1.00  0.00    -0.354 N 
ATOM     61  N   UNL A   1      41.206  31.418  34.341  1.00  0.00    -0.248 NA
ATOM     62  C   UNL A   1      41.930  32.222  36.410  1.00  0.00     0.031 C 
ATOM     63  C   UNL A   1      43.053  27.988  32.205  1.00  0.00     0.029 A 
ATOM     64  C   UNL A   1      42.491  29.052  32.894  1.00  0.00     0.049 A 
ATOM     65  H   UNL A   1      40.814  30.228  32.385  1.00  0.00     0.167 HD
ATOM     66  C   UNL A   1      42.305  30.676  34.758  1.00  0.00     0.074 A 
ATOM     67  C   UNL A   1      42.729  31.237  36.024  1.00  0.00     0.031 C 
ATOM     68  C   UNL A   1      42.908  29.628  34.147  1.00  0.00     0.037 A 
BRANCH  55  69
ATOM     69  C   UNL A   1      40.242  27.922  28.839  1.00  0.00     0.057 A 
ATOM     70  C   UNL A   1      40.933  28.178  27.646  1.00  0.00     0.134 A 
ATOM     71  C   UNL A   1      39.540  26.714  28.931  1.00  0.00     0.134 A 
ATOM     72  F   UNL A   1      41.615  29.323  27.487  1.00  0.00    -0.206 F 
ATOM     73  C   UNL A   1      40.900  27.282  26.576  1.00  0.00     0.040 A 
ATOM     74  C   UNL A   1      39.526  25.796  27.880  1.00  0.00     0.040 A 
ATOM     75  F   UNL A   1      38.863  26.403  30.046  1.00  0.00    -0.206 F 
ATOM     76  C   UNL A   1      40.201  26.083  26.695  1.00  0.00     0.006 A 
ENDBRANCH  55  69
BRANCH  56  77
ATOM     77  C   UNL A   1      39.905  34.332  36.491  1.00  0.00     0.057 A 
ATOM     78  C   UNL A   1      39.185  34.002  37.645  1.00  0.00     0.134 A 
ATOM     79  C   UNL A   1      40.553  35.574  36.470  1.00  0.00     0.134 A 
ATOM     80  F   UNL A   1      38.529  32.834  37.719  1.00  0.00    -0.206 F 
ATOM     81  C   UNL A   1      39.092  34.878  38.727  1.00  0.00     0.040 A 
ATOM     82  C   UNL A   1      40.490  36.450  37.556  1.00  0.00     0.040 A 
ATOM     83  F   UNL A   1      41.267  35.947  35.399  1.00  0.00    -0.206 F 
ATOM     84  C   UNL A   1      39.750  36.106  38.685  1.00  0.00     0.006 A 
ENDBRANCH  56  77
BRANCH  68  85
ATOM     85  C   UNL A   1      44.119  29.045  34.814  1.00  0.00     0.057 A 
ATOM     86  C   UNL A   1      44.031  27.961  35.696  1.00  0.00     0.134 A 
ATOM     87  C   UNL A   1      45.396  29.548  34.533  1.00  0.00     0.134 A 
ATOM     88  F   UNL A   1      42.838  27.440  36.017  1.00  0.00    -0.206 F 
ATOM     89  C   UNL A   1      45.169  27.412  36.291  1.00  0.00     0.040 A 
ATOM     90  C   UNL A   1      46.543  28.990  35.099  1.00  0.00     0.040 A 
ATOM     91  F   UNL A   1      45.551  30.580  33.690  1.00  0.00    -0.206 F 
ATOM     92  C   UNL A   1      46.430  27.921  35.985  1.00  0.00     0.006 A 
ENDBRANCH  68  85
ENDBRANCH  42  43
ENDBRANCH  34  37
ENDBRANCH  32  33
ENDBRANCH  31  32
ENDBRANCH  30  31
ENDBRANCH   1  30
TORSDOF 17
ENDMDL
