MODEL 1
REMARK VINA RESULT:     -11.7      0.000      0.000
REMARK SMILES Cc1cc(C)c2c(c1)C=C(C(=O)NCCCCCCNC(=O)c1ccc(-c3c4nc(c(-c5c(F)cccc5F)c5ccc([nH]5)c(-c5c(F)cccc5F)c5nc(c(-c6c(F)cccc6F)c6ccc3[nH]6)C=C5)C=C4)cc1)[C@@H](C(F)(F)F)O2
REMARK SMILES IDX 17 1 16 2 15 3 14 4 13 5 11 6 12 7 10 9 1 10 2 11 3 12 8 13
REMARK SMILES IDX 4 14 7 15 5 16 6 17 9 18 82 19 77 20 78 21 79 22 80 23 81 24
REMARK SMILES IDX 18 25 19 26 20 27 21 28 22 30 23 31 24 32 76 33 25 34 75 35
REMARK SMILES IDX 26 36 27 37 28 38 69 39 29 40 74 41 68 42 70 43 30 44 73 45
REMARK SMILES IDX 67 46 66 47 31 49 57 50 40 51 56 52 41 53 44 54 55 55 71 56
REMARK SMILES IDX 42 57 43 58 54 60 72 61 45 62 32 63 33 64 38 65 34 66 35 67
REMARK SMILES IDX 37 68 39 69 36 70 58 71 59 72 64 73 60 74 61 75 63 76 65 77
REMARK SMILES IDX 62 78 46 79 47 80 52 81 48 82 49 83 51 84 53 85 50 86
REMARK H PARENT 13 8 20 29 70 48 44 59
REMARK Flexibility Score: inf
ROOT
ATOM      1  C   UNL A   1      32.863  29.144  24.888  1.00  0.00     0.002 C 
ENDROOT
BRANCH   1   2
ATOM      2  C   UNL A   1      31.425  28.612  24.841  1.00  0.00     0.002 C 
BRANCH   2   3
ATOM      3  C   UNL A   1      30.706  28.786  23.499  1.00  0.00     0.021 C 
BRANCH   3   4
ATOM      4  C   UNL A   1      30.424  27.475  22.773  1.00  0.00     0.116 C 
BRANCH   4   5
ATOM      5  N   UNL A   1      31.538  27.073  21.933  1.00  0.00    -0.352 N 
ATOM      6  C   UNL A   1      32.595  26.233  22.021  1.00  0.00     0.251 C 
ATOM      7  O   UNL A   1      33.304  26.180  21.010  1.00  0.00    -0.270 OA
ATOM      8  H   UNL A   1      31.518  27.535  21.064  1.00  0.00     0.163 HD
BRANCH   6   9
ATOM      9  C   UNL A   1      32.946  25.402  23.212  1.00  0.00     0.067 C 
ATOM     10  C   UNL A   1      37.835  22.680  25.841  1.00  0.00     0.044 C 
ATOM     11  C   UNL A   1      36.416  23.155  25.737  1.00  0.00    -0.050 A 
ATOM     12  C   UNL A   1      35.477  22.814  26.719  1.00  0.00     0.010 A 
ATOM     13  C   UNL A   1      36.010  23.914  24.632  1.00  0.00     0.015 A 
ATOM     14  C   UNL A   1      34.147  23.241  26.618  1.00  0.00    -0.008 A 
ATOM     15  C   UNL A   1      34.685  24.340  24.512  1.00  0.00     0.018 A 
ATOM     16  C   UNL A   1      33.147  22.881  27.680  1.00  0.00     0.048 C 
ATOM     17  C   UNL A   1      33.763  23.996  25.504  1.00  0.00     0.130 A 
ATOM     18  C   UNL A   1      34.259  25.165  23.388  1.00  0.00     0.025 C 
ATOM     19  O   UNL A   1      32.464  24.417  25.460  1.00  0.00    -0.475 OA
ATOM     20  C   UNL A   1      31.945  24.811  24.163  1.00  0.00     0.314 C 
BRANCH  20  21
ATOM     21  C   UNL A   1      31.166  23.633  23.556  1.00  0.00     0.429 C 
ATOM     22  F   UNL A   1      31.934  22.971  22.652  1.00  0.00    -0.167 F 
ATOM     23  F   UNL A   1      30.801  22.716  24.482  1.00  0.00    -0.167 F 
ATOM     24  F   UNL A   1      30.038  24.021  22.919  1.00  0.00    -0.167 F 
ENDBRANCH  20  21
ENDBRANCH   6   9
ENDBRANCH   4   5
ENDBRANCH   3   4
ENDBRANCH   2   3
ENDBRANCH   1   2
BRANCH   1  25
ATOM     25  C   UNL A   1      33.846  28.325  25.732  1.00  0.00     0.021 C 
BRANCH  25  26
ATOM     26  C   UNL A   1      33.710  28.517  27.239  1.00  0.00     0.116 C 
BRANCH  26  27
ATOM     27  N   UNL A   1      33.716  29.922  27.605  1.00  0.00    -0.352 N 
ATOM     28  C   UNL A   1      34.676  30.651  28.250  1.00  0.00     0.251 C 
ATOM     29  H   UNL A   1      32.908  30.425  27.351  1.00  0.00     0.163 HD
ATOM     30  O   UNL A   1      34.409  31.776  28.675  1.00  0.00    -0.269 OA
BRANCH  28  31
ATOM     31  C   UNL A   1      36.036  30.107  28.436  1.00  0.00     0.039 A 
ATOM     32  C   UNL A   1      36.375  29.546  29.670  1.00  0.00     0.014 A 
ATOM     33  C   UNL A   1      36.998  30.217  27.426  1.00  0.00     0.014 A 
ATOM     34  C   UNL A   1      37.671  29.076  29.890  1.00  0.00     0.010 A 
ATOM     35  C   UNL A   1      38.276  29.700  27.626  1.00  0.00     0.010 A 
ATOM     36  C   UNL A   1      38.628  29.146  28.866  1.00  0.00    -0.014 A 
BRANCH  36  37
ATOM     37  C   UNL A   1      40.028  28.716  29.090  1.00  0.00     0.031 A 
ATOM     38  C   UNL A   1      41.000  29.670  29.726  1.00  0.00     0.074 A 
ATOM     39  C   UNL A   1      40.435  27.499  28.686  1.00  0.00     0.049 A 
ATOM     40  N   UNL A   1      42.292  29.547  29.895  1.00  0.00    -0.248 NA
ATOM     41  C   UNL A   1      40.445  30.942  30.219  1.00  0.00     0.031 C 
ATOM     42  C   UNL A   1      39.586  26.487  28.058  1.00  0.00     0.029 A 
ATOM     43  N   UNL A   1      41.675  26.914  28.735  1.00  0.00    -0.354 N 
ATOM     44  C   UNL A   1      42.705  30.728  30.498  1.00  0.00     0.074 A 
ATOM     45  C   UNL A   1      41.537  31.572  30.629  1.00  0.00     0.031 C 
ATOM     46  C   UNL A   1      40.327  25.399  27.792  1.00  0.00     0.029 A 
ATOM     47  C   UNL A   1      41.708  25.653  28.192  1.00  0.00     0.049 A 
ATOM     48  H   UNL A   1      42.464  27.356  29.123  1.00  0.00     0.167 HD
ATOM     49  C   UNL A   1      43.944  31.069  30.924  1.00  0.00     0.037 A 
ATOM     50  C   UNL A   1      42.742  24.808  28.024  1.00  0.00     0.037 A 
ATOM     51  C   UNL A   1      45.099  30.219  30.815  1.00  0.00     0.049 A 
ATOM     52  C   UNL A   1      44.115  25.224  28.472  1.00  0.00     0.074 A 
ATOM     53  C   UNL A   1      46.394  30.463  31.240  1.00  0.00     0.029 A 
ATOM     54  N   UNL A   1      45.095  28.955  30.247  1.00  0.00    -0.354 N 
ATOM     55  N   UNL A   1      44.494  26.342  29.044  1.00  0.00    -0.248 NA
ATOM     56  C   UNL A   1      45.205  24.264  28.246  1.00  0.00     0.031 C 
ATOM     57  C   UNL A   1      47.180  29.359  30.897  1.00  0.00     0.029 A 
ATOM     58  C   UNL A   1      46.368  28.412  30.295  1.00  0.00     0.049 A 
ATOM     59  H   UNL A   1      44.305  28.509  29.864  1.00  0.00     0.167 HD
ATOM     60  C   UNL A   1      45.860  26.216  29.256  1.00  0.00     0.074 A 
ATOM     61  C   UNL A   1      46.240  24.904  28.773  1.00  0.00     0.031 C 
ATOM     62  C   UNL A   1      46.726  27.107  29.798  1.00  0.00     0.037 A 
BRANCH  49  63
ATOM     63  C   UNL A   1      44.110  32.422  31.551  1.00  0.00     0.057 A 
ATOM     64  C   UNL A   1      43.981  32.614  32.932  1.00  0.00     0.134 A 
ATOM     65  C   UNL A   1      44.438  33.538  30.771  1.00  0.00     0.134 A 
ATOM     66  F   UNL A   1      43.652  31.588  33.732  1.00  0.00    -0.206 F 
ATOM     67  C   UNL A   1      44.152  33.871  33.514  1.00  0.00     0.040 A 
ATOM     68  C   UNL A   1      44.635  34.795  31.344  1.00  0.00     0.040 A 
ATOM     69  F   UNL A   1      44.579  33.424  29.442  1.00  0.00    -0.206 F 
ATOM     70  C   UNL A   1      44.489  34.965  32.720  1.00  0.00     0.006 A 
ENDBRANCH  49  63
BRANCH  50  71
ATOM     71  C   UNL A   1      42.515  23.476  27.411  1.00  0.00     0.057 A 
ATOM     72  C   UNL A   1      42.627  23.296  26.027  1.00  0.00     0.134 A 
ATOM     73  C   UNL A   1      42.187  22.357  28.184  1.00  0.00     0.134 A 
ATOM     74  F   UNL A   1      42.918  24.336  25.233  1.00  0.00    -0.206 F 
ATOM     75  C   UNL A   1      42.413  22.052  25.433  1.00  0.00     0.040 A 
ATOM     76  C   UNL A   1      41.991  21.102  27.605  1.00  0.00     0.040 A 
ATOM     77  F   UNL A   1      42.067  22.465  29.516  1.00  0.00    -0.206 F 
ATOM     78  C   UNL A   1      42.099  20.948  26.225  1.00  0.00     0.006 A 
ENDBRANCH  50  71
BRANCH  62  79
ATOM     79  C   UNL A   1      48.163  26.690  29.897  1.00  0.00     0.057 A 
ATOM     80  C   UNL A   1      48.633  25.928  30.974  1.00  0.00     0.134 A 
ATOM     81  C   UNL A   1      49.077  27.022  28.889  1.00  0.00     0.134 A 
ATOM     82  F   UNL A   1      47.810  25.589  31.978  1.00  0.00    -0.206 F 
ATOM     83  C   UNL A   1      49.967  25.528  31.056  1.00  0.00     0.040 A 
ATOM     84  C   UNL A   1      50.409  26.606  28.948  1.00  0.00     0.040 A 
ATOM     85  F   UNL A   1      48.689  27.743  27.827  1.00  0.00    -0.206 F 
ATOM     86  C   UNL A   1      50.857  25.862  30.037  1.00  0.00     0.006 A 
ENDBRANCH  62  79
ENDBRANCH  36  37
ENDBRANCH  28  31
ENDBRANCH  26  27
ENDBRANCH  25  26
ENDBRANCH   1  25
TORSDOF 14
ENDMDL
MODEL 2
REMARK VINA RESULT:     -11.7      1.545      2.088
REMARK SMILES Cc1cc(C)c2c(c1)C=C(C(=O)NCCCCCCNC(=O)c1ccc(-c3c4nc(c(-c5c(F)cccc5F)c5ccc([nH]5)c(-c5c(F)cccc5F)c5nc(c(-c6c(F)cccc6F)c6ccc3[nH]6)C=C5)C=C4)cc1)[C@@H](C(F)(F)F)O2
REMARK SMILES IDX 17 1 16 2 15 3 14 4 13 5 11 6 12 7 10 9 1 10 2 11 3 12 8 13
REMARK SMILES IDX 4 14 7 15 5 16 6 17 9 18 82 19 77 20 78 21 79 22 80 23 81 24
REMARK SMILES IDX 18 25 19 26 20 27 21 28 22 30 23 31 24 32 76 33 25 34 75 35
REMARK SMILES IDX 26 36 27 37 28 38 69 39 29 40 74 41 68 42 70 43 30 44 73 45
REMARK SMILES IDX 67 46 66 47 31 49 57 50 40 51 56 52 41 53 44 54 55 55 71 56
REMARK SMILES IDX 42 57 43 58 54 60 72 61 45 62 32 63 33 64 38 65 34 66 35 67
REMARK SMILES IDX 37 68 39 69 36 70 58 71 59 72 64 73 60 74 61 75 63 76 65 77
REMARK SMILES IDX 62 78 46 79 47 80 52 81 48 82 49 83 51 84 53 85 50 86
REMARK H PARENT 13 8 20 29 70 48 44 59
REMARK Flexibility Score: inf
ROOT
ATOM      1  C   UNL A   1      31.484  28.281  26.169  1.00  0.00     0.002 C 
ENDROOT
BRANCH   1   2
ATOM      2  C   UNL A   1      30.721  27.112  25.530  1.00  0.00     0.002 C 
BRANCH   2   3
ATOM      3  C   UNL A   1      30.493  27.228  24.019  1.00  0.00     0.021 C 
BRANCH   3   4
ATOM      4  C   UNL A   1      30.486  25.889  23.290  1.00  0.00     0.116 C 
BRANCH   4   5
ATOM      5  N   UNL A   1      31.422  25.874  22.180  1.00  0.00    -0.352 N 
ATOM      6  C   UNL A   1      32.552  25.210  21.843  1.00  0.00     0.251 C 
ATOM      7  O   UNL A   1      33.022  25.508  20.740  1.00  0.00    -0.270 OA
ATOM      8  H   UNL A   1      31.165  26.521  21.484  1.00  0.00     0.163 HD
BRANCH   6   9
ATOM      9  C   UNL A   1      33.239  24.184  22.684  1.00  0.00     0.067 C 
ATOM     10  C   UNL A   1      32.528  18.346  24.594  1.00  0.00     0.044 C 
ATOM     11  C   UNL A   1      33.237  19.654  24.401  1.00  0.00    -0.050 A 
ATOM     12  C   UNL A   1      34.482  19.884  25.001  1.00  0.00     0.010 A 
ATOM     13  C   UNL A   1      32.639  20.673  23.649  1.00  0.00     0.015 A 
ATOM     14  C   UNL A   1      35.141  21.109  24.839  1.00  0.00    -0.008 A 
ATOM     15  C   UNL A   1      33.279  21.904  23.485  1.00  0.00     0.018 A 
ATOM     16  C   UNL A   1      36.481  21.346  25.477  1.00  0.00     0.048 C 
ATOM     17  C   UNL A   1      34.522  22.113  24.085  1.00  0.00     0.130 A 
ATOM     18  C   UNL A   1      32.686  22.957  22.671  1.00  0.00     0.025 C 
ATOM     19  O   UNL A   1      35.213  23.282  23.927  1.00  0.00    -0.475 OA
ATOM     20  C   UNL A   1      34.446  24.451  23.537  1.00  0.00     0.314 C 
BRANCH  20  21
ATOM     21  C   UNL A   1      34.120  25.278  24.792  1.00  0.00     0.429 C 
ATOM     22  F   UNL A   1      33.992  26.592  24.474  1.00  0.00    -0.167 F 
ATOM     23  F   UNL A   1      32.949  24.915  25.367  1.00  0.00    -0.167 F 
ATOM     24  F   UNL A   1      35.072  25.184  25.746  1.00  0.00    -0.167 F 
ENDBRANCH  20  21
ENDBRANCH   6   9
ENDBRANCH   4   5
ENDBRANCH   3   4
ENDBRANCH   2   3
ENDBRANCH   1   2
BRANCH   1  25
ATOM     25  C   UNL A   1      32.511  27.895  27.239  1.00  0.00     0.021 C 
BRANCH  25  26
ATOM     26  C   UNL A   1      33.868  28.578  27.101  1.00  0.00     0.116 C 
BRANCH  26  27
ATOM     27  N   UNL A   1      33.845  29.931  27.626  1.00  0.00    -0.352 N 
ATOM     28  C   UNL A   1      34.792  30.603  28.349  1.00  0.00     0.251 C 
ATOM     29  H   UNL A   1      33.024  30.442  27.436  1.00  0.00     0.163 HD
ATOM     30  O   UNL A   1      34.502  31.665  28.902  1.00  0.00    -0.269 OA
BRANCH  28  31
ATOM     31  C   UNL A   1      36.165  30.072  28.466  1.00  0.00     0.039 A 
ATOM     32  C   UNL A   1      36.565  29.497  29.675  1.00  0.00     0.014 A 
ATOM     33  C   UNL A   1      37.080  30.209  27.416  1.00  0.00     0.014 A 
ATOM     34  C   UNL A   1      37.874  29.041  29.830  1.00  0.00     0.010 A 
ATOM     35  C   UNL A   1      38.371  29.704  27.550  1.00  0.00     0.010 A 
ATOM     36  C   UNL A   1      38.784  29.137  28.766  1.00  0.00    -0.014 A 
BRANCH  36  37
ATOM     37  C   UNL A   1      40.198  28.720  28.920  1.00  0.00     0.031 A 
ATOM     38  C   UNL A   1      41.200  29.699  29.464  1.00  0.00     0.074 A 
ATOM     39  C   UNL A   1      40.587  27.491  28.536  1.00  0.00     0.049 A 
ATOM     40  N   UNL A   1      42.500  29.588  29.559  1.00  0.00    -0.248 NA
ATOM     41  C   UNL A   1      40.668  30.986  29.943  1.00  0.00     0.031 C 
ATOM     42  C   UNL A   1      39.708  26.454  27.997  1.00  0.00     0.029 A 
ATOM     43  N   UNL A   1      41.831  26.913  28.532  1.00  0.00    -0.354 N 
ATOM     44  C   UNL A   1      42.942  30.791  30.094  1.00  0.00     0.074 A 
ATOM     45  C   UNL A   1      41.779  31.635  30.264  1.00  0.00     0.031 C 
ATOM     46  C   UNL A   1      40.438  25.360  27.726  1.00  0.00     0.029 A 
ATOM     47  C   UNL A   1      41.839  25.634  28.034  1.00  0.00     0.049 A 
ATOM     48  H   UNL A   1      42.639  27.371  28.857  1.00  0.00     0.167 HD
ATOM     49  C   UNL A   1      44.202  31.152  30.433  1.00  0.00     0.037 A 
ATOM     50  C   UNL A   1      42.866  24.786  27.835  1.00  0.00     0.037 A 
ATOM     51  C   UNL A   1      45.354  30.303  30.286  1.00  0.00     0.049 A 
ATOM     52  C   UNL A   1      44.261  25.224  28.185  1.00  0.00     0.074 A 
ATOM     53  C   UNL A   1      46.669  30.567  30.623  1.00  0.00     0.029 A 
ATOM     54  N   UNL A   1      45.323  29.019  29.763  1.00  0.00    -0.354 N 
ATOM     55  N   UNL A   1      44.667  26.363  28.692  1.00  0.00    -0.248 NA
ATOM     56  C   UNL A   1      45.341  24.260  27.928  1.00  0.00     0.031 C 
ATOM     57  C   UNL A   1      47.441  29.454  30.274  1.00  0.00     0.029 A 
ATOM     58  C   UNL A   1      46.600  28.483  29.755  1.00  0.00     0.049 A 
ATOM     59  H   UNL A   1      44.514  28.557  29.445  1.00  0.00     0.167 HD
ATOM     60  C   UNL A   1      46.044  26.250  28.827  1.00  0.00     0.074 A 
ATOM     61  C   UNL A   1      46.402  24.922  28.369  1.00  0.00     0.031 C 
ATOM     62  C   UNL A   1      46.935  27.163  29.284  1.00  0.00     0.037 A 
BRANCH  49  63
ATOM     63  C   UNL A   1      44.397  32.527  31.000  1.00  0.00     0.057 A 
ATOM     64  C   UNL A   1      44.343  32.769  32.379  1.00  0.00     0.134 A 
ATOM     65  C   UNL A   1      44.677  33.615  30.163  1.00  0.00     0.134 A 
ATOM     66  F   UNL A   1      44.064  31.772  33.232  1.00  0.00    -0.206 F 
ATOM     67  C   UNL A   1      44.542  34.047  32.904  1.00  0.00     0.040 A 
ATOM     68  C   UNL A   1      44.900  34.893  30.679  1.00  0.00     0.040 A 
ATOM     69  F   UNL A   1      44.744  33.452  28.833  1.00  0.00    -0.206 F 
ATOM     70  C   UNL A   1      44.829  35.112  32.053  1.00  0.00     0.006 A 
ENDBRANCH  49  63
BRANCH  50  71
ATOM     71  C   UNL A   1      42.611  23.433  27.283  1.00  0.00     0.057 A 
ATOM     72  C   UNL A   1      42.291  22.363  28.127  1.00  0.00     0.134 A 
ATOM     73  C   UNL A   1      42.676  23.175  25.909  1.00  0.00     0.134 A 
ATOM     74  F   UNL A   1      42.236  22.545  29.455  1.00  0.00    -0.206 F 
ATOM     75  C   UNL A   1      42.053  21.083  27.626  1.00  0.00     0.040 A 
ATOM     76  C   UNL A   1      42.419  21.904  25.392  1.00  0.00     0.040 A 
ATOM     77  F   UNL A   1      42.975  24.159  25.049  1.00  0.00    -0.206 F 
ATOM     78  C   UNL A   1      42.110  20.853  26.253  1.00  0.00     0.006 A 
ENDBRANCH  50  71
BRANCH  62  79
ATOM     79  C   UNL A   1      48.378  26.755  29.312  1.00  0.00     0.057 A 
ATOM     80  C   UNL A   1      48.922  26.057  30.397  1.00  0.00     0.134 A 
ATOM     81  C   UNL A   1      49.222  27.031  28.229  1.00  0.00     0.134 A 
ATOM     82  F   UNL A   1      48.168  25.774  31.470  1.00  0.00    -0.206 F 
ATOM     83  C   UNL A   1      50.261  25.664  30.414  1.00  0.00     0.040 A 
ATOM     84  C   UNL A   1      50.557  26.622  28.223  1.00  0.00     0.040 A 
ATOM     85  F   UNL A   1      48.761  27.690  27.155  1.00  0.00    -0.206 F 
ATOM     86  C   UNL A   1      51.080  25.942  29.321  1.00  0.00     0.006 A 
ENDBRANCH  62  79
ENDBRANCH  36  37
ENDBRANCH  28  31
ENDBRANCH  26  27
ENDBRANCH  25  26
ENDBRANCH   1  25
TORSDOF 14
ENDMDL
MODEL 3
REMARK VINA RESULT:     -11.7      1.081      2.035
REMARK SMILES Cc1cc(C)c2c(c1)C=C(C(=O)NCCCCCCNC(=O)c1ccc(-c3c4nc(c(-c5c(F)cccc5F)c5ccc([nH]5)c(-c5c(F)cccc5F)c5nc(c(-c6c(F)cccc6F)c6ccc3[nH]6)C=C5)C=C4)cc1)[C@@H](C(F)(F)F)O2
REMARK SMILES IDX 17 1 16 2 15 3 14 4 13 5 11 6 12 7 10 9 1 10 2 11 3 12 8 13
REMARK SMILES IDX 4 14 7 15 5 16 6 17 9 18 82 19 77 20 78 21 79 22 80 23 81 24
REMARK SMILES IDX 18 25 19 26 20 27 21 28 22 30 23 31 24 32 76 33 25 34 75 35
REMARK SMILES IDX 26 36 27 37 28 38 69 39 29 40 74 41 68 42 70 43 30 44 73 45
REMARK SMILES IDX 67 46 66 47 31 49 57 50 40 51 56 52 41 53 44 54 55 55 71 56
REMARK SMILES IDX 42 57 43 58 54 60 72 61 45 62 32 63 33 64 38 65 34 66 35 67
REMARK SMILES IDX 37 68 39 69 36 70 58 71 59 72 64 73 60 74 61 75 63 76 65 77
REMARK SMILES IDX 62 78 46 79 47 80 52 81 48 82 49 83 51 84 53 85 50 86
REMARK H PARENT 13 8 20 29 70 48 44 59
REMARK Flexibility Score: inf
ROOT
ATOM      1  C   UNL A   1      32.978  29.570  24.985  1.00  0.00     0.002 C 
ENDROOT
BRANCH   1   2
ATOM      2  C   UNL A   1      31.482  29.353  24.717  1.00  0.00     0.002 C 
BRANCH   2   3
ATOM      3  C   UNL A   1      31.145  28.712  23.367  1.00  0.00     0.021 C 
BRANCH   3   4
ATOM      4  C   UNL A   1      31.022  27.192  23.416  1.00  0.00     0.116 C 
BRANCH   4   5
ATOM      5  N   UNL A   1      30.477  26.735  24.681  1.00  0.00    -0.352 N 
ATOM      6  C   UNL A   1      30.701  25.723  25.552  1.00  0.00     0.251 C 
ATOM      7  O   UNL A   1      29.989  25.738  26.561  1.00  0.00    -0.270 OA
ATOM      8  H   UNL A   1      29.747  27.319  24.990  1.00  0.00     0.163 HD
BRANCH   6   9
ATOM      9  C   UNL A   1      31.712  24.637  25.377  1.00  0.00     0.067 C 
ATOM     10  C   UNL A   1      37.807  23.695  25.807  1.00  0.00     0.044 C 
ATOM     11  C   UNL A   1      36.366  23.317  25.636  1.00  0.00    -0.050 A 
ATOM     12  C   UNL A   1      36.007  22.001  25.317  1.00  0.00     0.010 A 
ATOM     13  C   UNL A   1      35.366  24.291  25.756  1.00  0.00     0.015 A 
ATOM     14  C   UNL A   1      34.664  21.646  25.139  1.00  0.00    -0.008 A 
ATOM     15  C   UNL A   1      34.022  23.956  25.573  1.00  0.00     0.018 A 
ATOM     16  C   UNL A   1      34.285  20.231  24.807  1.00  0.00     0.048 C 
ATOM     17  C   UNL A   1      33.683  22.638  25.262  1.00  0.00     0.130 A 
ATOM     18  C   UNL A   1      32.970  24.951  25.736  1.00  0.00     0.025 C 
ATOM     19  O   UNL A   1      32.383  22.243  25.111  1.00  0.00    -0.475 OA
ATOM     20  C   UNL A   1      31.413  23.279  24.809  1.00  0.00     0.314 C 
BRANCH  20  21
ATOM     21  C   UNL A   1      31.163  23.307  23.292  1.00  0.00     0.429 C 
ATOM     22  F   UNL A   1      32.028  24.160  22.684  1.00  0.00    -0.167 F 
ATOM     23  F   UNL A   1      31.355  22.100  22.709  1.00  0.00    -0.167 F 
ATOM     24  F   UNL A   1      29.912  23.705  22.972  1.00  0.00    -0.167 F 
ENDBRANCH  20  21
ENDBRANCH   6   9
ENDBRANCH   4   5
ENDBRANCH   3   4
ENDBRANCH   2   3
ENDBRANCH   1   2
BRANCH   1  25
ATOM     25  C   UNL A   1      33.689  28.436  25.729  1.00  0.00     0.021 C 
BRANCH  25  26
ATOM     26  C   UNL A   1      33.707  28.578  27.248  1.00  0.00     0.116 C 
BRANCH  26  27
ATOM     27  N   UNL A   1      33.715  29.971  27.658  1.00  0.00    -0.352 N 
ATOM     28  C   UNL A   1      34.687  30.686  28.302  1.00  0.00     0.251 C 
ATOM     29  H   UNL A   1      32.898  30.477  27.440  1.00  0.00     0.163 HD
ATOM     30  O   UNL A   1      34.424  31.795  28.769  1.00  0.00    -0.269 OA
BRANCH  28  31
ATOM     31  C   UNL A   1      36.054  30.144  28.437  1.00  0.00     0.039 A 
ATOM     32  C   UNL A   1      36.454  29.624  29.671  1.00  0.00     0.014 A 
ATOM     33  C   UNL A   1      36.964  30.217  27.377  1.00  0.00     0.014 A 
ATOM     34  C   UNL A   1      37.759  29.159  29.840  1.00  0.00     0.010 A 
ATOM     35  C   UNL A   1      38.249  29.703  27.528  1.00  0.00     0.010 A 
ATOM     36  C   UNL A   1      38.663  29.191  28.767  1.00  0.00    -0.014 A 
BRANCH  36  37
ATOM     37  C   UNL A   1      40.073  28.765  28.934  1.00  0.00     0.031 A 
ATOM     38  C   UNL A   1      41.075  29.735  29.492  1.00  0.00     0.074 A 
ATOM     39  C   UNL A   1      40.458  27.535  28.549  1.00  0.00     0.049 A 
ATOM     40  N   UNL A   1      42.374  29.615  29.600  1.00  0.00    -0.248 NA
ATOM     41  C   UNL A   1      40.547  31.023  29.972  1.00  0.00     0.031 C 
ATOM     42  C   UNL A   1      39.578  26.506  27.996  1.00  0.00     0.029 A 
ATOM     43  N   UNL A   1      41.698  26.949  28.554  1.00  0.00    -0.354 N 
ATOM     44  C   UNL A   1      42.818  30.813  30.145  1.00  0.00     0.074 A 
ATOM     45  C   UNL A   1      41.658  31.663  30.307  1.00  0.00     0.031 C 
ATOM     46  C   UNL A   1      40.304  25.408  27.728  1.00  0.00     0.029 A 
ATOM     47  C   UNL A   1      41.703  25.672  28.050  1.00  0.00     0.049 A 
ATOM     48  H   UNL A   1      42.506  27.401  28.889  1.00  0.00     0.167 HD
ATOM     49  C   UNL A   1      44.076  31.165  30.497  1.00  0.00     0.037 A 
ATOM     50  C   UNL A   1      42.727  24.819  27.857  1.00  0.00     0.037 A 
ATOM     51  C   UNL A   1      45.225  30.309  30.358  1.00  0.00     0.049 A 
ATOM     52  C   UNL A   1      44.121  25.246  28.223  1.00  0.00     0.074 A 
ATOM     53  C   UNL A   1      46.539  30.563  30.709  1.00  0.00     0.029 A 
ATOM     54  N   UNL A   1      45.191  29.028  29.829  1.00  0.00    -0.354 N 
ATOM     55  N   UNL A   1      44.528  26.381  28.740  1.00  0.00    -0.248 NA
ATOM     56  C   UNL A   1      45.197  24.277  27.973  1.00  0.00     0.031 C 
ATOM     57  C   UNL A   1      47.306  29.447  30.362  1.00  0.00     0.029 A 
ATOM     58  C   UNL A   1      46.465  28.483  29.831  1.00  0.00     0.049 A 
ATOM     59  H   UNL A   1      44.383  28.572  29.500  1.00  0.00     0.167 HD
ATOM     60  C   UNL A   1      45.904  26.258  28.888  1.00  0.00     0.074 A 
ATOM     61  C   UNL A   1      46.258  24.930  28.427  1.00  0.00     0.031 C 
ATOM     62  C   UNL A   1      46.796  27.163  29.358  1.00  0.00     0.037 A 
BRANCH  49  63
ATOM     63  C   UNL A   1      44.275  32.536  31.072  1.00  0.00     0.057 A 
ATOM     64  C   UNL A   1      44.527  33.647  30.256  1.00  0.00     0.134 A 
ATOM     65  C   UNL A   1      44.178  32.757  32.452  1.00  0.00     0.134 A 
ATOM     66  F   UNL A   1      44.648  33.500  28.928  1.00  0.00    -0.206 F 
ATOM     67  C   UNL A   1      44.695  34.924  30.793  1.00  0.00     0.040 A 
ATOM     68  C   UNL A   1      44.321  34.033  32.998  1.00  0.00     0.040 A 
ATOM     69  F   UNL A   1      43.937  31.737  33.290  1.00  0.00    -0.206 F 
ATOM     70  C   UNL A   1      44.584  35.121  32.168  1.00  0.00     0.006 A 
ENDBRANCH  49  63
BRANCH  50  71
ATOM     71  C   UNL A   1      42.469  23.470  27.298  1.00  0.00     0.057 A 
ATOM     72  C   UNL A   1      42.142  22.396  28.135  1.00  0.00     0.134 A 
ATOM     73  C   UNL A   1      42.537  23.220  25.923  1.00  0.00     0.134 A 
ATOM     74  F   UNL A   1      42.084  22.571  29.463  1.00  0.00    -0.206 F 
ATOM     75  C   UNL A   1      41.901  21.120  27.625  1.00  0.00     0.040 A 
ATOM     76  C   UNL A   1      42.277  21.953  25.397  1.00  0.00     0.040 A 
ATOM     77  F   UNL A   1      42.842  24.208  25.068  1.00  0.00    -0.206 F 
ATOM     78  C   UNL A   1      41.962  20.897  26.251  1.00  0.00     0.006 A 
ENDBRANCH  50  71
BRANCH  62  79
ATOM     79  C   UNL A   1      48.236  26.746  29.398  1.00  0.00     0.057 A 
ATOM     80  C   UNL A   1      49.123  27.072  28.366  1.00  0.00     0.134 A 
ATOM     81  C   UNL A   1      48.749  26.046  30.498  1.00  0.00     0.134 A 
ATOM     82  F   UNL A   1      48.691  27.730  27.279  1.00  0.00    -0.206 F 
ATOM     83  C   UNL A   1      50.467  26.697  28.414  1.00  0.00     0.040 A 
ATOM     84  C   UNL A   1      50.096  25.687  30.569  1.00  0.00     0.040 A 
ATOM     85  F   UNL A   1      47.952  25.711  31.524  1.00  0.00    -0.206 F 
ATOM     86  C   UNL A   1      50.957  26.008  29.522  1.00  0.00     0.006 A 
ENDBRANCH  62  79
ENDBRANCH  36  37
ENDBRANCH  28  31
ENDBRANCH  26  27
ENDBRANCH  25  26
ENDBRANCH   1  25
TORSDOF 14
ENDMDL
