MODEL 1
REMARK VINA RESULT:     -10.2      0.000      0.000
REMARK SMILES O=C(COc1csc(C(=O)NCCCCCCNC(=O)c2ccc(-c3c4nc(c(-c5c(F)cccc5F)c5ccc([nH]5)c(-c5c(F)cccc5F)c5nc(c(-c6c(F)cccc6F)c6ccc3[nH]6)C=C5)C=C4)cc2)c1)Nc1nccs1
REMARK SMILES IDX 13 1 12 2 11 3 9 4 10 5 8 7 5 8 6 9 75 10 7 11 4 12 3 13
REMARK SMILES IDX 2 14 1 15 76 16 77 18 78 19 81 20 79 21 80 22 14 23 15 24
REMARK SMILES IDX 16 25 17 26 18 27 19 28 20 30 21 31 22 32 74 33 23 34 73 35
REMARK SMILES IDX 24 36 25 37 26 38 67 39 27 40 72 41 66 42 68 43 28 44 71 45
REMARK SMILES IDX 65 46 64 47 29 49 55 50 38 51 54 52 39 53 42 54 53 55 69 56
REMARK SMILES IDX 40 57 41 58 52 60 70 61 43 62 30 63 31 64 36 65 32 66 33 67
REMARK SMILES IDX 35 68 37 69 34 70 56 71 57 72 62 73 58 74 59 75 61 76 63 77
REMARK SMILES IDX 60 78 44 79 45 80 50 81 46 82 47 83 49 84 51 85 48 86
REMARK H PARENT 11 6 76 17 18 29 68 48 42 59
REMARK Flexibility Score: inf
ROOT
ATOM      1  C   UNL A   1      40.004  22.632  26.903  1.00  0.00     0.021 C 
ENDROOT
BRANCH   1   2
ATOM      2  C   UNL A   1      38.697  22.654  26.112  1.00  0.00     0.116 C 
BRANCH   2   3
ATOM      3  N   UNL A   1      38.446  21.355  25.528  1.00  0.00    -0.351 N 
ATOM      4  C   UNL A   1      37.367  20.808  24.882  1.00  0.00     0.261 C 
ATOM      5  O   UNL A   1      37.518  19.625  24.558  1.00  0.00    -0.268 OA
ATOM      6  H   UNL A   1      39.206  20.736  25.613  1.00  0.00     0.163 HD
BRANCH   4   7
ATOM      7  C   UNL A   1      36.170  21.578  24.564  1.00  0.00     0.096 A 
ATOM      8  C   UNL A   1      34.532  22.954  23.617  1.00  0.00     0.131 A 
ATOM      9  C   UNL A   1      33.761  22.205  24.471  1.00  0.00     0.112 A 
ATOM     10  C   UNL A   1      35.915  22.650  23.726  1.00  0.00     0.072 A 
ATOM     11  S   UNL A   1      34.711  21.110  25.371  1.00  0.00    -0.135 S 
BRANCH   8  12
ATOM     12  O   UNL A   1      34.033  23.801  22.685  1.00  0.00    -0.483 OA
BRANCH  12  13
ATOM     13  C   UNL A   1      34.094  25.170  23.078  1.00  0.00     0.329 C 
BRANCH  13  14
ATOM     14  C   UNL A   1      32.726  25.789  23.372  1.00  0.00     0.264 C 
ATOM     15  O   UNL A   1      31.824  25.111  23.850  1.00  0.00    -0.271 OA
ATOM     16  N   UNL A   1      32.688  27.128  23.048  1.00  0.00    -0.299 N 
ATOM     17  H   UNL A   1      33.534  27.588  22.842  1.00  0.00     0.172 HD
BRANCH  16  18
ATOM     18  C   UNL A   1      31.526  27.840  23.000  1.00  0.00     0.189 A 
ATOM     19  N   UNL A   1      30.594  27.847  22.084  1.00  0.00    -0.229 NA
ATOM     20  S   UNL A   1      31.337  28.939  24.293  1.00  0.00    -0.105 S 
ATOM     21  C   UNL A   1      29.657  28.810  22.399  1.00  0.00     0.125 A 
ATOM     22  C   UNL A   1      29.903  29.524  23.554  1.00  0.00     0.088 A 
ENDBRANCH  16  18
ENDBRANCH  13  14
ENDBRANCH  12  13
ENDBRANCH   8  12
ENDBRANCH   4   7
ENDBRANCH   2   3
ENDBRANCH   1   2
BRANCH   1  23
ATOM     23  C   UNL A   1      41.175  22.043  26.102  1.00  0.00     0.002 C 
BRANCH  23  24
ATOM     24  C   UNL A   1      41.883  20.860  26.777  1.00  0.00     0.002 C 
BRANCH  24  25
ATOM     25  C   UNL A   1      42.068  19.630  25.886  1.00  0.00     0.021 C 
BRANCH  25  26
ATOM     26  C   UNL A   1      43.331  18.833  26.187  1.00  0.00     0.116 C 
BRANCH  26  27
ATOM     27  N   UNL A   1      44.087  18.551  24.976  1.00  0.00    -0.352 N 
ATOM     28  C   UNL A   1      44.714  19.426  24.126  1.00  0.00     0.251 C 
ATOM     29  H   UNL A   1      44.158  17.600  24.734  1.00  0.00     0.163 HD
ATOM     30  O   UNL A   1      45.106  19.051  23.026  1.00  0.00    -0.269 OA
BRANCH  28  31
ATOM     31  C   UNL A   1      44.908  20.829  24.543  1.00  0.00     0.039 A 
ATOM     32  C   UNL A   1      44.410  21.855  23.735  1.00  0.00     0.014 A 
ATOM     33  C   UNL A   1      45.590  21.128  25.726  1.00  0.00     0.014 A 
ATOM     34  C   UNL A   1      44.559  23.182  24.138  1.00  0.00     0.010 A 
ATOM     35  C   UNL A   1      45.668  22.444  26.164  1.00  0.00     0.010 A 
ATOM     36  C   UNL A   1      45.167  23.485  25.368  1.00  0.00    -0.014 A 
BRANCH  36  37
ATOM     37  C   UNL A   1      45.322  24.884  25.832  1.00  0.00     0.031 A 
ATOM     38  C   UNL A   1      46.675  25.539  25.785  1.00  0.00     0.074 A 
ATOM     39  C   UNL A   1      44.271  25.537  26.361  1.00  0.00     0.049 A 
ATOM     40  N   UNL A   1      47.044  26.712  26.232  1.00  0.00    -0.248 NA
ATOM     41  C   UNL A   1      47.764  24.755  25.181  1.00  0.00     0.031 C 
ATOM     42  C   UNL A   1      42.916  24.997  26.491  1.00  0.00     0.029 A 
ATOM     43  N   UNL A   1      44.181  26.795  26.900  1.00  0.00    -0.354 N 
ATOM     44  C   UNL A   1      48.407  26.798  25.980  1.00  0.00     0.074 A 
ATOM     45  C   UNL A   1      48.810  25.537  25.398  1.00  0.00     0.031 C 
ATOM     46  C   UNL A   1      42.126  25.928  27.049  1.00  0.00     0.029 A 
ATOM     47  C   UNL A   1      42.925  27.111  27.354  1.00  0.00     0.049 A 
ATOM     48  H   UNL A   1      44.946  27.412  26.956  1.00  0.00     0.167 HD
ATOM     49  C   UNL A   1      49.243  27.843  26.190  1.00  0.00     0.037 A 
ATOM     50  C   UNL A   1      42.472  28.226  27.956  1.00  0.00     0.037 A 
ATOM     51  C   UNL A   1      48.832  29.101  26.754  1.00  0.00     0.049 A 
ATOM     52  C   UNL A   1      43.424  29.364  28.206  1.00  0.00     0.074 A 
ATOM     53  C   UNL A   1      49.589  30.240  26.968  1.00  0.00     0.029 A 
ATOM     54  N   UNL A   1      47.548  29.385  27.196  1.00  0.00    -0.354 N 
ATOM     55  N   UNL A   1      44.699  29.454  27.917  1.00  0.00    -0.248 NA
ATOM     56  C   UNL A   1      42.870  30.555  28.864  1.00  0.00     0.031 C 
ATOM     57  C   UNL A   1      48.774  31.196  27.583  1.00  0.00     0.029 A 
ATOM     58  C   UNL A   1      47.495  30.674  27.702  1.00  0.00     0.049 A 
ATOM     59  H   UNL A   1      46.786  28.762  27.157  1.00  0.00     0.167 HD
ATOM     60  C   UNL A   1      45.093  30.722  28.321  1.00  0.00     0.074 A 
ATOM     61  C   UNL A   1      43.918  31.367  28.874  1.00  0.00     0.031 C 
ATOM     62  C   UNL A   1      46.314  31.304  28.238  1.00  0.00     0.037 A 
BRANCH  49  63
ATOM     63  C   UNL A   1      50.684  27.655  25.812  1.00  0.00     0.057 A 
ATOM     64  C   UNL A   1      51.658  27.299  26.757  1.00  0.00     0.134 A 
ATOM     65  C   UNL A   1      51.108  27.832  24.489  1.00  0.00     0.134 A 
ATOM     66  F   UNL A   1      51.324  27.126  28.044  1.00  0.00    -0.206 F 
ATOM     67  C   UNL A   1      53.003  27.168  26.407  1.00  0.00     0.040 A 
ATOM     68  C   UNL A   1      52.445  27.672  24.121  1.00  0.00     0.040 A 
ATOM     69  F   UNL A   1      50.230  28.167  23.531  1.00  0.00    -0.206 F 
ATOM     70  C   UNL A   1      53.399  27.351  25.084  1.00  0.00     0.006 A 
ENDBRANCH  49  63
BRANCH  50  71
ATOM     71  C   UNL A   1      41.040  28.336  28.329  1.00  0.00     0.057 A 
ATOM     72  C   UNL A   1      40.599  27.960  29.603  1.00  0.00     0.134 A 
ATOM     73  C   UNL A   1      40.081  28.826  27.434  1.00  0.00     0.134 A 
ATOM     74  F   UNL A   1      41.469  27.470  30.499  1.00  0.00    -0.206 F 
ATOM     75  C   UNL A   1      39.256  28.053  29.971  1.00  0.00     0.040 A 
ATOM     76  C   UNL A   1      38.738  28.946  27.796  1.00  0.00     0.040 A 
ATOM     77  F   UNL A   1      40.440  29.213  26.201  1.00  0.00    -0.206 F 
ATOM     78  C   UNL A   1      38.322  28.553  29.066  1.00  0.00     0.006 A 
ENDBRANCH  50  71
BRANCH  62  79
ATOM     79  C   UNL A   1      46.437  32.724  28.710  1.00  0.00     0.057 A 
ATOM     80  C   UNL A   1      46.217  33.813  27.856  1.00  0.00     0.134 A 
ATOM     81  C   UNL A   1      46.734  33.001  30.050  1.00  0.00     0.134 A 
ATOM     82  F   UNL A   1      45.942  33.616  26.559  1.00  0.00    -0.206 F 
ATOM     83  C   UNL A   1      46.307  35.127  28.317  1.00  0.00     0.040 A 
ATOM     84  C   UNL A   1      46.799  34.310  30.528  1.00  0.00     0.040 A 
ATOM     85  F   UNL A   1      46.948  32.004  30.922  1.00  0.00    -0.206 F 
ATOM     86  C   UNL A   1      46.590  35.379  29.659  1.00  0.00     0.006 A 
ENDBRANCH  62  79
ENDBRANCH  36  37
ENDBRANCH  28  31
ENDBRANCH  26  27
ENDBRANCH  25  26
ENDBRANCH  24  25
ENDBRANCH  23  24
ENDBRANCH   1  23
TORSDOF 17
ENDMDL
MODEL 2
REMARK VINA RESULT:     -10.2      4.792      8.436
REMARK SMILES O=C(COc1csc(C(=O)NCCCCCCNC(=O)c2ccc(-c3c4nc(c(-c5c(F)cccc5F)c5ccc([nH]5)c(-c5c(F)cccc5F)c5nc(c(-c6c(F)cccc6F)c6ccc3[nH]6)C=C5)C=C4)cc2)c1)Nc1nccs1
REMARK SMILES IDX 13 1 12 2 11 3 9 4 10 5 8 7 5 8 6 9 75 10 7 11 4 12 3 13
REMARK SMILES IDX 2 14 1 15 76 16 77 18 78 19 81 20 79 21 80 22 14 23 15 24
REMARK SMILES IDX 16 25 17 26 18 27 19 28 20 30 21 31 22 32 74 33 23 34 73 35
REMARK SMILES IDX 24 36 25 37 26 38 67 39 27 40 72 41 66 42 68 43 28 44 71 45
REMARK SMILES IDX 65 46 64 47 29 49 55 50 38 51 54 52 39 53 42 54 53 55 69 56
REMARK SMILES IDX 40 57 41 58 52 60 70 61 43 62 30 63 31 64 36 65 32 66 33 67
REMARK SMILES IDX 35 68 37 69 34 70 56 71 57 72 62 73 58 74 59 75 61 76 63 77
REMARK SMILES IDX 60 78 44 79 45 80 50 81 46 82 47 83 49 84 51 85 48 86
REMARK H PARENT 11 6 76 17 18 29 68 48 42 59
REMARK Flexibility Score: inf
ROOT
ATOM      1  C   UNL A   1      44.600  23.876  28.610  1.00  0.00     0.021 C 
ENDROOT
BRANCH   1   2
ATOM      2  C   UNL A   1      45.639  23.317  27.639  1.00  0.00     0.116 C 
BRANCH   2   3
ATOM      3  N   UNL A   1      45.041  23.095  26.341  1.00  0.00    -0.351 N 
ATOM      4  C   UNL A   1      44.840  23.900  25.249  1.00  0.00     0.261 C 
ATOM      5  O   UNL A   1      44.241  23.350  24.319  1.00  0.00    -0.268 OA
ATOM      6  H   UNL A   1      44.709  22.177  26.216  1.00  0.00     0.163 HD
BRANCH   4   7
ATOM      7  C   UNL A   1      45.338  25.269  25.181  1.00  0.00     0.096 A 
ATOM      8  C   UNL A   1      45.691  27.575  25.354  1.00  0.00     0.131 A 
ATOM      9  C   UNL A   1      46.965  27.152  25.066  1.00  0.00     0.112 A 
ATOM     10  C   UNL A   1      44.750  26.512  25.344  1.00  0.00     0.072 A 
ATOM     11  S   UNL A   1      47.021  25.464  24.824  1.00  0.00    -0.135 S 
BRANCH   8  12
ATOM     12  O   UNL A   1      45.374  28.838  25.729  1.00  0.00    -0.483 OA
BRANCH  12  13
ATOM     13  C   UNL A   1      44.992  28.939  27.099  1.00  0.00     0.329 C 
BRANCH  13  14
ATOM     14  C   UNL A   1      44.059  30.114  27.394  1.00  0.00     0.264 C 
ATOM     15  O   UNL A   1      42.894  30.099  27.012  1.00  0.00    -0.271 OA
ATOM     16  N   UNL A   1      44.692  31.105  28.114  1.00  0.00    -0.299 N 
ATOM     17  H   UNL A   1      45.573  30.911  28.510  1.00  0.00     0.172 HD
BRANCH  16  18
ATOM     18  C   UNL A   1      44.149  32.342  28.298  1.00  0.00     0.189 A 
ATOM     19  N   UNL A   1      43.405  32.784  29.276  1.00  0.00    -0.229 NA
ATOM     20  S   UNL A   1      44.424  33.416  27.000  1.00  0.00    -0.105 S 
ATOM     21  C   UNL A   1      42.988  34.067  28.984  1.00  0.00     0.125 A 
ATOM     22  C   UNL A   1      43.422  34.573  27.777  1.00  0.00     0.088 A 
ENDBRANCH  16  18
ENDBRANCH  13  14
ENDBRANCH  12  13
ENDBRANCH   8  12
ENDBRANCH   4   7
ENDBRANCH   2   3
ENDBRANCH   1   2
BRANCH   1  23
ATOM     23  C   UNL A   1      43.167  23.793  28.061  1.00  0.00     0.002 C 
BRANCH  23  24
ATOM     24  C   UNL A   1      42.275  22.752  28.752  1.00  0.00     0.002 C 
BRANCH  24  25
ATOM     25  C   UNL A   1      41.549  21.797  27.801  1.00  0.00     0.021 C 
BRANCH  25  26
ATOM     26  C   UNL A   1      41.519  22.272  26.354  1.00  0.00     0.116 C 
BRANCH  26  27
ATOM     27  N   UNL A   1      40.161  22.312  25.834  1.00  0.00    -0.352 N 
ATOM     28  C   UNL A   1      39.149  23.193  26.123  1.00  0.00     0.251 C 
ATOM     29  H   UNL A   1      39.936  21.608  25.183  1.00  0.00     0.163 HD
ATOM     30  O   UNL A   1      37.997  22.951  25.781  1.00  0.00    -0.269 OA
BRANCH  28  31
ATOM     31  C   UNL A   1      39.459  24.436  26.858  1.00  0.00     0.039 A 
ATOM     32  C   UNL A   1      39.023  24.572  28.178  1.00  0.00     0.014 A 
ATOM     33  C   UNL A   1      40.169  25.466  26.236  1.00  0.00     0.014 A 
ATOM     34  C   UNL A   1      39.340  25.729  28.891  1.00  0.00     0.010 A 
ATOM     35  C   UNL A   1      40.550  26.582  26.971  1.00  0.00     0.010 A 
ATOM     36  C   UNL A   1      40.128  26.731  28.301  1.00  0.00    -0.014 A 
BRANCH  36  37
ATOM     37  C   UNL A   1      40.497  27.962  29.039  1.00  0.00     0.031 A 
ATOM     38  C   UNL A   1      41.855  28.072  29.675  1.00  0.00     0.074 A 
ATOM     39  C   UNL A   1      39.591  28.945  29.200  1.00  0.00     0.049 A 
ATOM     40  N   UNL A   1      42.336  29.015  30.444  1.00  0.00    -0.248 NA
ATOM     41  C   UNL A   1      42.783  26.956  29.438  1.00  0.00     0.031 C 
ATOM     42  C   UNL A   1      38.231  28.942  28.658  1.00  0.00     0.029 A 
ATOM     43  N   UNL A   1      39.677  30.134  29.878  1.00  0.00    -0.354 N 
ATOM     44  C   UNL A   1      43.613  28.597  30.796  1.00  0.00     0.074 A 
ATOM     45  C   UNL A   1      43.808  27.290  30.208  1.00  0.00     0.031 C 
ATOM     46  C   UNL A   1      37.619  30.085  29.004  1.00  0.00     0.029 A 
ATOM     47  C   UNL A   1      38.526  30.882  29.825  1.00  0.00     0.049 A 
ATOM     48  H   UNL A   1      40.487  30.424  30.357  1.00  0.00     0.167 HD
ATOM     49  C   UNL A   1      44.550  29.254  31.521  1.00  0.00     0.037 A 
ATOM     50  C   UNL A   1      38.235  32.071  30.383  1.00  0.00     0.037 A 
ATOM     51  C   UNL A   1      44.356  30.562  32.089  1.00  0.00     0.049 A 
ATOM     52  C   UNL A   1      39.279  32.770  31.209  1.00  0.00     0.074 A 
ATOM     53  C   UNL A   1      45.254  31.334  32.803  1.00  0.00     0.029 A 
ATOM     54  N   UNL A   1      43.178  31.290  32.009  1.00  0.00    -0.354 N 
ATOM     55  N   UNL A   1      40.501  32.390  31.492  1.00  0.00    -0.248 NA
ATOM     56  C   UNL A   1      38.903  34.066  31.790  1.00  0.00     0.031 C 
ATOM     57  C   UNL A   1      44.604  32.510  33.195  1.00  0.00     0.029 A 
ATOM     58  C   UNL A   1      43.318  32.494  32.678  1.00  0.00     0.049 A 
ATOM     59  H   UNL A   1      42.361  30.993  31.544  1.00  0.00     0.167 HD
ATOM     60  C   UNL A   1      41.053  33.413  32.251  1.00  0.00     0.074 A 
ATOM     61  C   UNL A   1      40.031  34.432  32.382  1.00  0.00     0.031 C 
ATOM     62  C   UNL A   1      42.295  33.503  32.787  1.00  0.00     0.037 A 
BRANCH  49  63
ATOM     63  C   UNL A   1      45.861  28.555  31.742  1.00  0.00     0.057 A 
ATOM     64  C   UNL A   1      46.957  28.750  30.888  1.00  0.00     0.134 A 
ATOM     65  C   UNL A   1      46.033  27.675  32.817  1.00  0.00     0.134 A 
ATOM     66  F   UNL A   1      46.857  29.569  29.831  1.00  0.00    -0.206 F 
ATOM     67  C   UNL A   1      48.159  28.065  31.074  1.00  0.00     0.040 A 
ATOM     68  C   UNL A   1      47.240  27.009  33.032  1.00  0.00     0.040 A 
ATOM     69  F   UNL A   1      45.028  27.446  33.678  1.00  0.00    -0.206 F 
ATOM     70  C   UNL A   1      48.305  27.194  32.151  1.00  0.00     0.006 A 
ENDBRANCH  49  63
BRANCH  50  71
ATOM     71  C   UNL A   1      36.908  32.694  30.148  1.00  0.00     0.057 A 
ATOM     72  C   UNL A   1      36.711  33.582  29.083  1.00  0.00     0.134 A 
ATOM     73  C   UNL A   1      35.807  32.415  30.967  1.00  0.00     0.134 A 
ATOM     74  F   UNL A   1      37.732  33.900  28.274  1.00  0.00    -0.206 F 
ATOM     75  C   UNL A   1      35.472  34.181  28.849  1.00  0.00     0.040 A 
ATOM     76  C   UNL A   1      34.557  32.988  30.730  1.00  0.00     0.040 A 
ATOM     77  F   UNL A   1      35.928  31.565  31.998  1.00  0.00    -0.206 F 
ATOM     78  C   UNL A   1      34.389  33.879  29.672  1.00  0.00     0.006 A 
ENDBRANCH  50  71
BRANCH  62  79
ATOM     79  C   UNL A   1      42.638  34.766  33.523  1.00  0.00     0.057 A 
ATOM     80  C   UNL A   1      43.241  35.858  32.885  1.00  0.00     0.134 A 
ATOM     81  C   UNL A   1      42.318  34.905  34.879  1.00  0.00     0.134 A 
ATOM     82  F   UNL A   1      43.586  35.784  31.592  1.00  0.00    -0.206 F 
ATOM     83  C   UNL A   1      43.529  37.036  33.576  1.00  0.00     0.040 A 
ATOM     84  C   UNL A   1      42.576  36.088  35.573  1.00  0.00     0.040 A 
ATOM     85  F   UNL A   1      41.732  33.900  35.548  1.00  0.00    -0.206 F 
ATOM     86  C   UNL A   1      43.188  37.156  34.923  1.00  0.00     0.006 A 
ENDBRANCH  62  79
ENDBRANCH  36  37
ENDBRANCH  28  31
ENDBRANCH  26  27
ENDBRANCH  25  26
ENDBRANCH  24  25
ENDBRANCH  23  24
ENDBRANCH   1  23
TORSDOF 17
ENDMDL
MODEL 3
REMARK VINA RESULT:     -10.2      6.800     12.499
REMARK SMILES O=C(COc1csc(C(=O)NCCCCCCNC(=O)c2ccc(-c3c4nc(c(-c5c(F)cccc5F)c5ccc([nH]5)c(-c5c(F)cccc5F)c5nc(c(-c6c(F)cccc6F)c6ccc3[nH]6)C=C5)C=C4)cc2)c1)Nc1nccs1
REMARK SMILES IDX 13 1 12 2 11 3 9 4 10 5 8 7 5 8 6 9 75 10 7 11 4 12 3 13
REMARK SMILES IDX 2 14 1 15 76 16 77 18 78 19 81 20 79 21 80 22 14 23 15 24
REMARK SMILES IDX 16 25 17 26 18 27 19 28 20 30 21 31 22 32 74 33 23 34 73 35
REMARK SMILES IDX 24 36 25 37 26 38 67 39 27 40 72 41 66 42 68 43 28 44 71 45
REMARK SMILES IDX 65 46 64 47 29 49 55 50 38 51 54 52 39 53 42 54 53 55 69 56
REMARK SMILES IDX 40 57 41 58 52 60 70 61 43 62 30 63 31 64 36 65 32 66 33 67
REMARK SMILES IDX 35 68 37 69 34 70 56 71 57 72 62 73 58 74 59 75 61 76 63 77
REMARK SMILES IDX 60 78 44 79 45 80 50 81 46 82 47 83 49 84 51 85 48 86
REMARK H PARENT 11 6 76 17 18 29 68 48 42 59
REMARK Flexibility Score: inf
ROOT
ATOM      1  C   UNL A   1      35.089  31.420  28.279  1.00  0.00     0.021 C 
ENDROOT
BRANCH   1   2
ATOM      2  C   UNL A   1      34.339  30.461  27.355  1.00  0.00     0.116 C 
BRANCH   2   3
ATOM      3  N   UNL A   1      33.061  31.026  26.981  1.00  0.00    -0.351 N 
ATOM      4  C   UNL A   1      32.047  30.598  26.162  1.00  0.00     0.261 C 
ATOM      5  O   UNL A   1      31.110  31.396  26.058  1.00  0.00    -0.268 OA
ATOM      6  H   UNL A   1      32.882  31.898  27.401  1.00  0.00     0.163 HD
BRANCH   4   7
ATOM      7  C   UNL A   1      32.061  29.291  25.514  1.00  0.00     0.096 A 
ATOM      8  C   UNL A   1      31.600  27.145  24.706  1.00  0.00     0.131 A 
ATOM      9  C   UNL A   1      32.575  27.536  23.823  1.00  0.00     0.112 A 
ATOM     10  C   UNL A   1      31.362  28.114  25.717  1.00  0.00     0.072 A 
ATOM     11  S   UNL A   1      33.168  29.091  24.198  1.00  0.00    -0.135 S 
BRANCH   8  12
ATOM     12  O   UNL A   1      30.855  26.021  24.571  1.00  0.00    -0.483 OA
BRANCH  12  13
ATOM     13  C   UNL A   1      30.492  25.433  25.818  1.00  0.00     0.329 C 
BRANCH  13  14
ATOM     14  C   UNL A   1      31.315  24.197  26.180  1.00  0.00     0.264 C 
ATOM     15  O   UNL A   1      31.430  23.843  27.348  1.00  0.00    -0.271 OA
ATOM     16  N   UNL A   1      31.851  23.591  25.064  1.00  0.00    -0.299 N 
ATOM     17  H   UNL A   1      31.533  23.873  24.176  1.00  0.00     0.172 HD
BRANCH  16  18
ATOM     18  C   UNL A   1      32.803  22.618  25.141  1.00  0.00     0.189 A 
ATOM     19  N   UNL A   1      34.101  22.732  25.235  1.00  0.00    -0.229 NA
ATOM     20  S   UNL A   1      32.183  21.033  24.997  1.00  0.00    -0.105 S 
ATOM     21  C   UNL A   1      34.673  21.478  25.167  1.00  0.00     0.125 A 
ATOM     22  C   UNL A   1      33.789  20.429  25.013  1.00  0.00     0.088 A 
ENDBRANCH  16  18
ENDBRANCH  13  14
ENDBRANCH  12  13
ENDBRANCH   8  12
ENDBRANCH   4   7
ENDBRANCH   2   3
ENDBRANCH   1   2
BRANCH   1  23
ATOM     23  C   UNL A   1      34.151  32.374  29.034  1.00  0.00     0.002 C 
BRANCH  23  24
ATOM     24  C   UNL A   1      34.403  33.865  28.768  1.00  0.00     0.002 C 
BRANCH  24  25
ATOM     25  C   UNL A   1      33.153  34.746  28.828  1.00  0.00     0.021 C 
BRANCH  25  26
ATOM     26  C   UNL A   1      33.405  36.137  29.397  1.00  0.00     0.116 C 
BRANCH  26  27
ATOM     27  N   UNL A   1      32.532  36.418  30.526  1.00  0.00    -0.352 N 
ATOM     28  C   UNL A   1      32.566  35.899  31.795  1.00  0.00     0.251 C 
ATOM     29  H   UNL A   1      31.818  37.074  30.355  1.00  0.00     0.163 HD
ATOM     30  O   UNL A   1      31.621  36.060  32.559  1.00  0.00    -0.269 OA
BRANCH  28  31
ATOM     31  C   UNL A   1      33.750  35.133  32.234  1.00  0.00     0.039 A 
ATOM     32  C   UNL A   1      33.585  33.820  32.681  1.00  0.00     0.014 A 
ATOM     33  C   UNL A   1      35.019  35.720  32.213  1.00  0.00     0.014 A 
ATOM     34  C   UNL A   1      34.702  33.078  33.065  1.00  0.00     0.010 A 
ATOM     35  C   UNL A   1      36.137  34.955  32.521  1.00  0.00     0.010 A 
ATOM     36  C   UNL A   1      35.989  33.632  32.964  1.00  0.00    -0.014 A 
BRANCH  36  37
ATOM     37  C   UNL A   1      37.197  32.863  33.347  1.00  0.00     0.031 A 
ATOM     38  C   UNL A   1      37.893  33.164  34.645  1.00  0.00     0.074 A 
ATOM     39  C   UNL A   1      37.708  31.949  32.500  1.00  0.00     0.049 A 
ATOM     40  N   UNL A   1      39.013  32.680  35.118  1.00  0.00    -0.248 NA
ATOM     41  C   UNL A   1      37.258  34.169  35.512  1.00  0.00     0.031 C 
ATOM     42  C   UNL A   1      37.142  31.590  31.198  1.00  0.00     0.029 A 
ATOM     43  N   UNL A   1      38.827  31.164  32.604  1.00  0.00    -0.354 N 
ATOM     44  C   UNL A   1      39.224  33.333  36.325  1.00  0.00     0.074 A 
ATOM     45  C   UNL A   1      38.151  34.290  36.482  1.00  0.00     0.031 C 
ATOM     46  C   UNL A   1      37.903  30.638  30.637  1.00  0.00     0.029 A 
ATOM     47  C   UNL A   1      39.032  30.350  31.518  1.00  0.00     0.049 A 
ATOM     48  H   UNL A   1      39.428  31.183  33.385  1.00  0.00     0.167 HD
ATOM     49  C   UNL A   1      40.208  33.135  37.234  1.00  0.00     0.037 A 
ATOM     50  C   UNL A   1      40.023  29.477  31.259  1.00  0.00     0.037 A 
ATOM     51  C   UNL A   1      41.264  32.169  37.080  1.00  0.00     0.049 A 
ATOM     52  C   UNL A   1      41.122  29.294  32.269  1.00  0.00     0.074 A 
ATOM     53  C   UNL A   1      42.285  31.857  37.960  1.00  0.00     0.029 A 
ATOM     54  N   UNL A   1      41.434  31.358  35.967  1.00  0.00    -0.354 N 
ATOM     55  N   UNL A   1      41.285  29.879  33.430  1.00  0.00    -0.248 NA
ATOM     56  C   UNL A   1      42.174  28.325  31.931  1.00  0.00     0.031 C 
ATOM     57  C   UNL A   1      43.099  30.891  37.359  1.00  0.00     0.029 A 
ATOM     58  C   UNL A   1      42.555  30.561  36.127  1.00  0.00     0.049 A 
ATOM     59  H   UNL A   1      40.844  31.351  35.178  1.00  0.00     0.167 HD
ATOM     60  C   UNL A   1      42.433  29.325  33.979  1.00  0.00     0.074 A 
ATOM     61  C   UNL A   1      42.925  28.354  33.023  1.00  0.00     0.031 C 
ATOM     62  C   UNL A   1      43.024  29.591  35.170  1.00  0.00     0.037 A 
BRANCH  49  63
ATOM     63  C   UNL A   1      40.185  33.990  38.468  1.00  0.00     0.057 A 
ATOM     64  C   UNL A   1      40.882  35.205  38.541  1.00  0.00     0.134 A 
ATOM     65  C   UNL A   1      39.459  33.598  39.599  1.00  0.00     0.134 A 
ATOM     66  F   UNL A   1      41.608  35.635  37.499  1.00  0.00    -0.206 F 
ATOM     67  C   UNL A   1      40.891  35.975  39.706  1.00  0.00     0.040 A 
ATOM     68  C   UNL A   1      39.434  34.374  40.759  1.00  0.00     0.040 A 
ATOM     69  F   UNL A   1      38.763  32.450  39.598  1.00  0.00    -0.206 F 
ATOM     70  C   UNL A   1      40.162  35.562  40.818  1.00  0.00     0.006 A 
ENDBRANCH  49  63
BRANCH  50  71
ATOM     71  C   UNL A   1      40.000  28.682  30.006  1.00  0.00     0.057 A 
ATOM     72  C   UNL A   1      40.718  29.099  28.879  1.00  0.00     0.134 A 
ATOM     73  C   UNL A   1      39.275  27.489  29.904  1.00  0.00     0.134 A 
ATOM     74  F   UNL A   1      41.419  30.242  28.911  1.00  0.00    -0.206 F 
ATOM     75  C   UNL A   1      40.705  28.367  27.690  1.00  0.00     0.040 A 
ATOM     76  C   UNL A   1      39.273  26.735  28.730  1.00  0.00     0.040 A 
ATOM     77  F   UNL A   1      38.574  27.030  30.951  1.00  0.00    -0.206 F 
ATOM     78  C   UNL A   1      39.985  27.177  27.616  1.00  0.00     0.006 A 
ENDBRANCH  50  71
BRANCH  62  79
ATOM     79  C   UNL A   1      44.241  28.789  35.531  1.00  0.00     0.057 A 
ATOM     80  C   UNL A   1      44.155  27.584  36.240  1.00  0.00     0.134 A 
ATOM     81  C   UNL A   1      45.513  29.210  35.121  1.00  0.00     0.134 A 
ATOM     82  F   UNL A   1      42.969  27.134  36.673  1.00  0.00    -0.206 F 
ATOM     83  C   UNL A   1      45.293  26.836  36.544  1.00  0.00     0.040 A 
ATOM     84  C   UNL A   1      46.654  28.455  35.395  1.00  0.00     0.040 A 
ATOM     85  F   UNL A   1      45.665  30.350  34.431  1.00  0.00    -0.206 F 
ATOM     86  C   UNL A   1      46.547  27.267  36.113  1.00  0.00     0.006 A 
ENDBRANCH  62  79
ENDBRANCH  36  37
ENDBRANCH  28  31
ENDBRANCH  26  27
ENDBRANCH  25  26
ENDBRANCH  24  25
ENDBRANCH  23  24
ENDBRANCH   1  23
TORSDOF 17
ENDMDL
