MODEL 1
REMARK VINA RESULT:     -11.7      0.000      0.000
REMARK SMILES Cc1c(Cl)cccc1-c1cccc(Cl)c1C(=O)NCCCCCCNC(=O)c1ccc(-c2c3nc(c(-c4c(F)cccc4F)c4ccc([nH]4)c(-c4c(F)cccc4F)c4nc(c(-c5c(F)cccc5F)c5ccc2[nH]5)C=C4)C=C3)cc1
REMARK SMILES IDX 22 1 21 2 20 3 19 4 18 5 16 6 17 7 15 9 9 10 10 11 11 12
REMARK SMILES IDX 13 13 12 14 14 15 8 16 1 17 2 18 3 19 4 20 5 21 7 22 6 23
REMARK SMILES IDX 23 24 24 25 25 26 26 27 27 29 28 30 29 31 81 32 30 33 80 34
REMARK SMILES IDX 31 35 32 36 33 37 74 38 34 39 79 40 73 41 75 42 35 43 78 44
REMARK SMILES IDX 72 45 71 46 36 48 62 49 45 50 61 51 46 52 49 53 60 54 76 55
REMARK SMILES IDX 47 56 48 57 59 59 77 60 50 61 37 62 38 63 43 64 39 65 40 66
REMARK SMILES IDX 42 67 44 68 41 69 63 70 64 71 69 72 65 73 66 74 68 75 70 76
REMARK SMILES IDX 67 77 51 78 52 79 57 80 53 81 54 82 56 83 58 84 55 85
REMARK H PARENT 18 8 25 28 75 47 49 58
REMARK Flexibility Score: inf
ROOT
ATOM      1  C   UNL A   1      34.916  23.245  24.055  1.00  0.00     0.002 C 
ENDROOT
BRANCH   1   2
ATOM      2  C   UNL A   1      34.898  24.426  25.030  1.00  0.00     0.002 C 
BRANCH   2   3
ATOM      3  C   UNL A   1      34.074  24.329  26.322  1.00  0.00     0.021 C 
BRANCH   3   4
ATOM      4  C   UNL A   1      32.657  23.777  26.232  1.00  0.00     0.116 C 
BRANCH   4   5
ATOM      5  N   UNL A   1      31.594  24.731  26.422  1.00  0.00    -0.352 N 
ATOM      6  C   UNL A   1      31.062  25.623  25.522  1.00  0.00     0.253 C 
ATOM      7  O   UNL A   1      29.962  26.113  25.778  1.00  0.00    -0.269 OA
ATOM      8  H   UNL A   1      31.194  24.746  27.321  1.00  0.00     0.163 HD
BRANCH   6   9
ATOM      9  C   UNL A   1      31.748  26.055  24.271  1.00  0.00     0.066 A 
ATOM     10  C   UNL A   1      32.610  27.178  24.182  1.00  0.00    -0.004 A 
ATOM     11  C   UNL A   1      33.362  27.356  22.992  1.00  0.00     0.009 A 
ATOM     12  C   UNL A   1      33.279  26.470  21.923  1.00  0.00     0.002 A 
ATOM     13  C   UNL A   1      31.663  25.172  23.167  1.00  0.00     0.054 A 
ATOM     14  C   UNL A   1      32.423  25.383  22.009  1.00  0.00     0.021 A 
ATOM     15  Cl  UNL A   1      30.597  23.804  23.129  1.00  0.00    -0.083 Cl
BRANCH  10  16
ATOM     16  C   UNL A   1      32.781  28.226  25.210  1.00  0.00    -0.013 A 
ATOM     17  C   UNL A   1      30.818  29.628  24.379  1.00  0.00     0.046 C 
ATOM     18  C   UNL A   1      31.962  29.372  25.329  1.00  0.00    -0.025 A 
ATOM     19  C   UNL A   1      32.262  30.311  26.341  1.00  0.00     0.044 A 
ATOM     20  Cl  UNL A   1      31.384  31.794  26.500  1.00  0.00    -0.084 Cl
ATOM     21  C   UNL A   1      33.306  30.100  27.249  1.00  0.00     0.021 A 
ATOM     22  C   UNL A   1      33.825  28.034  26.153  1.00  0.00     0.009 A 
ATOM     23  C   UNL A   1      34.088  28.958  27.159  1.00  0.00     0.002 A 
ENDBRANCH  10  16
ENDBRANCH   6   9
ENDBRANCH   4   5
ENDBRANCH   3   4
ENDBRANCH   2   3
ENDBRANCH   1   2
BRANCH   1  24
ATOM     24  C   UNL A   1      36.027  22.202  24.179  1.00  0.00     0.021 C 
BRANCH  24  25
ATOM     25  C   UNL A   1      36.455  21.771  25.576  1.00  0.00     0.116 C 
BRANCH  25  26
ATOM     26  N   UNL A   1      37.520  20.790  25.579  1.00  0.00    -0.352 N 
ATOM     27  C   UNL A   1      38.850  20.900  25.907  1.00  0.00     0.251 C 
ATOM     28  H   UNL A   1      37.243  19.889  25.298  1.00  0.00     0.163 HD
ATOM     29  O   UNL A   1      39.571  19.916  25.750  1.00  0.00    -0.269 OA
BRANCH  27  30
ATOM     30  C   UNL A   1      39.455  22.157  26.429  1.00  0.00     0.039 A 
ATOM     31  C   UNL A   1      39.041  23.364  25.847  1.00  0.00     0.014 A 
ATOM     32  C   UNL A   1      40.472  22.187  27.387  1.00  0.00     0.014 A 
ATOM     33  C   UNL A   1      39.623  24.579  26.228  1.00  0.00     0.010 A 
ATOM     34  C   UNL A   1      41.010  23.409  27.815  1.00  0.00     0.010 A 
ATOM     35  C   UNL A   1      40.611  24.616  27.222  1.00  0.00    -0.014 A 
BRANCH  35  36
ATOM     36  C   UNL A   1      41.261  25.904  27.592  1.00  0.00     0.031 A 
ATOM     37  C   UNL A   1      42.667  26.208  27.138  1.00  0.00     0.074 A 
ATOM     38  C   UNL A   1      40.599  26.809  28.338  1.00  0.00     0.049 A 
ATOM     39  N   UNL A   1      43.392  27.279  27.347  1.00  0.00    -0.248 NA
ATOM     40  C   UNL A   1      43.355  25.162  26.364  1.00  0.00     0.031 C 
ATOM     41  C   UNL A   1      39.252  26.635  28.882  1.00  0.00     0.029 A 
ATOM     42  N   UNL A   1      40.971  28.060  28.767  1.00  0.00    -0.354 N 
ATOM     43  C   UNL A   1      44.620  27.031  26.747  1.00  0.00     0.074 A 
ATOM     44  C   UNL A   1      44.559  25.691  26.202  1.00  0.00     0.031 C 
ATOM     45  C   UNL A   1      38.903  27.746  29.554  1.00  0.00     0.029 A 
ATOM     46  C   UNL A   1      40.004  28.703  29.501  1.00  0.00     0.049 A 
ATOM     47  H   UNL A   1      41.849  28.459  28.567  1.00  0.00     0.167 HD
ATOM     48  C   UNL A   1      45.696  27.848  26.636  1.00  0.00     0.037 A 
ATOM     49  C   UNL A   1      39.999  29.929  30.060  1.00  0.00     0.037 A 
ATOM     50  C   UNL A   1      45.756  29.196  27.138  1.00  0.00     0.049 A 
ATOM     51  C   UNL A   1      41.188  30.833  29.884  1.00  0.00     0.074 A 
ATOM     52  C   UNL A   1      46.786  30.114  27.027  1.00  0.00     0.029 A 
ATOM     53  N   UNL A   1      44.737  29.822  27.838  1.00  0.00    -0.354 N 
ATOM     54  N   UNL A   1      42.317  30.604  29.261  1.00  0.00    -0.248 NA
ATOM     55  C   UNL A   1      41.091  32.177  30.475  1.00  0.00     0.031 C 
ATOM     56  C   UNL A   1      46.401  31.289  27.683  1.00  0.00     0.029 A 
ATOM     57  C   UNL A   1      45.117  31.113  28.171  1.00  0.00     0.049 A 
ATOM     58  H   UNL A   1      43.871  29.411  28.066  1.00  0.00     0.167 HD
ATOM     59  C   UNL A   1      43.050  31.780  29.358  1.00  0.00     0.074 A 
ATOM     60  C   UNL A   1      42.233  32.726  30.089  1.00  0.00     0.031 C 
ATOM     61  C   UNL A   1      44.290  32.050  28.884  1.00  0.00     0.037 A 
BRANCH  48  62
ATOM     62  C   UNL A   1      46.905  27.306  25.933  1.00  0.00     0.057 A 
ATOM     63  C   UNL A   1      47.110  27.506  24.561  1.00  0.00     0.134 A 
ATOM     64  C   UNL A   1      47.896  26.613  26.641  1.00  0.00     0.134 A 
ATOM     65  F   UNL A   1      46.194  28.151  23.824  1.00  0.00    -0.206 F 
ATOM     66  C   UNL A   1      48.246  27.017  23.914  1.00  0.00     0.040 A 
ATOM     67  C   UNL A   1      49.048  26.140  26.009  1.00  0.00     0.040 A 
ATOM     68  F   UNL A   1      47.765  26.394  27.958  1.00  0.00    -0.206 F 
ATOM     69  C   UNL A   1      49.222  26.337  24.641  1.00  0.00     0.006 A 
ENDBRANCH  48  62
BRANCH  49  70
ATOM     70  C   UNL A   1      38.808  30.397  30.811  1.00  0.00     0.057 A 
ATOM     71  C   UNL A   1      38.691  30.183  32.189  1.00  0.00     0.134 A 
ATOM     72  C   UNL A   1      37.750  31.047  30.165  1.00  0.00     0.134 A 
ATOM     73  F   UNL A   1      39.664  29.544  32.856  1.00  0.00    -0.206 F 
ATOM     74  C   UNL A   1      37.555  30.578  32.896  1.00  0.00     0.040 A 
ATOM     75  C   UNL A   1      36.617  31.467  30.864  1.00  0.00     0.040 A 
ATOM     76  F   UNL A   1      37.805  31.285  28.846  1.00  0.00    -0.206 F 
ATOM     77  C   UNL A   1      36.515  31.225  32.232  1.00  0.00     0.006 A 
ENDBRANCH  49  70
BRANCH  61  78
ATOM     78  C   UNL A   1      44.822  33.436  29.107  1.00  0.00     0.057 A 
ATOM     79  C   UNL A   1      45.590  33.762  30.231  1.00  0.00     0.134 A 
ATOM     80  C   UNL A   1      44.575  34.450  28.173  1.00  0.00     0.134 A 
ATOM     81  F   UNL A   1      45.850  32.837  31.168  1.00  0.00    -0.206 F 
ATOM     82  C   UNL A   1      46.071  35.056  30.434  1.00  0.00     0.040 A 
ATOM     83  C   UNL A   1      45.070  35.742  28.354  1.00  0.00     0.040 A 
ATOM     84  F   UNL A   1      43.852  34.201  27.071  1.00  0.00    -0.206 F 
ATOM     85  C   UNL A   1      45.815  36.050  29.491  1.00  0.00     0.006 A 
ENDBRANCH  61  78
ENDBRANCH  35  36
ENDBRANCH  27  30
ENDBRANCH  25  26
ENDBRANCH  24  25
ENDBRANCH   1  24
TORSDOF 14
ENDMDL
MODEL 2
REMARK VINA RESULT:     -11.6      1.787      2.590
REMARK SMILES Cc1c(Cl)cccc1-c1cccc(Cl)c1C(=O)NCCCCCCNC(=O)c1ccc(-c2c3nc(c(-c4c(F)cccc4F)c4ccc([nH]4)c(-c4c(F)cccc4F)c4nc(c(-c5c(F)cccc5F)c5ccc2[nH]5)C=C4)C=C3)cc1
REMARK SMILES IDX 22 1 21 2 20 3 19 4 18 5 16 6 17 7 15 9 9 10 10 11 11 12
REMARK SMILES IDX 13 13 12 14 14 15 8 16 1 17 2 18 3 19 4 20 5 21 7 22 6 23
REMARK SMILES IDX 23 24 24 25 25 26 26 27 27 29 28 30 29 31 81 32 30 33 80 34
REMARK SMILES IDX 31 35 32 36 33 37 74 38 34 39 79 40 73 41 75 42 35 43 78 44
REMARK SMILES IDX 72 45 71 46 36 48 62 49 45 50 61 51 46 52 49 53 60 54 76 55
REMARK SMILES IDX 47 56 48 57 59 59 77 60 50 61 37 62 38 63 43 64 39 65 40 66
REMARK SMILES IDX 42 67 44 68 41 69 63 70 64 71 69 72 65 73 66 74 68 75 70 76
REMARK SMILES IDX 67 77 51 78 52 79 57 80 53 81 54 82 56 83 58 84 55 85
REMARK H PARENT 18 8 25 28 75 47 49 58
REMARK Flexibility Score: inf
ROOT
ATOM      1  C   UNL A   1      34.670  23.219  24.113  1.00  0.00     0.002 C 
ENDROOT
BRANCH   1   2
ATOM      2  C   UNL A   1      33.845  22.189  24.892  1.00  0.00     0.002 C 
BRANCH   2   3
ATOM      3  C   UNL A   1      32.738  22.666  25.841  1.00  0.00     0.021 C 
BRANCH   3   4
ATOM      4  C   UNL A   1      32.910  24.015  26.528  1.00  0.00     0.116 C 
BRANCH   4   5
ATOM      5  N   UNL A   1      31.729  24.837  26.609  1.00  0.00    -0.352 N 
ATOM      6  C   UNL A   1      31.116  25.570  25.622  1.00  0.00     0.253 C 
ATOM      7  O   UNL A   1      29.955  25.934  25.810  1.00  0.00    -0.269 OA
ATOM      8  H   UNL A   1      31.302  24.880  27.495  1.00  0.00     0.163 HD
BRANCH   6   9
ATOM      9  C   UNL A   1      31.780  25.975  24.350  1.00  0.00     0.066 A 
ATOM     10  C   UNL A   1      32.662  27.078  24.227  1.00  0.00    -0.004 A 
ATOM     11  C   UNL A   1      33.388  27.227  23.018  1.00  0.00     0.009 A 
ATOM     12  C   UNL A   1      33.261  26.332  21.961  1.00  0.00     0.002 A 
ATOM     13  C   UNL A   1      31.649  25.082  23.258  1.00  0.00     0.054 A 
ATOM     14  C   UNL A   1      32.385  25.264  22.079  1.00  0.00     0.021 A 
ATOM     15  Cl  UNL A   1      30.554  23.736  23.260  1.00  0.00    -0.083 Cl
BRANCH  10  16
ATOM     16  C   UNL A   1      32.880  28.133  25.240  1.00  0.00    -0.013 A 
ATOM     17  C   UNL A   1      30.887  29.534  24.485  1.00  0.00     0.046 C 
ATOM     18  C   UNL A   1      32.070  29.282  25.386  1.00  0.00    -0.025 A 
ATOM     19  C   UNL A   1      32.416  30.227  26.377  1.00  0.00     0.044 A 
ATOM     20  Cl  UNL A   1      31.550  31.713  26.564  1.00  0.00    -0.084 Cl
ATOM     21  C   UNL A   1      33.499  30.019  27.240  1.00  0.00     0.021 A 
ATOM     22  C   UNL A   1      33.964  27.945  26.137  1.00  0.00     0.009 A 
ATOM     23  C   UNL A   1      34.273  28.875  27.124  1.00  0.00     0.002 A 
ENDBRANCH  10  16
ENDBRANCH   6   9
ENDBRANCH   4   5
ENDBRANCH   3   4
ENDBRANCH   2   3
ENDBRANCH   1   2
BRANCH   1  24
ATOM     24  C   UNL A   1      36.141  23.417  24.480  1.00  0.00     0.021 C 
BRANCH  24  25
ATOM     25  C   UNL A   1      36.576  23.092  25.903  1.00  0.00     0.116 C 
BRANCH  25  26
ATOM     26  N   UNL A   1      37.809  22.335  25.974  1.00  0.00    -0.352 N 
ATOM     27  C   UNL A   1      39.071  22.697  26.377  1.00  0.00     0.251 C 
ATOM     28  H   UNL A   1      37.726  21.398  25.683  1.00  0.00     0.163 HD
ATOM     29  O   UNL A   1      39.976  21.872  26.268  1.00  0.00    -0.269 OA
BRANCH  27  30
ATOM     30  C   UNL A   1      39.392  24.045  26.923  1.00  0.00     0.039 A 
ATOM     31  C   UNL A   1      39.885  25.006  26.029  1.00  0.00     0.014 A 
ATOM     32  C   UNL A   1      39.319  24.366  28.282  1.00  0.00     0.014 A 
ATOM     33  C   UNL A   1      40.284  26.269  26.483  1.00  0.00     0.010 A 
ATOM     34  C   UNL A   1      39.659  25.651  28.728  1.00  0.00     0.010 A 
ATOM     35  C   UNL A   1      40.169  26.609  27.838  1.00  0.00    -0.014 A 
BRANCH  35  36
ATOM     36  C   UNL A   1      40.637  27.936  28.325  1.00  0.00     0.031 A 
ATOM     37  C   UNL A   1      42.105  28.280  28.311  1.00  0.00     0.074 A 
ATOM     38  C   UNL A   1      39.752  28.841  28.785  1.00  0.00     0.049 A 
ATOM     39  N   UNL A   1      42.701  29.388  28.680  1.00  0.00    -0.248 NA
ATOM     40  C   UNL A   1      43.027  27.235  27.840  1.00  0.00     0.031 C 
ATOM     41  C   UNL A   1      38.307  28.633  28.896  1.00  0.00     0.029 A 
ATOM     42  N   UNL A   1      39.939  30.122  29.245  1.00  0.00    -0.354 N 
ATOM     43  C   UNL A   1      44.060  29.167  28.500  1.00  0.00     0.074 A 
ATOM     44  C   UNL A   1      44.207  27.806  28.031  1.00  0.00     0.031 C 
ATOM     45  C   UNL A   1      37.738  29.753  29.371  1.00  0.00     0.029 A 
ATOM     46  C   UNL A   1      38.775  30.752  29.612  1.00  0.00     0.049 A 
ATOM     47  H   UNL A   1      40.824  30.550  29.305  1.00  0.00     0.167 HD
ATOM     48  C   UNL A   1      45.095  30.024  28.685  1.00  0.00     0.037 A 
ATOM     49  C   UNL A   1      38.563  31.998  30.081  1.00  0.00     0.037 A 
ATOM     50  C   UNL A   1      44.959  31.391  29.113  1.00  0.00     0.049 A 
ATOM     51  C   UNL A   1      39.723  32.944  30.234  1.00  0.00     0.074 A 
ATOM     52  C   UNL A   1      45.948  32.347  29.279  1.00  0.00     0.029 A 
ATOM     53  N   UNL A   1      43.758  32.002  29.434  1.00  0.00    -0.354 N 
ATOM     54  N   UNL A   1      40.995  32.738  30.002  1.00  0.00    -0.248 NA
ATOM     55  C   UNL A   1      39.411  34.304  30.699  1.00  0.00     0.031 C 
ATOM     56  C   UNL A   1      45.346  33.529  29.724  1.00  0.00     0.029 A 
ATOM     57  C   UNL A   1      43.979  33.319  29.802  1.00  0.00     0.049 A 
ATOM     58  H   UNL A   1      42.875  31.564  29.404  1.00  0.00     0.167 HD
ATOM     59  C   UNL A   1      41.630  33.945  30.261  1.00  0.00     0.074 A 
ATOM     60  C   UNL A   1      40.601  34.884  30.657  1.00  0.00     0.031 C 
ATOM     61  C   UNL A   1      42.948  34.248  30.179  1.00  0.00     0.037 A 
BRANCH  48  62
ATOM     62  C   UNL A   1      46.476  29.505  28.416  1.00  0.00     0.057 A 
ATOM     63  C   UNL A   1      47.064  29.600  27.148  1.00  0.00     0.134 A 
ATOM     64  C   UNL A   1      47.245  28.943  29.444  1.00  0.00     0.134 A 
ATOM     65  F   UNL A   1      46.378  30.117  26.118  1.00  0.00    -0.206 F 
ATOM     66  C   UNL A   1      48.358  29.134  26.906  1.00  0.00     0.040 A 
ATOM     67  C   UNL A   1      48.547  28.495  29.220  1.00  0.00     0.040 A 
ATOM     68  F   UNL A   1      46.744  28.829  30.684  1.00  0.00    -0.206 F 
ATOM     69  C   UNL A   1      49.105  28.585  27.946  1.00  0.00     0.006 A 
ENDBRANCH  48  62
BRANCH  49  70
ATOM     70  C   UNL A   1      37.186  32.446  30.404  1.00  0.00     0.057 A 
ATOM     71  C   UNL A   1      36.626  32.211  31.666  1.00  0.00     0.134 A 
ATOM     72  C   UNL A   1      36.390  33.095  29.454  1.00  0.00     0.134 A 
ATOM     73  F   UNL A   1      37.335  31.573  32.609  1.00  0.00    -0.206 F 
ATOM     74  C   UNL A   1      35.316  32.587  31.965  1.00  0.00     0.040 A 
ATOM     75  C   UNL A   1      35.085  33.495  29.746  1.00  0.00     0.040 A 
ATOM     76  F   UNL A   1      36.871  33.350  28.228  1.00  0.00    -0.206 F 
ATOM     77  C   UNL A   1      34.543  33.234  31.004  1.00  0.00     0.006 A 
ENDBRANCH  49  70
BRANCH  61  78
ATOM     78  C   UNL A   1      43.346  35.662  30.484  1.00  0.00     0.057 A 
ATOM     79  C   UNL A   1      43.358  36.657  29.499  1.00  0.00     0.134 A 
ATOM     80  C   UNL A   1      43.706  36.034  31.786  1.00  0.00     0.134 A 
ATOM     81  F   UNL A   1      43.035  36.361  28.231  1.00  0.00    -0.206 F 
ATOM     82  C   UNL A   1      43.740  37.968  29.791  1.00  0.00     0.040 A 
ATOM     83  C   UNL A   1      44.069  37.346  32.094  1.00  0.00     0.040 A 
ATOM     84  F   UNL A   1      43.709  35.130  32.777  1.00  0.00    -0.206 F 
ATOM     85  C   UNL A   1      44.093  38.316  31.094  1.00  0.00     0.006 A 
ENDBRANCH  61  78
ENDBRANCH  35  36
ENDBRANCH  27  30
ENDBRANCH  25  26
ENDBRANCH  24  25
ENDBRANCH   1  24
TORSDOF 14
ENDMDL
MODEL 3
REMARK VINA RESULT:     -11.6      2.620      7.526
REMARK SMILES Cc1c(Cl)cccc1-c1cccc(Cl)c1C(=O)NCCCCCCNC(=O)c1ccc(-c2c3nc(c(-c4c(F)cccc4F)c4ccc([nH]4)c(-c4c(F)cccc4F)c4nc(c(-c5c(F)cccc5F)c5ccc2[nH]5)C=C4)C=C3)cc1
REMARK SMILES IDX 22 1 21 2 20 3 19 4 18 5 16 6 17 7 15 9 9 10 10 11 11 12
REMARK SMILES IDX 13 13 12 14 14 15 8 16 1 17 2 18 3 19 4 20 5 21 7 22 6 23
REMARK SMILES IDX 23 24 24 25 25 26 26 27 27 29 28 30 29 31 81 32 30 33 80 34
REMARK SMILES IDX 31 35 32 36 33 37 74 38 34 39 79 40 73 41 75 42 35 43 78 44
REMARK SMILES IDX 72 45 71 46 36 48 62 49 45 50 61 51 46 52 49 53 60 54 76 55
REMARK SMILES IDX 47 56 48 57 59 59 77 60 50 61 37 62 38 63 43 64 39 65 40 66
REMARK SMILES IDX 42 67 44 68 41 69 63 70 64 71 69 72 65 73 66 74 68 75 70 76
REMARK SMILES IDX 67 77 51 78 52 79 57 80 53 81 54 82 56 83 58 84 55 85
REMARK H PARENT 18 8 25 28 75 47 49 58
REMARK Flexibility Score: inf
ROOT
ATOM      1  C   UNL A   1      32.597  28.745  25.673  1.00  0.00     0.002 C 
ENDROOT
BRANCH   1   2
ATOM      2  C   UNL A   1      33.011  27.308  26.002  1.00  0.00     0.002 C 
BRANCH   2   3
ATOM      3  C   UNL A   1      33.930  26.544  25.039  1.00  0.00     0.021 C 
BRANCH   3   4
ATOM      4  C   UNL A   1      33.481  26.380  23.592  1.00  0.00     0.116 C 
BRANCH   4   5
ATOM      5  N   UNL A   1      33.903  25.170  22.934  1.00  0.00    -0.352 N 
ATOM      6  C   UNL A   1      33.587  23.867  23.234  1.00  0.00     0.253 C 
ATOM      7  O   UNL A   1      33.782  23.012  22.368  1.00  0.00    -0.269 OA
ATOM      8  H   UNL A   1      34.502  25.294  22.163  1.00  0.00     0.163 HD
BRANCH   6   9
ATOM      9  C   UNL A   1      33.050  23.420  24.550  1.00  0.00     0.066 A 
ATOM     10  C   UNL A   1      33.856  22.997  25.637  1.00  0.00    -0.004 A 
ATOM     11  C   UNL A   1      33.235  22.801  26.898  1.00  0.00     0.009 A 
ATOM     12  C   UNL A   1      31.875  23.011  27.096  1.00  0.00     0.002 A 
ATOM     13  C   UNL A   1      31.663  23.613  24.764  1.00  0.00     0.054 A 
ATOM     14  C   UNL A   1      31.089  23.410  26.026  1.00  0.00     0.021 A 
ATOM     15  Cl  UNL A   1      30.563  24.064  23.501  1.00  0.00    -0.083 Cl
BRANCH  10  16
ATOM     16  C   UNL A   1      35.302  22.696  25.581  1.00  0.00    -0.013 A 
ATOM     17  C   UNL A   1      34.962  20.261  24.900  1.00  0.00     0.046 C 
ATOM     18  C   UNL A   1      35.845  21.436  25.238  1.00  0.00    -0.025 A 
ATOM     19  C   UNL A   1      37.249  21.281  25.258  1.00  0.00     0.044 A 
ATOM     20  Cl  UNL A   1      38.004  19.754  24.956  1.00  0.00    -0.084 Cl
ATOM     21  C   UNL A   1      38.099  22.354  25.554  1.00  0.00     0.021 A 
ATOM     22  C   UNL A   1      36.190  23.766  25.865  1.00  0.00     0.009 A 
ATOM     23  C   UNL A   1      37.571  23.601  25.854  1.00  0.00     0.002 A 
ENDBRANCH  10  16
ENDBRANCH   6   9
ENDBRANCH   4   5
ENDBRANCH   3   4
ENDBRANCH   2   3
ENDBRANCH   1   2
BRANCH   1  24
ATOM     24  C   UNL A   1      33.286  29.898  26.403  1.00  0.00     0.021 C 
BRANCH  24  25
ATOM     25  C   UNL A   1      34.565  29.598  27.173  1.00  0.00     0.116 C 
BRANCH  25  26
ATOM     26  N   UNL A   1      34.705  30.371  28.389  1.00  0.00    -0.352 N 
ATOM     27  C   UNL A   1      35.781  30.560  29.223  1.00  0.00     0.251 C 
ATOM     28  H   UNL A   1      33.887  30.843  28.667  1.00  0.00     0.163 HD
ATOM     29  O   UNL A   1      35.614  31.214  30.250  1.00  0.00    -0.269 OA
BRANCH  27  30
ATOM     30  C   UNL A   1      37.131  29.996  28.943  1.00  0.00     0.039 A 
ATOM     31  C   UNL A   1      37.940  29.675  30.043  1.00  0.00     0.014 A 
ATOM     32  C   UNL A   1      37.662  29.864  27.657  1.00  0.00     0.014 A 
ATOM     33  C   UNL A   1      39.250  29.217  29.859  1.00  0.00     0.010 A 
ATOM     34  C   UNL A   1      38.952  29.345  27.470  1.00  0.00     0.010 A 
ATOM     35  C   UNL A   1      39.769  29.040  28.569  1.00  0.00    -0.014 A 
BRANCH  35  36
ATOM     36  C   UNL A   1      41.178  28.596  28.378  1.00  0.00     0.031 A 
ATOM     37  C   UNL A   1      41.488  27.159  28.042  1.00  0.00     0.074 A 
ATOM     38  C   UNL A   1      42.190  29.477  28.504  1.00  0.00     0.049 A 
ATOM     39  N   UNL A   1      42.648  26.590  27.824  1.00  0.00    -0.248 NA
ATOM     40  C   UNL A   1      40.345  26.236  27.962  1.00  0.00     0.031 C 
ATOM     41  C   UNL A   1      42.044  30.888  28.865  1.00  0.00     0.029 A 
ATOM     42  N   UNL A   1      43.544  29.313  28.341  1.00  0.00    -0.354 N 
ATOM     43  C   UNL A   1      42.377  25.247  27.597  1.00  0.00     0.074 A 
ATOM     44  C   UNL A   1      40.947  25.075  27.746  1.00  0.00     0.031 C 
ATOM     45  C   UNL A   1      43.258  31.465  28.875  1.00  0.00     0.029 A 
ATOM     46  C   UNL A   1      44.266  30.465  28.537  1.00  0.00     0.049 A 
ATOM     47  H   UNL A   1      43.958  28.452  28.106  1.00  0.00     0.167 HD
ATOM     48  C   UNL A   1      43.232  24.247  27.271  1.00  0.00     0.037 A 
ATOM     49  C   UNL A   1      45.591  30.695  28.444  1.00  0.00     0.037 A 
ATOM     50  C   UNL A   1      44.650  24.413  27.080  1.00  0.00     0.049 A 
ATOM     51  C   UNL A   1      46.514  29.579  28.036  1.00  0.00     0.074 A 
ATOM     52  C   UNL A   1      45.586  23.466  26.699  1.00  0.00     0.029 A 
ATOM     53  N   UNL A   1      45.334  25.606  27.246  1.00  0.00    -0.354 N 
ATOM     54  N   UNL A   1      46.232  28.329  27.766  1.00  0.00    -0.248 NA
ATOM     55  C   UNL A   1      47.940  29.915  27.902  1.00  0.00     0.031 C 
ATOM     56  C   UNL A   1      46.842  24.082  26.660  1.00  0.00     0.029 A 
ATOM     57  C   UNL A   1      46.681  25.419  26.982  1.00  0.00     0.049 A 
ATOM     58  H   UNL A   1      44.923  26.461  27.513  1.00  0.00     0.167 HD
ATOM     59  C   UNL A   1      47.435  27.738  27.402  1.00  0.00     0.074 A 
ATOM     60  C   UNL A   1      48.449  28.770  27.474  1.00  0.00     0.031 C 
ATOM     61  C   UNL A   1      47.678  26.455  27.041  1.00  0.00     0.037 A 
BRANCH  48  62
ATOM     62  C   UNL A   1      42.654  22.875  27.089  1.00  0.00     0.057 A 
ATOM     63  C   UNL A   1      42.272  22.087  28.183  1.00  0.00     0.134 A 
ATOM     64  C   UNL A   1      42.437  22.352  25.808  1.00  0.00     0.134 A 
ATOM     65  F   UNL A   1      42.464  22.525  29.436  1.00  0.00    -0.206 F 
ATOM     66  C   UNL A   1      41.715  20.819  28.009  1.00  0.00     0.040 A 
ATOM     67  C   UNL A   1      41.860  21.095  25.621  1.00  0.00     0.040 A 
ATOM     68  F   UNL A   1      42.773  23.059  24.718  1.00  0.00    -0.206 F 
ATOM     69  C   UNL A   1      41.502  20.322  26.724  1.00  0.00     0.006 A 
ENDBRANCH  48  62
BRANCH  49  70
ATOM     70  C   UNL A   1      46.129  32.053  28.704  1.00  0.00     0.057 A 
ATOM     71  C   UNL A   1      46.500  32.450  29.994  1.00  0.00     0.134 A 
ATOM     72  C   UNL A   1      46.261  32.993  27.675  1.00  0.00     0.134 A 
ATOM     73  F   UNL A   1      46.373  31.598  31.023  1.00  0.00    -0.206 F 
ATOM     74  C   UNL A   1      46.963  33.739  30.257  1.00  0.00     0.040 A 
ATOM     75  C   UNL A   1      46.744  34.279  27.921  1.00  0.00     0.040 A 
ATOM     76  F   UNL A   1      45.925  32.671  26.417  1.00  0.00    -0.206 F 
ATOM     77  C   UNL A   1      47.089  34.657  29.217  1.00  0.00     0.006 A 
ENDBRANCH  49  70
BRANCH  61  78
ATOM     78  C   UNL A   1      49.086  26.105  26.658  1.00  0.00     0.057 A 
ATOM     79  C   UNL A   1      49.576  26.321  25.364  1.00  0.00     0.134 A 
ATOM     80  C   UNL A   1      49.965  25.562  27.603  1.00  0.00     0.134 A 
ATOM     81  F   UNL A   1      48.778  26.827  24.411  1.00  0.00    -0.206 F 
ATOM     82  C   UNL A   1      50.884  25.982  25.015  1.00  0.00     0.040 A 
ATOM     83  C   UNL A   1      51.283  25.240  27.270  1.00  0.00     0.040 A 
ATOM     84  F   UNL A   1      49.561  25.338  28.862  1.00  0.00    -0.206 F 
ATOM     85  C   UNL A   1      51.743  25.444  25.972  1.00  0.00     0.006 A 
ENDBRANCH  61  78
ENDBRANCH  35  36
ENDBRANCH  27  30
ENDBRANCH  25  26
ENDBRANCH  24  25
ENDBRANCH   1  24
TORSDOF 14
ENDMDL
