MODEL 1
REMARK VINA RESULT:     -11.8      0.000      0.000
REMARK SMILES Cc1nc(N2CCN(c3ccccc3)CC2)nc(OCC(=O)NCCCCCCNC(=O)c2ccc(-c3c4nc(c(-c5c(F)cccc5F)c5ccc([nH]5)c(-c5c(F)cccc5F)c5nc(c(-c6c(F)cccc6F)c6ccc3[nH]6)C=C5)C=C4)cc2)c1C
REMARK SMILES IDX 25 1 24 2 23 3 21 4 22 5 20 7 19 8 18 9 1 10 2 11 3 12 87 13
REMARK SMILES IDX 4 14 88 15 17 16 5 17 6 18 16 19 7 20 15 21 8 22 9 23 10 24
REMARK SMILES IDX 14 25 11 26 13 27 12 28 26 29 27 30 28 31 29 32 30 33 31 34
REMARK SMILES IDX 32 36 33 37 34 38 86 39 35 40 85 41 36 42 37 43 38 44 79 45
REMARK SMILES IDX 39 46 84 47 78 48 80 49 40 50 83 51 77 52 76 53 41 55 67 56
REMARK SMILES IDX 50 57 66 58 51 59 54 60 65 61 81 62 52 63 53 64 64 66 82 67
REMARK SMILES IDX 55 68 42 69 43 70 48 71 44 72 45 73 47 74 49 75 46 76 68 77
REMARK SMILES IDX 69 78 74 79 70 80 71 81 73 82 75 83 72 84 56 85 57 86 62 87
REMARK SMILES IDX 58 88 59 89 61 90 63 91 60 92
REMARK H PARENT 23 6 30 35 80 54 54 65
REMARK Flexibility Score: inf
ROOT
ATOM      1  C   UNL A   1      34.641  32.438  29.134  1.00  0.00     0.021 C 
ENDROOT
BRANCH   1   2
ATOM      2  C   UNL A   1      34.361  31.804  27.773  1.00  0.00     0.116 C 
BRANCH   2   3
ATOM      3  N   UNL A   1      34.271  30.361  27.847  1.00  0.00    -0.353 N 
ATOM      4  C   UNL A   1      33.278  29.543  27.404  1.00  0.00     0.258 C 
ATOM      5  O   UNL A   1      33.462  28.324  27.444  1.00  0.00    -0.271 OA
ATOM      6  H   UNL A   1      35.034  29.910  28.278  1.00  0.00     0.163 HD
BRANCH   4   7
ATOM      7  C   UNL A   1      31.999  30.134  26.802  1.00  0.00     0.331 C 
BRANCH   7   8
ATOM      8  O   UNL A   1      31.846  30.285  25.417  1.00  0.00    -0.467 OA
BRANCH   8   9
ATOM      9  C   UNL A   1      31.024  29.555  24.630  1.00  0.00     0.221 A 
ATOM     10  C   UNL A   1      28.136  29.128  22.263  1.00  0.00     0.067 C 
ATOM     11  C   UNL A   1      29.354  28.913  23.119  1.00  0.00     0.050 A 
ATOM     12  N   UNL A   1      29.832  27.651  23.098  1.00  0.00    -0.218 NA
ATOM     13  C   UNL A   1      29.913  29.934  23.895  1.00  0.00     0.033 A 
ATOM     14  C   UNL A   1      30.855  27.364  23.900  1.00  0.00     0.229 A 
ATOM     15  C   UNL A   1      29.318  31.304  23.832  1.00  0.00     0.052 C 
ATOM     16  N   UNL A   1      31.447  28.277  24.669  1.00  0.00    -0.177 NA
BRANCH  14  17
ATOM     17  N   UNL A   1      31.391  26.102  23.898  1.00  0.00    -0.337 N 
ATOM     18  C   UNL A   1      30.487  24.956  23.884  1.00  0.00     0.141 C 
ATOM     19  C   UNL A   1      32.639  25.919  24.645  1.00  0.00     0.141 C 
ATOM     20  C   UNL A   1      31.235  23.737  23.300  1.00  0.00     0.138 C 
ATOM     21  C   UNL A   1      33.386  24.653  24.161  1.00  0.00     0.138 C 
ATOM     22  N   UNL A   1      32.468  23.502  24.068  1.00  0.00    -0.368 N 
BRANCH  22  23
ATOM     23  C   UNL A   1      32.976  22.225  24.197  1.00  0.00     0.037 A 
ATOM     24  C   UNL A   1      32.222  21.078  23.923  1.00  0.00     0.026 A 
ATOM     25  C   UNL A   1      34.282  22.054  24.671  1.00  0.00     0.026 A 
ATOM     26  C   UNL A   1      32.751  19.801  24.134  1.00  0.00     0.002 A 
ATOM     27  C   UNL A   1      34.811  20.783  24.901  1.00  0.00     0.002 A 
ATOM     28  C   UNL A   1      34.042  19.654  24.633  1.00  0.00     0.000 A 
ENDBRANCH  22  23
ENDBRANCH  14  17
ENDBRANCH   8   9
ENDBRANCH   7   8
ENDBRANCH   4   7
ENDBRANCH   2   3
ENDBRANCH   1   2
BRANCH   1  29
ATOM     29  C   UNL A   1      34.507  33.966  29.186  1.00  0.00     0.002 C 
BRANCH  29  30
ATOM     30  C   UNL A   1      33.149  34.541  28.767  1.00  0.00     0.002 C 
BRANCH  30  31
ATOM     31  C   UNL A   1      33.044  36.066  28.772  1.00  0.00     0.021 C 
BRANCH  31  32
ATOM     32  C   UNL A   1      33.436  36.737  30.084  1.00  0.00     0.116 C 
BRANCH  32  33
ATOM     33  N   UNL A   1      32.442  36.539  31.125  1.00  0.00    -0.352 N 
ATOM     34  C   UNL A   1      32.456  35.675  32.192  1.00  0.00     0.251 C 
ATOM     35  H   UNL A   1      31.641  37.107  31.055  1.00  0.00     0.163 HD
ATOM     36  O   UNL A   1      31.448  35.519  32.872  1.00  0.00    -0.269 OA
BRANCH  34  37
ATOM     37  C   UNL A   1      33.685  34.916  32.517  1.00  0.00     0.039 A 
ATOM     38  C   UNL A   1      34.918  35.572  32.462  1.00  0.00     0.014 A 
ATOM     39  C   UNL A   1      33.626  33.558  32.841  1.00  0.00     0.014 A 
ATOM     40  C   UNL A   1      36.089  34.878  32.782  1.00  0.00     0.010 A 
ATOM     41  C   UNL A   1      34.784  32.886  33.224  1.00  0.00     0.010 A 
ATOM     42  C   UNL A   1      36.027  33.536  33.187  1.00  0.00    -0.014 A 
BRANCH  42  43
ATOM     43  C   UNL A   1      37.251  32.774  33.537  1.00  0.00     0.031 A 
ATOM     44  C   UNL A   1      37.965  33.069  34.827  1.00  0.00     0.074 A 
ATOM     45  C   UNL A   1      37.750  31.867  32.678  1.00  0.00     0.049 A 
ATOM     46  N   UNL A   1      39.110  32.608  35.264  1.00  0.00    -0.248 NA
ATOM     47  C   UNL A   1      37.314  34.024  35.739  1.00  0.00     0.031 C 
ATOM     48  C   UNL A   1      37.153  31.496  31.394  1.00  0.00     0.029 A 
ATOM     49  N   UNL A   1      38.884  31.095  32.753  1.00  0.00    -0.354 N 
ATOM     50  C   UNL A   1      39.319  33.222  36.492  1.00  0.00     0.074 A 
ATOM     51  C   UNL A   1      38.210  34.126  36.709  1.00  0.00     0.031 C 
ATOM     52  C   UNL A   1      37.915  30.557  30.811  1.00  0.00     0.029 A 
ATOM     53  C   UNL A   1      39.078  30.292  31.656  1.00  0.00     0.049 A 
ATOM     54  H   UNL A   1      39.499  31.116  33.522  1.00  0.00     0.167 HD
ATOM     55  C   UNL A   1      40.332  33.032  37.369  1.00  0.00     0.037 A 
ATOM     56  C   UNL A   1      40.084  29.450  31.358  1.00  0.00     0.037 A 
ATOM     57  C   UNL A   1      41.425  32.120  37.158  1.00  0.00     0.049 A 
ATOM     58  C   UNL A   1      41.223  29.293  32.330  1.00  0.00     0.074 A 
ATOM     59  C   UNL A   1      42.488  31.841  37.999  1.00  0.00     0.029 A 
ATOM     60  N   UNL A   1      41.592  31.335  36.027  1.00  0.00    -0.354 N 
ATOM     61  N   UNL A   1      41.401  29.867  33.495  1.00  0.00    -0.248 NA
ATOM     62  C   UNL A   1      42.300  28.371  31.943  1.00  0.00     0.031 C 
ATOM     63  C   UNL A   1      43.321  30.920  37.358  1.00  0.00     0.029 A 
ATOM     64  C   UNL A   1      42.750  30.584  36.141  1.00  0.00     0.049 A 
ATOM     65  H   UNL A   1      40.978  31.315  35.258  1.00  0.00     0.167 HD
ATOM     66  C   UNL A   1      42.595  29.359  33.990  1.00  0.00     0.074 A 
ATOM     67  C   UNL A   1      43.088  28.416  33.008  1.00  0.00     0.031 C 
ATOM     68  C   UNL A   1      43.228  29.649  35.155  1.00  0.00     0.037 A 
BRANCH  55  69
ATOM     69  C   UNL A   1      40.302  33.820  38.647  1.00  0.00     0.057 A 
ATOM     70  C   UNL A   1      41.004  35.025  38.784  1.00  0.00     0.134 A 
ATOM     71  C   UNL A   1      39.519  33.402  39.730  1.00  0.00     0.134 A 
ATOM     72  F   UNL A   1      41.784  35.474  37.789  1.00  0.00    -0.206 F 
ATOM     73  C   UNL A   1      40.941  35.778  39.958  1.00  0.00     0.040 A 
ATOM     74  C   UNL A   1      39.424  34.160  40.899  1.00  0.00     0.040 A 
ATOM     75  F   UNL A   1      38.818  32.260  39.664  1.00  0.00    -0.206 F 
ATOM     76  C   UNL A   1      40.140  35.350  41.015  1.00  0.00     0.006 A 
ENDBRANCH  55  69
BRANCH  56  77
ATOM     77  C   UNL A   1      40.053  28.671  30.094  1.00  0.00     0.057 A 
ATOM     78  C   UNL A   1      39.343  27.468  30.009  1.00  0.00     0.134 A 
ATOM     79  C   UNL A   1      40.724  29.107  28.944  1.00  0.00     0.134 A 
ATOM     80  F   UNL A   1      38.698  26.988  31.082  1.00  0.00    -0.206 F 
ATOM     81  C   UNL A   1      39.310  26.720  28.831  1.00  0.00     0.040 A 
ATOM     82  C   UNL A   1      40.679  28.381  27.753  1.00  0.00     0.040 A 
ATOM     83  F   UNL A   1      41.419  30.252  28.959  1.00  0.00    -0.206 F 
ATOM     84  C   UNL A   1      39.974  27.180  27.696  1.00  0.00     0.006 A 
ENDBRANCH  56  77
BRANCH  68  85
ATOM     85  C   UNL A   1      44.510  28.922  35.442  1.00  0.00     0.057 A 
ATOM     86  C   UNL A   1      45.754  29.439  35.058  1.00  0.00     0.134 A 
ATOM     87  C   UNL A   1      44.504  27.715  36.151  1.00  0.00     0.134 A 
ATOM     88  F   UNL A   1      45.830  30.586  34.367  1.00  0.00    -0.206 F 
ATOM     89  C   UNL A   1      46.944  28.769  35.348  1.00  0.00     0.040 A 
ATOM     90  C   UNL A   1      45.687  27.050  36.473  1.00  0.00     0.040 A 
ATOM     91  F   UNL A   1      43.347  27.169  36.559  1.00  0.00    -0.206 F 
ATOM     92  C   UNL A   1      46.912  27.573  36.065  1.00  0.00     0.006 A 
ENDBRANCH  68  85
ENDBRANCH  42  43
ENDBRANCH  34  37
ENDBRANCH  32  33
ENDBRANCH  31  32
ENDBRANCH  30  31
ENDBRANCH  29  30
ENDBRANCH   1  29
TORSDOF 17
ENDMDL
MODEL 2
REMARK VINA RESULT:     -11.6      5.239     10.687
REMARK SMILES Cc1nc(N2CCN(c3ccccc3)CC2)nc(OCC(=O)NCCCCCCNC(=O)c2ccc(-c3c4nc(c(-c5c(F)cccc5F)c5ccc([nH]5)c(-c5c(F)cccc5F)c5nc(c(-c6c(F)cccc6F)c6ccc3[nH]6)C=C5)C=C4)cc2)c1C
REMARK SMILES IDX 25 1 24 2 23 3 21 4 22 5 20 7 19 8 18 9 1 10 2 11 3 12 87 13
REMARK SMILES IDX 4 14 88 15 17 16 5 17 6 18 16 19 7 20 15 21 8 22 9 23 10 24
REMARK SMILES IDX 14 25 11 26 13 27 12 28 26 29 27 30 28 31 29 32 30 33 31 34
REMARK SMILES IDX 32 36 33 37 34 38 86 39 35 40 85 41 36 42 37 43 38 44 79 45
REMARK SMILES IDX 39 46 84 47 78 48 80 49 40 50 83 51 77 52 76 53 41 55 67 56
REMARK SMILES IDX 50 57 66 58 51 59 54 60 65 61 81 62 52 63 53 64 64 66 82 67
REMARK SMILES IDX 55 68 42 69 43 70 48 71 44 72 45 73 47 74 49 75 46 76 68 77
REMARK SMILES IDX 69 78 74 79 70 80 71 81 73 82 75 83 72 84 56 85 57 86 62 87
REMARK SMILES IDX 58 88 59 89 61 90 63 91 60 92
REMARK H PARENT 23 6 30 35 80 54 54 65
REMARK Flexibility Score: inf
ROOT
ATOM      1  C   UNL A   1      37.096  21.126  25.051  1.00  0.00     0.021 C 
ENDROOT
BRANCH   1   2
ATOM      2  C   UNL A   1      35.593  21.367  25.167  1.00  0.00     0.116 C 
BRANCH   2   3
ATOM      3  N   UNL A   1      35.052  22.038  24.005  1.00  0.00    -0.353 N 
ATOM      4  C   UNL A   1      34.949  23.373  23.759  1.00  0.00     0.258 C 
ATOM      5  O   UNL A   1      34.578  23.735  22.640  1.00  0.00    -0.271 OA
ATOM      6  H   UNL A   1      34.710  21.448  23.293  1.00  0.00     0.163 HD
BRANCH   4   7
ATOM      7  C   UNL A   1      35.359  24.390  24.829  1.00  0.00     0.331 C 
BRANCH   7   8
ATOM      8  O   UNL A   1      34.558  24.628  25.955  1.00  0.00    -0.467 OA
BRANCH   8   9
ATOM      9  C   UNL A   1      33.211  24.523  26.001  1.00  0.00     0.221 A 
ATOM     10  C   UNL A   1      29.999  22.901  27.089  1.00  0.00     0.067 C 
ATOM     11  C   UNL A   1      31.033  23.830  26.513  1.00  0.00     0.050 A 
ATOM     12  N   UNL A   1      30.522  24.911  25.887  1.00  0.00    -0.218 NA
ATOM     13  C   UNL A   1      32.405  23.566  26.596  1.00  0.00     0.033 A 
ATOM     14  C   UNL A   1      31.374  25.731  25.276  1.00  0.00     0.229 A 
ATOM     15  C   UNL A   1      32.868  22.349  27.329  1.00  0.00     0.052 C 
ATOM     16  N   UNL A   1      32.694  25.555  25.307  1.00  0.00    -0.177 NA
BRANCH  14  17
ATOM     17  N   UNL A   1      30.906  26.855  24.645  1.00  0.00    -0.337 N 
ATOM     18  C   UNL A   1      31.047  28.145  25.314  1.00  0.00     0.141 C 
ATOM     19  C   UNL A   1      29.703  26.693  23.824  1.00  0.00     0.141 C 
ATOM     20  C   UNL A   1      31.023  29.265  24.250  1.00  0.00     0.138 C 
ATOM     21  C   UNL A   1      29.581  27.844  22.797  1.00  0.00     0.138 C 
ATOM     22  N   UNL A   1      29.797  29.153  23.445  1.00  0.00    -0.368 N 
BRANCH  22  23
ATOM     23  C   UNL A   1      29.220  30.279  22.894  1.00  0.00     0.037 A 
ATOM     24  C   UNL A   1      28.764  30.327  21.572  1.00  0.00     0.026 A 
ATOM     25  C   UNL A   1      29.130  31.446  23.662  1.00  0.00     0.026 A 
ATOM     26  C   UNL A   1      28.249  31.509  21.029  1.00  0.00     0.002 A 
ATOM     27  C   UNL A   1      28.634  32.635  23.122  1.00  0.00     0.002 A 
ATOM     28  C   UNL A   1      28.195  32.666  21.802  1.00  0.00     0.000 A 
ENDBRANCH  22  23
ENDBRANCH  14  17
ENDBRANCH   8   9
ENDBRANCH   7   8
ENDBRANCH   4   7
ENDBRANCH   2   3
ENDBRANCH   1   2
BRANCH   1  29
ATOM     29  C   UNL A   1      37.985  22.222  25.654  1.00  0.00     0.002 C 
BRANCH  29  30
ATOM     30  C   UNL A   1      39.355  21.771  26.175  1.00  0.00     0.002 C 
BRANCH  30  31
ATOM     31  C   UNL A   1      39.732  20.320  25.878  1.00  0.00     0.021 C 
BRANCH  31  32
ATOM     32  C   UNL A   1      40.852  19.753  26.742  1.00  0.00     0.116 C 
BRANCH  32  33
ATOM     33  N   UNL A   1      42.045  19.445  25.970  1.00  0.00    -0.352 N 
ATOM     34  C   UNL A   1      43.054  20.278  25.556  1.00  0.00     0.251 C 
ATOM     35  H   UNL A   1      42.142  18.502  25.706  1.00  0.00     0.163 HD
ATOM     36  O   UNL A   1      43.896  19.876  24.759  1.00  0.00    -0.269 OA
BRANCH  34  37
ATOM     37  C   UNL A   1      43.123  21.669  26.056  1.00  0.00     0.039 A 
ATOM     38  C   UNL A   1      43.196  21.887  27.435  1.00  0.00     0.014 A 
ATOM     39  C   UNL A   1      43.082  22.753  25.175  1.00  0.00     0.014 A 
ATOM     40  C   UNL A   1      43.279  23.193  27.928  1.00  0.00     0.010 A 
ATOM     41  C   UNL A   1      43.233  24.048  25.662  1.00  0.00     0.010 A 
ATOM     42  C   UNL A   1      43.320  24.282  27.044  1.00  0.00    -0.014 A 
BRANCH  42  43
ATOM     43  C   UNL A   1      43.412  25.678  27.536  1.00  0.00     0.031 A 
ATOM     44  C   UNL A   1      44.763  26.285  27.799  1.00  0.00     0.074 A 
ATOM     45  C   UNL A   1      42.293  26.376  27.799  1.00  0.00     0.049 A 
ATOM     46  N   UNL A   1      45.061  27.437  28.342  1.00  0.00    -0.248 NA
ATOM     47  C   UNL A   1      45.934  25.478  27.418  1.00  0.00     0.031 C 
ATOM     48  C   UNL A   1      40.926  25.897  27.591  1.00  0.00     0.029 A 
ATOM     49  N   UNL A   1      42.129  27.640  28.311  1.00  0.00    -0.354 N 
ATOM     50  C   UNL A   1      46.449  27.490  28.376  1.00  0.00     0.074 A 
ATOM     51  C   UNL A   1      46.934  26.234  27.846  1.00  0.00     0.031 C 
ATOM     52  C   UNL A   1      40.063  26.860  27.954  1.00  0.00     0.029 A 
ATOM     53  C   UNL A   1      40.814  28.006  28.463  1.00  0.00     0.049 A 
ATOM     54  H   UNL A   1      42.883  28.228  28.545  1.00  0.00     0.167 HD
ATOM     55  C   UNL A   1      47.246  28.502  28.790  1.00  0.00     0.037 A 
ATOM     56  C   UNL A   1      40.274  29.131  28.969  1.00  0.00     0.037 A 
ATOM     57  C   UNL A   1      46.760  29.757  29.301  1.00  0.00     0.049 A 
ATOM     58  C   UNL A   1      41.183  30.223  29.467  1.00  0.00     0.074 A 
ATOM     59  C   UNL A   1      47.489  30.854  29.725  1.00  0.00     0.029 A 
ATOM     60  N   UNL A   1      45.420  30.083  29.453  1.00  0.00    -0.354 N 
ATOM     61  N   UNL A   1      42.493  30.267  29.479  1.00  0.00    -0.248 NA
ATOM     62  C   UNL A   1      40.536  31.419  30.022  1.00  0.00     0.031 C 
ATOM     63  C   UNL A   1      46.591  31.828  30.174  1.00  0.00     0.029 A 
ATOM     64  C   UNL A   1      45.302  31.359  29.980  1.00  0.00     0.049 A 
ATOM     65  H   UNL A   1      44.666  29.496  29.220  1.00  0.00     0.167 HD
ATOM     66  C   UNL A   1      42.827  31.502  30.018  1.00  0.00     0.074 A 
ATOM     67  C   UNL A   1      41.582  32.185  30.303  1.00  0.00     0.031 C 
ATOM     68  C   UNL A   1      44.056  32.025  30.258  1.00  0.00     0.037 A 
BRANCH  55  69
ATOM     69  C   UNL A   1      48.730  28.301  28.698  1.00  0.00     0.057 A 
ATOM     70  C   UNL A   1      49.454  28.668  27.555  1.00  0.00     0.134 A 
ATOM     71  C   UNL A   1      49.454  27.789  29.783  1.00  0.00     0.134 A 
ATOM     72  F   UNL A   1      48.819  29.151  26.476  1.00  0.00    -0.206 F 
ATOM     73  C   UNL A   1      50.839  28.519  27.488  1.00  0.00     0.040 A 
ATOM     74  C   UNL A   1      50.843  27.661  29.739  1.00  0.00     0.040 A 
ATOM     75  F   UNL A   1      48.825  27.420  30.909  1.00  0.00    -0.206 F 
ATOM     76  C   UNL A   1      51.539  28.024  28.587  1.00  0.00     0.006 A 
ENDBRANCH  55  69
BRANCH  56  77
ATOM     77  C   UNL A   1      38.799  29.294  29.011  1.00  0.00     0.057 A 
ATOM     78  C   UNL A   1      38.090  29.115  30.205  1.00  0.00     0.134 A 
ATOM     79  C   UNL A   1      38.062  29.633  27.869  1.00  0.00     0.134 A 
ATOM     80  F   UNL A   1      38.737  28.768  31.327  1.00  0.00    -0.206 F 
ATOM     81  C   UNL A   1      36.703  29.256  30.260  1.00  0.00     0.040 A 
ATOM     82  C   UNL A   1      36.678  29.802  27.916  1.00  0.00     0.040 A 
ATOM     83  F   UNL A   1      38.681  29.822  26.695  1.00  0.00    -0.206 F 
ATOM     84  C   UNL A   1      35.993  29.607  29.114  1.00  0.00     0.006 A 
ENDBRANCH  56  77
BRANCH  68  85
ATOM     85  C   UNL A   1      44.115  33.410  30.836  1.00  0.00     0.057 A 
ATOM     86  C   UNL A   1      44.191  33.631  32.216  1.00  0.00     0.134 A 
ATOM     87  C   UNL A   1      44.143  34.533  29.999  1.00  0.00     0.134 A 
ATOM     88  F   UNL A   1      44.159  32.600  33.074  1.00  0.00    -0.206 F 
ATOM     89  C   UNL A   1      44.269  34.921  32.746  1.00  0.00     0.040 A 
ATOM     90  C   UNL A   1      44.250  35.825  30.513  1.00  0.00     0.040 A 
ATOM     91  F   UNL A   1      44.085  34.391  28.665  1.00  0.00    -0.206 F 
ATOM     92  C   UNL A   1      44.306  36.022  31.892  1.00  0.00     0.006 A 
ENDBRANCH  68  85
ENDBRANCH  42  43
ENDBRANCH  34  37
ENDBRANCH  32  33
ENDBRANCH  31  32
ENDBRANCH  30  31
ENDBRANCH  29  30
ENDBRANCH   1  29
TORSDOF 17
ENDMDL
MODEL 3
REMARK VINA RESULT:     -11.4      0.762      1.973
REMARK SMILES Cc1nc(N2CCN(c3ccccc3)CC2)nc(OCC(=O)NCCCCCCNC(=O)c2ccc(-c3c4nc(c(-c5c(F)cccc5F)c5ccc([nH]5)c(-c5c(F)cccc5F)c5nc(c(-c6c(F)cccc6F)c6ccc3[nH]6)C=C5)C=C4)cc2)c1C
REMARK SMILES IDX 25 1 24 2 23 3 21 4 22 5 20 7 19 8 18 9 1 10 2 11 3 12 87 13
REMARK SMILES IDX 4 14 88 15 17 16 5 17 6 18 16 19 7 20 15 21 8 22 9 23 10 24
REMARK SMILES IDX 14 25 11 26 13 27 12 28 26 29 27 30 28 31 29 32 30 33 31 34
REMARK SMILES IDX 32 36 33 37 34 38 86 39 35 40 85 41 36 42 37 43 38 44 79 45
REMARK SMILES IDX 39 46 84 47 78 48 80 49 40 50 83 51 77 52 76 53 41 55 67 56
REMARK SMILES IDX 50 57 66 58 51 59 54 60 65 61 81 62 52 63 53 64 64 66 82 67
REMARK SMILES IDX 55 68 42 69 43 70 48 71 44 72 45 73 47 74 49 75 46 76 68 77
REMARK SMILES IDX 69 78 74 79 70 80 71 81 73 82 75 83 72 84 56 85 57 86 62 87
REMARK SMILES IDX 58 88 59 89 61 90 63 91 60 92
REMARK H PARENT 23 6 30 35 80 54 54 65
REMARK Flexibility Score: inf
ROOT
ATOM      1  C   UNL A   1      34.962  32.209  28.857  1.00  0.00     0.021 C 
ENDROOT
BRANCH   1   2
ATOM      2  C   UNL A   1      34.270  31.593  27.643  1.00  0.00     0.116 C 
BRANCH   2   3
ATOM      3  N   UNL A   1      33.597  30.352  27.965  1.00  0.00    -0.353 N 
ATOM      4  C   UNL A   1      33.276  29.316  27.142  1.00  0.00     0.258 C 
ATOM      5  O   UNL A   1      32.821  28.287  27.648  1.00  0.00    -0.271 OA
ATOM      6  H   UNL A   1      33.334  30.244  28.908  1.00  0.00     0.163 HD
BRANCH   4   7
ATOM      7  C   UNL A   1      33.548  29.409  25.638  1.00  0.00     0.331 C 
BRANCH   7   8
ATOM      8  O   UNL A   1      33.481  28.278  24.812  1.00  0.00    -0.467 OA
BRANCH   8   9
ATOM      9  C   UNL A   1      32.353  27.612  24.477  1.00  0.00     0.221 A 
ATOM     10  C   UNL A   1      28.731  27.414  23.491  1.00  0.00     0.067 C 
ATOM     11  C   UNL A   1      30.168  27.099  23.809  1.00  0.00     0.050 A 
ATOM     12  N   UNL A   1      30.487  25.792  23.703  1.00  0.00    -0.218 NA
ATOM     13  C   UNL A   1      31.077  28.082  24.215  1.00  0.00     0.033 A 
ATOM     14  C   UNL A   1      31.717  25.426  24.055  1.00  0.00     0.229 A 
ATOM     15  C   UNL A   1      30.626  29.506  24.281  1.00  0.00     0.052 C 
ATOM     16  N   UNL A   1      32.644  26.297  24.450  1.00  0.00    -0.177 NA
BRANCH  14  17
ATOM     17  N   UNL A   1      32.097  24.113  23.943  1.00  0.00    -0.337 N 
ATOM     18  C   UNL A   1      31.160  23.159  23.357  1.00  0.00     0.141 C 
ATOM     19  C   UNL A   1      32.958  23.587  25.007  1.00  0.00     0.141 C 
ATOM     20  C   UNL A   1      31.955  21.958  22.797  1.00  0.00     0.138 C 
ATOM     21  C   UNL A   1      33.710  22.323  24.527  1.00  0.00     0.138 C 
ATOM     22  N   UNL A   1      32.789  21.381  23.862  1.00  0.00    -0.368 N 
BRANCH  22  23
ATOM     23  C   UNL A   1      33.093  20.035  23.857  1.00  0.00     0.037 A 
ATOM     24  C   UNL A   1      34.148  19.493  24.599  1.00  0.00     0.026 A 
ATOM     25  C   UNL A   1      32.355  19.171  23.038  1.00  0.00     0.026 A 
ATOM     26  C   UNL A   1      34.468  18.134  24.512  1.00  0.00     0.002 A 
ATOM     27  C   UNL A   1      32.680  17.817  22.932  1.00  0.00     0.002 A 
ATOM     28  C   UNL A   1      33.740  17.299  23.670  1.00  0.00     0.000 A 
ENDBRANCH  22  23
ENDBRANCH  14  17
ENDBRANCH   8   9
ENDBRANCH   7   8
ENDBRANCH   4   7
ENDBRANCH   2   3
ENDBRANCH   1   2
BRANCH   1  29
ATOM     29  C   UNL A   1      34.696  33.704  29.076  1.00  0.00     0.002 C 
BRANCH  29  30
ATOM     30  C   UNL A   1      33.231  34.150  28.990  1.00  0.00     0.002 C 
BRANCH  30  31
ATOM     31  C   UNL A   1      33.006  35.643  28.753  1.00  0.00     0.021 C 
BRANCH  31  32
ATOM     32  C   UNL A   1      33.436  36.552  29.898  1.00  0.00     0.116 C 
BRANCH  32  33
ATOM     33  N   UNL A   1      32.507  36.514  31.015  1.00  0.00    -0.352 N 
ATOM     34  C   UNL A   1      32.557  35.768  32.166  1.00  0.00     0.251 C 
ATOM     35  H   UNL A   1      31.728  37.110  30.933  1.00  0.00     0.163 HD
ATOM     36  O   UNL A   1      31.591  35.734  32.920  1.00  0.00    -0.269 OA
BRANCH  34  37
ATOM     37  C   UNL A   1      33.771  34.989  32.494  1.00  0.00     0.039 A 
ATOM     38  C   UNL A   1      35.021  35.605  32.380  1.00  0.00     0.014 A 
ATOM     39  C   UNL A   1      33.683  33.648  32.880  1.00  0.00     0.014 A 
ATOM     40  C   UNL A   1      36.179  34.892  32.701  1.00  0.00     0.010 A 
ATOM     41  C   UNL A   1      34.831  32.960  33.264  1.00  0.00     0.010 A 
ATOM     42  C   UNL A   1      36.090  33.571  33.167  1.00  0.00    -0.014 A 
BRANCH  42  43
ATOM     43  C   UNL A   1      37.301  32.790  33.520  1.00  0.00     0.031 A 
ATOM     44  C   UNL A   1      38.031  33.091  34.800  1.00  0.00     0.074 A 
ATOM     45  C   UNL A   1      37.775  31.858  32.673  1.00  0.00     0.049 A 
ATOM     46  N   UNL A   1      39.169  32.614  35.236  1.00  0.00    -0.248 NA
ATOM     47  C   UNL A   1      37.407  34.074  35.700  1.00  0.00     0.031 C 
ATOM     48  C   UNL A   1      37.160  31.479  31.400  1.00  0.00     0.029 A 
ATOM     49  N   UNL A   1      38.893  31.065  32.753  1.00  0.00    -0.354 N 
ATOM     50  C   UNL A   1      39.401  33.244  36.452  1.00  0.00     0.074 A 
ATOM     51  C   UNL A   1      38.312  34.174  36.662  1.00  0.00     0.031 C 
ATOM     52  C   UNL A   1      37.898  30.515  30.827  1.00  0.00     0.029 A 
ATOM     53  C   UNL A   1      39.061  30.240  31.667  1.00  0.00     0.049 A 
ATOM     54  H   UNL A   1      39.514  31.086  33.516  1.00  0.00     0.167 HD
ATOM     55  C   UNL A   1      40.416  33.048  37.325  1.00  0.00     0.037 A 
ATOM     56  C   UNL A   1      40.048  29.372  31.377  1.00  0.00     0.037 A 
ATOM     57  C   UNL A   1      41.489  32.110  37.121  1.00  0.00     0.049 A 
ATOM     58  C   UNL A   1      41.191  29.208  32.342  1.00  0.00     0.074 A 
ATOM     59  C   UNL A   1      42.553  31.823  37.958  1.00  0.00     0.029 A 
ATOM     60  N   UNL A   1      41.631  31.303  36.002  1.00  0.00    -0.354 N 
ATOM     61  N   UNL A   1      41.390  29.797  33.496  1.00  0.00    -0.248 NA
ATOM     62  C   UNL A   1      42.246  28.258  31.962  1.00  0.00     0.031 C 
ATOM     63  C   UNL A   1      43.361  30.873  37.326  1.00  0.00     0.029 A 
ATOM     64  C   UNL A   1      42.774  30.530  36.119  1.00  0.00     0.049 A 
ATOM     65  H   UNL A   1      41.010  31.282  35.238  1.00  0.00     0.167 HD
ATOM     66  C   UNL A   1      42.577  29.273  33.991  1.00  0.00     0.074 A 
ATOM     67  C   UNL A   1      43.042  28.303  33.021  1.00  0.00     0.031 C 
ATOM     68  C   UNL A   1      43.225  29.569  35.145  1.00  0.00     0.037 A 
BRANCH  55  69
ATOM     69  C   UNL A   1      40.412  33.857  38.589  1.00  0.00     0.057 A 
ATOM     70  C   UNL A   1      39.728  33.429  39.735  1.00  0.00     0.134 A 
ATOM     71  C   UNL A   1      41.147  35.046  38.683  1.00  0.00     0.134 A 
ATOM     72  F   UNL A   1      38.994  32.306  39.707  1.00  0.00    -0.206 F 
ATOM     73  C   UNL A   1      39.761  34.161  40.922  1.00  0.00     0.040 A 
ATOM     74  C   UNL A   1      41.210  35.773  39.873  1.00  0.00     0.040 A 
ATOM     75  F   UNL A   1      41.828  35.512  37.625  1.00  0.00    -0.206 F 
ATOM     76  C   UNL A   1      40.513  35.332  40.996  1.00  0.00     0.006 A 
ENDBRANCH  55  69
BRANCH  56  77
ATOM     77  C   UNL A   1      39.991  28.573  30.126  1.00  0.00     0.057 A 
ATOM     78  C   UNL A   1      40.631  29.014  28.962  1.00  0.00     0.134 A 
ATOM     79  C   UNL A   1      39.301  27.356  30.060  1.00  0.00     0.134 A 
ATOM     80  F   UNL A   1      41.289  30.183  28.956  1.00  0.00    -0.206 F 
ATOM     81  C   UNL A   1      40.580  28.281  27.776  1.00  0.00     0.040 A 
ATOM     82  C   UNL A   1      39.264  26.599  28.888  1.00  0.00     0.040 A 
ATOM     83  F   UNL A   1      38.670  26.876  31.141  1.00  0.00    -0.206 F 
ATOM     84  C   UNL A   1      39.901  27.066  27.739  1.00  0.00     0.006 A 
ENDBRANCH  56  77
BRANCH  68  85
ATOM     85  C   UNL A   1      44.494  28.820  35.435  1.00  0.00     0.057 A 
ATOM     86  C   UNL A   1      44.492  27.608  36.135  1.00  0.00     0.134 A 
ATOM     87  C   UNL A   1      45.726  29.294  34.968  1.00  0.00     0.134 A 
ATOM     88  F   UNL A   1      43.347  27.103  36.619  1.00  0.00    -0.206 F 
ATOM     89  C   UNL A   1      45.673  26.905  36.381  1.00  0.00     0.040 A 
ATOM     90  C   UNL A   1      46.910  28.588  35.181  1.00  0.00     0.040 A 
ATOM     91  F   UNL A   1      45.797  30.445  34.280  1.00  0.00    -0.206 F 
ATOM     92  C   UNL A   1      46.887  27.392  35.896  1.00  0.00     0.006 A 
ENDBRANCH  68  85
ENDBRANCH  42  43
ENDBRANCH  34  37
ENDBRANCH  32  33
ENDBRANCH  31  32
ENDBRANCH  30  31
ENDBRANCH  29  30
ENDBRANCH   1  29
TORSDOF 17
ENDMDL
