MODEL 1
REMARK VINA RESULT:     -12.2      0.000      0.000
REMARK SMILES C[C@@]1(Oc2c[nH]c3ccc(Br)c(Cl)c23)O[C@@H](C(=O)NCCCCCCNC(=O)c2ccc(-c3c4nc(c(-c5c(F)cccc5F)c5ccc([nH]5)c(-c5c(F)cccc5F)c5nc(c(-c6c(F)cccc6F)c6ccc3[nH]6)C=C5)C=C4)cc2)[C@@](C)(O)[C@@](C)(O)[C@@]1(C)O
REMARK SMILES IDX 22 1 21 2 20 3 19 4 17 5 18 6 16 8 1 9 2 10 15 11 89 12
REMARK SMILES IDX 86 13 90 14 83 15 87 16 84 17 3 18 4 19 5 20 14 21 6 22 7 23
REMARK SMILES IDX 12 24 8 26 10 27 13 28 9 29 11 30 91 31 88 33 85 35 23 37
REMARK SMILES IDX 24 38 25 39 26 40 27 41 28 43 29 44 30 45 82 46 31 47 81 48
REMARK SMILES IDX 32 49 33 50 34 51 75 52 35 53 80 54 74 55 76 56 36 57 79 58
REMARK SMILES IDX 73 59 72 60 37 62 63 63 46 64 62 65 47 66 50 67 61 68 77 69
REMARK SMILES IDX 48 70 49 71 60 73 78 74 51 75 38 76 39 77 44 78 40 79 41 80
REMARK SMILES IDX 43 81 45 82 42 83 64 84 65 85 70 86 66 87 67 88 69 89 71 90
REMARK SMILES IDX 68 91 52 92 53 93 58 94 54 95 55 96 57 97 59 98 56 99
REMARK H PARENT 19 7 6 25 91 32 88 34 85 36 26 42 76 61 50 72
REMARK Flexibility Score: inf
ROOT
ATOM      1  C   UNL A   1      39.825  22.209  26.528  1.00  0.00     0.002 C 
ENDROOT
BRANCH   1   2
ATOM      2  C   UNL A   1      38.586  21.832  25.722  1.00  0.00     0.021 C 
BRANCH   2   3
ATOM      3  C   UNL A   1      37.509  22.919  25.732  1.00  0.00     0.116 C 
BRANCH   3   4
ATOM      4  N   UNL A   1      36.495  22.804  26.766  1.00  0.00    -0.354 N 
ATOM      5  C   UNL A   1      35.138  22.954  26.683  1.00  0.00     0.252 C 
ATOM      6  O   UNL A   1      34.467  22.633  27.675  1.00  0.00    -0.272 OA
ATOM      7  H   UNL A   1      36.836  22.585  27.663  1.00  0.00     0.163 HD
BRANCH   5   8
ATOM      8  C   UNL A   1      34.406  23.581  25.458  1.00  0.00     0.246 C 
ATOM      9  C   UNL A   1      31.221  25.113  26.419  1.00  0.00     0.094 C 
ATOM     10  C   UNL A   1      32.153  24.652  25.273  1.00  0.00     0.240 C 
ATOM     11  O   UNL A   1      33.420  24.490  25.901  1.00  0.00    -0.322 OA
ATOM     12  C   UNL A   1      31.570  23.347  24.527  1.00  0.00     0.158 C 
ATOM     13  C   UNL A   1      32.538  22.106  24.587  1.00  0.00     0.128 C 
ATOM     14  C   UNL A   1      31.179  23.685  23.073  1.00  0.00     0.053 C 
ATOM     15  C   UNL A   1      34.023  22.498  24.402  1.00  0.00     0.129 C 
ATOM     16  C   UNL A   1      32.086  20.929  23.691  1.00  0.00     0.049 C 
ATOM     17  C   UNL A   1      34.387  22.967  22.984  1.00  0.00     0.049 C 
BRANCH  10  18
ATOM     18  O   UNL A   1      32.020  25.801  24.406  1.00  0.00    -0.457 OA
BRANCH  18  19
ATOM     19  C   UNL A   1      32.077  27.040  24.925  1.00  0.00     0.150 A 
ATOM     20  C   UNL A   1      32.996  27.578  25.793  1.00  0.00     0.130 A 
ATOM     21  C   UNL A   1      31.098  28.024  24.639  1.00  0.00     0.061 A 
ATOM     22  N   UNL A   1      32.736  28.922  25.867  1.00  0.00    -0.358 N 
ATOM     23  C   UNL A   1      31.633  29.230  25.097  1.00  0.00     0.051 A 
ATOM     24  C   UNL A   1      29.867  28.050  23.954  1.00  0.00     0.068 A 
ATOM     25  H   UNL A   1      33.258  29.570  26.391  1.00  0.00     0.166 HD
ATOM     26  C   UNL A   1      31.069  30.466  24.770  1.00  0.00     0.028 A 
ATOM     27  C   UNL A   1      29.302  29.269  23.589  1.00  0.00     0.037 A 
ATOM     28  Cl  UNL A   1      29.123  26.528  23.675  1.00  0.00    -0.082 Cl
ATOM     29  C   UNL A   1      29.918  30.461  23.969  1.00  0.00     0.019 A 
ATOM     30  Br  UNL A   1      27.727  29.367  22.533  1.00  0.00    -0.049 Br
ENDBRANCH  18  19
ENDBRANCH  10  18
BRANCH  12  31
ATOM     31  O   UNL A   1      30.307  22.923  25.120  1.00  0.00    -0.380 OA
ATOM     32  H   UNL A   1      30.072  22.043  24.786  1.00  0.00     0.211 HD
ENDBRANCH  12  31
BRANCH  13  33
ATOM     33  O   UNL A   1      32.477  21.500  25.896  1.00  0.00    -0.384 OA
ATOM     34  H   UNL A   1      31.552  21.315  26.124  1.00  0.00     0.211 HD
ENDBRANCH  13  33
BRANCH  15  35
ATOM     35  O   UNL A   1      34.800  21.282  24.591  1.00  0.00    -0.384 OA
ATOM     36  H   UNL A   1      35.417  21.404  25.329  1.00  0.00     0.211 HD
ENDBRANCH  15  35
ENDBRANCH   5   8
ENDBRANCH   3   4
ENDBRANCH   2   3
ENDBRANCH   1   2
BRANCH   1  37
ATOM     37  C   UNL A   1      40.649  21.038  27.096  1.00  0.00     0.002 C 
BRANCH  37  38
ATOM     38  C   UNL A   1      41.231  20.015  26.110  1.00  0.00     0.021 C 
BRANCH  38  39
ATOM     39  C   UNL A   1      42.622  19.530  26.447  1.00  0.00     0.116 C 
BRANCH  39  40
ATOM     40  N   UNL A   1      43.531  19.590  25.310  1.00  0.00    -0.352 N 
ATOM     41  C   UNL A   1      44.064  20.699  24.704  1.00  0.00     0.251 C 
ATOM     42  H   UNL A   1      43.796  18.723  24.927  1.00  0.00     0.163 HD
ATOM     43  O   UNL A   1      44.601  20.617  23.599  1.00  0.00    -0.269 OA
BRANCH  41  44
ATOM     44  C   UNL A   1      44.002  21.992  25.399  1.00  0.00     0.039 A 
ATOM     45  C   UNL A   1      44.837  22.260  26.486  1.00  0.00     0.014 A 
ATOM     46  C   UNL A   1      43.059  22.927  24.973  1.00  0.00     0.014 A 
ATOM     47  C   UNL A   1      44.718  23.483  27.130  1.00  0.00     0.010 A 
ATOM     48  C   UNL A   1      43.063  24.190  25.487  1.00  0.00     0.010 A 
ATOM     49  C   UNL A   1      43.817  24.427  26.625  1.00  0.00    -0.014 A 
BRANCH  49  50
ATOM     50  C   UNL A   1      43.614  25.695  27.287  1.00  0.00     0.031 A 
ATOM     51  C   UNL A   1      44.571  26.759  26.915  1.00  0.00     0.074 A 
ATOM     52  C   UNL A   1      42.504  25.931  28.015  1.00  0.00     0.049 A 
ATOM     53  N   UNL A   1      45.501  27.265  27.651  1.00  0.00    -0.248 NA
ATOM     54  C   UNL A   1      44.594  27.219  25.518  1.00  0.00     0.031 C 
ATOM     55  C   UNL A   1      41.313  25.091  28.193  1.00  0.00     0.029 A 
ATOM     56  N   UNL A   1      42.173  27.065  28.676  1.00  0.00    -0.354 N 
ATOM     57  C   UNL A   1      46.098  28.259  26.883  1.00  0.00     0.074 A 
ATOM     58  C   UNL A   1      45.634  28.056  25.535  1.00  0.00     0.031 C 
ATOM     59  C   UNL A   1      40.313  25.837  28.710  1.00  0.00     0.029 A 
ATOM     60  C   UNL A   1      40.839  27.146  29.044  1.00  0.00     0.049 A 
ATOM     61  H   UNL A   1      42.825  27.774  28.879  1.00  0.00     0.167 HD
ATOM     62  C   UNL A   1      46.734  29.310  27.471  1.00  0.00     0.037 A 
ATOM     63  C   UNL A   1      40.226  28.254  29.521  1.00  0.00     0.037 A 
ATOM     64  C   UNL A   1      46.978  29.053  28.871  1.00  0.00     0.049 A 
ATOM     65  C   UNL A   1      41.296  29.153  30.043  1.00  0.00     0.074 A 
ATOM     66  C   UNL A   1      47.653  28.071  29.571  1.00  0.00     0.029 A 
ATOM     67  N   UNL A   1      46.143  29.649  29.789  1.00  0.00    -0.354 N 
ATOM     68  N   UNL A   1      42.030  28.863  31.085  1.00  0.00    -0.248 NA
ATOM     69  C   UNL A   1      41.894  30.103  29.111  1.00  0.00     0.031 C 
ATOM     70  C   UNL A   1      46.821  27.788  30.696  1.00  0.00     0.029 A 
ATOM     71  C   UNL A   1      45.736  28.666  30.654  1.00  0.00     0.049 A 
ATOM     72  H   UNL A   1      45.887  30.600  29.818  1.00  0.00     0.167 HD
ATOM     73  C   UNL A   1      43.321  29.247  30.738  1.00  0.00     0.074 A 
ATOM     74  C   UNL A   1      43.162  30.068  29.538  1.00  0.00     0.031 C 
ATOM     75  C   UNL A   1      44.422  28.624  31.258  1.00  0.00     0.037 A 
BRANCH  62  76
ATOM     76  C   UNL A   1      46.789  30.706  26.903  1.00  0.00     0.057 A 
ATOM     77  C   UNL A   1      45.658  31.499  26.627  1.00  0.00     0.134 A 
ATOM     78  C   UNL A   1      48.014  31.399  26.927  1.00  0.00     0.134 A 
ATOM     79  F   UNL A   1      44.414  31.007  26.627  1.00  0.00    -0.206 F 
ATOM     80  C   UNL A   1      45.732  32.881  26.442  1.00  0.00     0.040 A 
ATOM     81  C   UNL A   1      48.091  32.789  26.795  1.00  0.00     0.040 A 
ATOM     82  F   UNL A   1      49.165  30.754  27.171  1.00  0.00    -0.206 F 
ATOM     83  C   UNL A   1      46.945  33.538  26.566  1.00  0.00     0.006 A 
ENDBRANCH  62  76
BRANCH  63  84
ATOM     84  C   UNL A   1      38.839  28.687  29.239  1.00  0.00     0.057 A 
ATOM     85  C   UNL A   1      38.484  29.273  28.008  1.00  0.00     0.134 A 
ATOM     86  C   UNL A   1      37.870  28.750  30.247  1.00  0.00     0.134 A 
ATOM     87  F   UNL A   1      39.362  29.355  26.997  1.00  0.00    -0.206 F 
ATOM     88  C   UNL A   1      37.240  29.873  27.787  1.00  0.00     0.040 A 
ATOM     89  C   UNL A   1      36.621  29.358  30.042  1.00  0.00     0.040 A 
ATOM     90  F   UNL A   1      38.131  28.269  31.471  1.00  0.00    -0.206 F 
ATOM     91  C   UNL A   1      36.305  29.925  28.811  1.00  0.00     0.006 A 
ENDBRANCH  63  84
BRANCH  75  92
ATOM     92  C   UNL A   1      44.225  27.626  32.370  1.00  0.00     0.057 A 
ATOM     93  C   UNL A   1      44.330  28.057  33.696  1.00  0.00     0.134 A 
ATOM     94  C   UNL A   1      44.117  26.242  32.168  1.00  0.00     0.134 A 
ATOM     95  F   UNL A   1      44.505  29.358  33.973  1.00  0.00    -0.206 F 
ATOM     96  C   UNL A   1      44.311  27.160  34.769  1.00  0.00     0.040 A 
ATOM     97  C   UNL A   1      44.064  25.336  33.231  1.00  0.00     0.040 A 
ATOM     98  F   UNL A   1      44.127  25.718  30.938  1.00  0.00    -0.206 F 
ATOM     99  C   UNL A   1      44.167  25.795  34.539  1.00  0.00     0.006 A 
ENDBRANCH  75  92
ENDBRANCH  49  50
ENDBRANCH  41  44
ENDBRANCH  39  40
ENDBRANCH  38  39
ENDBRANCH  37  38
ENDBRANCH   1  37
TORSDOF 18
ENDMDL
MODEL 2
REMARK VINA RESULT:     -11.9      3.654      9.103
REMARK SMILES C[C@@]1(Oc2c[nH]c3ccc(Br)c(Cl)c23)O[C@@H](C(=O)NCCCCCCNC(=O)c2ccc(-c3c4nc(c(-c5c(F)cccc5F)c5ccc([nH]5)c(-c5c(F)cccc5F)c5nc(c(-c6c(F)cccc6F)c6ccc3[nH]6)C=C5)C=C4)cc2)[C@@](C)(O)[C@@](C)(O)[C@@]1(C)O
REMARK SMILES IDX 22 1 21 2 20 3 19 4 17 5 18 6 16 8 1 9 2 10 15 11 89 12
REMARK SMILES IDX 86 13 90 14 83 15 87 16 84 17 3 18 4 19 5 20 14 21 6 22 7 23
REMARK SMILES IDX 12 24 8 26 10 27 13 28 9 29 11 30 91 31 88 33 85 35 23 37
REMARK SMILES IDX 24 38 25 39 26 40 27 41 28 43 29 44 30 45 82 46 31 47 81 48
REMARK SMILES IDX 32 49 33 50 34 51 75 52 35 53 80 54 74 55 76 56 36 57 79 58
REMARK SMILES IDX 73 59 72 60 37 62 63 63 46 64 62 65 47 66 50 67 61 68 77 69
REMARK SMILES IDX 48 70 49 71 60 73 78 74 51 75 38 76 39 77 44 78 40 79 41 80
REMARK SMILES IDX 43 81 45 82 42 83 64 84 65 85 70 86 66 87 67 88 69 89 71 90
REMARK SMILES IDX 68 91 52 92 53 93 58 94 54 95 55 96 57 97 59 98 56 99
REMARK H PARENT 19 7 6 25 91 32 88 34 85 36 26 42 76 61 50 72
REMARK Flexibility Score: inf
ROOT
ATOM      1  C   UNL A   1      33.828  31.832  27.645  1.00  0.00     0.002 C 
ENDROOT
BRANCH   1   2
ATOM      2  C   UNL A   1      34.770  30.654  27.879  1.00  0.00     0.021 C 
BRANCH   2   3
ATOM      3  C   UNL A   1      34.299  29.365  27.201  1.00  0.00     0.116 C 
BRANCH   3   4
ATOM      4  N   UNL A   1      34.413  29.326  25.754  1.00  0.00    -0.354 N 
ATOM      5  C   UNL A   1      33.859  28.457  24.854  1.00  0.00     0.252 C 
ATOM      6  O   UNL A   1      33.964  28.737  23.651  1.00  0.00    -0.272 OA
ATOM      7  H   UNL A   1      34.973  30.033  25.359  1.00  0.00     0.163 HD
BRANCH   5   8
ATOM      8  C   UNL A   1      33.190  27.106  25.250  1.00  0.00     0.246 C 
ATOM      9  C   UNL A   1      33.986  24.446  22.861  1.00  0.00     0.094 C 
ATOM     10  C   UNL A   1      33.130  24.903  24.066  1.00  0.00     0.240 C 
ATOM     11  O   UNL A   1      33.821  26.040  24.571  1.00  0.00    -0.322 OA
ATOM     12  C   UNL A   1      31.595  25.152  23.638  1.00  0.00     0.158 C 
ATOM     13  C   UNL A   1      31.103  26.626  23.896  1.00  0.00     0.128 C 
ATOM     14  C   UNL A   1      30.670  24.123  24.322  1.00  0.00     0.053 C 
ATOM     15  C   UNL A   1      31.634  27.207  25.227  1.00  0.00     0.129 C 
ATOM     16  C   UNL A   1      29.580  26.810  23.696  1.00  0.00     0.049 C 
ATOM     17  C   UNL A   1      31.028  26.571  26.488  1.00  0.00     0.049 C 
BRANCH  10  18
ATOM     18  O   UNL A   1      33.218  23.703  24.865  1.00  0.00    -0.457 OA
BRANCH  18  19
ATOM     19  C   UNL A   1      34.368  23.009  24.904  1.00  0.00     0.150 A 
ATOM     20  C   UNL A   1      35.636  23.442  25.205  1.00  0.00     0.130 A 
ATOM     21  C   UNL A   1      34.428  21.629  24.586  1.00  0.00     0.061 A 
ATOM     22  N   UNL A   1      36.427  22.326  25.301  1.00  0.00    -0.358 N 
ATOM     23  C   UNL A   1      35.687  21.199  25.014  1.00  0.00     0.051 A 
ATOM     24  C   UNL A   1      33.526  20.672  24.079  1.00  0.00     0.068 A 
ATOM     25  H   UNL A   1      37.382  22.330  25.540  1.00  0.00     0.166 HD
ATOM     26  C   UNL A   1      36.021  19.845  25.096  1.00  0.00     0.028 A 
ATOM     27  C   UNL A   1      33.823  19.316  24.180  1.00  0.00     0.037 A 
ATOM     28  Cl  UNL A   1      32.123  21.290  23.306  1.00  0.00    -0.082 Cl
ATOM     29  C   UNL A   1      35.047  18.912  24.713  1.00  0.00     0.019 A 
ATOM     30  Br  UNL A   1      32.584  17.977  23.656  1.00  0.00    -0.049 Br
ENDBRANCH  18  19
ENDBRANCH  10  18
BRANCH  12  31
ATOM     31  O   UNL A   1      31.394  24.885  22.219  1.00  0.00    -0.380 OA
ATOM     32  H   UNL A   1      31.274  25.722  21.745  1.00  0.00     0.211 HD
ENDBRANCH  12  31
BRANCH  13  33
ATOM     33  O   UNL A   1      31.627  27.502  22.875  1.00  0.00    -0.384 OA
ATOM     34  H   UNL A   1      31.703  27.015  22.039  1.00  0.00     0.211 HD
ENDBRANCH  13  33
BRANCH  15  35
ATOM     35  O   UNL A   1      31.198  28.595  25.276  1.00  0.00    -0.384 OA
ATOM     36  H   UNL A   1      31.968  29.179  25.200  1.00  0.00     0.211 HD
ENDBRANCH  15  35
ENDBRANCH   5   8
ENDBRANCH   3   4
ENDBRANCH   2   3
ENDBRANCH   1   2
BRANCH   1  37
ATOM     37  C   UNL A   1      34.318  33.204  28.145  1.00  0.00     0.002 C 
BRANCH  37  38
ATOM     38  C   UNL A   1      33.270  34.224  28.611  1.00  0.00     0.021 C 
BRANCH  38  39
ATOM     39  C   UNL A   1      33.805  35.320  29.503  1.00  0.00     0.116 C 
BRANCH  39  40
ATOM     40  N   UNL A   1      33.243  35.278  30.847  1.00  0.00    -0.352 N 
ATOM     41  C   UNL A   1      33.624  34.490  31.904  1.00  0.00     0.251 C 
ATOM     42  H   UNL A   1      32.496  35.894  31.019  1.00  0.00     0.163 HD
ATOM     43  O   UNL A   1      32.898  34.368  32.892  1.00  0.00    -0.269 OA
BRANCH  41  44
ATOM     44  C   UNL A   1      34.919  33.800  31.850  1.00  0.00     0.039 A 
ATOM     45  C   UNL A   1      36.112  34.507  32.020  1.00  0.00     0.014 A 
ATOM     46  C   UNL A   1      34.930  32.431  31.585  1.00  0.00     0.014 A 
ATOM     47  C   UNL A   1      37.312  33.817  31.928  1.00  0.00     0.010 A 
ATOM     48  C   UNL A   1      36.091  31.723  31.673  1.00  0.00     0.010 A 
ATOM     49  C   UNL A   1      37.281  32.430  31.740  1.00  0.00    -0.014 A 
BRANCH  49  50
ATOM     50  C   UNL A   1      38.500  31.670  31.585  1.00  0.00     0.031 A 
ATOM     51  C   UNL A   1      39.204  31.347  32.845  1.00  0.00     0.074 A 
ATOM     52  C   UNL A   1      38.832  31.121  30.400  1.00  0.00     0.049 A 
ATOM     53  N   UNL A   1      40.328  31.828  33.256  1.00  0.00    -0.248 NA
ATOM     54  C   UNL A   1      38.517  30.501  33.831  1.00  0.00     0.031 C 
ATOM     55  C   UNL A   1      38.063  31.072  29.150  1.00  0.00     0.029 A 
ATOM     56  N   UNL A   1      39.926  30.378  30.109  1.00  0.00    -0.354 N 
ATOM     57  C   UNL A   1      40.600  31.188  34.460  1.00  0.00     0.074 A 
ATOM     58  C   UNL A   1      39.377  30.536  34.852  1.00  0.00     0.031 C 
ATOM     59  C   UNL A   1      38.605  30.148  28.328  1.00  0.00     0.029 A 
ATOM     60  C   UNL A   1      39.837  29.667  28.922  1.00  0.00     0.049 A 
ATOM     61  H   UNL A   1      40.719  30.345  30.692  1.00  0.00     0.167 HD
ATOM     62  C   UNL A   1      41.879  31.052  34.908  1.00  0.00     0.037 A 
ATOM     63  C   UNL A   1      40.700  28.703  28.523  1.00  0.00     0.037 A 
ATOM     64  C   UNL A   1      42.778  31.917  34.180  1.00  0.00     0.049 A 
ATOM     65  C   UNL A   1      41.965  28.908  29.285  1.00  0.00     0.074 A 
ATOM     66  C   UNL A   1      42.849  33.281  33.966  1.00  0.00     0.029 A 
ATOM     67  N   UNL A   1      43.559  31.351  33.196  1.00  0.00    -0.354 N 
ATOM     68  N   UNL A   1      42.737  29.951  29.125  1.00  0.00    -0.248 NA
ATOM     69  C   UNL A   1      42.093  28.238  30.574  1.00  0.00     0.031 C 
ATOM     70  C   UNL A   1      43.214  33.416  32.593  1.00  0.00     0.029 A 
ATOM     71  C   UNL A   1      43.419  32.134  32.079  1.00  0.00     0.049 A 
ATOM     72  H   UNL A   1      44.110  30.540  33.280  1.00  0.00     0.167 HD
ATOM     73  C   UNL A   1      43.126  30.316  30.409  1.00  0.00     0.074 A 
ATOM     74  C   UNL A   1      42.754  29.182  31.254  1.00  0.00     0.031 C 
ATOM     75  C   UNL A   1      43.426  31.612  30.730  1.00  0.00     0.037 A 
BRANCH  62  76
ATOM     76  C   UNL A   1      42.386  29.883  35.713  1.00  0.00     0.057 A 
ATOM     77  C   UNL A   1      42.296  28.537  35.308  1.00  0.00     0.134 A 
ATOM     78  C   UNL A   1      43.273  30.129  36.778  1.00  0.00     0.134 A 
ATOM     79  F   UNL A   1      41.545  28.144  34.273  1.00  0.00    -0.206 F 
ATOM     80  C   UNL A   1      43.065  27.522  35.881  1.00  0.00     0.040 A 
ATOM     81  C   UNL A   1      44.086  29.129  37.322  1.00  0.00     0.040 A 
ATOM     82  F   UNL A   1      43.443  31.369  37.261  1.00  0.00    -0.206 F 
ATOM     83  C   UNL A   1      43.994  27.822  36.863  1.00  0.00     0.006 A 
ENDBRANCH  62  76
BRANCH  63  84
ATOM     84  C   UNL A   1      40.360  27.463  27.790  1.00  0.00     0.057 A 
ATOM     85  C   UNL A   1      39.654  26.411  28.406  1.00  0.00     0.134 A 
ATOM     86  C   UNL A   1      40.915  27.175  26.538  1.00  0.00     0.134 A 
ATOM     87  F   UNL A   1      39.156  26.539  29.646  1.00  0.00    -0.206 F 
ATOM     88  C   UNL A   1      39.496  25.156  27.811  1.00  0.00     0.040 A 
ATOM     89  C   UNL A   1      40.773  25.916  25.933  1.00  0.00     0.040 A 
ATOM     90  F   UNL A   1      41.651  28.091  25.894  1.00  0.00    -0.206 F 
ATOM     91  C   UNL A   1      40.065  24.901  26.572  1.00  0.00     0.006 A 
ENDBRANCH  63  84
BRANCH  75  92
ATOM     92  C   UNL A   1      43.515  32.625  29.618  1.00  0.00     0.057 A 
ATOM     93  C   UNL A   1      44.746  32.837  28.988  1.00  0.00     0.134 A 
ATOM     94  C   UNL A   1      42.480  33.510  29.281  1.00  0.00     0.134 A 
ATOM     95  F   UNL A   1      45.806  32.078  29.305  1.00  0.00    -0.206 F 
ATOM     96  C   UNL A   1      44.935  33.865  28.059  1.00  0.00     0.040 A 
ATOM     97  C   UNL A   1      42.644  34.522  28.330  1.00  0.00     0.040 A 
ATOM     98  F   UNL A   1      41.300  33.467  29.909  1.00  0.00    -0.206 F 
ATOM     99  C   UNL A   1      43.878  34.705  27.719  1.00  0.00     0.006 A 
ENDBRANCH  75  92
ENDBRANCH  49  50
ENDBRANCH  41  44
ENDBRANCH  39  40
ENDBRANCH  38  39
ENDBRANCH  37  38
ENDBRANCH   1  37
TORSDOF 18
ENDMDL
MODEL 3
REMARK VINA RESULT:     -11.4      1.987      2.783
REMARK SMILES C[C@@]1(Oc2c[nH]c3ccc(Br)c(Cl)c23)O[C@@H](C(=O)NCCCCCCNC(=O)c2ccc(-c3c4nc(c(-c5c(F)cccc5F)c5ccc([nH]5)c(-c5c(F)cccc5F)c5nc(c(-c6c(F)cccc6F)c6ccc3[nH]6)C=C5)C=C4)cc2)[C@@](C)(O)[C@@](C)(O)[C@@]1(C)O
REMARK SMILES IDX 22 1 21 2 20 3 19 4 17 5 18 6 16 8 1 9 2 10 15 11 89 12
REMARK SMILES IDX 86 13 90 14 83 15 87 16 84 17 3 18 4 19 5 20 14 21 6 22 7 23
REMARK SMILES IDX 12 24 8 26 10 27 13 28 9 29 11 30 91 31 88 33 85 35 23 37
REMARK SMILES IDX 24 38 25 39 26 40 27 41 28 43 29 44 30 45 82 46 31 47 81 48
REMARK SMILES IDX 32 49 33 50 34 51 75 52 35 53 80 54 74 55 76 56 36 57 79 58
REMARK SMILES IDX 73 59 72 60 37 62 63 63 46 64 62 65 47 66 50 67 61 68 77 69
REMARK SMILES IDX 48 70 49 71 60 73 78 74 51 75 38 76 39 77 44 78 40 79 41 80
REMARK SMILES IDX 43 81 45 82 42 83 64 84 65 85 70 86 66 87 67 88 69 89 71 90
REMARK SMILES IDX 68 91 52 92 53 93 58 94 54 95 55 96 57 97 59 98 56 99
REMARK H PARENT 19 7 6 25 91 32 88 34 85 36 26 42 76 61 50 72
REMARK Flexibility Score: inf
ROOT
ATOM      1  C   UNL A   1      39.637  23.372  27.238  1.00  0.00     0.002 C 
ENDROOT
BRANCH   1   2
ATOM      2  C   UNL A   1      38.728  24.360  26.512  1.00  0.00     0.021 C 
BRANCH   2   3
ATOM      3  C   UNL A   1      37.485  23.702  25.911  1.00  0.00     0.116 C 
BRANCH   3   4
ATOM      4  N   UNL A   1      36.485  23.242  26.858  1.00  0.00    -0.354 N 
ATOM      5  C   UNL A   1      35.138  23.065  26.694  1.00  0.00     0.252 C 
ATOM      6  O   UNL A   1      34.522  22.493  27.605  1.00  0.00    -0.272 OA
ATOM      7  H   UNL A   1      36.827  23.023  27.754  1.00  0.00     0.163 HD
BRANCH   5   8
ATOM      8  C   UNL A   1      34.331  23.616  25.480  1.00  0.00     0.246 C 
ATOM      9  C   UNL A   1      31.072  24.939  26.504  1.00  0.00     0.094 C 
ATOM     10  C   UNL A   1      32.004  24.524  25.341  1.00  0.00     0.240 C 
ATOM     11  O   UNL A   1      33.295  24.462  25.935  1.00  0.00    -0.322 OA
ATOM     12  C   UNL A   1      31.495  23.167  24.634  1.00  0.00     0.158 C 
ATOM     13  C   UNL A   1      32.549  21.998  24.687  1.00  0.00     0.128 C 
ATOM     14  C   UNL A   1      31.041  23.449  23.186  1.00  0.00     0.053 C 
ATOM     15  C   UNL A   1      33.997  22.490  24.454  1.00  0.00     0.129 C 
ATOM     16  C   UNL A   1      32.157  20.776  23.824  1.00  0.00     0.049 C 
ATOM     17  C   UNL A   1      34.288  22.957  23.018  1.00  0.00     0.049 C 
BRANCH  10  18
ATOM     18  O   UNL A   1      31.766  25.643  24.459  1.00  0.00    -0.457 OA
BRANCH  18  19
ATOM     19  C   UNL A   1      31.887  26.899  24.926  1.00  0.00     0.150 A 
ATOM     20  C   UNL A   1      32.835  27.426  25.769  1.00  0.00     0.130 A 
ATOM     21  C   UNL A   1      30.957  27.917  24.601  1.00  0.00     0.061 A 
ATOM     22  N   UNL A   1      32.642  28.783  25.787  1.00  0.00    -0.358 N 
ATOM     23  C   UNL A   1      31.553  29.114  25.007  1.00  0.00     0.051 A 
ATOM     24  C   UNL A   1      29.725  27.976  23.918  1.00  0.00     0.068 A 
ATOM     25  H   UNL A   1      33.198  29.426  26.282  1.00  0.00     0.166 HD
ATOM     26  C   UNL A   1      31.050  30.362  24.629  1.00  0.00     0.028 A 
ATOM     27  C   UNL A   1      29.221  29.206  23.503  1.00  0.00     0.037 A 
ATOM     28  Cl  UNL A   1      28.906  26.483  23.703  1.00  0.00    -0.082 Cl
ATOM     29  C   UNL A   1      29.897  30.381  23.831  1.00  0.00     0.019 A 
ATOM     30  Br  UNL A   1      27.649  29.338  22.447  1.00  0.00    -0.049 Br
ENDBRANCH  18  19
ENDBRANCH  10  18
BRANCH  12  31
ATOM     31  O   UNL A   1      30.281  22.666  25.268  1.00  0.00    -0.380 OA
ATOM     32  H   UNL A   1      29.898  21.961  24.724  1.00  0.00     0.211 HD
ENDBRANCH  12  31
BRANCH  13  33
ATOM     33  O   UNL A   1      32.566  21.414  26.007  1.00  0.00    -0.384 OA
ATOM     34  H   UNL A   1      32.802  22.093  26.658  1.00  0.00     0.211 HD
ENDBRANCH  13  33
BRANCH  15  35
ATOM     35  O   UNL A   1      34.862  21.336  24.641  1.00  0.00    -0.384 OA
ATOM     36  H   UNL A   1      34.960  20.865  23.799  1.00  0.00     0.211 HD
ENDBRANCH  15  35
ENDBRANCH   5   8
ENDBRANCH   3   4
ENDBRANCH   2   3
ENDBRANCH   1   2
BRANCH   1  37
ATOM     37  C   UNL A   1      39.798  21.988  26.582  1.00  0.00     0.002 C 
BRANCH  37  38
ATOM     38  C   UNL A   1      41.012  21.135  26.975  1.00  0.00     0.021 C 
BRANCH  38  39
ATOM     39  C   UNL A   1      42.252  21.922  27.330  1.00  0.00     0.116 C 
BRANCH  39  40
ATOM     40  N   UNL A   1      43.082  22.221  26.170  1.00  0.00    -0.352 N 
ATOM     41  C   UNL A   1      43.265  23.427  25.542  1.00  0.00     0.251 C 
ATOM     42  H   UNL A   1      43.575  21.459  25.788  1.00  0.00     0.163 HD
ATOM     43  O   UNL A   1      43.778  23.483  24.424  1.00  0.00    -0.269 OA
BRANCH  41  44
ATOM     44  C   UNL A   1      42.851  24.658  26.227  1.00  0.00     0.039 A 
ATOM     45  C   UNL A   1      42.028  25.589  25.588  1.00  0.00     0.014 A 
ATOM     46  C   UNL A   1      43.334  24.895  27.514  1.00  0.00     0.014 A 
ATOM     47  C   UNL A   1      41.691  26.753  26.263  1.00  0.00     0.010 A 
ATOM     48  C   UNL A   1      42.861  25.945  28.243  1.00  0.00     0.010 A 
ATOM     49  C   UNL A   1      42.129  26.918  27.583  1.00  0.00    -0.014 A 
BRANCH  49  50
ATOM     50  C   UNL A   1      41.851  28.133  28.314  1.00  0.00     0.031 A 
ATOM     51  C   UNL A   1      42.848  29.212  28.142  1.00  0.00     0.074 A 
ATOM     52  C   UNL A   1      40.663  28.324  28.921  1.00  0.00     0.049 A 
ATOM     53  N   UNL A   1      43.684  29.649  29.021  1.00  0.00    -0.248 NA
ATOM     54  C   UNL A   1      43.038  29.778  26.798  1.00  0.00     0.031 C 
ATOM     55  C   UNL A   1      39.458  27.486  28.890  1.00  0.00     0.029 A 
ATOM     56  N   UNL A   1      40.257  29.407  29.625  1.00  0.00    -0.354 N 
ATOM     57  C   UNL A   1      44.370  30.693  28.409  1.00  0.00     0.074 A 
ATOM     58  C   UNL A   1      44.069  30.601  27.004  1.00  0.00     0.031 C 
ATOM     59  C   UNL A   1      38.404  28.201  29.341  1.00  0.00     0.029 A 
ATOM     60  C   UNL A   1      38.889  29.474  29.837  1.00  0.00     0.049 A 
ATOM     61  H   UNL A   1      40.882  30.091  29.958  1.00  0.00     0.167 HD
ATOM     62  C   UNL A   1      44.934  31.688  29.149  1.00  0.00     0.037 A 
ATOM     63  C   UNL A   1      38.225  30.549  30.323  1.00  0.00     0.037 A 
ATOM     64  C   UNL A   1      45.008  31.320  30.544  1.00  0.00     0.049 A 
ATOM     65  C   UNL A   1      39.227  31.393  31.037  1.00  0.00     0.074 A 
ATOM     66  C   UNL A   1      45.594  30.280  31.240  1.00  0.00     0.029 A 
ATOM     67  N   UNL A   1      44.071  31.853  31.400  1.00  0.00    -0.354 N 
ATOM     68  N   UNL A   1      39.832  31.014  32.133  1.00  0.00    -0.248 NA
ATOM     69  C   UNL A   1      39.934  32.405  30.261  1.00  0.00     0.031 C 
ATOM     70  C   UNL A   1      44.633  29.920  32.233  1.00  0.00     0.029 A 
ATOM     71  C   UNL A   1      43.561  30.810  32.131  1.00  0.00     0.049 A 
ATOM     72  H   UNL A   1      43.815  32.801  31.473  1.00  0.00     0.167 HD
ATOM     73  C   UNL A   1      41.155  31.410  31.973  1.00  0.00     0.074 A 
ATOM     74  C   UNL A   1      41.141  32.323  30.831  1.00  0.00     0.031 C 
ATOM     75  C   UNL A   1      42.186  30.736  32.570  1.00  0.00     0.037 A 
BRANCH  62  76
ATOM     76  C   UNL A   1      45.058  33.123  28.703  1.00  0.00     0.057 A 
ATOM     77  C   UNL A   1      46.262  33.728  28.292  1.00  0.00     0.134 A 
ATOM     78  C   UNL A   1      43.889  33.833  28.373  1.00  0.00     0.134 A 
ATOM     79  F   UNL A   1      47.457  33.155  28.474  1.00  0.00    -0.206 F 
ATOM     80  C   UNL A   1      46.299  34.919  27.563  1.00  0.00     0.040 A 
ATOM     81  C   UNL A   1      43.913  34.998  27.599  1.00  0.00     0.040 A 
ATOM     82  F   UNL A   1      42.679  33.365  28.716  1.00  0.00    -0.206 F 
ATOM     83  C   UNL A   1      45.121  35.537  27.178  1.00  0.00     0.006 A 
ENDBRANCH  62  76
BRANCH  63  84
ATOM     84  C   UNL A   1      36.883  31.017  29.913  1.00  0.00     0.057 A 
ATOM     85  C   UNL A   1      36.529  31.150  28.556  1.00  0.00     0.134 A 
ATOM     86  C   UNL A   1      35.984  31.567  30.834  1.00  0.00     0.134 A 
ATOM     87  F   UNL A   1      37.354  30.745  27.579  1.00  0.00    -0.206 F 
ATOM     88  C   UNL A   1      35.351  31.777  28.140  1.00  0.00     0.040 A 
ATOM     89  C   UNL A   1      34.802  32.208  30.430  1.00  0.00     0.040 A 
ATOM     90  F   UNL A   1      36.255  31.541  32.147  1.00  0.00    -0.206 F 
ATOM     91  C   UNL A   1      34.485  32.318  29.079  1.00  0.00     0.006 A 
ENDBRANCH  63  84
BRANCH  75  92
ATOM     92  C   UNL A   1      41.855  29.658  33.568  1.00  0.00     0.057 A 
ATOM     93  C   UNL A   1      41.866  29.967  34.932  1.00  0.00     0.134 A 
ATOM     94  C   UNL A   1      41.708  28.302  33.236  1.00  0.00     0.134 A 
ATOM     95  F   UNL A   1      42.070  31.230  35.337  1.00  0.00    -0.206 F 
ATOM     96  C   UNL A   1      41.721  28.984  35.916  1.00  0.00     0.040 A 
ATOM     97  C   UNL A   1      41.530  27.312  34.207  1.00  0.00     0.040 A 
ATOM     98  F   UNL A   1      41.800  27.886  31.969  1.00  0.00    -0.206 F 
ATOM     99  C   UNL A   1      41.541  27.651  35.554  1.00  0.00     0.006 A 
ENDBRANCH  75  92
ENDBRANCH  49  50
ENDBRANCH  41  44
ENDBRANCH  39  40
ENDBRANCH  38  39
ENDBRANCH  37  38
ENDBRANCH   1  37
TORSDOF 18
ENDMDL
