MODEL 1
REMARK VINA RESULT:     -12.4      0.000      0.000
REMARK SMILES O=C(NCCCCCCNC(=O)[C@H]1CC=CC[C@@H]1c1nc2cc(Cl)ccc2o1)c1ccc(-c2c3nc(c(-c4c(F)cccc4F)c4ccc([nH]4)c(-c4c(F)cccc4F)c4nc(c(-c5c(F)cccc5F)c5ccc2[nH]5)C=C4)C=C3)cc1
REMARK SMILES IDX 6 1 5 2 4 3 3 4 1 5 2 6 29 8 30 9 82 10 31 11 81 12 32 13
REMARK SMILES IDX 33 14 34 15 75 16 35 17 80 18 74 19 76 20 36 21 79 22 73 23
REMARK SMILES IDX 72 24 37 26 63 27 46 28 62 29 47 30 50 31 61 32 77 33 48 34
REMARK SMILES IDX 49 35 60 37 78 38 51 39 38 40 39 41 44 42 40 43 41 44 43 45
REMARK SMILES IDX 45 46 42 47 64 48 65 49 70 50 66 51 67 52 69 53 71 54 68 55
REMARK SMILES IDX 52 56 53 57 58 58 54 59 55 60 57 61 59 62 56 63 7 64 8 65
REMARK SMILES IDX 9 66 10 67 11 68 12 70 13 71 14 72 18 73 15 74 17 75 16 76
REMARK SMILES IDX 19 77 20 78 28 79 21 80 27 81 22 82 26 83 23 84 25 85 24 86
REMARK H PARENT 3 7 76 25 50 36 10 69
REMARK Flexibility Score: inf
ROOT
ATOM      1  C   UNL A   1      37.071  20.923  25.131  1.00  0.00     0.002 C 
ENDROOT
BRANCH   1   2
ATOM      2  C   UNL A   1      38.216  19.901  25.080  1.00  0.00     0.021 C 
BRANCH   2   3
ATOM      3  C   UNL A   1      39.451  20.276  25.885  1.00  0.00     0.116 C 
BRANCH   3   4
ATOM      4  N   UNL A   1      40.518  19.269  25.847  1.00  0.00    -0.352 N 
ATOM      5  O   UNL A   1      42.692  18.665  25.481  1.00  0.00    -0.269 OA
ATOM      6  C   UNL A   1      41.895  19.482  25.890  1.00  0.00     0.251 C 
ATOM      7  H   UNL A   1      40.226  18.330  25.782  1.00  0.00     0.163 HD
BRANCH   6   8
ATOM      8  C   UNL A   1      42.351  20.751  26.487  1.00  0.00     0.039 A 
ATOM      9  C   UNL A   1      42.743  21.859  25.735  1.00  0.00     0.014 A 
ATOM     10  C   UNL A   1      42.214  20.831  27.861  1.00  0.00     0.014 A 
ATOM     11  C   UNL A   1      42.886  23.085  26.389  1.00  0.00     0.010 A 
ATOM     12  C   UNL A   1      42.077  22.065  28.424  1.00  0.00     0.010 A 
ATOM     13  C   UNL A   1      42.515  23.189  27.739  1.00  0.00    -0.014 A 
BRANCH  13  14
ATOM     14  C   UNL A   1      42.515  24.457  28.465  1.00  0.00     0.031 A 
ATOM     15  C   UNL A   1      41.344  25.341  28.226  1.00  0.00     0.074 A 
ATOM     16  C   UNL A   1      43.423  24.745  29.429  1.00  0.00     0.049 A 
ATOM     17  N   UNL A   1      41.339  26.469  27.598  1.00  0.00    -0.248 NA
ATOM     18  C   UNL A   1      40.004  24.873  28.615  1.00  0.00     0.031 C 
ATOM     19  C   UNL A   1      44.494  23.899  29.981  1.00  0.00     0.029 A 
ATOM     20  N   UNL A   1      43.514  25.857  30.205  1.00  0.00    -0.354 N 
ATOM     21  C   UNL A   1      40.041  26.963  27.694  1.00  0.00     0.074 A 
ATOM     22  C   UNL A   1      39.234  25.868  28.167  1.00  0.00     0.031 C 
ATOM     23  C   UNL A   1      44.937  24.414  31.145  1.00  0.00     0.029 A 
ATOM     24  C   UNL A   1      44.350  25.726  31.307  1.00  0.00     0.049 A 
ATOM     25  H   UNL A   1      43.026  26.690  30.002  1.00  0.00     0.167 HD
ATOM     26  C   UNL A   1      39.797  28.301  27.604  1.00  0.00     0.037 A 
ATOM     27  C   UNL A   1      44.574  26.637  32.283  1.00  0.00     0.037 A 
ATOM     28  C   UNL A   1      40.937  28.998  27.056  1.00  0.00     0.049 A 
ATOM     29  C   UNL A   1      44.193  27.959  31.734  1.00  0.00     0.074 A 
ATOM     30  C   UNL A   1      41.652  28.921  25.876  1.00  0.00     0.029 A 
ATOM     31  N   UNL A   1      41.745  29.687  27.929  1.00  0.00    -0.354 N 
ATOM     32  N   UNL A   1      44.853  28.559  30.783  1.00  0.00    -0.248 NA
ATOM     33  C   UNL A   1      42.813  28.389  31.902  1.00  0.00     0.031 C 
ATOM     34  C   UNL A   1      43.014  29.109  26.258  1.00  0.00     0.029 A 
ATOM     35  C   UNL A   1      43.043  29.364  27.630  1.00  0.00     0.049 A 
ATOM     36  H   UNL A   1      41.445  30.299  28.640  1.00  0.00     0.167 HD
ATOM     37  C   UNL A   1      43.875  29.096  29.960  1.00  0.00     0.074 A 
ATOM     38  C   UNL A   1      42.646  29.048  30.751  1.00  0.00     0.031 C 
ATOM     39  C   UNL A   1      44.090  29.254  28.619  1.00  0.00     0.037 A 
BRANCH  26  40
ATOM     40  C   UNL A   1      38.719  29.034  28.370  1.00  0.00     0.057 A 
ATOM     41  C   UNL A   1      37.617  29.677  27.774  1.00  0.00     0.134 A 
ATOM     42  C   UNL A   1      38.599  28.809  29.755  1.00  0.00     0.134 A 
ATOM     43  F   UNL A   1      37.549  29.925  26.461  1.00  0.00    -0.206 F 
ATOM     44  C   UNL A   1      36.461  30.013  28.485  1.00  0.00     0.040 A 
ATOM     45  C   UNL A   1      37.427  29.096  30.465  1.00  0.00     0.040 A 
ATOM     46  F   UNL A   1      39.585  28.215  30.445  1.00  0.00    -0.206 F 
ATOM     47  C   UNL A   1      36.345  29.685  29.826  1.00  0.00     0.006 A 
ENDBRANCH  26  40
BRANCH  27  48
ATOM     48  C   UNL A   1      44.905  26.408  33.703  1.00  0.00     0.057 A 
ATOM     49  C   UNL A   1      46.239  26.273  34.132  1.00  0.00     0.134 A 
ATOM     50  C   UNL A   1      43.921  26.054  34.634  1.00  0.00     0.134 A 
ATOM     51  F   UNL A   1      47.262  26.521  33.300  1.00  0.00    -0.206 F 
ATOM     52  C   UNL A   1      46.574  25.792  35.401  1.00  0.00     0.040 A 
ATOM     53  C   UNL A   1      44.242  25.564  35.906  1.00  0.00     0.040 A 
ATOM     54  F   UNL A   1      42.622  26.118  34.308  1.00  0.00    -0.206 F 
ATOM     55  C   UNL A   1      45.572  25.420  36.289  1.00  0.00     0.006 A 
ENDBRANCH  27  48
BRANCH  39  56
ATOM     56  C   UNL A   1      45.495  29.064  28.111  1.00  0.00     0.057 A 
ATOM     57  C   UNL A   1      46.314  30.185  27.950  1.00  0.00     0.134 A 
ATOM     58  C   UNL A   1      46.012  27.837  27.664  1.00  0.00     0.134 A 
ATOM     59  F   UNL A   1      45.867  31.402  28.294  1.00  0.00    -0.206 F 
ATOM     60  C   UNL A   1      47.593  30.091  27.396  1.00  0.00     0.040 A 
ATOM     61  C   UNL A   1      47.303  27.723  27.139  1.00  0.00     0.040 A 
ATOM     62  F   UNL A   1      45.269  26.726  27.674  1.00  0.00    -0.206 F 
ATOM     63  C   UNL A   1      48.098  28.855  27.001  1.00  0.00     0.006 A 
ENDBRANCH  39  56
ENDBRANCH  13  14
ENDBRANCH   6   8
ENDBRANCH   3   4
ENDBRANCH   2   3
ENDBRANCH   1   2
BRANCH   1  64
ATOM     64  C   UNL A   1      37.068  22.035  24.070  1.00  0.00     0.002 C 
BRANCH  64  65
ATOM     65  C   UNL A   1      36.757  23.456  24.559  1.00  0.00     0.021 C 
BRANCH  65  66
ATOM     66  C   UNL A   1      35.514  24.090  23.941  1.00  0.00     0.116 C 
BRANCH  66  67
ATOM     67  N   UNL A   1      34.752  24.815  24.939  1.00  0.00    -0.356 N 
ATOM     68  C   UNL A   1      33.806  24.373  25.812  1.00  0.00     0.224 C 
ATOM     69  H   UNL A   1      34.948  25.777  24.992  1.00  0.00     0.163 HD
ATOM     70  O   UNL A   1      33.151  25.227  26.407  1.00  0.00    -0.275 OA
BRANCH  68  71
ATOM     71  C   UNL A   1      33.602  22.872  26.011  1.00  0.00     0.095 C 
ATOM     72  C   UNL A   1      32.789  22.621  27.299  1.00  0.00     0.041 C 
ATOM     73  C   UNL A   1      32.933  22.246  24.763  1.00  0.00     0.092 C 
ATOM     74  C   UNL A   1      31.304  22.717  27.117  1.00  0.00    -0.030 C 
ATOM     75  C   UNL A   1      31.456  22.682  24.617  1.00  0.00     0.041 C 
ATOM     76  C   UNL A   1      30.709  22.766  25.918  1.00  0.00    -0.030 C 
BRANCH  73  77
ATOM     77  C   UNL A   1      33.013  20.742  24.740  1.00  0.00     0.199 A 
ATOM     78  N   UNL A   1      32.093  19.881  25.138  1.00  0.00    -0.213 NA
ATOM     79  O   UNL A   1      34.177  20.160  24.300  1.00  0.00    -0.440 OA
ATOM     80  C   UNL A   1      32.712  18.662  25.033  1.00  0.00     0.111 A 
ATOM     81  C   UNL A   1      33.986  18.830  24.519  1.00  0.00     0.154 A 
ATOM     82  C   UNL A   1      32.272  17.376  25.366  1.00  0.00     0.053 A 
ATOM     83  C   UNL A   1      34.895  17.802  24.297  1.00  0.00     0.051 A 
ATOM     84  C   UNL A   1      33.166  16.315  25.169  1.00  0.00     0.043 A 
ATOM     85  C   UNL A   1      34.451  16.520  24.646  1.00  0.00     0.024 A 
ATOM     86  Cl  UNL A   1      32.677  14.718  25.592  1.00  0.00    -0.084 Cl
ENDBRANCH  73  77
ENDBRANCH  68  71
ENDBRANCH  66  67
ENDBRANCH  65  66
ENDBRANCH  64  65
ENDBRANCH   1  64
TORSDOF 14
ENDMDL
MODEL 2
REMARK VINA RESULT:     -12.4      2.915      7.276
REMARK SMILES O=C(NCCCCCCNC(=O)[C@H]1CC=CC[C@@H]1c1nc2cc(Cl)ccc2o1)c1ccc(-c2c3nc(c(-c4c(F)cccc4F)c4ccc([nH]4)c(-c4c(F)cccc4F)c4nc(c(-c5c(F)cccc5F)c5ccc2[nH]5)C=C4)C=C3)cc1
REMARK SMILES IDX 6 1 5 2 4 3 3 4 1 5 2 6 29 8 30 9 82 10 31 11 81 12 32 13
REMARK SMILES IDX 33 14 34 15 75 16 35 17 80 18 74 19 76 20 36 21 79 22 73 23
REMARK SMILES IDX 72 24 37 26 63 27 46 28 62 29 47 30 50 31 61 32 77 33 48 34
REMARK SMILES IDX 49 35 60 37 78 38 51 39 38 40 39 41 44 42 40 43 41 44 43 45
REMARK SMILES IDX 45 46 42 47 64 48 65 49 70 50 66 51 67 52 69 53 71 54 68 55
REMARK SMILES IDX 52 56 53 57 58 58 54 59 55 60 57 61 59 62 56 63 7 64 8 65
REMARK SMILES IDX 9 66 10 67 11 68 12 70 13 71 14 72 18 73 15 74 17 75 16 76
REMARK SMILES IDX 19 77 20 78 28 79 21 80 27 81 22 82 26 83 23 84 25 85 24 86
REMARK H PARENT 3 7 76 25 50 36 10 69
REMARK Flexibility Score: inf
ROOT
ATOM      1  C   UNL A   1      33.181  28.815  25.817  1.00  0.00     0.002 C 
ENDROOT
BRANCH   1   2
ATOM      2  C   UNL A   1      33.878  28.574  27.163  1.00  0.00     0.021 C 
BRANCH   2   3
ATOM      3  C   UNL A   1      35.186  29.328  27.356  1.00  0.00     0.116 C 
BRANCH   3   4
ATOM      4  N   UNL A   1      35.385  29.842  28.716  1.00  0.00    -0.352 N 
ATOM      5  O   UNL A   1      36.287  29.674  30.809  1.00  0.00    -0.269 OA
ATOM      6  C   UNL A   1      36.399  29.510  29.614  1.00  0.00     0.251 C 
ATOM      7  H   UNL A   1      34.723  30.499  29.033  1.00  0.00     0.163 HD
BRANCH   6   8
ATOM      8  C   UNL A   1      37.643  28.968  29.038  1.00  0.00     0.039 A 
ATOM      9  C   UNL A   1      38.294  29.534  27.940  1.00  0.00     0.014 A 
ATOM     10  C   UNL A   1      38.222  27.940  29.760  1.00  0.00     0.014 A 
ATOM     11  C   UNL A   1      39.594  29.115  27.654  1.00  0.00     0.010 A 
ATOM     12  C   UNL A   1      39.568  27.754  29.649  1.00  0.00     0.010 A 
ATOM     13  C   UNL A   1      40.244  28.242  28.541  1.00  0.00    -0.014 A 
BRANCH  13  14
ATOM     14  C   UNL A   1      41.644  27.852  28.386  1.00  0.00     0.031 A 
ATOM     15  C   UNL A   1      41.888  26.609  27.606  1.00  0.00     0.074 A 
ATOM     16  C   UNL A   1      42.669  28.652  28.767  1.00  0.00     0.049 A 
ATOM     17  N   UNL A   1      42.321  25.482  28.062  1.00  0.00    -0.248 NA
ATOM     18  C   UNL A   1      41.497  26.567  26.189  1.00  0.00     0.031 C 
ATOM     19  C   UNL A   1      42.630  30.017  29.317  1.00  0.00     0.029 A 
ATOM     20  N   UNL A   1      44.006  28.435  28.644  1.00  0.00    -0.354 N 
ATOM     21  C   UNL A   1      42.463  24.645  26.958  1.00  0.00     0.074 A 
ATOM     22  C   UNL A   1      41.779  25.300  25.873  1.00  0.00     0.031 C 
ATOM     23  C   UNL A   1      43.849  30.586  29.233  1.00  0.00     0.029 A 
ATOM     24  C   UNL A   1      44.794  29.564  28.836  1.00  0.00     0.049 A 
ATOM     25  H   UNL A   1      44.385  27.550  28.436  1.00  0.00     0.167 HD
ATOM     26  C   UNL A   1      43.342  23.603  26.983  1.00  0.00     0.037 A 
ATOM     27  C   UNL A   1      46.137  29.660  28.707  1.00  0.00     0.037 A 
ATOM     28  C   UNL A   1      43.758  23.310  28.335  1.00  0.00     0.049 A 
ATOM     29  C   UNL A   1      46.682  28.287  28.826  1.00  0.00     0.074 A 
ATOM     30  C   UNL A   1      43.106  22.953  29.499  1.00  0.00     0.029 A 
ATOM     31  N   UNL A   1      45.000  23.747  28.730  1.00  0.00    -0.354 N 
ATOM     32  N   UNL A   1      46.664  27.602  29.934  1.00  0.00    -0.248 NA
ATOM     33  C   UNL A   1      46.804  27.501  27.608  1.00  0.00     0.031 C 
ATOM     34  C   UNL A   1      43.786  23.662  30.535  1.00  0.00     0.029 A 
ATOM     35  C   UNL A   1      44.855  24.347  29.954  1.00  0.00     0.049 A 
ATOM     36  H   UNL A   1      45.839  23.648  28.225  1.00  0.00     0.167 HD
ATOM     37  C   UNL A   1      46.322  26.315  29.547  1.00  0.00     0.074 A 
ATOM     38  C   UNL A   1      46.522  26.290  28.097  1.00  0.00     0.031 C 
ATOM     39  C   UNL A   1      45.633  25.484  30.386  1.00  0.00     0.037 A 
BRANCH  26  40
ATOM     40  C   UNL A   1      44.135  23.116  25.792  1.00  0.00     0.057 A 
ATOM     41  C   UNL A   1      45.071  23.897  25.086  1.00  0.00     0.134 A 
ATOM     42  C   UNL A   1      44.213  21.730  25.549  1.00  0.00     0.134 A 
ATOM     43  F   UNL A   1      45.164  25.223  25.235  1.00  0.00    -0.206 F 
ATOM     44  C   UNL A   1      46.046  23.341  24.253  1.00  0.00     0.040 A 
ATOM     45  C   UNL A   1      45.217  21.161  24.757  1.00  0.00     0.040 A 
ATOM     46  F   UNL A   1      43.370  20.877  26.150  1.00  0.00    -0.206 F 
ATOM     47  C   UNL A   1      46.150  21.966  24.119  1.00  0.00     0.006 A 
ENDBRANCH  26  40
BRANCH  27  48
ATOM     48  C   UNL A   1      46.946  30.826  28.296  1.00  0.00     0.057 A 
ATOM     49  C   UNL A   1      47.521  31.689  29.246  1.00  0.00     0.134 A 
ATOM     50  C   UNL A   1      46.956  31.274  26.970  1.00  0.00     0.134 A 
ATOM     51  F   UNL A   1      47.505  31.389  30.555  1.00  0.00    -0.206 F 
ATOM     52  C   UNL A   1      48.054  32.935  28.902  1.00  0.00     0.040 A 
ATOM     53  C   UNL A   1      47.481  32.523  26.612  1.00  0.00     0.040 A 
ATOM     54  F   UNL A   1      46.402  30.536  25.998  1.00  0.00    -0.206 F 
ATOM     55  C   UNL A   1      48.021  33.363  27.581  1.00  0.00     0.006 A 
ENDBRANCH  27  48
BRANCH  39  56
ATOM     56  C   UNL A   1      45.476  25.917  31.820  1.00  0.00     0.057 A 
ATOM     57  C   UNL A   1      44.329  26.625  32.191  1.00  0.00     0.134 A 
ATOM     58  C   UNL A   1      46.468  25.767  32.802  1.00  0.00     0.134 A 
ATOM     59  F   UNL A   1      43.363  26.865  31.292  1.00  0.00    -0.206 F 
ATOM     60  C   UNL A   1      44.163  27.136  33.481  1.00  0.00     0.040 A 
ATOM     61  C   UNL A   1      46.301  26.245  34.105  1.00  0.00     0.040 A 
ATOM     62  F   UNL A   1      47.646  25.201  32.518  1.00  0.00    -0.206 F 
ATOM     63  C   UNL A   1      45.144  26.936  34.448  1.00  0.00     0.006 A 
ENDBRANCH  39  56
ENDBRANCH  13  14
ENDBRANCH   6   8
ENDBRANCH   3   4
ENDBRANCH   2   3
ENDBRANCH   1   2
BRANCH   1  64
ATOM     64  C   UNL A   1      34.013  28.606  24.543  1.00  0.00     0.002 C 
BRANCH  64  65
ATOM     65  C   UNL A   1      33.260  28.674  23.207  1.00  0.00     0.021 C 
BRANCH  65  66
ATOM     66  C   UNL A   1      33.447  27.460  22.301  1.00  0.00     0.116 C 
BRANCH  66  67
ATOM     67  N   UNL A   1      32.376  26.502  22.489  1.00  0.00    -0.356 N 
ATOM     68  C   UNL A   1      32.375  25.302  23.131  1.00  0.00     0.224 C 
ATOM     69  H   UNL A   1      31.515  26.759  22.089  1.00  0.00     0.163 HD
ATOM     70  O   UNL A   1      31.395  24.578  22.964  1.00  0.00    -0.275 OA
BRANCH  68  71
ATOM     71  C   UNL A   1      33.562  24.914  24.010  1.00  0.00     0.095 C 
ATOM     72  C   UNL A   1      33.192  25.091  25.499  1.00  0.00     0.041 C 
ATOM     73  C   UNL A   1      34.026  23.472  23.689  1.00  0.00     0.092 C 
ATOM     74  C   UNL A   1      32.469  23.920  26.096  1.00  0.00    -0.030 C 
ATOM     75  C   UNL A   1      33.004  22.414  24.167  1.00  0.00     0.041 C 
ATOM     76  C   UNL A   1      32.367  22.729  25.491  1.00  0.00    -0.030 C 
BRANCH  73  77
ATOM     77  C   UNL A   1      35.383  23.146  24.256  1.00  0.00     0.199 A 
ATOM     78  N   UNL A   1      36.010  21.983  24.224  1.00  0.00    -0.213 NA
ATOM     79  O   UNL A   1      36.061  24.133  24.928  1.00  0.00    -0.440 OA
ATOM     80  C   UNL A   1      37.130  22.189  24.988  1.00  0.00     0.111 A 
ATOM     81  C   UNL A   1      37.164  23.504  25.419  1.00  0.00     0.154 A 
ATOM     82  C   UNL A   1      38.151  21.315  25.377  1.00  0.00     0.053 A 
ATOM     83  C   UNL A   1      38.153  24.050  26.228  1.00  0.00     0.051 A 
ATOM     84  C   UNL A   1      39.160  21.825  26.204  1.00  0.00     0.043 A 
ATOM     85  C   UNL A   1      39.164  23.164  26.623  1.00  0.00     0.024 A 
ATOM     86  Cl  UNL A   1      40.422  20.777  26.730  1.00  0.00    -0.084 Cl
ENDBRANCH  73  77
ENDBRANCH  68  71
ENDBRANCH  66  67
ENDBRANCH  65  66
ENDBRANCH  64  65
ENDBRANCH   1  64
TORSDOF 14
ENDMDL
MODEL 3
REMARK VINA RESULT:     -12.3      4.824      9.647
REMARK SMILES O=C(NCCCCCCNC(=O)[C@H]1CC=CC[C@@H]1c1nc2cc(Cl)ccc2o1)c1ccc(-c2c3nc(c(-c4c(F)cccc4F)c4ccc([nH]4)c(-c4c(F)cccc4F)c4nc(c(-c5c(F)cccc5F)c5ccc2[nH]5)C=C4)C=C3)cc1
REMARK SMILES IDX 6 1 5 2 4 3 3 4 1 5 2 6 29 8 30 9 82 10 31 11 81 12 32 13
REMARK SMILES IDX 33 14 34 15 75 16 35 17 80 18 74 19 76 20 36 21 79 22 73 23
REMARK SMILES IDX 72 24 37 26 63 27 46 28 62 29 47 30 50 31 61 32 77 33 48 34
REMARK SMILES IDX 49 35 60 37 78 38 51 39 38 40 39 41 44 42 40 43 41 44 43 45
REMARK SMILES IDX 45 46 42 47 64 48 65 49 70 50 66 51 67 52 69 53 71 54 68 55
REMARK SMILES IDX 52 56 53 57 58 58 54 59 55 60 57 61 59 62 56 63 7 64 8 65
REMARK SMILES IDX 9 66 10 67 11 68 12 70 13 71 14 72 18 73 15 74 17 75 16 76
REMARK SMILES IDX 19 77 20 78 28 79 21 80 27 81 22 82 26 83 23 84 25 85 24 86
REMARK H PARENT 3 7 76 25 50 36 10 69
REMARK Flexibility Score: inf
ROOT
ATOM      1  C   UNL A   1      34.958  33.925  28.331  1.00  0.00     0.002 C 
ENDROOT
BRANCH   1   2
ATOM      2  C   UNL A   1      34.325  35.194  28.917  1.00  0.00     0.021 C 
BRANCH   2   3
ATOM      3  C   UNL A   1      32.985  34.987  29.606  1.00  0.00     0.116 C 
BRANCH   3   4
ATOM      4  N   UNL A   1      32.747  35.893  30.736  1.00  0.00    -0.352 N 
ATOM      5  O   UNL A   1      32.571  36.296  32.979  1.00  0.00    -0.269 OA
ATOM      6  C   UNL A   1      33.117  35.712  32.068  1.00  0.00     0.251 C 
ATOM      7  H   UNL A   1      32.269  36.730  30.529  1.00  0.00     0.163 HD
BRANCH   6   8
ATOM      8  C   UNL A   1      34.236  34.787  32.325  1.00  0.00     0.039 A 
ATOM      9  C   UNL A   1      34.143  33.403  32.166  1.00  0.00     0.014 A 
ATOM     10  C   UNL A   1      35.449  35.396  32.587  1.00  0.00     0.014 A 
ATOM     11  C   UNL A   1      35.323  32.657  32.164  1.00  0.00     0.010 A 
ATOM     12  C   UNL A   1      36.591  34.708  32.300  1.00  0.00     0.010 A 
ATOM     13  C   UNL A   1      36.557  33.326  32.198  1.00  0.00    -0.014 A 
BRANCH  13  14
ATOM     14  C   UNL A   1      37.838  32.632  32.075  1.00  0.00     0.031 A 
ATOM     15  C   UNL A   1      38.617  32.481  33.332  1.00  0.00     0.074 A 
ATOM     16  C   UNL A   1      38.220  32.007  30.935  1.00  0.00     0.049 A 
ATOM     17  N   UNL A   1      39.726  33.070  33.632  1.00  0.00    -0.248 NA
ATOM     18  C   UNL A   1      38.049  31.687  34.433  1.00  0.00     0.031 C 
ATOM     19  C   UNL A   1      37.477  31.828  29.677  1.00  0.00     0.029 A 
ATOM     20  N   UNL A   1      39.354  31.295  30.697  1.00  0.00    -0.354 N 
ATOM     21  C   UNL A   1      40.114  32.562  34.869  1.00  0.00     0.074 A 
ATOM     22  C   UNL A   1      38.968  31.861  35.387  1.00  0.00     0.031 C 
ATOM     23  C   UNL A   1      38.053  30.864  28.931  1.00  0.00     0.029 A 
ATOM     24  C   UNL A   1      39.316  30.517  29.546  1.00  0.00     0.049 A 
ATOM     25  H   UNL A   1      40.138  31.327  31.293  1.00  0.00     0.167 HD
ATOM     26  C   UNL A   1      41.425  32.563  35.241  1.00  0.00     0.037 A 
ATOM     27  C   UNL A   1      40.264  29.660  29.101  1.00  0.00     0.037 A 
ATOM     28  C   UNL A   1      42.201  33.443  34.399  1.00  0.00     0.049 A 
ATOM     29  C   UNL A   1      41.538  30.052  29.748  1.00  0.00     0.074 A 
ATOM     30  C   UNL A   1      42.156  34.790  34.093  1.00  0.00     0.029 A 
ATOM     31  N   UNL A   1      42.973  32.870  33.416  1.00  0.00    -0.354 N 
ATOM     32  N   UNL A   1      42.168  31.161  29.477  1.00  0.00    -0.248 NA
ATOM     33  C   UNL A   1      41.857  29.451  31.034  1.00  0.00     0.031 C 
ATOM     34  C   UNL A   1      42.464  34.861  32.701  1.00  0.00     0.029 A 
ATOM     35  C   UNL A   1      42.751  33.569  32.258  1.00  0.00     0.049 A 
ATOM     36  H   UNL A   1      43.574  32.098  33.525  1.00  0.00     0.167 HD
ATOM     37  C   UNL A   1      42.604  31.628  30.709  1.00  0.00     0.074 A 
ATOM     38  C   UNL A   1      42.474  30.485  31.614  1.00  0.00     0.031 C 
ATOM     39  C   UNL A   1      42.750  32.966  30.946  1.00  0.00     0.037 A 
BRANCH  26  40
ATOM     40  C   UNL A   1      42.085  31.490  36.078  1.00  0.00     0.057 A 
ATOM     41  C   UNL A   1      42.201  30.140  35.692  1.00  0.00     0.134 A 
ATOM     42  C   UNL A   1      42.918  31.878  37.145  1.00  0.00     0.134 A 
ATOM     43  F   UNL A   1      41.517  29.621  34.668  1.00  0.00    -0.206 F 
ATOM     44  C   UNL A   1      43.118  29.262  36.279  1.00  0.00     0.040 A 
ATOM     45  C   UNL A   1      43.873  31.021  37.704  1.00  0.00     0.040 A 
ATOM     46  F   UNL A   1      42.894  33.135  37.616  1.00  0.00    -0.206 F 
ATOM     47  C   UNL A   1      43.987  29.711  37.259  1.00  0.00     0.006 A 
ENDBRANCH  26  40
BRANCH  27  48
ATOM     48  C   UNL A   1      40.096  28.420  28.317  1.00  0.00     0.057 A 
ATOM     49  C   UNL A   1      39.564  27.254  28.897  1.00  0.00     0.134 A 
ATOM     50  C   UNL A   1      40.693  28.266  27.060  1.00  0.00     0.134 A 
ATOM     51  F   UNL A   1      39.027  27.275  30.127  1.00  0.00    -0.206 F 
ATOM     52  C   UNL A   1      39.640  26.004  28.275  1.00  0.00     0.040 A 
ATOM     53  C   UNL A   1      40.784  27.019  26.428  1.00  0.00     0.040 A 
ATOM     54  F   UNL A   1      41.258  29.312  26.442  1.00  0.00    -0.206 F 
ATOM     55  C   UNL A   1      40.268  25.881  27.041  1.00  0.00     0.006 A 
ENDBRANCH  27  48
BRANCH  39  56
ATOM     56  C   UNL A   1      42.663  33.896  29.765  1.00  0.00     0.057 A 
ATOM     57  C   UNL A   1      43.829  34.202  29.057  1.00  0.00     0.134 A 
ATOM     58  C   UNL A   1      41.500  34.588  29.389  1.00  0.00     0.134 A 
ATOM     59  F   UNL A   1      44.994  33.630  29.397  1.00  0.00    -0.206 F 
ATOM     60  C   UNL A   1      43.837  35.128  28.011  1.00  0.00     0.040 A 
ATOM     61  C   UNL A   1      41.486  35.493  28.323  1.00  0.00     0.040 A 
ATOM     62  F   UNL A   1      40.359  34.449  30.072  1.00  0.00    -0.206 F 
ATOM     63  C   UNL A   1      42.660  35.768  27.631  1.00  0.00     0.006 A 
ENDBRANCH  39  56
ENDBRANCH  13  14
ENDBRANCH   6   8
ENDBRANCH   3   4
ENDBRANCH   2   3
ENDBRANCH   1   2
BRANCH   1  64
ATOM     64  C   UNL A   1      34.065  32.680  28.212  1.00  0.00     0.002 C 
BRANCH  64  65
ATOM     65  C   UNL A   1      34.718  31.412  27.646  1.00  0.00     0.021 C 
BRANCH  65  66
ATOM     66  C   UNL A   1      33.754  30.265  27.359  1.00  0.00     0.116 C 
BRANCH  66  67
ATOM     67  N   UNL A   1      32.565  30.743  26.681  1.00  0.00    -0.356 N 
ATOM     68  C   UNL A   1      31.771  30.127  25.764  1.00  0.00     0.224 C 
ATOM     69  H   UNL A   1      32.290  31.656  26.922  1.00  0.00     0.163 HD
ATOM     70  O   UNL A   1      30.946  30.827  25.178  1.00  0.00    -0.275 OA
BRANCH  68  71
ATOM     71  C   UNL A   1      31.933  28.631  25.505  1.00  0.00     0.095 C 
ATOM     72  C   UNL A   1      30.726  28.105  24.698  1.00  0.00     0.041 C 
ATOM     73  C   UNL A   1      33.281  28.346  24.798  1.00  0.00     0.092 C 
ATOM     74  C   UNL A   1      30.850  28.293  23.215  1.00  0.00    -0.030 C 
ATOM     75  C   UNL A   1      33.288  28.855  23.337  1.00  0.00     0.041 C 
ATOM     76  C   UNL A   1      31.989  28.649  22.609  1.00  0.00    -0.030 C 
BRANCH  73  77
ATOM     77  C   UNL A   1      33.665  26.889  24.820  1.00  0.00     0.199 A 
ATOM     78  N   UNL A   1      34.029  26.169  25.867  1.00  0.00    -0.213 NA
ATOM     79  O   UNL A   1      33.693  26.207  23.629  1.00  0.00    -0.440 OA
ATOM     80  C   UNL A   1      34.397  24.964  25.327  1.00  0.00     0.111 A 
ATOM     81  C   UNL A   1      34.191  24.983  23.959  1.00  0.00     0.154 A 
ATOM     82  C   UNL A   1      34.929  23.814  25.923  1.00  0.00     0.053 A 
ATOM     83  C   UNL A   1      34.474  23.931  23.098  1.00  0.00     0.051 A 
ATOM     84  C   UNL A   1      35.240  22.736  25.085  1.00  0.00     0.043 A 
ATOM     85  C   UNL A   1      35.019  22.789  23.701  1.00  0.00     0.024 A 
ATOM     86  Cl  UNL A   1      35.924  21.311  25.771  1.00  0.00    -0.084 Cl
ENDBRANCH  73  77
ENDBRANCH  68  71
ENDBRANCH  66  67
ENDBRANCH  65  66
ENDBRANCH  64  65
ENDBRANCH   1  64
TORSDOF 14
ENDMDL
