MODEL 1
REMARK VINA RESULT:     -11.3      0.000      0.000
REMARK SMILES CC(C)c1noc(C[N@H+]2CCCC[C@H]2C(=O)NCCCCCCNC(=O)c2ccc(-c3c4nc(c(-c5c(F)cccc5F)c5ccc([nH]5)c(-c5c(F)cccc5F)c5nc(c(-c6c(F)cccc6F)c6ccc3[nH]6)C=C5)C=C4)cc2)n1
REMARK SMILES IDX 20 1 19 2 18 3 17 4 15 5 16 6 14 8 9 9 10 10 11 12 13 13
REMARK SMILES IDX 12 14 8 15 7 16 4 17 5 18 81 19 6 20 2 21 1 22 3 23 21 24
REMARK SMILES IDX 22 25 23 26 24 27 25 28 26 30 27 31 28 32 80 33 29 34 79 35
REMARK SMILES IDX 30 36 31 37 32 38 73 39 33 40 78 41 72 42 74 43 34 44 77 45
REMARK SMILES IDX 71 46 70 47 35 49 61 50 44 51 60 52 45 53 48 54 59 55 75 56
REMARK SMILES IDX 46 57 47 58 58 60 76 61 49 62 36 63 37 64 42 65 38 66 39 67
REMARK SMILES IDX 41 68 43 69 40 70 62 71 63 72 68 73 64 74 65 75 67 76 69 77
REMARK SMILES IDX 66 78 50 79 51 80 56 81 52 82 53 83 55 84 57 85 54 86
REMARK H PARENT 17 7 9 11 24 29 74 48 48 59
REMARK Flexibility Score: inf
ROOT
ATOM      1  C   UNL A   1      38.186  22.210  25.517  1.00  0.00     0.002 C 
ENDROOT
BRANCH   1   2
ATOM      2  C   UNL A   1      37.197  23.329  25.883  1.00  0.00     0.021 C 
BRANCH   2   3
ATOM      3  C   UNL A   1      36.348  23.827  24.707  1.00  0.00     0.116 C 
BRANCH   3   4
ATOM      4  N   UNL A   1      35.175  24.509  25.209  1.00  0.00    -0.351 N 
ATOM      5  C   UNL A   1      34.053  24.820  24.499  1.00  0.00     0.278 C 
ATOM      6  O   UNL A   1      33.553  25.928  24.687  1.00  0.00    -0.268 OA
ATOM      7  H   UNL A   1      35.188  24.776  26.157  1.00  0.00     0.163 HD
BRANCH   5   8
ATOM      8  C   UNL A   1      33.461  23.735  23.568  1.00  0.00     0.274 C 
ATOM      9  N   UNL A   1      32.464  22.859  24.235  1.00  0.00    -0.317 N 
ATOM     10  C   UNL A   1      31.226  23.546  24.610  1.00  0.00     0.263 C 
ATOM     11  H   UNL A   1      32.198  22.204  23.501  1.00  0.00     0.349 HD
ATOM     12  C   UNL A   1      30.582  24.226  23.396  1.00  0.00     0.062 C 
ATOM     13  C   UNL A   1      32.846  24.375  22.317  1.00  0.00     0.076 C 
ATOM     14  C   UNL A   1      31.553  25.120  22.631  1.00  0.00     0.012 C 
BRANCH   9  15
ATOM     15  C   UNL A   1      33.005  21.992  25.303  1.00  0.00     0.364 C 
BRANCH  15  16
ATOM     16  C   UNL A   1      33.124  20.528  25.035  1.00  0.00     0.281 A 
ATOM     17  C   UNL A   1      33.625  18.544  24.603  1.00  0.00     0.174 A 
ATOM     18  N   UNL A   1      32.285  18.514  24.652  1.00  0.00    -0.062 NA
ATOM     19  N   UNL A   1      34.186  19.768  24.873  1.00  0.00    -0.191 NA
ATOM     20  O   UNL A   1      31.950  19.835  24.946  1.00  0.00    -0.333 OA
BRANCH  17  21
ATOM     21  C   UNL A   1      34.426  17.321  24.289  1.00  0.00     0.055 C 
ATOM     22  C   UNL A   1      34.305  16.273  25.397  1.00  0.00     0.016 C 
ATOM     23  C   UNL A   1      34.048  16.709  22.939  1.00  0.00     0.016 C 
ENDBRANCH  17  21
ENDBRANCH  15  16
ENDBRANCH   9  15
ENDBRANCH   5   8
ENDBRANCH   3   4
ENDBRANCH   2   3
ENDBRANCH   1   2
BRANCH   1  24
ATOM     24  C   UNL A   1      37.583  21.047  24.724  1.00  0.00     0.002 C 
BRANCH  24  25
ATOM     25  C   UNL A   1      38.287  19.705  24.924  1.00  0.00     0.021 C 
BRANCH  25  26
ATOM     26  C   UNL A   1      39.229  19.658  26.121  1.00  0.00     0.116 C 
BRANCH  26  27
ATOM     27  N   UNL A   1      40.502  19.038  25.798  1.00  0.00    -0.352 N 
ATOM     28  C   UNL A   1      41.765  19.565  25.854  1.00  0.00     0.251 C 
ATOM     29  H   UNL A   1      40.451  18.102  25.494  1.00  0.00     0.163 HD
ATOM     30  O   UNL A   1      42.713  18.940  25.379  1.00  0.00    -0.269 OA
BRANCH  28  31
ATOM     31  C   UNL A   1      41.996  20.891  26.468  1.00  0.00     0.039 A 
ATOM     32  C   UNL A   1      42.262  21.978  25.631  1.00  0.00     0.014 A 
ATOM     33  C   UNL A   1      41.988  21.062  27.856  1.00  0.00     0.014 A 
ATOM     34  C   UNL A   1      42.492  23.239  26.184  1.00  0.00     0.010 A 
ATOM     35  C   UNL A   1      42.140  22.334  28.402  1.00  0.00     0.010 A 
ATOM     36  C   UNL A   1      42.418  23.430  27.574  1.00  0.00    -0.014 A 
BRANCH  36  37
ATOM     37  C   UNL A   1      42.677  24.766  28.168  1.00  0.00     0.031 A 
ATOM     38  C   UNL A   1      44.072  25.152  28.579  1.00  0.00     0.074 A 
ATOM     39  C   UNL A   1      41.657  25.626  28.350  1.00  0.00     0.049 A 
ATOM     40  N   UNL A   1      44.502  26.279  29.091  1.00  0.00    -0.248 NA
ATOM     41  C   UNL A   1      45.118  24.131  28.418  1.00  0.00     0.031 C 
ATOM     42  C   UNL A   1      40.254  25.354  28.036  1.00  0.00     0.029 A 
ATOM     43  N   UNL A   1      41.648  26.909  28.836  1.00  0.00    -0.354 N 
ATOM     44  C   UNL A   1      45.861  26.098  29.314  1.00  0.00     0.074 A 
ATOM     45  C   UNL A   1      46.171  24.733  28.948  1.00  0.00     0.031 C 
ATOM     46  C   UNL A   1      39.526  26.452  28.297  1.00  0.00     0.029 A 
ATOM     47  C   UNL A   1      40.406  27.494  28.819  1.00  0.00     0.049 A 
ATOM     48  H   UNL A   1      42.455  27.367  29.166  1.00  0.00     0.167 HD
ATOM     49  C   UNL A   1      46.777  26.995  29.753  1.00  0.00     0.037 A 
ATOM     50  C   UNL A   1      40.024  28.736  29.169  1.00  0.00     0.037 A 
ATOM     51  C   UNL A   1      46.472  28.357  30.102  1.00  0.00     0.049 A 
ATOM     52  C   UNL A   1      41.058  29.715  29.651  1.00  0.00     0.074 A 
ATOM     53  C   UNL A   1      47.331  29.354  30.529  1.00  0.00     0.029 A 
ATOM     54  N   UNL A   1      45.202  28.915  30.059  1.00  0.00    -0.354 N 
ATOM     55  N   UNL A   1      42.351  29.549  29.800  1.00  0.00    -0.248 NA
ATOM     56  C   UNL A   1      40.581  31.061  29.995  1.00  0.00     0.031 C 
ATOM     57  C   UNL A   1      46.576  30.507  30.777  1.00  0.00     0.029 A 
ATOM     58  C   UNL A   1      45.254  30.240  30.460  1.00  0.00     0.049 A 
ATOM     59  H   UNL A   1      44.385  28.440  29.786  1.00  0.00     0.167 HD
ATOM     60  C   UNL A   1      42.845  30.778  30.218  1.00  0.00     0.074 A 
ATOM     61  C   UNL A   1      41.714  31.681  30.289  1.00  0.00     0.031 C 
ATOM     62  C   UNL A   1      44.121  31.129  30.511  1.00  0.00     0.037 A 
BRANCH  49  63
ATOM     63  C   UNL A   1      48.196  26.520  29.871  1.00  0.00     0.057 A 
ATOM     64  C   UNL A   1      49.114  26.673  28.823  1.00  0.00     0.134 A 
ATOM     65  C   UNL A   1      48.656  25.909  31.045  1.00  0.00     0.134 A 
ATOM     66  F   UNL A   1      48.735  27.236  27.665  1.00  0.00    -0.206 F 
ATOM     67  C   UNL A   1      50.425  26.203  28.922  1.00  0.00     0.040 A 
ATOM     68  C   UNL A   1      49.973  25.462  31.167  1.00  0.00     0.040 A 
ATOM     69  F   UNL A   1      47.834  25.736  32.091  1.00  0.00    -0.206 F 
ATOM     70  C   UNL A   1      50.859  25.599  30.100  1.00  0.00     0.006 A 
ENDBRANCH  49  63
BRANCH  50  71
ATOM     71  C   UNL A   1      38.606  29.147  29.019  1.00  0.00     0.057 A 
ATOM     72  C   UNL A   1      37.732  29.124  30.112  1.00  0.00     0.134 A 
ATOM     73  C   UNL A   1      38.090  29.564  27.786  1.00  0.00     0.134 A 
ATOM     74  F   UNL A   1      38.165  28.717  31.314  1.00  0.00    -0.206 F 
ATOM     75  C   UNL A   1      36.388  29.478  29.981  1.00  0.00     0.040 A 
ATOM     76  C   UNL A   1      36.754  29.944  27.647  1.00  0.00     0.040 A 
ATOM     77  F   UNL A   1      38.878  29.618  26.704  1.00  0.00    -0.206 F 
ATOM     78  C   UNL A   1      35.897  29.893  28.746  1.00  0.00     0.006 A 
ENDBRANCH  50  71
BRANCH  62  79
ATOM     79  C   UNL A   1      44.367  32.563  30.882  1.00  0.00     0.057 A 
ATOM     80  C   UNL A   1      44.644  33.544  29.921  1.00  0.00     0.134 A 
ATOM     81  C   UNL A   1      44.313  32.968  32.222  1.00  0.00     0.134 A 
ATOM     82  F   UNL A   1      44.723  33.219  28.621  1.00  0.00    -0.206 F 
ATOM     83  C   UNL A   1      44.893  34.869  30.283  1.00  0.00     0.040 A 
ATOM     84  C   UNL A   1      44.532  34.294  32.593  1.00  0.00     0.040 A 
ATOM     85  F   UNL A   1      44.042  32.081  33.191  1.00  0.00    -0.206 F 
ATOM     86  C   UNL A   1      44.833  35.248  31.622  1.00  0.00     0.006 A 
ENDBRANCH  62  79
ENDBRANCH  36  37
ENDBRANCH  28  31
ENDBRANCH  26  27
ENDBRANCH  25  26
ENDBRANCH  24  25
ENDBRANCH   1  24
TORSDOF 16
ENDMDL
MODEL 2
REMARK VINA RESULT:     -11.0      4.780      9.831
REMARK SMILES CC(C)c1noc(C[N@H+]2CCCC[C@H]2C(=O)NCCCCCCNC(=O)c2ccc(-c3c4nc(c(-c5c(F)cccc5F)c5ccc([nH]5)c(-c5c(F)cccc5F)c5nc(c(-c6c(F)cccc6F)c6ccc3[nH]6)C=C5)C=C4)cc2)n1
REMARK SMILES IDX 20 1 19 2 18 3 17 4 15 5 16 6 14 8 9 9 10 10 11 12 13 13
REMARK SMILES IDX 12 14 8 15 7 16 4 17 5 18 81 19 6 20 2 21 1 22 3 23 21 24
REMARK SMILES IDX 22 25 23 26 24 27 25 28 26 30 27 31 28 32 80 33 29 34 79 35
REMARK SMILES IDX 30 36 31 37 32 38 73 39 33 40 78 41 72 42 74 43 34 44 77 45
REMARK SMILES IDX 71 46 70 47 35 49 61 50 44 51 60 52 45 53 48 54 59 55 75 56
REMARK SMILES IDX 46 57 47 58 58 60 76 61 49 62 36 63 37 64 42 65 38 66 39 67
REMARK SMILES IDX 41 68 43 69 40 70 62 71 63 72 68 73 64 74 65 75 67 76 69 77
REMARK SMILES IDX 66 78 50 79 51 80 56 81 52 82 53 83 55 84 57 85 54 86
REMARK H PARENT 17 7 9 11 24 29 74 48 48 59
REMARK Flexibility Score: inf
ROOT
ATOM      1  C   UNL A   1      33.053  30.146  26.858  1.00  0.00     0.002 C 
ENDROOT
BRANCH   1   2
ATOM      2  C   UNL A   1      33.702  29.237  25.802  1.00  0.00     0.021 C 
BRANCH   2   3
ATOM      3  C   UNL A   1      33.041  29.306  24.420  1.00  0.00     0.116 C 
BRANCH   3   4
ATOM      4  N   UNL A   1      33.094  28.005  23.790  1.00  0.00    -0.351 N 
ATOM      5  C   UNL A   1      32.686  26.824  24.336  1.00  0.00     0.278 C 
ATOM      6  O   UNL A   1      33.399  25.839  24.151  1.00  0.00    -0.268 OA
ATOM      7  H   UNL A   1      33.462  27.968  22.877  1.00  0.00     0.163 HD
BRANCH   5   8
ATOM      8  C   UNL A   1      31.332  26.800  25.084  1.00  0.00     0.274 C 
ATOM      9  N   UNL A   1      30.315  25.927  24.444  1.00  0.00    -0.317 N 
ATOM     10  C   UNL A   1      30.638  24.499  24.502  1.00  0.00     0.263 C 
ATOM     11  H   UNL A   1      29.496  26.043  25.041  1.00  0.00     0.349 HD
ATOM     12  C   UNL A   1      30.872  24.043  25.946  1.00  0.00     0.062 C 
ATOM     13  C   UNL A   1      31.531  26.392  26.548  1.00  0.00     0.076 C 
ATOM     14  C   UNL A   1      31.880  24.914  26.688  1.00  0.00     0.012 C 
BRANCH   9  15
ATOM     15  C   UNL A   1      29.850  26.374  23.114  1.00  0.00     0.364 C 
BRANCH  15  16
ATOM     16  C   UNL A   1      29.763  27.841  22.850  1.00  0.00     0.281 A 
ATOM     17  C   UNL A   1      29.357  29.886  22.674  1.00  0.00     0.174 A 
ATOM     18  N   UNL A   1      30.348  29.696  21.790  1.00  0.00    -0.062 NA
ATOM     19  N   UNL A   1      28.991  28.766  23.380  1.00  0.00    -0.191 NA
ATOM     20  O   UNL A   1      30.624  28.335  21.910  1.00  0.00    -0.333 OA
BRANCH  17  21
ATOM     21  C   UNL A   1      28.724  31.226  22.868  1.00  0.00     0.055 C 
ATOM     22  C   UNL A   1      28.449  31.915  21.530  1.00  0.00     0.016 C 
ATOM     23  C   UNL A   1      27.439  31.147  23.696  1.00  0.00     0.016 C 
ENDBRANCH  17  21
ENDBRANCH  15  16
ENDBRANCH   9  15
ENDBRANCH   5   8
ENDBRANCH   3   4
ENDBRANCH   2   3
ENDBRANCH   1   2
BRANCH   1  24
ATOM     24  C   UNL A   1      31.645  30.639  26.512  1.00  0.00     0.002 C 
BRANCH  24  25
ATOM     25  C   UNL A   1      31.395  32.117  26.809  1.00  0.00     0.021 C 
BRANCH  25  26
ATOM     26  C   UNL A   1      32.658  32.966  26.899  1.00  0.00     0.116 C 
BRANCH  26  27
ATOM     27  N   UNL A   1      32.448  34.191  27.650  1.00  0.00    -0.352 N 
ATOM     28  C   UNL A   1      33.100  34.651  28.763  1.00  0.00     0.251 C 
ATOM     29  H   UNL A   1      31.733  34.777  27.310  1.00  0.00     0.163 HD
ATOM     30  O   UNL A   1      32.670  35.636  29.363  1.00  0.00    -0.269 OA
BRANCH  28  31
ATOM     31  C   UNL A   1      34.310  33.962  29.260  1.00  0.00     0.039 A 
ATOM     32  C   UNL A   1      34.157  32.925  30.185  1.00  0.00     0.014 A 
ATOM     33  C   UNL A   1      35.590  34.351  28.852  1.00  0.00     0.014 A 
ATOM     34  C   UNL A   1      35.283  32.263  30.677  1.00  0.00     0.010 A 
ATOM     35  C   UNL A   1      36.706  33.639  29.283  1.00  0.00     0.010 A 
ATOM     36  C   UNL A   1      36.566  32.604  30.218  1.00  0.00    -0.014 A 
BRANCH  36  37
ATOM     37  C   UNL A   1      37.767  31.914  30.750  1.00  0.00     0.031 A 
ATOM     38  C   UNL A   1      38.271  32.230  32.133  1.00  0.00     0.074 A 
ATOM     39  C   UNL A   1      38.413  31.012  29.986  1.00  0.00     0.049 A 
ATOM     40  N   UNL A   1      39.286  31.716  32.781  1.00  0.00    -0.248 NA
ATOM     41  C   UNL A   1      37.557  33.279  32.875  1.00  0.00     0.031 C 
ATOM     42  C   UNL A   1      38.053  30.651  28.615  1.00  0.00     0.029 A 
ATOM     43  N   UNL A   1      39.505  30.228  30.262  1.00  0.00    -0.354 N 
ATOM     44  C   UNL A   1      39.331  32.380  34.000  1.00  0.00     0.074 A 
ATOM     45  C   UNL A   1      38.287  33.381  33.974  1.00  0.00     0.031 C 
ATOM     46  C   UNL A   1      38.881  29.687  28.184  1.00  0.00     0.029 A 
ATOM     47  C   UNL A   1      39.845  29.380  29.237  1.00  0.00     0.049 A 
ATOM     48  H   UNL A   1      39.999  30.271  31.113  1.00  0.00     0.167 HD
ATOM     49  C   UNL A   1      40.146  32.158  35.059  1.00  0.00     0.037 A 
ATOM     50  C   UNL A   1      40.813  28.448  29.164  1.00  0.00     0.037 A 
ATOM     51  C   UNL A   1      41.174  31.151  35.092  1.00  0.00     0.049 A 
ATOM     52  C   UNL A   1      41.703  28.216  30.353  1.00  0.00     0.074 A 
ATOM     53  C   UNL A   1      42.034  30.825  36.126  1.00  0.00     0.029 A 
ATOM     54  N   UNL A   1      41.478  30.303  34.038  1.00  0.00    -0.354 N 
ATOM     55  N   UNL A   1      41.696  28.811  31.522  1.00  0.00    -0.248 NA
ATOM     56  C   UNL A   1      42.725  27.170  30.217  1.00  0.00     0.031 C 
ATOM     57  C   UNL A   1      42.881  29.802  35.686  1.00  0.00     0.029 A 
ATOM     58  C   UNL A   1      42.518  29.460  34.393  1.00  0.00     0.049 A 
ATOM     59  H   UNL A   1      41.024  30.301  33.164  1.00  0.00     0.167 HD
ATOM     60  C   UNL A   1      42.683  28.185  32.272  1.00  0.00     0.074 A 
ATOM     61  C   UNL A   1      43.261  27.160  31.428  1.00  0.00     0.031 C 
ATOM     62  C   UNL A   1      43.072  28.434  33.546  1.00  0.00     0.037 A 
BRANCH  49  63
ATOM     63  C   UNL A   1      39.944  33.023  36.270  1.00  0.00     0.057 A 
ATOM     64  C   UNL A   1      39.035  32.677  37.280  1.00  0.00     0.134 A 
ATOM     65  C   UNL A   1      40.668  34.211  36.435  1.00  0.00     0.134 A 
ATOM     66  F   UNL A   1      38.298  31.560  37.177  1.00  0.00    -0.206 F 
ATOM     67  C   UNL A   1      38.825  33.498  38.389  1.00  0.00     0.040 A 
ATOM     68  C   UNL A   1      40.489  35.025  37.556  1.00  0.00     0.040 A 
ATOM     69  F   UNL A   1      41.560  34.600  35.511  1.00  0.00    -0.206 F 
ATOM     70  C   UNL A   1      39.558  34.674  38.532  1.00  0.00     0.006 A 
ENDBRANCH  49  63
BRANCH  50  71
ATOM     71  C   UNL A   1      40.954  27.617  27.941  1.00  0.00     0.057 A 
ATOM     72  C   UNL A   1      40.299  26.385  27.832  1.00  0.00     0.134 A 
ATOM     73  C   UNL A   1      41.747  28.027  26.864  1.00  0.00     0.134 A 
ATOM     74  F   UNL A   1      39.539  25.933  28.840  1.00  0.00    -0.206 F 
ATOM     75  C   UNL A   1      40.444  25.578  26.703  1.00  0.00     0.040 A 
ATOM     76  C   UNL A   1      41.882  27.240  25.718  1.00  0.00     0.040 A 
ATOM     77  F   UNL A   1      42.392  29.201  26.903  1.00  0.00    -0.206 F 
ATOM     78  C   UNL A   1      41.235  26.007  25.640  1.00  0.00     0.006 A 
ENDBRANCH  50  71
BRANCH  62  79
ATOM     79  C   UNL A   1      44.137  27.545  34.121  1.00  0.00     0.057 A 
ATOM     80  C   UNL A   1      45.495  27.888  34.081  1.00  0.00     0.134 A 
ATOM     81  C   UNL A   1      43.794  26.333  34.733  1.00  0.00     0.134 A 
ATOM     82  F   UNL A   1      45.891  29.030  33.497  1.00  0.00    -0.206 F 
ATOM     83  C   UNL A   1      46.476  27.041  34.600  1.00  0.00     0.040 A 
ATOM     84  C   UNL A   1      44.763  25.492  35.280  1.00  0.00     0.040 A 
ATOM     85  F   UNL A   1      42.511  25.949  34.814  1.00  0.00    -0.206 F 
ATOM     86  C   UNL A   1      46.110  25.841  35.205  1.00  0.00     0.006 A 
ENDBRANCH  62  79
ENDBRANCH  36  37
ENDBRANCH  28  31
ENDBRANCH  26  27
ENDBRANCH  25  26
ENDBRANCH  24  25
ENDBRANCH   1  24
TORSDOF 16
ENDMDL
MODEL 3
REMARK VINA RESULT:     -10.9      5.693     11.976
REMARK SMILES CC(C)c1noc(C[N@H+]2CCCC[C@H]2C(=O)NCCCCCCNC(=O)c2ccc(-c3c4nc(c(-c5c(F)cccc5F)c5ccc([nH]5)c(-c5c(F)cccc5F)c5nc(c(-c6c(F)cccc6F)c6ccc3[nH]6)C=C5)C=C4)cc2)n1
REMARK SMILES IDX 20 1 19 2 18 3 17 4 15 5 16 6 14 8 9 9 10 10 11 12 13 13
REMARK SMILES IDX 12 14 8 15 7 16 4 17 5 18 81 19 6 20 2 21 1 22 3 23 21 24
REMARK SMILES IDX 22 25 23 26 24 27 25 28 26 30 27 31 28 32 80 33 29 34 79 35
REMARK SMILES IDX 30 36 31 37 32 38 73 39 33 40 78 41 72 42 74 43 34 44 77 45
REMARK SMILES IDX 71 46 70 47 35 49 61 50 44 51 60 52 45 53 48 54 59 55 75 56
REMARK SMILES IDX 46 57 47 58 58 60 76 61 49 62 36 63 37 64 42 65 38 66 39 67
REMARK SMILES IDX 41 68 43 69 40 70 62 71 63 72 68 73 64 74 65 75 67 76 69 77
REMARK SMILES IDX 66 78 50 79 51 80 56 81 52 82 53 83 55 84 57 85 54 86
REMARK H PARENT 17 7 9 11 24 29 74 48 48 59
REMARK Flexibility Score: inf
ROOT
ATOM      1  C   UNL A   1      35.645  34.952  33.272  1.00  0.00     0.002 C 
ENDROOT
BRANCH   1   2
ATOM      2  C   UNL A   1      35.844  34.098  34.535  1.00  0.00     0.021 C 
BRANCH   2   3
ATOM      3  C   UNL A   1      37.082  33.192  34.494  1.00  0.00     0.116 C 
BRANCH   3   4
ATOM      4  N   UNL A   1      38.220  33.899  35.039  1.00  0.00    -0.351 N 
ATOM      5  C   UNL A   1      38.579  33.964  36.353  1.00  0.00     0.278 C 
ATOM      6  O   UNL A   1      38.960  35.053  36.782  1.00  0.00    -0.268 OA
ATOM      7  H   UNL A   1      38.791  34.382  34.398  1.00  0.00     0.163 HD
BRANCH   5   8
ATOM      8  C   UNL A   1      38.546  32.657  37.179  1.00  0.00     0.274 C 
ATOM      9  N   UNL A   1      39.863  32.284  37.755  1.00  0.00    -0.317 N 
ATOM     10  C   UNL A   1      40.340  33.203  38.792  1.00  0.00     0.263 C 
ATOM     11  H   UNL A   1      39.670  31.408  38.239  1.00  0.00     0.349 HD
ATOM     12  C   UNL A   1      39.310  33.348  39.917  1.00  0.00     0.062 C 
ATOM     13  C   UNL A   1      37.492  32.747  38.289  1.00  0.00     0.076 C 
ATOM     14  C   UNL A   1      37.916  33.696  39.405  1.00  0.00     0.012 C 
BRANCH   9  15
ATOM     15  C   UNL A   1      40.900  31.919  36.767  1.00  0.00     0.364 C 
BRANCH  15  16
ATOM     16  C   UNL A   1      40.545  30.944  35.693  1.00  0.00     0.281 A 
ATOM     17  C   UNL A   1      39.870  29.839  34.050  1.00  0.00     0.174 A 
ATOM     18  N   UNL A   1      40.425  28.905  34.836  1.00  0.00    -0.062 NA
ATOM     19  N   UNL A   1      39.958  31.124  34.529  1.00  0.00    -0.191 NA
ATOM     20  O   UNL A   1      40.881  29.641  35.930  1.00  0.00    -0.333 OA
BRANCH  17  21
ATOM     21  C   UNL A   1      39.223  29.487  32.749  1.00  0.00     0.055 C 
ATOM     22  C   UNL A   1      39.440  28.015  32.397  1.00  0.00     0.016 C 
ATOM     23  C   UNL A   1      37.730  29.820  32.734  1.00  0.00     0.016 C 
ENDBRANCH  17  21
ENDBRANCH  15  16
ENDBRANCH   9  15
ENDBRANCH   5   8
ENDBRANCH   3   4
ENDBRANCH   2   3
ENDBRANCH   1   2
BRANCH   1  24
ATOM     24  C   UNL A   1      34.464  35.924  33.328  1.00  0.00     0.002 C 
BRANCH  24  25
ATOM     25  C   UNL A   1      33.317  35.589  32.374  1.00  0.00     0.021 C 
BRANCH  25  26
ATOM     26  C   UNL A   1      33.413  36.262  31.010  1.00  0.00     0.116 C 
BRANCH  26  27
ATOM     27  N   UNL A   1      32.698  35.528  29.981  1.00  0.00    -0.352 N 
ATOM     28  C   UNL A   1      33.150  34.544  29.143  1.00  0.00     0.251 C 
ATOM     29  H   UNL A   1      31.750  35.773  29.868  1.00  0.00     0.163 HD
ATOM     30  O   UNL A   1      32.440  34.154  28.215  1.00  0.00    -0.269 OA
BRANCH  28  31
ATOM     31  C   UNL A   1      34.493  33.957  29.333  1.00  0.00     0.039 A 
ATOM     32  C   UNL A   1      34.665  32.986  30.323  1.00  0.00     0.014 A 
ATOM     33  C   UNL A   1      35.588  34.380  28.573  1.00  0.00     0.014 A 
ATOM     34  C   UNL A   1      35.924  32.420  30.530  1.00  0.00     0.010 A 
ATOM     35  C   UNL A   1      36.825  33.760  28.726  1.00  0.00     0.010 A 
ATOM     36  C   UNL A   1      37.011  32.792  29.722  1.00  0.00    -0.014 A 
BRANCH  36  37
ATOM     37  C   UNL A   1      38.356  32.205  29.949  1.00  0.00     0.031 A 
ATOM     38  C   UNL A   1      39.377  32.948  30.768  1.00  0.00     0.074 A 
ATOM     39  C   UNL A   1      38.664  31.011  29.408  1.00  0.00     0.049 A 
ATOM     40  N   UNL A   1      40.593  32.590  31.096  1.00  0.00    -0.248 NA
ATOM     41  C   UNL A   1      38.991  34.279  31.259  1.00  0.00     0.031 C 
ATOM     42  C   UNL A   1      37.779  30.212  28.559  1.00  0.00     0.029 A 
ATOM     43  N   UNL A   1      39.806  30.256  29.503  1.00  0.00    -0.354 N 
ATOM     44  C   UNL A   1      41.114  33.650  31.828  1.00  0.00     0.074 A 
ATOM     45  C   UNL A   1      40.110  34.691  31.835  1.00  0.00     0.031 C 
ATOM     46  C   UNL A   1      38.395  29.061  28.245  1.00  0.00     0.029 A 
ATOM     47  C   UNL A   1      39.724  29.051  28.849  1.00  0.00     0.049 A 
ATOM     48  H   UNL A   1      40.608  30.551  29.993  1.00  0.00     0.167 HD
ATOM     49  C   UNL A   1      42.307  33.739  32.463  1.00  0.00     0.037 A 
ATOM     50  C   UNL A   1      40.615  28.046  28.762  1.00  0.00     0.037 A 
ATOM     51  C   UNL A   1      43.300  32.697  32.470  1.00  0.00     0.049 A 
ATOM     52  C   UNL A   1      41.931  28.165  29.479  1.00  0.00     0.074 A 
ATOM     53  C   UNL A   1      44.528  32.675  33.107  1.00  0.00     0.029 A 
ATOM     54  N   UNL A   1      43.174  31.486  31.805  1.00  0.00    -0.354 N 
ATOM     55  N   UNL A   1      42.386  29.149  30.217  1.00  0.00    -0.248 NA
ATOM     56  C   UNL A   1      42.849  27.025  29.364  1.00  0.00     0.031 C 
ATOM     57  C   UNL A   1      45.160  31.465  32.801  1.00  0.00     0.029 A 
ATOM     58  C   UNL A   1      44.305  30.713  32.010  1.00  0.00     0.049 A 
ATOM     59  H   UNL A   1      42.396  31.216  31.266  1.00  0.00     0.167 HD
ATOM     60  C   UNL A   1      43.625  28.730  30.686  1.00  0.00     0.074 A 
ATOM     61  C   UNL A   1      43.844  27.400  30.154  1.00  0.00     0.031 C 
ATOM     62  C   UNL A   1      44.500  29.385  31.486  1.00  0.00     0.037 A 
BRANCH  49  63
ATOM     63  C   UNL A   1      42.591  35.011  33.209  1.00  0.00     0.057 A 
ATOM     64  C   UNL A   1      43.253  36.088  32.604  1.00  0.00     0.134 A 
ATOM     65  C   UNL A   1      42.196  35.166  34.544  1.00  0.00     0.134 A 
ATOM     66  F   UNL A   1      43.672  36.000  31.332  1.00  0.00    -0.206 F 
ATOM     67  C   UNL A   1      43.544  37.258  33.308  1.00  0.00     0.040 A 
ATOM     68  C   UNL A   1      42.455  36.343  35.250  1.00  0.00     0.040 A 
ATOM     69  F   UNL A   1      41.553  34.178  35.184  1.00  0.00    -0.206 F 
ATOM     70  C   UNL A   1      43.140  37.389  34.635  1.00  0.00     0.006 A 
ENDBRANCH  49  63
BRANCH  50  71
ATOM     71  C   UNL A   1      40.269  26.809  28.018  1.00  0.00     0.057 A 
ATOM     72  C   UNL A   1      40.745  26.596  26.719  1.00  0.00     0.134 A 
ATOM     73  C   UNL A   1      39.453  25.820  28.578  1.00  0.00     0.134 A 
ATOM     74  F   UNL A   1      41.517  27.518  26.124  1.00  0.00    -0.206 F 
ATOM     75  C   UNL A   1      40.405  25.454  25.994  1.00  0.00     0.040 A 
ATOM     76  C   UNL A   1      39.124  24.661  27.873  1.00  0.00     0.040 A 
ATOM     77  F   UNL A   1      38.973  25.960  29.821  1.00  0.00    -0.206 F 
ATOM     78  C   UNL A   1      39.594  24.480  26.572  1.00  0.00     0.006 A 
ENDBRANCH  50  71
BRANCH  62  79
ATOM     79  C   UNL A   1      45.748  28.649  31.880  1.00  0.00     0.057 A 
ATOM     80  C   UNL A   1      46.939  28.759  31.151  1.00  0.00     0.134 A 
ATOM     81  C   UNL A   1      45.758  27.826  33.014  1.00  0.00     0.134 A 
ATOM     82  F   UNL A   1      46.993  29.521  30.048  1.00  0.00    -0.206 F 
ATOM     83  C   UNL A   1      48.086  28.051  31.517  1.00  0.00     0.040 A 
ATOM     84  C   UNL A   1      46.905  27.136  33.405  1.00  0.00     0.040 A 
ATOM     85  F   UNL A   1      44.653  27.685  33.763  1.00  0.00    -0.206 F 
ATOM     86  C   UNL A   1      48.071  27.240  32.649  1.00  0.00     0.006 A 
ENDBRANCH  62  79
ENDBRANCH  36  37
ENDBRANCH  28  31
ENDBRANCH  26  27
ENDBRANCH  25  26
ENDBRANCH  24  25
ENDBRANCH   1  24
TORSDOF 16
ENDMDL
