MODEL 1
REMARK VINA RESULT:     -10.1      0.000      0.000
REMARK SMILES O=C(NCCCCCCNC(=O)[C@H](CO)NC(=O)[C@H](CS)NC(=O)[C@H](Cc1ccccc1)NC(=O)c1ccc(F)cc1)c1ccc(-c2c3nc(c(-c4c(F)cccc4F)c4ccc([nH]4)c(-c4c(F)cccc4F)c4nc(c(-c5c(F)cccc5F)c5ccc2[nH]5)C=C4)C=C3)cc1
REMARK SMILES IDX 8 1 7 2 6 3 5 4 4 5 3 6 1 7 2 8 43 10 44 11 96 12 45 13
REMARK SMILES IDX 95 14 46 15 47 16 48 17 89 18 49 19 94 20 88 21 90 22 50 23
REMARK SMILES IDX 93 24 87 25 86 26 51 28 77 29 60 30 76 31 61 32 64 33 75 34
REMARK SMILES IDX 91 35 62 36 63 37 74 39 92 40 65 41 52 42 53 43 58 44 54 45
REMARK SMILES IDX 55 46 57 47 59 48 56 49 78 50 79 51 84 52 80 53 81 54 83 55
REMARK SMILES IDX 85 56 82 57 66 58 67 59 72 60 68 61 69 62 71 63 73 64 70 65
REMARK SMILES IDX 9 66 10 67 11 68 12 70 13 71 16 72 17 73 18 75 19 76 22 77
REMARK SMILES IDX 23 78 24 80 25 81 33 82 34 83 35 85 36 86 37 87 42 88 38 89
REMARK SMILES IDX 41 90 39 91 40 92 26 93 27 94 28 95 32 96 29 97 31 98 30 99
REMARK SMILES IDX 20 100 21 101 14 103 15 104
REMARK H PARENT 3 9 90 27 64 38 10 69 16 74 22 79 33 84 21 102 15 105
REMARK Flexibility Score: inf
ROOT
ATOM      1  C   UNL A   1      40.338  20.108  26.595  1.00  0.00     0.021 C 
ENDROOT
BRANCH   1   2
ATOM      2  C   UNL A   1      41.378  19.322  25.788  1.00  0.00     0.002 C 
BRANCH   2   3
ATOM      3  C   UNL A   1      42.829  19.512  26.243  1.00  0.00     0.002 C 
BRANCH   3   4
ATOM      4  C   UNL A   1      43.656  20.458  25.373  1.00  0.00     0.021 C 
BRANCH   4   5
ATOM      5  C   UNL A   1      43.827  21.853  25.954  1.00  0.00     0.116 C 
BRANCH   5   6
ATOM      6  N   UNL A   1      42.598  22.361  26.541  1.00  0.00    -0.352 N 
ATOM      7  O   UNL A   1      41.329  23.820  27.708  1.00  0.00    -0.269 OA
ATOM      8  C   UNL A   1      42.363  23.593  27.103  1.00  0.00     0.251 C 
ATOM      9  H   UNL A   1      41.834  21.741  26.537  1.00  0.00     0.163 HD
BRANCH   8  10
ATOM     10  C   UNL A   1      43.404  24.637  26.983  1.00  0.00     0.039 A 
ATOM     11  C   UNL A   1      44.148  25.019  28.103  1.00  0.00     0.014 A 
ATOM     12  C   UNL A   1      43.612  25.254  25.748  1.00  0.00     0.014 A 
ATOM     13  C   UNL A   1      44.992  26.117  28.022  1.00  0.00     0.010 A 
ATOM     14  C   UNL A   1      44.536  26.296  25.647  1.00  0.00     0.010 A 
ATOM     15  C   UNL A   1      45.211  26.756  26.790  1.00  0.00    -0.014 A 
BRANCH  15  16
ATOM     16  C   UNL A   1      46.199  27.859  26.718  1.00  0.00     0.031 A 
ATOM     17  C   UNL A   1      47.666  27.587  26.543  1.00  0.00     0.074 A 
ATOM     18  C   UNL A   1      45.745  29.126  26.780  1.00  0.00     0.049 A 
ATOM     19  N   UNL A   1      48.652  28.441  26.428  1.00  0.00    -0.248 NA
ATOM     20  C   UNL A   1      48.084  26.177  26.501  1.00  0.00     0.031 C 
ATOM     21  C   UNL A   1      44.342  29.509  26.959  1.00  0.00     0.029 A 
ATOM     22  N   UNL A   1      46.403  30.322  26.671  1.00  0.00    -0.354 N 
ATOM     23  C   UNL A   1      49.808  27.678  26.326  1.00  0.00     0.074 A 
ATOM     24  C   UNL A   1      49.403  26.290  26.414  1.00  0.00     0.031 C 
ATOM     25  C   UNL A   1      44.237  30.842  26.885  1.00  0.00     0.029 A 
ATOM     26  C   UNL A   1      45.569  31.411  26.725  1.00  0.00     0.049 A 
ATOM     27  H   UNL A   1      47.380  30.395  26.567  1.00  0.00     0.167 HD
ATOM     28  C   UNL A   1      51.087  28.098  26.169  1.00  0.00     0.037 A 
ATOM     29  C   UNL A   1      45.845  32.726  26.661  1.00  0.00     0.037 A 
ATOM     30  C   UNL A   1      51.477  29.481  26.063  1.00  0.00     0.049 A 
ATOM     31  C   UNL A   1      47.271  33.161  26.506  1.00  0.00     0.074 A 
ATOM     32  C   UNL A   1      52.741  30.008  25.857  1.00  0.00     0.029 A 
ATOM     33  N   UNL A   1      50.608  30.559  26.161  1.00  0.00    -0.354 N 
ATOM     34  N   UNL A   1      48.349  32.426  26.373  1.00  0.00    -0.248 NA
ATOM     35  C   UNL A   1      47.519  34.608  26.498  1.00  0.00     0.031 C 
ATOM     36  C   UNL A   1      52.642  31.404  25.877  1.00  0.00     0.029 A 
ATOM     37  C   UNL A   1      51.310  31.748  26.046  1.00  0.00     0.049 A 
ATOM     38  H   UNL A   1      49.635  30.488  26.293  1.00  0.00     0.167 HD
ATOM     39  C   UNL A   1      49.402  33.321  26.246  1.00  0.00     0.074 A 
ATOM     40  C   UNL A   1      48.829  34.651  26.299  1.00  0.00     0.031 C 
ATOM     41  C   UNL A   1      50.725  33.063  26.100  1.00  0.00     0.037 A 
BRANCH  28  42
ATOM     42  C   UNL A   1      52.164  27.051  26.127  1.00  0.00     0.057 A 
ATOM     43  C   UNL A   1      52.517  26.393  24.941  1.00  0.00     0.134 A 
ATOM     44  C   UNL A   1      52.882  26.722  27.284  1.00  0.00     0.134 A 
ATOM     45  F   UNL A   1      51.862  26.651  23.799  1.00  0.00    -0.206 F 
ATOM     46  C   UNL A   1      53.529  25.429  24.914  1.00  0.00     0.040 A 
ATOM     47  C   UNL A   1      53.912  25.780  27.264  1.00  0.00     0.040 A 
ATOM     48  F   UNL A   1      52.601  27.319  28.452  1.00  0.00    -0.206 F 
ATOM     49  C   UNL A   1      54.233  25.125  26.077  1.00  0.00     0.006 A 
ENDBRANCH  28  42
BRANCH  29  50
ATOM     50  C   UNL A   1      44.743  33.715  26.738  1.00  0.00     0.057 A 
ATOM     51  C   UNL A   1      44.405  34.325  27.951  1.00  0.00     0.134 A 
ATOM     52  C   UNL A   1      44.013  34.087  25.602  1.00  0.00     0.134 A 
ATOM     53  F   UNL A   1      45.058  33.999  29.076  1.00  0.00    -0.206 F 
ATOM     54  C   UNL A   1      43.372  35.260  28.036  1.00  0.00     0.040 A 
ATOM     55  C   UNL A   1      42.997  35.040  25.666  1.00  0.00     0.040 A 
ATOM     56  F   UNL A   1      44.296  33.545  24.408  1.00  0.00    -0.206 F 
ATOM     57  C   UNL A   1      42.670  35.625  26.888  1.00  0.00     0.006 A 
ENDBRANCH  29  50
BRANCH  41  58
ATOM     58  C   UNL A   1      51.632  34.248  25.955  1.00  0.00     0.057 A 
ATOM     59  C   UNL A   1      52.104  34.959  27.066  1.00  0.00     0.134 A 
ATOM     60  C   UNL A   1      52.043  34.678  24.687  1.00  0.00     0.134 A 
ATOM     61  F   UNL A   1      51.732  34.609  28.306  1.00  0.00    -0.206 F 
ATOM     62  C   UNL A   1      52.931  36.074  26.919  1.00  0.00     0.040 A 
ATOM     63  C   UNL A   1      52.893  35.774  24.529  1.00  0.00     0.040 A 
ATOM     64  F   UNL A   1      51.631  34.038  23.583  1.00  0.00    -0.206 F 
ATOM     65  C   UNL A   1      53.332  36.480  25.647  1.00  0.00     0.006 A 
ENDBRANCH  41  58
ENDBRANCH  15  16
ENDBRANCH   8  10
ENDBRANCH   5   6
ENDBRANCH   4   5
ENDBRANCH   3   4
ENDBRANCH   2   3
ENDBRANCH   1   2
BRANCH   1  66
ATOM     66  C   UNL A   1      39.291  20.804  25.735  1.00  0.00     0.116 C 
BRANCH  66  67
ATOM     67  N   UNL A   1      39.299  22.230  25.977  1.00  0.00    -0.354 N 
ATOM     68  C   UNL A   1      38.326  23.163  25.825  1.00  0.00     0.244 C 
ATOM     69  H   UNL A   1      40.157  22.584  26.308  1.00  0.00     0.163 HD
ATOM     70  O   UNL A   1      38.573  24.313  26.200  1.00  0.00    -0.273 OA
BRANCH  68  71
ATOM     71  C   UNL A   1      36.931  22.794  25.309  1.00  0.00     0.197 C 
BRANCH  71  72
ATOM     72  N   UNL A   1      35.994  23.924  25.315  1.00  0.00    -0.340 N 
ATOM     73  C   UNL A   1      34.645  24.015  25.318  1.00  0.00     0.244 C 
ATOM     74  H   UNL A   1      36.442  24.800  25.320  1.00  0.00     0.164 HD
ATOM     75  O   UNL A   1      34.194  25.162  25.430  1.00  0.00    -0.273 OA
BRANCH  73  76
ATOM     76  C   UNL A   1      33.681  22.815  25.334  1.00  0.00     0.181 C 
BRANCH  76  77
ATOM     77  N   UNL A   1      32.612  22.810  26.340  1.00  0.00    -0.342 N 
ATOM     78  C   UNL A   1      31.585  23.631  26.685  1.00  0.00     0.243 C 
ATOM     79  H   UNL A   1      32.648  22.008  26.910  1.00  0.00     0.164 HD
ATOM     80  O   UNL A   1      30.874  23.186  27.594  1.00  0.00    -0.273 OA
BRANCH  78  81
ATOM     81  C   UNL A   1      31.375  25.079  26.157  1.00  0.00     0.176 C 
BRANCH  81  82
ATOM     82  N   UNL A   1      30.257  25.275  25.229  1.00  0.00    -0.340 N 
ATOM     83  C   UNL A   1      30.159  26.020  24.081  1.00  0.00     0.251 C 
ATOM     84  H   UNL A   1      29.436  24.787  25.469  1.00  0.00     0.164 HD
ATOM     85  O   UNL A   1      29.053  26.141  23.561  1.00  0.00    -0.269 OA
BRANCH  83  86
ATOM     86  C   UNL A   1      31.330  26.665  23.434  1.00  0.00     0.040 A 
ATOM     87  C   UNL A   1      31.379  28.067  23.443  1.00  0.00     0.017 A 
ATOM     88  C   UNL A   1      32.310  25.954  22.731  1.00  0.00     0.017 A 
ATOM     89  C   UNL A   1      32.418  28.741  22.796  1.00  0.00     0.040 A 
ATOM     90  C   UNL A   1      33.353  26.628  22.091  1.00  0.00     0.040 A 
ATOM     91  C   UNL A   1      33.399  28.015  22.134  1.00  0.00     0.123 A 
ATOM     92  F   UNL A   1      34.395  28.659  21.512  1.00  0.00    -0.207 F 
ENDBRANCH  83  86
ENDBRANCH  81  82
BRANCH  81  93
ATOM     93  C   UNL A   1      31.339  26.207  27.229  1.00  0.00     0.070 C 
BRANCH  93  94
ATOM     94  C   UNL A   1      32.037  27.516  26.972  1.00  0.00    -0.045 A 
ATOM     95  C   UNL A   1      33.352  27.529  26.493  1.00  0.00     0.004 A 
ATOM     96  C   UNL A   1      31.406  28.740  27.231  1.00  0.00     0.004 A 
ATOM     97  C   UNL A   1      34.009  28.735  26.239  1.00  0.00     0.000 A 
ATOM     98  C   UNL A   1      32.068  29.947  26.986  1.00  0.00     0.000 A 
ATOM     99  C   UNL A   1      33.364  29.945  26.477  1.00  0.00     0.000 A 
ENDBRANCH  93  94
ENDBRANCH  81  93
ENDBRANCH  78  81
ENDBRANCH  76  77
BRANCH  76 100
ATOM    100  C   UNL A   1      33.152  22.576  23.903  1.00  0.00     0.101 C 
BRANCH 100 101
ATOM    101  S   UNL A   1      32.485  20.905  23.612  1.00  0.00    -0.177 SA
ATOM    102  H   UNL A   1      33.062  20.374  22.500  1.00  0.00     0.102 HD
ENDBRANCH 100 101
ENDBRANCH  76 100
ENDBRANCH  73  76
ENDBRANCH  71  72
BRANCH  71 103
ATOM    103  C   UNL A   1      37.039  22.133  23.927  1.00  0.00     0.191 C 
BRANCH 103 104
ATOM    104  O   UNL A   1      37.070  23.089  22.860  1.00  0.00    -0.394 OA
ATOM    105  H   UNL A   1      37.832  23.677  22.976  1.00  0.00     0.210 HD
ENDBRANCH 103 104
ENDBRANCH  71 103
ENDBRANCH  68  71
ENDBRANCH  66  67
ENDBRANCH   1  66
TORSDOF 25
ENDMDL
MODEL 2
REMARK VINA RESULT:     -10.1      5.073      9.299
REMARK SMILES O=C(NCCCCCCNC(=O)[C@H](CO)NC(=O)[C@H](CS)NC(=O)[C@H](Cc1ccccc1)NC(=O)c1ccc(F)cc1)c1ccc(-c2c3nc(c(-c4c(F)cccc4F)c4ccc([nH]4)c(-c4c(F)cccc4F)c4nc(c(-c5c(F)cccc5F)c5ccc2[nH]5)C=C4)C=C3)cc1
REMARK SMILES IDX 8 1 7 2 6 3 5 4 4 5 3 6 1 7 2 8 43 10 44 11 96 12 45 13
REMARK SMILES IDX 95 14 46 15 47 16 48 17 89 18 49 19 94 20 88 21 90 22 50 23
REMARK SMILES IDX 93 24 87 25 86 26 51 28 77 29 60 30 76 31 61 32 64 33 75 34
REMARK SMILES IDX 91 35 62 36 63 37 74 39 92 40 65 41 52 42 53 43 58 44 54 45
REMARK SMILES IDX 55 46 57 47 59 48 56 49 78 50 79 51 84 52 80 53 81 54 83 55
REMARK SMILES IDX 85 56 82 57 66 58 67 59 72 60 68 61 69 62 71 63 73 64 70 65
REMARK SMILES IDX 9 66 10 67 11 68 12 70 13 71 16 72 17 73 18 75 19 76 22 77
REMARK SMILES IDX 23 78 24 80 25 81 33 82 34 83 35 85 36 86 37 87 42 88 38 89
REMARK SMILES IDX 41 90 39 91 40 92 26 93 27 94 28 95 32 96 29 97 31 98 30 99
REMARK SMILES IDX 20 100 21 101 14 103 15 104
REMARK H PARENT 3 9 90 27 64 38 10 69 16 74 22 79 33 84 21 102 15 105
REMARK Flexibility Score: inf
ROOT
ATOM      1  C   UNL A   1      41.431  28.930  29.464  1.00  0.00     0.021 C 
ENDROOT
BRANCH   1   2
ATOM      2  C   UNL A   1      40.963  27.483  29.272  1.00  0.00     0.002 C 
BRANCH   2   3
ATOM      3  C   UNL A   1      40.274  27.197  27.934  1.00  0.00     0.002 C 
BRANCH   3   4
ATOM      4  C   UNL A   1      39.638  25.812  27.822  1.00  0.00     0.021 C 
BRANCH   4   5
ATOM      5  C   UNL A   1      39.803  25.157  26.460  1.00  0.00     0.116 C 
BRANCH   5   6
ATOM      6  N   UNL A   1      40.473  23.870  26.543  1.00  0.00    -0.352 N 
ATOM      7  O   UNL A   1      42.222  22.450  26.386  1.00  0.00    -0.269 OA
ATOM      8  C   UNL A   1      41.818  23.598  26.469  1.00  0.00     0.251 C 
ATOM      9  H   UNL A   1      39.886  23.090  26.668  1.00  0.00     0.163 HD
BRANCH   8  10
ATOM     10  C   UNL A   1      42.770  24.730  26.463  1.00  0.00     0.039 A 
ATOM     11  C   UNL A   1      43.089  25.375  25.266  1.00  0.00     0.014 A 
ATOM     12  C   UNL A   1      43.369  25.123  27.662  1.00  0.00     0.014 A 
ATOM     13  C   UNL A   1      44.111  26.311  25.243  1.00  0.00     0.010 A 
ATOM     14  C   UNL A   1      44.330  26.136  27.651  1.00  0.00     0.010 A 
ATOM     15  C   UNL A   1      44.730  26.717  26.438  1.00  0.00    -0.014 A 
BRANCH  15  16
ATOM     16  C   UNL A   1      45.746  27.796  26.390  1.00  0.00     0.031 A 
ATOM     17  C   UNL A   1      45.372  29.235  26.601  1.00  0.00     0.074 A 
ATOM     18  C   UNL A   1      47.033  27.451  26.185  1.00  0.00     0.049 A 
ATOM     19  N   UNL A   1      46.146  30.291  26.624  1.00  0.00    -0.248 NA
ATOM     20  C   UNL A   1      43.945  29.533  26.802  1.00  0.00     0.031 C 
ATOM     21  C   UNL A   1      47.511  26.084  25.959  1.00  0.00     0.029 A 
ATOM     22  N   UNL A   1      48.173  28.209  26.162  1.00  0.00    -0.354 N 
ATOM     23  C   UNL A   1      45.304  31.379  26.815  1.00  0.00     0.074 A 
ATOM     24  C   UNL A   1      43.954  30.857  26.881  1.00  0.00     0.031 C 
ATOM     25  C   UNL A   1      48.849  26.093  25.882  1.00  0.00     0.029 A 
ATOM     26  C   UNL A   1      49.316  27.470  25.984  1.00  0.00     0.049 A 
ATOM     27  H   UNL A   1      48.173  29.188  26.262  1.00  0.00     0.167 HD
ATOM     28  C   UNL A   1      45.629  32.689  26.930  1.00  0.00     0.037 A 
ATOM     29  C   UNL A   1      50.602  27.857  25.902  1.00  0.00     0.037 A 
ATOM     30  C   UNL A   1      46.977  33.195  26.883  1.00  0.00     0.049 A 
ATOM     31  C   UNL A   1      50.928  29.315  26.014  1.00  0.00     0.074 A 
ATOM     32  C   UNL A   1      47.414  34.501  27.034  1.00  0.00     0.029 A 
ATOM     33  N   UNL A   1      48.107  32.421  26.661  1.00  0.00    -0.354 N 
ATOM     34  N   UNL A   1      50.124  30.327  26.232  1.00  0.00    -0.248 NA
ATOM     35  C   UNL A   1      52.341  29.685  25.861  1.00  0.00     0.031 C 
ATOM     36  C   UNL A   1      48.802  34.521  26.858  1.00  0.00     0.029 A 
ATOM     37  C   UNL A   1      49.237  33.222  26.646  1.00  0.00     0.049 A 
ATOM     38  H   UNL A   1      48.105  31.445  26.534  1.00  0.00     0.167 HD
ATOM     39  C   UNL A   1      50.935  31.453  26.264  1.00  0.00     0.074 A 
ATOM     40  C   UNL A   1      52.294  30.995  26.060  1.00  0.00     0.031 C 
ATOM     41  C   UNL A   1      50.583  32.750  26.443  1.00  0.00     0.037 A 
BRANCH  28  42
ATOM     42  C   UNL A   1      44.505  33.673  27.093  1.00  0.00     0.057 A 
ATOM     43  C   UNL A   1      43.908  34.310  25.997  1.00  0.00     0.134 A 
ATOM     44  C   UNL A   1      43.990  33.960  28.364  1.00  0.00     0.134 A 
ATOM     45  F   UNL A   1      44.359  34.089  24.754  1.00  0.00    -0.206 F 
ATOM     46  C   UNL A   1      42.855  35.214  26.163  1.00  0.00     0.040 A 
ATOM     47  C   UNL A   1      42.922  34.842  28.540  1.00  0.00     0.040 A 
ATOM     48  F   UNL A   1      44.510  33.380  29.457  1.00  0.00    -0.206 F 
ATOM     49  C   UNL A   1      42.357  35.477  27.437  1.00  0.00     0.006 A 
ENDBRANCH  28  42
BRANCH  29  50
ATOM     50  C   UNL A   1      51.666  26.842  25.711  1.00  0.00     0.057 A 
ATOM     51  C   UNL A   1      52.119  26.505  24.430  1.00  0.00     0.134 A 
ATOM     52  C   UNL A   1      52.267  26.198  26.799  1.00  0.00     0.134 A 
ATOM     53  F   UNL A   1      51.571  27.077  23.348  1.00  0.00    -0.206 F 
ATOM     54  C   UNL A   1      53.122  25.555  24.237  1.00  0.00     0.040 A 
ATOM     55  C   UNL A   1      53.291  25.267  26.623  1.00  0.00     0.040 A 
ATOM     56  F   UNL A   1      51.884  26.486  28.052  1.00  0.00    -0.206 F 
ATOM     57  C   UNL A   1      53.716  24.938  25.338  1.00  0.00     0.006 A 
ENDBRANCH  29  50
BRANCH  41  58
ATOM     58  C   UNL A   1      51.696  33.755  26.459  1.00  0.00     0.057 A 
ATOM     59  C   UNL A   1      52.352  34.115  27.644  1.00  0.00     0.134 A 
ATOM     60  C   UNL A   1      52.121  34.365  25.272  1.00  0.00     0.134 A 
ATOM     61  F   UNL A   1      51.979  33.580  28.816  1.00  0.00    -0.206 F 
ATOM     62  C   UNL A   1      53.372  35.067  27.651  1.00  0.00     0.040 A 
ATOM     63  C   UNL A   1      53.159  35.298  25.263  1.00  0.00     0.040 A 
ATOM     64  F   UNL A   1      51.538  34.061  24.103  1.00  0.00    -0.206 F 
ATOM     65  C   UNL A   1      53.781  35.657  26.457  1.00  0.00     0.006 A 
ENDBRANCH  41  58
ENDBRANCH  15  16
ENDBRANCH   8  10
ENDBRANCH   5   6
ENDBRANCH   4   5
ENDBRANCH   3   4
ENDBRANCH   2   3
ENDBRANCH   1   2
BRANCH   1  66
ATOM     66  C   UNL A   1      42.109  29.184  30.805  1.00  0.00     0.116 C 
BRANCH  66  67
ATOM     67  N   UNL A   1      42.718  27.971  31.305  1.00  0.00    -0.354 N 
ATOM     68  C   UNL A   1      43.193  27.658  32.537  1.00  0.00     0.244 C 
ATOM     69  H   UNL A   1      42.803  27.251  30.639  1.00  0.00     0.163 HD
ATOM     70  O   UNL A   1      43.582  26.502  32.722  1.00  0.00    -0.273 OA
BRANCH  68  71
ATOM     71  C   UNL A   1      43.153  28.662  33.693  1.00  0.00     0.197 C 
BRANCH  71  72
ATOM     72  N   UNL A   1      42.493  28.136  34.894  1.00  0.00    -0.340 N 
ATOM     73  C   UNL A   1      41.626  28.664  35.788  1.00  0.00     0.244 C 
ATOM     74  H   UNL A   1      42.729  27.201  35.090  1.00  0.00     0.164 HD
ATOM     75  O   UNL A   1      41.193  27.871  36.634  1.00  0.00    -0.273 OA
BRANCH  73  76
ATOM     76  C   UNL A   1      41.062  30.095  35.728  1.00  0.00     0.181 C 
BRANCH  76  77
ATOM     77  N   UNL A   1      39.717  30.323  36.271  1.00  0.00    -0.342 N 
ATOM     78  C   UNL A   1      38.530  30.776  35.792  1.00  0.00     0.243 C 
ATOM     79  H   UNL A   1      39.662  30.088  37.226  1.00  0.00     0.164 HD
ATOM     80  O   UNL A   1      37.612  30.747  36.621  1.00  0.00    -0.273 OA
BRANCH  78  81
ATOM     81  C   UNL A   1      38.317  31.448  34.405  1.00  0.00     0.176 C 
BRANCH  81  82
ATOM     82  N   UNL A   1      36.947  31.865  34.090  1.00  0.00    -0.340 N 
ATOM     83  C   UNL A   1      36.231  31.799  32.922  1.00  0.00     0.251 C 
ATOM     84  H   UNL A   1      36.456  32.260  34.847  1.00  0.00     0.164 HD
ATOM     85  O   UNL A   1      35.140  32.362  32.877  1.00  0.00    -0.269 OA
BRANCH  83  86
ATOM     86  C   UNL A   1      36.708  31.062  31.723  1.00  0.00     0.040 A 
ATOM     87  C   UNL A   1      36.634  31.725  30.489  1.00  0.00     0.017 A 
ATOM     88  C   UNL A   1      37.113  29.722  31.754  1.00  0.00     0.017 A 
ATOM     89  C   UNL A   1      37.004  31.068  29.312  1.00  0.00     0.040 A 
ATOM     90  C   UNL A   1      37.489  29.068  30.578  1.00  0.00     0.040 A 
ATOM     91  C   UNL A   1      37.436  29.749  29.369  1.00  0.00     0.123 A 
ATOM     92  F   UNL A   1      37.789  29.118  28.243  1.00  0.00    -0.207 F 
ENDBRANCH  83  86
ENDBRANCH  81  82
BRANCH  81  93
ATOM     93  C   UNL A   1      39.289  32.608  34.043  1.00  0.00     0.070 C 
BRANCH  93  94
ATOM     94  C   UNL A   1      39.427  33.061  32.613  1.00  0.00    -0.045 A 
ATOM     95  C   UNL A   1      40.151  32.289  31.698  1.00  0.00     0.004 A 
ATOM     96  C   UNL A   1      38.865  34.268  32.175  1.00  0.00     0.004 A 
ATOM     97  C   UNL A   1      40.278  32.689  30.367  1.00  0.00     0.000 A 
ATOM     98  C   UNL A   1      39.000  34.673  30.844  1.00  0.00     0.000 A 
ATOM     99  C   UNL A   1      39.696  33.878  29.936  1.00  0.00     0.000 A 
ENDBRANCH  93  94
ENDBRANCH  81  93
ENDBRANCH  78  81
ENDBRANCH  76  77
BRANCH  76 100
ATOM    100  C   UNL A   1      42.109  31.073  36.303  1.00  0.00     0.101 C 
BRANCH 100 101
ATOM    101  S   UNL A   1      41.410  32.443  37.281  1.00  0.00    -0.177 SA
ATOM    102  H   UNL A   1      41.747  33.628  36.706  1.00  0.00     0.102 HD
ENDBRANCH 100 101
ENDBRANCH  76 100
ENDBRANCH  73  76
ENDBRANCH  71  72
BRANCH  71 103
ATOM    103  C   UNL A   1      44.568  29.184  33.987  1.00  0.00     0.191 C 
BRANCH 103 104
ATOM    104  O   UNL A   1      45.519  28.787  32.992  1.00  0.00    -0.394 OA
ATOM    105  H   UNL A   1      45.262  27.927  32.624  1.00  0.00     0.210 HD
ENDBRANCH 103 104
ENDBRANCH  71 103
ENDBRANCH  68  71
ENDBRANCH  66  67
ENDBRANCH   1  66
TORSDOF 25
ENDMDL
MODEL 3
REMARK VINA RESULT:     -10.1      6.081      8.995
REMARK SMILES O=C(NCCCCCCNC(=O)[C@H](CO)NC(=O)[C@H](CS)NC(=O)[C@H](Cc1ccccc1)NC(=O)c1ccc(F)cc1)c1ccc(-c2c3nc(c(-c4c(F)cccc4F)c4ccc([nH]4)c(-c4c(F)cccc4F)c4nc(c(-c5c(F)cccc5F)c5ccc2[nH]5)C=C4)C=C3)cc1
REMARK SMILES IDX 8 1 7 2 6 3 5 4 4 5 3 6 1 7 2 8 43 10 44 11 96 12 45 13
REMARK SMILES IDX 95 14 46 15 47 16 48 17 89 18 49 19 94 20 88 21 90 22 50 23
REMARK SMILES IDX 93 24 87 25 86 26 51 28 77 29 60 30 76 31 61 32 64 33 75 34
REMARK SMILES IDX 91 35 62 36 63 37 74 39 92 40 65 41 52 42 53 43 58 44 54 45
REMARK SMILES IDX 55 46 57 47 59 48 56 49 78 50 79 51 84 52 80 53 81 54 83 55
REMARK SMILES IDX 85 56 82 57 66 58 67 59 72 60 68 61 69 62 71 63 73 64 70 65
REMARK SMILES IDX 9 66 10 67 11 68 12 70 13 71 16 72 17 73 18 75 19 76 22 77
REMARK SMILES IDX 23 78 24 80 25 81 33 82 34 83 35 85 36 86 37 87 42 88 38 89
REMARK SMILES IDX 41 90 39 91 40 92 26 93 27 94 28 95 32 96 29 97 31 98 30 99
REMARK SMILES IDX 20 100 21 101 14 103 15 104
REMARK H PARENT 3 9 90 27 64 38 10 69 16 74 22 79 33 84 21 102 15 105
REMARK Flexibility Score: inf
ROOT
ATOM      1  C   UNL A   1      38.266  24.077  26.469  1.00  0.00     0.021 C 
ENDROOT
BRANCH   1   2
ATOM      2  C   UNL A   1      39.177  22.845  26.500  1.00  0.00     0.002 C 
BRANCH   2   3
ATOM      3  C   UNL A   1      40.475  23.019  27.295  1.00  0.00     0.002 C 
BRANCH   3   4
ATOM      4  C   UNL A   1      41.676  23.478  26.470  1.00  0.00     0.021 C 
BRANCH   4   5
ATOM      5  C   UNL A   1      41.626  24.940  26.052  1.00  0.00     0.116 C 
BRANCH   5   6
ATOM      6  N   UNL A   1      42.898  25.409  25.530  1.00  0.00    -0.352 N 
ATOM      7  O   UNL A   1      44.582  26.887  25.242  1.00  0.00    -0.269 OA
ATOM      8  C   UNL A   1      43.610  26.530  25.886  1.00  0.00     0.251 C 
ATOM      9  H   UNL A   1      43.304  24.851  24.827  1.00  0.00     0.163 HD
BRANCH   8  10
ATOM     10  C   UNL A   1      43.156  27.315  27.055  1.00  0.00     0.039 A 
ATOM     11  C   UNL A   1      43.181  28.711  27.016  1.00  0.00     0.014 A 
ATOM     12  C   UNL A   1      42.733  26.644  28.204  1.00  0.00     0.014 A 
ATOM     13  C   UNL A   1      42.926  29.433  28.172  1.00  0.00     0.010 A 
ATOM     14  C   UNL A   1      42.382  27.379  29.339  1.00  0.00     0.010 A 
ATOM     15  C   UNL A   1      42.504  28.777  29.341  1.00  0.00    -0.014 A 
BRANCH  15  16
ATOM     16  C   UNL A   1      42.138  29.587  30.528  1.00  0.00     0.031 A 
ATOM     17  C   UNL A   1      43.073  29.737  31.693  1.00  0.00     0.074 A 
ATOM     18  C   UNL A   1      40.949  30.221  30.525  1.00  0.00     0.049 A 
ATOM     19  N   UNL A   1      42.917  30.437  32.789  1.00  0.00    -0.248 NA
ATOM     20  C   UNL A   1      44.346  29.001  31.628  1.00  0.00     0.031 C 
ATOM     21  C   UNL A   1      39.954  30.139  29.451  1.00  0.00     0.029 A 
ATOM     22  N   UNL A   1      40.385  31.077  31.434  1.00  0.00    -0.354 N 
ATOM     23  C   UNL A   1      44.053  30.208  33.555  1.00  0.00     0.074 A 
ATOM     24  C   UNL A   1      44.883  29.286  32.807  1.00  0.00     0.031 C 
ATOM     25  C   UNL A   1      38.934  30.960  29.733  1.00  0.00     0.029 A 
ATOM     26  C   UNL A   1      39.167  31.570  31.036  1.00  0.00     0.049 A 
ATOM     27  H   UNL A   1      40.810  31.313  32.290  1.00  0.00     0.167 HD
ATOM     28  C   UNL A   1      44.373  30.724  34.766  1.00  0.00     0.037 A 
ATOM     29  C   UNL A   1      38.324  32.415  31.655  1.00  0.00     0.037 A 
ATOM     30  C   UNL A   1      43.549  31.655  35.492  1.00  0.00     0.049 A 
ATOM     31  C   UNL A   1      38.697  32.955  33.003  1.00  0.00     0.074 A 
ATOM     32  C   UNL A   1      43.805  32.271  36.706  1.00  0.00     0.029 A 
ATOM     33  N   UNL A   1      42.303  32.103  35.076  1.00  0.00    -0.354 N 
ATOM     34  N   UNL A   1      39.792  32.758  33.697  1.00  0.00    -0.248 NA
ATOM     35  C   UNL A   1      37.714  33.829  33.656  1.00  0.00     0.031 C 
ATOM     36  C   UNL A   1      42.695  33.053  37.045  1.00  0.00     0.029 A 
ATOM     37  C   UNL A   1      41.767  32.965  36.019  1.00  0.00     0.049 A 
ATOM     38  H   UNL A   1      41.864  31.845  34.233  1.00  0.00     0.167 HD
ATOM     39  C   UNL A   1      39.640  33.500  34.860  1.00  0.00     0.074 A 
ATOM     40  C   UNL A   1      38.355  34.163  34.767  1.00  0.00     0.031 C 
ATOM     41  C   UNL A   1      40.487  33.618  35.911  1.00  0.00     0.037 A 
BRANCH  28  42
ATOM     42  C   UNL A   1      45.660  30.273  35.396  1.00  0.00     0.057 A 
ATOM     43  C   UNL A   1      46.870  30.949  35.187  1.00  0.00     0.134 A 
ATOM     44  C   UNL A   1      45.683  29.165  36.253  1.00  0.00     0.134 A 
ATOM     45  F   UNL A   1      46.922  32.011  34.369  1.00  0.00    -0.206 F 
ATOM     46  C   UNL A   1      48.057  30.525  35.789  1.00  0.00     0.040 A 
ATOM     47  C   UNL A   1      46.858  28.748  36.881  1.00  0.00     0.040 A 
ATOM     48  F   UNL A   1      44.559  28.475  36.504  1.00  0.00    -0.206 F 
ATOM     49  C   UNL A   1      48.052  29.425  36.643  1.00  0.00     0.006 A 
ENDBRANCH  28  42
BRANCH  29  50
ATOM     50  C   UNL A   1      37.052  32.802  30.997  1.00  0.00     0.057 A 
ATOM     51  C   UNL A   1      37.027  33.785  30.000  1.00  0.00     0.134 A 
ATOM     52  C   UNL A   1      35.838  32.192  31.334  1.00  0.00     0.134 A 
ATOM     53  F   UNL A   1      38.156  34.416  29.645  1.00  0.00    -0.206 F 
ATOM     54  C   UNL A   1      35.838  34.156  29.371  1.00  0.00     0.040 A 
ATOM     55  C   UNL A   1      34.647  32.532  30.694  1.00  0.00     0.040 A 
ATOM     56  F   UNL A   1      35.800  31.236  32.274  1.00  0.00    -0.206 F 
ATOM     57  C   UNL A   1      34.644  33.522  29.714  1.00  0.00     0.006 A 
ENDBRANCH  29  50
BRANCH  41  58
ATOM     58  C   UNL A   1      40.059  34.525  37.025  1.00  0.00     0.057 A 
ATOM     59  C   UNL A   1      40.329  35.900  37.005  1.00  0.00     0.134 A 
ATOM     60  C   UNL A   1      39.361  34.018  38.128  1.00  0.00     0.134 A 
ATOM     61  F   UNL A   1      41.010  36.444  35.985  1.00  0.00    -0.206 F 
ATOM     62  C   UNL A   1      39.944  36.733  38.057  1.00  0.00     0.040 A 
ATOM     63  C   UNL A   1      38.947  34.846  39.173  1.00  0.00     0.040 A 
ATOM     64  F   UNL A   1      39.067  32.712  38.206  1.00  0.00    -0.206 F 
ATOM     65  C   UNL A   1      39.247  36.206  39.142  1.00  0.00     0.006 A 
ENDBRANCH  41  58
ENDBRANCH  15  16
ENDBRANCH   8  10
ENDBRANCH   5   6
ENDBRANCH   4   5
ENDBRANCH   3   4
ENDBRANCH   2   3
ENDBRANCH   1   2
BRANCH   1  66
ATOM     66  C   UNL A   1      36.870  23.796  25.925  1.00  0.00     0.116 C 
BRANCH  66  67
ATOM     67  N   UNL A   1      36.739  22.405  25.553  1.00  0.00    -0.354 N 
ATOM     68  C   UNL A   1      35.662  21.580  25.558  1.00  0.00     0.244 C 
ATOM     69  H   UNL A   1      37.574  21.984  25.242  1.00  0.00     0.163 HD
ATOM     70  O   UNL A   1      35.808  20.447  25.094  1.00  0.00    -0.273 OA
BRANCH  68  71
ATOM     71  C   UNL A   1      34.283  22.063  26.022  1.00  0.00     0.197 C 
BRANCH  71  72
ATOM     72  N   UNL A   1      33.294  22.114  24.938  1.00  0.00    -0.340 N 
ATOM     73  C   UNL A   1      32.082  22.699  24.811  1.00  0.00     0.244 C 
ATOM     74  H   UNL A   1      33.572  21.619  24.134  1.00  0.00     0.164 HD
ATOM     75  O   UNL A   1      31.569  22.611  23.688  1.00  0.00    -0.273 OA
BRANCH  73  76
ATOM     76  C   UNL A   1      31.397  23.554  25.893  1.00  0.00     0.181 C 
BRANCH  76  77
ATOM     77  N   UNL A   1      30.391  24.529  25.459  1.00  0.00    -0.342 N 
ATOM     78  C   UNL A   1      30.385  25.840  25.101  1.00  0.00     0.243 C 
ATOM     79  H   UNL A   1      29.490  24.133  25.415  1.00  0.00     0.164 HD
ATOM     80  O   UNL A   1      29.277  26.256  24.740  1.00  0.00    -0.273 OA
BRANCH  78  81
ATOM     81  C   UNL A   1      31.576  26.826  25.279  1.00  0.00     0.176 C 
BRANCH  81  82
ATOM     82  N   UNL A   1      32.208  27.309  24.047  1.00  0.00    -0.340 N 
ATOM     83  C   UNL A   1      31.765  28.189  23.093  1.00  0.00     0.251 C 
ATOM     84  H   UNL A   1      33.103  26.937  23.874  1.00  0.00     0.164 HD
ATOM     85  O   UNL A   1      32.426  28.312  22.065  1.00  0.00    -0.269 OA
BRANCH  83  86
ATOM     86  C   UNL A   1      30.539  29.012  23.260  1.00  0.00     0.040 A 
ATOM     87  C   UNL A   1      29.361  28.540  22.661  1.00  0.00     0.017 A 
ATOM     88  C   UNL A   1      30.533  30.268  23.878  1.00  0.00     0.017 A 
ATOM     89  C   UNL A   1      28.187  29.295  22.723  1.00  0.00     0.040 A 
ATOM     90  C   UNL A   1      29.357  31.019  23.946  1.00  0.00     0.040 A 
ATOM     91  C   UNL A   1      28.194  30.523  23.372  1.00  0.00     0.123 A 
ATOM     92  F   UNL A   1      27.071  31.248  23.430  1.00  0.00    -0.207 F 
ENDBRANCH  83  86
ENDBRANCH  81  82
BRANCH  81  93
ATOM     93  C   UNL A   1      31.335  28.038  26.226  1.00  0.00     0.070 C 
BRANCH  93  94
ATOM     94  C   UNL A   1      32.498  28.863  26.709  1.00  0.00    -0.045 A 
ATOM     95  C   UNL A   1      32.336  30.232  26.951  1.00  0.00     0.004 A 
ATOM     96  C   UNL A   1      33.765  28.294  26.897  1.00  0.00     0.004 A 
ATOM     97  C   UNL A   1      33.402  31.008  27.411  1.00  0.00     0.000 A 
ATOM     98  C   UNL A   1      34.834  29.074  27.348  1.00  0.00     0.000 A 
ATOM     99  C   UNL A   1      34.650  30.428  27.617  1.00  0.00     0.000 A 
ENDBRANCH  93  94
ENDBRANCH  81  93
ENDBRANCH  78  81
ENDBRANCH  76  77
BRANCH  76 100
ATOM    100  C   UNL A   1      30.881  22.627  27.015  1.00  0.00     0.101 C 
BRANCH 100 101
ATOM    101  S   UNL A   1      29.077  22.674  27.268  1.00  0.00    -0.177 SA
ATOM    102  H   UNL A   1      28.487  23.295  26.211  1.00  0.00     0.102 HD
ENDBRANCH 100 101
ENDBRANCH  76 100
ENDBRANCH  73  76
ENDBRANCH  71  72
BRANCH  71 103
ATOM    103  C   UNL A   1      33.802  21.218  27.211  1.00  0.00     0.191 C 
BRANCH 103 104
ATOM    104  O   UNL A   1      33.330  19.925  26.814  1.00  0.00    -0.394 OA
ATOM    105  H   UNL A   1      33.961  19.248  27.102  1.00  0.00     0.210 HD
ENDBRANCH 103 104
ENDBRANCH  71 103
ENDBRANCH  68  71
ENDBRANCH  66  67
ENDBRANCH   1  66
TORSDOF 25
ENDMDL
