MODEL 1
REMARK VINA RESULT:     -11.1      0.000      0.000
REMARK SMILES O=C(NCCCCCCNC(=O)c1cc(Br)ccc1OCc1ccccc1F)c1ccc(-c2c3nc(c(-c4c(F)cccc4F)c4ccc([nH]4)c(-c4c(F)cccc4F)c4nc(c(-c5c(F)cccc5F)c5ccc2[nH]5)C=C4)C=C3)cc1
REMARK SMILES IDX 7 1 6 2 5 3 4 4 3 5 1 6 2 7 29 9 30 10 82 11 31 12 81 13
REMARK SMILES IDX 32 14 33 15 34 16 75 17 35 18 80 19 74 20 76 21 36 22 79 23
REMARK SMILES IDX 73 24 72 25 37 27 63 28 46 29 62 30 47 31 50 32 61 33 77 34
REMARK SMILES IDX 48 35 49 36 60 38 78 39 51 40 38 41 39 42 44 43 40 44 41 45
REMARK SMILES IDX 43 46 45 47 42 48 64 49 65 50 70 51 66 52 67 53 69 54 71 55
REMARK SMILES IDX 68 56 52 57 53 58 58 59 54 60 55 61 57 62 59 63 56 64 8 65
REMARK SMILES IDX 9 66 10 67 11 68 12 70 13 71 14 72 19 73 15 74 18 75 16 76
REMARK SMILES IDX 17 77 20 78 21 79 22 80 23 81 27 82 24 83 26 84 28 85 25 86
REMARK H PARENT 3 8 76 26 50 37 10 69
REMARK Flexibility Score: inf
ROOT
ATOM      1  C   UNL A   1      38.601  22.337  25.998  1.00  0.00     0.002 C 
ENDROOT
BRANCH   1   2
ATOM      2  C   UNL A   1      37.956  21.280  25.098  1.00  0.00     0.002 C 
BRANCH   2   3
ATOM      3  C   UNL A   1      38.642  19.915  25.056  1.00  0.00     0.021 C 
BRANCH   3   4
ATOM      4  C   UNL A   1      39.503  19.579  26.265  1.00  0.00     0.116 C 
BRANCH   4   5
ATOM      5  N   UNL A   1      40.724  18.880  25.919  1.00  0.00    -0.352 N 
ATOM      6  O   UNL A   1      42.941  18.712  25.505  1.00  0.00    -0.269 OA
ATOM      7  C   UNL A   1      42.006  19.378  25.933  1.00  0.00     0.251 C 
ATOM      8  H   UNL A   1      40.626  17.941  25.642  1.00  0.00     0.163 HD
BRANCH   7   9
ATOM      9  C   UNL A   1      42.245  20.748  26.444  1.00  0.00     0.039 A 
ATOM     10  C   UNL A   1      42.311  21.001  27.818  1.00  0.00     0.014 A 
ATOM     11  C   UNL A   1      42.422  21.788  25.528  1.00  0.00     0.014 A 
ATOM     12  C   UNL A   1      42.473  22.305  28.276  1.00  0.00     0.010 A 
ATOM     13  C   UNL A   1      42.635  23.091  25.987  1.00  0.00     0.010 A 
ATOM     14  C   UNL A   1      42.655  23.358  27.364  1.00  0.00    -0.014 A 
BRANCH  14  15
ATOM     15  C   UNL A   1      42.978  24.713  27.868  1.00  0.00     0.031 A 
ATOM     16  C   UNL A   1      41.905  25.717  28.163  1.00  0.00     0.074 A 
ATOM     17  C   UNL A   1      44.272  25.027  28.064  1.00  0.00     0.049 A 
ATOM     18  N   UNL A   1      42.029  26.946  28.598  1.00  0.00    -0.248 NA
ATOM     19  C   UNL A   1      40.513  25.296  27.939  1.00  0.00     0.031 C 
ATOM     20  C   UNL A   1      45.403  24.133  27.802  1.00  0.00     0.029 A 
ATOM     21  N   UNL A   1      44.856  26.174  28.536  1.00  0.00    -0.354 N 
ATOM     22  C   UNL A   1      40.739  27.450  28.688  1.00  0.00     0.074 A 
ATOM     23  C   UNL A   1      39.843  26.398  28.254  1.00  0.00     0.031 C 
ATOM     24  C   UNL A   1      46.541  24.753  28.150  1.00  0.00     0.029 A 
ATOM     25  C   UNL A   1      46.224  26.098  28.616  1.00  0.00     0.049 A 
ATOM     26  H   UNL A   1      44.343  26.975  28.793  1.00  0.00     0.167 HD
ATOM     27  C   UNL A   1      40.344  28.678  29.099  1.00  0.00     0.037 A 
ATOM     28  C   UNL A   1      47.127  27.014  29.009  1.00  0.00     0.037 A 
ATOM     29  C   UNL A   1      41.233  29.717  29.547  1.00  0.00     0.049 A 
ATOM     30  C   UNL A   1      46.660  28.370  29.440  1.00  0.00     0.074 A 
ATOM     31  C   UNL A   1      40.916  30.977  30.024  1.00  0.00     0.029 A 
ATOM     32  N   UNL A   1      42.616  29.617  29.573  1.00  0.00    -0.354 N 
ATOM     33  N   UNL A   1      45.436  28.826  29.532  1.00  0.00    -0.248 NA
ATOM     34  C   UNL A   1      47.699  29.343  29.804  1.00  0.00     0.031 C 
ATOM     35  C   UNL A   1      42.108  31.651  30.315  1.00  0.00     0.029 A 
ATOM     36  C   UNL A   1      43.166  30.800  30.038  1.00  0.00     0.049 A 
ATOM     37  H   UNL A   1      43.130  28.823  29.301  1.00  0.00     0.167 HD
ATOM     38  C   UNL A   1      45.554  30.141  29.957  1.00  0.00     0.074 A 
ATOM     39  C   UNL A   1      46.970  30.403  30.125  1.00  0.00     0.031 C 
ATOM     40  C   UNL A   1      44.576  31.050  30.179  1.00  0.00     0.037 A 
BRANCH  27  41
ATOM     41  C   UNL A   1      38.878  28.980  29.080  1.00  0.00     0.057 A 
ATOM     42  C   UNL A   1      38.271  29.499  27.930  1.00  0.00     0.134 A 
ATOM     43  C   UNL A   1      38.087  28.837  30.226  1.00  0.00     0.134 A 
ATOM     44  F   UNL A   1      38.978  29.664  26.803  1.00  0.00    -0.206 F 
ATOM     45  C   UNL A   1      36.927  29.875  27.923  1.00  0.00     0.040 A 
ATOM     46  C   UNL A   1      36.740  29.200  30.228  1.00  0.00     0.040 A 
ATOM     47  F   UNL A   1      38.611  28.339  31.355  1.00  0.00    -0.206 F 
ATOM     48  C   UNL A   1      36.158  29.728  29.076  1.00  0.00     0.006 A 
ENDBRANCH  27  41
BRANCH  28  49
ATOM     49  C   UNL A   1      48.564  26.665  29.001  1.00  0.00     0.057 A 
ATOM     50  C   UNL A   1      49.369  26.927  27.886  1.00  0.00     0.134 A 
ATOM     51  C   UNL A   1      49.152  26.018  30.092  1.00  0.00     0.134 A 
ATOM     52  F   UNL A   1      48.855  27.539  26.809  1.00  0.00    -0.206 F 
ATOM     53  C   UNL A   1      50.710  26.542  27.850  1.00  0.00     0.040 A 
ATOM     54  C   UNL A   1      50.495  25.642  30.076  1.00  0.00     0.040 A 
ATOM     55  F   UNL A   1      48.429  25.754  31.190  1.00  0.00    -0.206 F 
ATOM     56  C   UNL A   1      51.275  25.897  28.949  1.00  0.00     0.006 A 
ENDBRANCH  28  49
BRANCH  40  57
ATOM     57  C   UNL A   1      45.007  32.417  30.608  1.00  0.00     0.057 A 
ATOM     58  C   UNL A   1      45.259  33.420  29.667  1.00  0.00     0.134 A 
ATOM     59  C   UNL A   1      45.204  32.721  31.959  1.00  0.00     0.134 A 
ATOM     60  F   UNL A   1      45.088  33.186  28.357  1.00  0.00    -0.206 F 
ATOM     61  C   UNL A   1      45.699  34.686  30.057  1.00  0.00     0.040 A 
ATOM     62  C   UNL A   1      45.632  33.986  32.362  1.00  0.00     0.040 A 
ATOM     63  F   UNL A   1      44.965  31.801  32.905  1.00  0.00    -0.206 F 
ATOM     64  C   UNL A   1      45.886  34.971  31.409  1.00  0.00     0.006 A 
ENDBRANCH  40  57
ENDBRANCH  14  15
ENDBRANCH   7   9
ENDBRANCH   4   5
ENDBRANCH   3   4
ENDBRANCH   2   3
ENDBRANCH   1   2
BRANCH   1  65
ATOM     65  C   UNL A   1      37.882  23.690  26.107  1.00  0.00     0.021 C 
BRANCH  65  66
ATOM     66  C   UNL A   1      36.358  23.656  25.974  1.00  0.00     0.116 C 
BRANCH  66  67
ATOM     67  N   UNL A   1      35.902  24.161  24.694  1.00  0.00    -0.352 N 
ATOM     68  C   UNL A   1      35.733  23.314  23.620  1.00  0.00     0.255 C 
ATOM     69  H   UNL A   1      35.712  25.121  24.590  1.00  0.00     0.163 HD
ATOM     70  O   UNL A   1      36.613  23.297  22.770  1.00  0.00    -0.269 OA
BRANCH  68  71
ATOM     71  C   UNL A   1      34.455  22.540  23.518  1.00  0.00     0.082 A 
ATOM     72  C   UNL A   1      34.254  21.418  24.346  1.00  0.00     0.033 A 
ATOM     73  C   UNL A   1      33.437  22.894  22.616  1.00  0.00     0.132 A 
ATOM     74  C   UNL A   1      33.118  20.619  24.208  1.00  0.00     0.019 A 
ATOM     75  C   UNL A   1      32.307  22.071  22.480  1.00  0.00     0.048 A 
ATOM     76  Br  UNL A   1      32.917  19.082  25.291  1.00  0.00    -0.051 Br
ATOM     77  C   UNL A   1      32.148  20.932  23.267  1.00  0.00     0.019 A 
BRANCH  73  78
ATOM     78  O   UNL A   1      33.456  23.939  21.739  1.00  0.00    -0.488 OA
BRANCH  78  79
ATOM     79  C   UNL A   1      32.607  25.076  21.978  1.00  0.00     0.268 C 
BRANCH  79  80
ATOM     80  C   UNL A   1      33.109  26.247  22.790  1.00  0.00     0.025 A 
ATOM     81  C   UNL A   1      33.550  27.424  22.166  1.00  0.00     0.010 A 
ATOM     82  C   UNL A   1      33.083  26.207  24.184  1.00  0.00     0.129 A 
ATOM     83  C   UNL A   1      33.969  28.521  22.922  1.00  0.00     0.001 A 
ATOM     84  C   UNL A   1      33.482  27.304  24.946  1.00  0.00     0.039 A 
ATOM     85  F   UNL A   1      32.636  25.112  24.815  1.00  0.00    -0.207 F 
ATOM     86  C   UNL A   1      33.931  28.463  24.314  1.00  0.00     0.003 A 
ENDBRANCH  79  80
ENDBRANCH  78  79
ENDBRANCH  73  78
ENDBRANCH  68  71
ENDBRANCH  66  67
ENDBRANCH  65  66
ENDBRANCH   1  65
TORSDOF 16
ENDMDL
MODEL 2
REMARK VINA RESULT:     -11.1      5.045      9.470
REMARK SMILES O=C(NCCCCCCNC(=O)c1cc(Br)ccc1OCc1ccccc1F)c1ccc(-c2c3nc(c(-c4c(F)cccc4F)c4ccc([nH]4)c(-c4c(F)cccc4F)c4nc(c(-c5c(F)cccc5F)c5ccc2[nH]5)C=C4)C=C3)cc1
REMARK SMILES IDX 7 1 6 2 5 3 4 4 3 5 1 6 2 7 29 9 30 10 82 11 31 12 81 13
REMARK SMILES IDX 32 14 33 15 34 16 75 17 35 18 80 19 74 20 76 21 36 22 79 23
REMARK SMILES IDX 73 24 72 25 37 27 63 28 46 29 62 30 47 31 50 32 61 33 77 34
REMARK SMILES IDX 48 35 49 36 60 38 78 39 51 40 38 41 39 42 44 43 40 44 41 45
REMARK SMILES IDX 43 46 45 47 42 48 64 49 65 50 70 51 66 52 67 53 69 54 71 55
REMARK SMILES IDX 68 56 52 57 53 58 58 59 54 60 55 61 57 62 59 63 56 64 8 65
REMARK SMILES IDX 9 66 10 67 11 68 12 70 13 71 14 72 19 73 15 74 18 75 16 76
REMARK SMILES IDX 17 77 20 78 21 79 22 80 23 81 27 82 24 83 26 84 28 85 25 86
REMARK H PARENT 3 8 76 26 50 37 10 69
REMARK Flexibility Score: inf
ROOT
ATOM      1  C   UNL A   1      32.519  29.638  26.726  1.00  0.00     0.002 C 
ENDROOT
BRANCH   1   2
ATOM      2  C   UNL A   1      31.524  30.513  25.960  1.00  0.00     0.002 C 
BRANCH   2   3
ATOM      3  C   UNL A   1      31.362  31.950  26.455  1.00  0.00     0.021 C 
BRANCH   3   4
ATOM      4  C   UNL A   1      32.566  32.530  27.182  1.00  0.00     0.116 C 
BRANCH   4   5
ATOM      5  N   UNL A   1      32.396  33.921  27.549  1.00  0.00    -0.352 N 
ATOM      6  O   UNL A   1      32.781  35.775  28.786  1.00  0.00    -0.269 OA
ATOM      7  C   UNL A   1      33.105  34.631  28.490  1.00  0.00     0.251 C 
ATOM      8  H   UNL A   1      31.691  34.415  27.072  1.00  0.00     0.163 HD
BRANCH   7   9
ATOM      9  C   UNL A   1      34.252  33.987  29.170  1.00  0.00     0.039 A 
ATOM     10  C   UNL A   1      34.050  33.001  30.143  1.00  0.00     0.014 A 
ATOM     11  C   UNL A   1      35.548  34.369  28.815  1.00  0.00     0.014 A 
ATOM     12  C   UNL A   1      35.141  32.456  30.814  1.00  0.00     0.010 A 
ATOM     13  C   UNL A   1      36.646  33.784  29.454  1.00  0.00     0.010 A 
ATOM     14  C   UNL A   1      36.448  32.830  30.462  1.00  0.00    -0.014 A 
BRANCH  14  15
ATOM     15  C   UNL A   1      37.599  32.130  31.079  1.00  0.00     0.031 A 
ATOM     16  C   UNL A   1      38.350  31.060  30.345  1.00  0.00     0.074 A 
ATOM     17  C   UNL A   1      37.965  32.483  32.325  1.00  0.00     0.049 A 
ATOM     18  N   UNL A   1      39.371  30.349  30.753  1.00  0.00    -0.248 NA
ATOM     19  C   UNL A   1      37.901  30.740  28.982  1.00  0.00     0.031 C 
ATOM     20  C   UNL A   1      37.301  33.504  33.139  1.00  0.00     0.029 A 
ATOM     21  N   UNL A   1      38.986  32.033  33.121  1.00  0.00    -0.354 N 
ATOM     22  C   UNL A   1      39.679  29.489  29.707  1.00  0.00     0.074 A 
ATOM     23  C   UNL A   1      38.732  29.761  28.646  1.00  0.00     0.031 C 
ATOM     24  C   UNL A   1      37.953  33.627  34.305  1.00  0.00     0.029 A 
ATOM     25  C   UNL A   1      39.050  32.665  34.337  1.00  0.00     0.049 A 
ATOM     26  H   UNL A   1      39.612  31.324  32.847  1.00  0.00     0.167 HD
ATOM     27  C   UNL A   1      40.665  28.564  29.643  1.00  0.00     0.037 A 
ATOM     28  C   UNL A   1      39.890  32.485  35.371  1.00  0.00     0.037 A 
ATOM     29  C   UNL A   1      41.617  28.308  30.692  1.00  0.00     0.049 A 
ATOM     30  C   UNL A   1      40.959  31.440  35.278  1.00  0.00     0.074 A 
ATOM     31  C   UNL A   1      42.678  27.419  30.694  1.00  0.00     0.029 A 
ATOM     32  N   UNL A   1      41.623  28.940  31.926  1.00  0.00    -0.354 N 
ATOM     33  N   UNL A   1      41.246  30.646  34.276  1.00  0.00    -0.248 NA
ATOM     34  C   UNL A   1      41.809  31.254  36.462  1.00  0.00     0.031 C 
ATOM     35  C   UNL A   1      43.311  27.494  31.941  1.00  0.00     0.029 A 
ATOM     36  C   UNL A   1      42.656  28.445  32.705  1.00  0.00     0.049 A 
ATOM     37  H   UNL A   1      40.987  29.637  32.207  1.00  0.00     0.167 HD
ATOM     38  C   UNL A   1      42.303  29.859  34.709  1.00  0.00     0.074 A 
ATOM     39  C   UNL A   1      42.622  30.287  36.057  1.00  0.00     0.031 C 
ATOM     40  C   UNL A   1      42.944  28.867  34.050  1.00  0.00     0.037 A 
BRANCH  27  41
ATOM     41  C   UNL A   1      40.769  27.744  28.396  1.00  0.00     0.057 A 
ATOM     42  C   UNL A   1      41.498  28.210  27.295  1.00  0.00     0.134 A 
ATOM     43  C   UNL A   1      40.079  26.534  28.255  1.00  0.00     0.134 A 
ATOM     44  F   UNL A   1      42.176  29.364  27.366  1.00  0.00    -0.206 F 
ATOM     45  C   UNL A   1      41.528  27.504  26.091  1.00  0.00     0.040 A 
ATOM     46  C   UNL A   1      40.110  25.815  27.061  1.00  0.00     0.040 A 
ATOM     47  F   UNL A   1      39.370  26.034  29.279  1.00  0.00    -0.206 F 
ATOM     48  C   UNL A   1      40.830  26.304  25.971  1.00  0.00     0.006 A 
ENDBRANCH  27  41
BRANCH  28  49
ATOM     49  C   UNL A   1      39.737  33.318  36.584  1.00  0.00     0.057 A 
ATOM     50  C   UNL A   1      38.865  32.949  37.614  1.00  0.00     0.134 A 
ATOM     51  C   UNL A   1      40.427  34.528  36.716  1.00  0.00     0.134 A 
ATOM     52  F   UNL A   1      38.174  31.802  37.537  1.00  0.00    -0.206 F 
ATOM     53  C   UNL A   1      38.671  33.763  38.731  1.00  0.00     0.040 A 
ATOM     54  C   UNL A   1      40.254  35.344  37.833  1.00  0.00     0.040 A 
ATOM     55  F   UNL A   1      41.284  34.923  35.764  1.00  0.00    -0.206 F 
ATOM     56  C   UNL A   1      39.367  34.965  38.841  1.00  0.00     0.006 A 
ENDBRANCH  28  49
BRANCH  40  57
ATOM     57  C   UNL A   1      44.041  28.164  34.785  1.00  0.00     0.057 A 
ATOM     58  C   UNL A   1      45.350  28.657  34.769  1.00  0.00     0.134 A 
ATOM     59  C   UNL A   1      43.797  26.975  35.481  1.00  0.00     0.134 A 
ATOM     60  F   UNL A   1      45.643  29.792  34.118  1.00  0.00    -0.206 F 
ATOM     61  C   UNL A   1      46.386  27.985  35.420  1.00  0.00     0.040 A 
ATOM     62  C   UNL A   1      44.822  26.300  36.145  1.00  0.00     0.040 A 
ATOM     63  F   UNL A   1      42.559  26.463  35.540  1.00  0.00    -0.206 F 
ATOM     64  C   UNL A   1      46.122  26.804  36.111  1.00  0.00     0.006 A 
ENDBRANCH  40  57
ENDBRANCH  14  15
ENDBRANCH   7   9
ENDBRANCH   4   5
ENDBRANCH   3   4
ENDBRANCH   2   3
ENDBRANCH   1   2
BRANCH   1  65
ATOM     65  C   UNL A   1      32.996  28.355  26.030  1.00  0.00     0.021 C 
BRANCH  65  66
ATOM     66  C   UNL A   1      33.872  28.546  24.790  1.00  0.00     0.116 C 
BRANCH  66  67
ATOM     67  N   UNL A   1      33.105  28.510  23.561  1.00  0.00    -0.352 N 
ATOM     68  C   UNL A   1      33.144  27.406  22.737  1.00  0.00     0.255 C 
ATOM     69  H   UNL A   1      32.550  29.283  23.310  1.00  0.00     0.163 HD
ATOM     70  O   UNL A   1      33.853  27.468  21.742  1.00  0.00    -0.269 OA
BRANCH  68  71
ATOM     71  C   UNL A   1      32.258  26.242  23.062  1.00  0.00     0.082 A 
ATOM     72  C   UNL A   1      32.735  24.931  22.870  1.00  0.00     0.033 A 
ATOM     73  C   UNL A   1      30.954  26.412  23.556  1.00  0.00     0.132 A 
ATOM     74  C   UNL A   1      31.903  23.828  23.071  1.00  0.00     0.019 A 
ATOM     75  C   UNL A   1      30.125  25.293  23.739  1.00  0.00     0.048 A 
ATOM     76  Br  UNL A   1      32.560  22.087  22.738  1.00  0.00    -0.051 Br
ATOM     77  C   UNL A   1      30.593  24.003  23.491  1.00  0.00     0.019 A 
BRANCH  73  78
ATOM     78  O   UNL A   1      30.325  27.598  23.799  1.00  0.00    -0.488 OA
BRANCH  78  79
ATOM     79  C   UNL A   1      29.217  27.991  22.970  1.00  0.00     0.268 C 
BRANCH  79  80
ATOM     80  C   UNL A   1      28.803  29.442  22.886  1.00  0.00     0.025 A 
ATOM     81  C   UNL A   1      27.726  29.932  23.641  1.00  0.00     0.010 A 
ATOM     82  C   UNL A   1      29.527  30.342  22.103  1.00  0.00     0.129 A 
ATOM     83  C   UNL A   1      27.376  31.283  23.595  1.00  0.00     0.001 A 
ATOM     84  C   UNL A   1      29.195  31.696  22.067  1.00  0.00     0.039 A 
ATOM     85  F   UNL A   1      30.582  29.917  21.396  1.00  0.00    -0.207 F 
ATOM     86  C   UNL A   1      28.115  32.168  22.811  1.00  0.00     0.003 A 
ENDBRANCH  79  80
ENDBRANCH  78  79
ENDBRANCH  73  78
ENDBRANCH  68  71
ENDBRANCH  66  67
ENDBRANCH  65  66
ENDBRANCH   1  65
TORSDOF 16
ENDMDL
MODEL 3
REMARK VINA RESULT:     -11.1      3.022      7.548
REMARK SMILES O=C(NCCCCCCNC(=O)c1cc(Br)ccc1OCc1ccccc1F)c1ccc(-c2c3nc(c(-c4c(F)cccc4F)c4ccc([nH]4)c(-c4c(F)cccc4F)c4nc(c(-c5c(F)cccc5F)c5ccc2[nH]5)C=C4)C=C3)cc1
REMARK SMILES IDX 7 1 6 2 5 3 4 4 3 5 1 6 2 7 29 9 30 10 82 11 31 12 81 13
REMARK SMILES IDX 32 14 33 15 34 16 75 17 35 18 80 19 74 20 76 21 36 22 79 23
REMARK SMILES IDX 73 24 72 25 37 27 63 28 46 29 62 30 47 31 50 32 61 33 77 34
REMARK SMILES IDX 48 35 49 36 60 38 78 39 51 40 38 41 39 42 44 43 40 44 41 45
REMARK SMILES IDX 43 46 45 47 42 48 64 49 65 50 70 51 66 52 67 53 69 54 71 55
REMARK SMILES IDX 68 56 52 57 53 58 58 59 54 60 55 61 57 62 59 63 56 64 8 65
REMARK SMILES IDX 9 66 10 67 11 68 12 70 13 71 14 72 19 73 15 74 18 75 16 76
REMARK SMILES IDX 17 77 20 78 21 79 22 80 23 81 27 82 24 83 26 84 28 85 25 86
REMARK H PARENT 3 8 76 26 50 37 10 69
REMARK Flexibility Score: inf
ROOT
ATOM      1  C   UNL A   1      32.994  29.339  24.425  1.00  0.00     0.002 C 
ENDROOT
BRANCH   1   2
ATOM      2  C   UNL A   1      32.092  28.918  25.588  1.00  0.00     0.002 C 
BRANCH   2   3
ATOM      3  C   UNL A   1      32.732  28.029  26.655  1.00  0.00     0.021 C 
BRANCH   3   4
ATOM      4  C   UNL A   1      33.962  28.609  27.336  1.00  0.00     0.116 C 
BRANCH   4   5
ATOM      5  N   UNL A   1      33.770  29.968  27.800  1.00  0.00    -0.352 N 
ATOM      6  O   UNL A   1      34.362  31.869  28.872  1.00  0.00    -0.269 OA
ATOM      7  C   UNL A   1      34.690  30.777  28.425  1.00  0.00     0.251 C 
ATOM      8  H   UNL A   1      32.878  30.357  27.652  1.00  0.00     0.163 HD
BRANCH   7   9
ATOM      9  C   UNL A   1      36.084  30.301  28.583  1.00  0.00     0.039 A 
ATOM     10  C   UNL A   1      37.006  30.417  27.538  1.00  0.00     0.014 A 
ATOM     11  C   UNL A   1      36.472  29.744  29.805  1.00  0.00     0.014 A 
ATOM     12  C   UNL A   1      38.292  29.905  27.688  1.00  0.00     0.010 A 
ATOM     13  C   UNL A   1      37.778  29.275  29.972  1.00  0.00     0.010 A 
ATOM     14  C   UNL A   1      38.694  29.346  28.912  1.00  0.00    -0.014 A 
BRANCH  14  15
ATOM     15  C   UNL A   1      40.107  28.947  29.103  1.00  0.00     0.031 A 
ATOM     16  C   UNL A   1      41.099  29.861  29.757  1.00  0.00     0.074 A 
ATOM     17  C   UNL A   1      40.487  27.727  28.678  1.00  0.00     0.049 A 
ATOM     18  N   UNL A   1      42.372  29.659  29.987  1.00  0.00    -0.248 NA
ATOM     19  C   UNL A   1      40.606  31.170  30.210  1.00  0.00     0.031 C 
ATOM     20  C   UNL A   1      39.610  26.757  28.018  1.00  0.00     0.029 A 
ATOM     21  N   UNL A   1      41.699  27.092  28.743  1.00  0.00    -0.354 N 
ATOM     22  C   UNL A   1      42.837  30.816  30.597  1.00  0.00     0.074 A 
ATOM     23  C   UNL A   1      41.712  31.722  30.696  1.00  0.00     0.031 C 
ATOM     24  C   UNL A   1      40.305  25.636  27.771  1.00  0.00     0.029 A 
ATOM     25  C   UNL A   1      41.682  25.826  28.214  1.00  0.00     0.049 A 
ATOM     26  H   UNL A   1      42.505  27.504  29.132  1.00  0.00     0.167 HD
ATOM     27  C   UNL A   1      44.089  31.090  31.035  1.00  0.00     0.037 A 
ATOM     28  C   UNL A   1      42.667  24.919  28.087  1.00  0.00     0.037 A 
ATOM     29  C   UNL A   1      45.202  30.182  30.953  1.00  0.00     0.049 A 
ATOM     30  C   UNL A   1      44.045  25.259  28.564  1.00  0.00     0.074 A 
ATOM     31  C   UNL A   1      46.495  30.360  31.413  1.00  0.00     0.029 A 
ATOM     32  N   UNL A   1      45.155  28.924  30.371  1.00  0.00    -0.354 N 
ATOM     33  N   UNL A   1      44.465  26.352  29.151  1.00  0.00    -0.248 NA
ATOM     34  C   UNL A   1      45.090  24.249  28.346  1.00  0.00     0.031 C 
ATOM     35  C   UNL A   1      47.239  29.220  31.086  1.00  0.00     0.029 A 
ATOM     36  C   UNL A   1      46.401  28.324  30.442  1.00  0.00     0.049 A 
ATOM     37  H   UNL A   1      44.354  28.518  29.968  1.00  0.00     0.167 HD
ATOM     38  C   UNL A   1      45.823  26.168  29.366  1.00  0.00     0.074 A 
ATOM     39  C   UNL A   1      46.152  24.847  28.867  1.00  0.00     0.031 C 
ATOM     40  C   UNL A   1      46.715  27.020  29.921  1.00  0.00     0.037 A 
BRANCH  27  41
ATOM     41  C   UNL A   1      44.334  32.436  31.643  1.00  0.00     0.057 A 
ATOM     42  C   UNL A   1      44.830  33.490  30.866  1.00  0.00     0.134 A 
ATOM     43  C   UNL A   1      44.159  32.662  33.013  1.00  0.00     0.134 A 
ATOM     44  F   UNL A   1      45.023  33.332  29.549  1.00  0.00    -0.206 F 
ATOM     45  C   UNL A   1      45.155  34.723  31.435  1.00  0.00     0.040 A 
ATOM     46  C   UNL A   1      44.470  33.893  33.591  1.00  0.00     0.040 A 
ATOM     47  F   UNL A   1      43.680  31.692  33.806  1.00  0.00    -0.206 F 
ATOM     48  C   UNL A   1      44.977  34.925  32.802  1.00  0.00     0.006 A 
ENDBRANCH  27  41
BRANCH  28  49
ATOM     49  C   UNL A   1      42.371  23.607  27.471  1.00  0.00     0.057 A 
ATOM     50  C   UNL A   1      42.085  22.485  28.256  1.00  0.00     0.134 A 
ATOM     51  C   UNL A   1      42.414  23.439  26.084  1.00  0.00     0.134 A 
ATOM     52  F   UNL A   1      42.037  22.588  29.592  1.00  0.00    -0.206 F 
ATOM     53  C   UNL A   1      41.867  21.232  27.682  1.00  0.00     0.040 A 
ATOM     54  C   UNL A   1      42.183  22.196  25.496  1.00  0.00     0.040 A 
ATOM     55  F   UNL A   1      42.672  24.485  25.285  1.00  0.00    -0.206 F 
ATOM     56  C   UNL A   1      41.916  21.086  26.297  1.00  0.00     0.006 A 
ENDBRANCH  28  49
BRANCH  40  57
ATOM     57  C   UNL A   1      48.136  26.558  29.998  1.00  0.00     0.057 A 
ATOM     58  C   UNL A   1      49.036  26.826  28.961  1.00  0.00     0.134 A 
ATOM     59  C   UNL A   1      48.596  25.815  31.090  1.00  0.00     0.134 A 
ATOM     60  F   UNL A   1      48.651  27.532  27.888  1.00  0.00    -0.206 F 
ATOM     61  C   UNL A   1      50.352  26.363  29.007  1.00  0.00     0.040 A 
ATOM     62  C   UNL A   1      49.913  25.358  31.153  1.00  0.00     0.040 A 
ATOM     63  F   UNL A   1      47.779  25.540  32.118  1.00  0.00    -0.206 F 
ATOM     64  C   UNL A   1      50.793  25.628  30.106  1.00  0.00     0.006 A 
ENDBRANCH  40  57
ENDBRANCH  14  15
ENDBRANCH   7   9
ENDBRANCH   4   5
ENDBRANCH   3   4
ENDBRANCH   2   3
ENDBRANCH   1   2
BRANCH   1  65
ATOM     65  C   UNL A   1      33.977  28.287  23.890  1.00  0.00     0.021 C 
BRANCH  65  66
ATOM     66  C   UNL A   1      34.282  28.349  22.393  1.00  0.00     0.116 C 
BRANCH  66  67
ATOM     67  N   UNL A   1      33.226  27.769  21.587  1.00  0.00    -0.352 N 
ATOM     68  C   UNL A   1      32.828  26.464  21.778  1.00  0.00     0.255 C 
ATOM     69  H   UNL A   1      32.787  28.314  20.895  1.00  0.00     0.163 HD
ATOM     70  O   UNL A   1      33.245  25.625  20.992  1.00  0.00    -0.269 OA
BRANCH  68  71
ATOM     71  C   UNL A   1      31.850  26.170  22.874  1.00  0.00     0.082 A 
ATOM     72  C   UNL A   1      32.107  25.115  23.771  1.00  0.00     0.033 A 
ATOM     73  C   UNL A   1      30.671  26.916  23.043  1.00  0.00     0.132 A 
ATOM     74  C   UNL A   1      31.171  24.754  24.742  1.00  0.00     0.019 A 
ATOM     75  C   UNL A   1      29.733  26.530  24.015  1.00  0.00     0.048 A 
ATOM     76  Br  UNL A   1      31.524  23.288  25.882  1.00  0.00    -0.051 Br
ATOM     77  C   UNL A   1      29.976  25.448  24.859  1.00  0.00     0.019 A 
BRANCH  73  78
ATOM     78  O   UNL A   1      30.255  27.963  22.274  1.00  0.00    -0.488 OA
BRANCH  78  79
ATOM     79  C   UNL A   1      28.979  28.572  22.541  1.00  0.00     0.268 C 
BRANCH  79  80
ATOM     80  C   UNL A   1      28.853  30.074  22.631  1.00  0.00     0.025 A 
ATOM     81  C   UNL A   1      29.380  30.781  23.724  1.00  0.00     0.010 A 
ATOM     82  C   UNL A   1      28.265  30.801  21.595  1.00  0.00     0.129 A 
ATOM     83  C   UNL A   1      29.302  32.174  23.781  1.00  0.00     0.001 A 
ATOM     84  C   UNL A   1      28.200  32.193  21.636  1.00  0.00     0.039 A 
ATOM     85  F   UNL A   1      27.781  30.163  20.521  1.00  0.00    -0.207 F 
ATOM     86  C   UNL A   1      28.716  32.882  22.733  1.00  0.00     0.003 A 
ENDBRANCH  79  80
ENDBRANCH  78  79
ENDBRANCH  73  78
ENDBRANCH  68  71
ENDBRANCH  66  67
ENDBRANCH  65  66
ENDBRANCH   1  65
TORSDOF 16
ENDMDL
