MODEL 1
REMARK VINA RESULT:     -11.4      0.000      0.000
REMARK SMILES C/C(=C/c1cccc(OCC(=O)NCCCCCCNC(=O)c2ccc(-c3c4nc(c(-c5c(F)cccc5F)c5ccc([nH]5)c(-c5c(F)cccc5F)c5nc(c(-c6c(F)cccc6F)c6ccc3[nH]6)C=C5)C=C4)cc2)c1)c1nc2sccc2c(=O)[nH]1
REMARK SMILES IDX 15 1 14 2 13 3 11 4 12 5 10 7 9 8 8 9 4 10 5 11 77 12 6 13
REMARK SMILES IDX 7 14 3 15 1 16 2 17 78 18 79 19 87 20 80 21 85 22 81 24
REMARK SMILES IDX 84 25 86 26 82 27 83 28 16 29 17 30 18 31 19 32 20 33 21 34
REMARK SMILES IDX 22 36 23 37 24 38 76 39 25 40 75 41 26 42 27 43 28 44 69 45
REMARK SMILES IDX 29 46 74 47 68 48 70 49 30 50 73 51 67 52 66 53 31 55 57 56
REMARK SMILES IDX 40 57 56 58 41 59 44 60 55 61 71 62 42 63 43 64 54 66 72 67
REMARK SMILES IDX 45 68 32 69 33 70 38 71 34 72 35 73 37 74 39 75 36 76 58 77
REMARK SMILES IDX 59 78 64 79 60 80 61 81 63 82 65 83 62 84 46 85 47 86 52 87
REMARK SMILES IDX 48 88 49 89 51 90 53 91 50 92
REMARK H PARENT 13 6 87 23 20 35 70 54 44 65
REMARK Flexibility Score: inf
ROOT
ATOM      1  C   UNL A   1      35.816  32.535  28.115  1.00  0.00     0.021 C 
ENDROOT
BRANCH   1   2
ATOM      2  C   UNL A   1      34.834  31.394  28.385  1.00  0.00     0.116 C 
BRANCH   2   3
ATOM      3  N   UNL A   1      33.567  31.532  27.697  1.00  0.00    -0.353 N 
ATOM      4  C   UNL A   1      32.958  30.639  26.863  1.00  0.00     0.257 C 
ATOM      5  O   UNL A   1      31.777  30.809  26.563  1.00  0.00    -0.271 OA
ATOM      6  H   UNL A   1      33.083  32.377  27.850  1.00  0.00     0.163 HD
BRANCH   4   7
ATOM      7  C   UNL A   1      33.721  29.412  26.361  1.00  0.00     0.329 C 
BRANCH   7   8
ATOM      8  O   UNL A   1      33.197  28.147  26.729  1.00  0.00    -0.484 OA
BRANCH   8   9
ATOM      9  C   UNL A   1      32.372  27.501  25.852  1.00  0.00     0.120 A 
ATOM     10  C   UNL A   1      31.623  26.637  23.709  1.00  0.00    -0.022 A 
ATOM     11  C   UNL A   1      30.485  26.102  24.325  1.00  0.00     0.008 A 
ATOM     12  C   UNL A   1      32.560  27.348  24.478  1.00  0.00     0.054 A 
ATOM     13  C   UNL A   1      30.295  26.254  25.697  1.00  0.00     0.004 A 
ATOM     14  C   UNL A   1      31.237  26.948  26.453  1.00  0.00     0.046 A 
BRANCH  10  15
ATOM     15  C   UNL A   1      31.780  26.470  22.257  1.00  0.00     0.015 C 
ATOM     16  C   UNL A   1      32.608  25.431  20.136  1.00  0.00     0.048 C 
ATOM     17  C   UNL A   1      32.445  25.486  21.624  1.00  0.00    -0.008 C 
BRANCH  17  18
ATOM     18  C   UNL A   1      33.108  24.377  22.363  1.00  0.00     0.137 A 
ATOM     19  N   UNL A   1      34.343  24.458  22.751  1.00  0.00    -0.219 NA
ATOM     20  N   UNL A   1      32.305  23.273  22.554  1.00  0.00    -0.306 N 
ATOM     21  C   UNL A   1      34.787  23.376  23.444  1.00  0.00     0.131 A 
ATOM     22  C   UNL A   1      32.724  22.134  23.204  1.00  0.00     0.259 A 
ATOM     23  H   UNL A   1      31.384  23.300  22.207  1.00  0.00     0.171 HD
ATOM     24  S   UNL A   1      36.351  23.318  24.128  1.00  0.00    -0.124 S 
ATOM     25  C   UNL A   1      34.078  22.225  23.707  1.00  0.00     0.077 A 
ATOM     26  O   UNL A   1      32.007  21.155  23.340  1.00  0.00    -0.269 OA
ATOM     27  C   UNL A   1      36.066  21.772  24.811  1.00  0.00     0.068 A 
ATOM     28  C   UNL A   1      34.822  21.284  24.478  1.00  0.00     0.028 A 
ENDBRANCH  17  18
ENDBRANCH  10  15
ENDBRANCH   8   9
ENDBRANCH   7   8
ENDBRANCH   4   7
ENDBRANCH   2   3
ENDBRANCH   1   2
BRANCH   1  29
ATOM     29  C   UNL A   1      35.532  33.855  28.836  1.00  0.00     0.002 C 
BRANCH  29  30
ATOM     30  C   UNL A   1      34.827  34.948  28.030  1.00  0.00     0.002 C 
BRANCH  30  31
ATOM     31  C   UNL A   1      33.755  35.736  28.783  1.00  0.00     0.021 C 
BRANCH  31  32
ATOM     32  C   UNL A   1      32.962  34.935  29.809  1.00  0.00     0.116 C 
BRANCH  32  33
ATOM     33  N   UNL A   1      32.371  35.759  30.852  1.00  0.00    -0.352 N 
ATOM     34  C   UNL A   1      32.742  35.877  32.171  1.00  0.00     0.251 C 
ATOM     35  H   UNL A   1      31.600  36.305  30.577  1.00  0.00     0.163 HD
ATOM     36  O   UNL A   1      32.066  36.539  32.952  1.00  0.00    -0.269 OA
BRANCH  34  37
ATOM     37  C   UNL A   1      33.947  35.169  32.659  1.00  0.00     0.039 A 
ATOM     38  C   UNL A   1      33.800  33.899  33.224  1.00  0.00     0.014 A 
ATOM     39  C   UNL A   1      35.215  35.741  32.538  1.00  0.00     0.014 A 
ATOM     40  C   UNL A   1      34.934  33.171  33.595  1.00  0.00     0.010 A 
ATOM     41  C   UNL A   1      36.346  34.989  32.840  1.00  0.00     0.010 A 
ATOM     42  C   UNL A   1      36.217  33.696  33.369  1.00  0.00    -0.014 A 
BRANCH  42  43
ATOM     43  C   UNL A   1      37.436  32.904  33.670  1.00  0.00     0.031 A 
ATOM     44  C   UNL A   1      38.218  33.166  34.928  1.00  0.00     0.074 A 
ATOM     45  C   UNL A   1      37.884  32.001  32.775  1.00  0.00     0.049 A 
ATOM     46  N   UNL A   1      39.344  32.634  35.329  1.00  0.00    -0.248 NA
ATOM     47  C   UNL A   1      37.676  34.186  35.841  1.00  0.00     0.031 C 
ATOM     48  C   UNL A   1      37.251  31.694  31.492  1.00  0.00     0.029 A 
ATOM     49  N   UNL A   1      38.985  31.182  32.806  1.00  0.00    -0.354 N 
ATOM     50  C   UNL A   1      39.654  33.265  36.526  1.00  0.00     0.074 A 
ATOM     51  C   UNL A   1      38.625  34.255  36.762  1.00  0.00     0.031 C 
ATOM     52  C   UNL A   1      37.960  30.739  30.869  1.00  0.00     0.029 A 
ATOM     53  C   UNL A   1      39.112  30.388  31.692  1.00  0.00     0.049 A 
ATOM     54  H   UNL A   1      39.623  31.165  33.555  1.00  0.00     0.167 HD
ATOM     55  C   UNL A   1      40.689  33.026  37.366  1.00  0.00     0.037 A 
ATOM     56  C   UNL A   1      40.053  29.480  31.371  1.00  0.00     0.037 A 
ATOM     57  C   UNL A   1      41.692  32.017  37.150  1.00  0.00     0.049 A 
ATOM     58  C   UNL A   1      41.179  29.215  32.331  1.00  0.00     0.074 A 
ATOM     59  C   UNL A   1      42.742  31.653  37.974  1.00  0.00     0.029 A 
ATOM     60  N   UNL A   1      41.767  31.209  36.026  1.00  0.00    -0.354 N 
ATOM     61  N   UNL A   1      41.423  29.773  33.492  1.00  0.00    -0.248 NA
ATOM     62  C   UNL A   1      42.158  28.191  31.939  1.00  0.00     0.031 C 
ATOM     63  C   UNL A   1      43.472  30.644  37.333  1.00  0.00     0.029 A 
ATOM     64  C   UNL A   1      42.852  30.356  36.128  1.00  0.00     0.049 A 
ATOM     65  H   UNL A   1      41.140  31.236  35.267  1.00  0.00     0.167 HD
ATOM     66  C   UNL A   1      42.563  29.150  33.981  1.00  0.00     0.074 A 
ATOM     67  C   UNL A   1      42.956  28.164  32.997  1.00  0.00     0.031 C 
ATOM     68  C   UNL A   1      43.225  29.374  35.142  1.00  0.00     0.037 A 
BRANCH  55  69
ATOM     69  C   UNL A   1      40.779  33.867  38.605  1.00  0.00     0.057 A 
ATOM     70  C   UNL A   1      40.078  33.536  39.773  1.00  0.00     0.134 A 
ATOM     71  C   UNL A   1      41.592  35.005  38.642  1.00  0.00     0.134 A 
ATOM     72  F   UNL A   1      39.271  32.464  39.800  1.00  0.00    -0.206 F 
ATOM     73  C   UNL A   1      40.161  34.322  40.923  1.00  0.00     0.040 A 
ATOM     74  C   UNL A   1      41.704  35.787  39.794  1.00  0.00     0.040 A 
ATOM     75  F   UNL A   1      42.296  35.376  37.560  1.00  0.00    -0.206 F 
ATOM     76  C   UNL A   1      40.981  35.450  40.936  1.00  0.00     0.006 A 
ENDBRANCH  55  69
BRANCH  56  77
ATOM     77  C   UNL A   1      39.953  28.724  30.097  1.00  0.00     0.057 A 
ATOM     78  C   UNL A   1      39.227  27.531  30.024  1.00  0.00     0.134 A 
ATOM     79  C   UNL A   1      40.582  29.171  28.929  1.00  0.00     0.134 A 
ATOM     80  F   UNL A   1      38.619  27.044  31.117  1.00  0.00    -0.206 F 
ATOM     81  C   UNL A   1      39.143  26.797  28.841  1.00  0.00     0.040 A 
ATOM     82  C   UNL A   1      40.487  28.458  27.732  1.00  0.00     0.040 A 
ATOM     83  F   UNL A   1      41.286  30.312  28.932  1.00  0.00    -0.206 F 
ATOM     84  C   UNL A   1      39.771  27.263  27.688  1.00  0.00     0.006 A 
ENDBRANCH  56  77
BRANCH  68  85
ATOM     85  C   UNL A   1      44.422  28.518  35.424  1.00  0.00     0.057 A 
ATOM     86  C   UNL A   1      44.311  27.287  36.082  1.00  0.00     0.134 A 
ATOM     87  C   UNL A   1      45.697  28.912  34.998  1.00  0.00     0.134 A 
ATOM     88  F   UNL A   1      43.119  26.859  36.527  1.00  0.00    -0.206 F 
ATOM     89  C   UNL A   1      45.429  26.487  36.325  1.00  0.00     0.040 A 
ATOM     90  C   UNL A   1      46.818  28.111  35.213  1.00  0.00     0.040 A 
ATOM     91  F   UNL A   1      45.870  30.077  34.354  1.00  0.00    -0.206 F 
ATOM     92  C   UNL A   1      46.686  26.896  35.884  1.00  0.00     0.006 A 
ENDBRANCH  68  85
ENDBRANCH  42  43
ENDBRANCH  34  37
ENDBRANCH  32  33
ENDBRANCH  31  32
ENDBRANCH  30  31
ENDBRANCH  29  30
ENDBRANCH   1  29
TORSDOF 17
ENDMDL
MODEL 2
REMARK VINA RESULT:     -11.0      0.972      6.123
REMARK SMILES C/C(=C/c1cccc(OCC(=O)NCCCCCCNC(=O)c2ccc(-c3c4nc(c(-c5c(F)cccc5F)c5ccc([nH]5)c(-c5c(F)cccc5F)c5nc(c(-c6c(F)cccc6F)c6ccc3[nH]6)C=C5)C=C4)cc2)c1)c1nc2sccc2c(=O)[nH]1
REMARK SMILES IDX 15 1 14 2 13 3 11 4 12 5 10 7 9 8 8 9 4 10 5 11 77 12 6 13
REMARK SMILES IDX 7 14 3 15 1 16 2 17 78 18 79 19 87 20 80 21 85 22 81 24
REMARK SMILES IDX 84 25 86 26 82 27 83 28 16 29 17 30 18 31 19 32 20 33 21 34
REMARK SMILES IDX 22 36 23 37 24 38 76 39 25 40 75 41 26 42 27 43 28 44 69 45
REMARK SMILES IDX 29 46 74 47 68 48 70 49 30 50 73 51 67 52 66 53 31 55 57 56
REMARK SMILES IDX 40 57 56 58 41 59 44 60 55 61 71 62 42 63 43 64 54 66 72 67
REMARK SMILES IDX 45 68 32 69 33 70 38 71 34 72 35 73 37 74 39 75 36 76 58 77
REMARK SMILES IDX 59 78 64 79 60 80 61 81 63 82 65 83 62 84 46 85 47 86 52 87
REMARK SMILES IDX 48 88 49 89 51 90 53 91 50 92
REMARK H PARENT 13 6 87 23 20 35 70 54 44 65
REMARK Flexibility Score: inf
ROOT
ATOM      1  C   UNL A   1      35.967  32.082  28.031  1.00  0.00     0.021 C 
ENDROOT
BRANCH   1   2
ATOM      2  C   UNL A   1      35.038  30.870  28.106  1.00  0.00     0.116 C 
BRANCH   2   3
ATOM      3  N   UNL A   1      33.661  31.159  27.763  1.00  0.00    -0.353 N 
ATOM      4  C   UNL A   1      32.853  30.494  26.885  1.00  0.00     0.257 C 
ATOM      5  O   UNL A   1      31.643  30.719  26.898  1.00  0.00    -0.271 OA
ATOM      6  H   UNL A   1      33.257  31.933  28.219  1.00  0.00     0.163 HD
BRANCH   4   7
ATOM      7  C   UNL A   1      33.440  29.441  25.945  1.00  0.00     0.329 C 
BRANCH   7   8
ATOM      8  O   UNL A   1      32.844  29.336  24.663  1.00  0.00    -0.484 OA
BRANCH   8   9
ATOM      9  C   UNL A   1      31.921  28.351  24.449  1.00  0.00     0.120 A 
ATOM     10  C   UNL A   1      30.598  26.378  24.957  1.00  0.00    -0.022 A 
ATOM     11  C   UNL A   1      29.965  26.485  23.714  1.00  0.00     0.008 A 
ATOM     12  C   UNL A   1      31.588  27.309  25.317  1.00  0.00     0.054 A 
ATOM     13  C   UNL A   1      30.297  27.524  22.847  1.00  0.00     0.004 A 
ATOM     14  C   UNL A   1      31.269  28.451  23.217  1.00  0.00     0.046 A 
BRANCH  10  15
ATOM     15  C   UNL A   1      30.233  25.259  25.838  1.00  0.00     0.015 C 
ATOM     16  C   UNL A   1      30.423  22.989  26.875  1.00  0.00     0.048 C 
ATOM     17  C   UNL A   1      30.907  24.106  26.001  1.00  0.00    -0.008 C 
BRANCH  17  18
ATOM     18  C   UNL A   1      32.185  23.830  25.289  1.00  0.00     0.137 A 
ATOM     19  N   UNL A   1      33.336  24.038  25.847  1.00  0.00    -0.219 NA
ATOM     20  N   UNL A   1      32.018  23.378  23.997  1.00  0.00    -0.306 N 
ATOM     21  C   UNL A   1      34.404  23.703  25.076  1.00  0.00     0.131 A 
ATOM     22  C   UNL A   1      33.067  23.073  23.160  1.00  0.00     0.259 A 
ATOM     23  H   UNL A   1      31.102  23.267  23.655  1.00  0.00     0.171 HD
ATOM     24  S   UNL A   1      36.008  23.807  25.655  1.00  0.00    -0.124 S 
ATOM     25  C   UNL A   1      34.364  23.232  23.782  1.00  0.00     0.077 A 
ATOM     26  O   UNL A   1      32.901  22.699  22.009  1.00  0.00    -0.269 OA
ATOM     27  C   UNL A   1      36.646  23.184  24.191  1.00  0.00     0.068 A 
ATOM     28  C   UNL A   1      35.660  22.953  23.257  1.00  0.00     0.028 A 
ENDBRANCH  17  18
ENDBRANCH  10  15
ENDBRANCH   8   9
ENDBRANCH   7   8
ENDBRANCH   4   7
ENDBRANCH   2   3
ENDBRANCH   1   2
BRANCH   1  29
ATOM     29  C   UNL A   1      35.579  33.283  28.897  1.00  0.00     0.002 C 
BRANCH  29  30
ATOM     30  C   UNL A   1      35.246  34.586  28.166  1.00  0.00     0.002 C 
BRANCH  30  31
ATOM     31  C   UNL A   1      34.053  35.366  28.718  1.00  0.00     0.021 C 
BRANCH  31  32
ATOM     32  C   UNL A   1      33.138  34.578  29.648  1.00  0.00     0.116 C 
BRANCH  32  33
ATOM     33  N   UNL A   1      32.465  35.408  30.635  1.00  0.00    -0.352 N 
ATOM     34  C   UNL A   1      32.784  35.604  31.959  1.00  0.00     0.251 C 
ATOM     35  H   UNL A   1      31.674  35.896  30.312  1.00  0.00     0.163 HD
ATOM     36  O   UNL A   1      32.045  36.257  32.688  1.00  0.00    -0.269 OA
BRANCH  34  37
ATOM     37  C   UNL A   1      34.010  34.988  32.515  1.00  0.00     0.039 A 
ATOM     38  C   UNL A   1      33.917  33.738  33.132  1.00  0.00     0.014 A 
ATOM     39  C   UNL A   1      35.247  35.628  32.408  1.00  0.00     0.014 A 
ATOM     40  C   UNL A   1      35.077  33.094  33.571  1.00  0.00     0.010 A 
ATOM     41  C   UNL A   1      36.408  34.957  32.779  1.00  0.00     0.010 A 
ATOM     42  C   UNL A   1      36.336  33.682  33.361  1.00  0.00    -0.014 A 
BRANCH  42  43
ATOM     43  C   UNL A   1      37.587  32.976  33.734  1.00  0.00     0.031 A 
ATOM     44  C   UNL A   1      38.152  31.911  32.835  1.00  0.00     0.074 A 
ATOM     45  C   UNL A   1      38.175  33.239  34.918  1.00  0.00     0.049 A 
ATOM     46  N   UNL A   1      39.189  31.134  33.022  1.00  0.00    -0.248 NA
ATOM     47  C   UNL A   1      37.437  31.666  31.572  1.00  0.00     0.031 C 
ATOM     48  C   UNL A   1      37.695  34.207  35.906  1.00  0.00     0.029 A 
ATOM     49  N   UNL A   1      39.299  32.706  35.496  1.00  0.00    -0.354 N 
ATOM     50  C   UNL A   1      39.238  30.299  31.914  1.00  0.00     0.074 A 
ATOM     51  C   UNL A   1      38.100  30.629  31.084  1.00  0.00     0.031 C 
ATOM     52  C   UNL A   1      38.531  34.215  36.956  1.00  0.00     0.029 A 
ATOM     53  C   UNL A   1      39.588  33.234  36.731  1.00  0.00     0.049 A 
ATOM     54  H   UNL A   1      39.848  32.011  35.067  1.00  0.00     0.167 HD
ATOM     55  C   UNL A   1      40.162  29.359  31.604  1.00  0.00     0.037 A 
ATOM     56  C   UNL A   1      40.590  32.957  37.586  1.00  0.00     0.037 A 
ATOM     57  C   UNL A   1      41.313  29.055  32.412  1.00  0.00     0.049 A 
ATOM     58  C   UNL A   1      41.616  31.925  37.208  1.00  0.00     0.074 A 
ATOM     59  C   UNL A   1      42.341  28.167  32.152  1.00  0.00     0.029 A 
ATOM     60  N   UNL A   1      41.589  29.637  33.640  1.00  0.00    -0.354 N 
ATOM     61  N   UNL A   1      41.689  31.190  36.125  1.00  0.00    -0.248 NA
ATOM     62  C   UNL A   1      42.704  31.690  38.168  1.00  0.00     0.031 C 
ATOM     63  C   UNL A   1      43.224  28.187  33.238  1.00  0.00     0.029 A 
ATOM     64  C   UNL A   1      42.764  29.117  34.156  1.00  0.00     0.049 A 
ATOM     65  H   UNL A   1      41.032  30.319  34.080  1.00  0.00     0.167 HD
ATOM     66  C   UNL A   1      42.840  30.427  36.260  1.00  0.00     0.074 A 
ATOM     67  C   UNL A   1      43.442  30.796  37.524  1.00  0.00     0.031 C 
ATOM     68  C   UNL A   1      43.353  29.502  35.413  1.00  0.00     0.037 A 
BRANCH  55  69
ATOM     69  C   UNL A   1      39.966  28.596  30.326  1.00  0.00     0.057 A 
ATOM     70  C   UNL A   1      39.159  27.452  30.268  1.00  0.00     0.134 A 
ATOM     71  C   UNL A   1      40.571  29.022  29.137  1.00  0.00     0.134 A 
ATOM     72  F   UNL A   1      38.561  26.985  31.375  1.00  0.00    -0.206 F 
ATOM     73  C   UNL A   1      38.982  26.743  29.079  1.00  0.00     0.040 A 
ATOM     74  C   UNL A   1      40.381  28.336  27.936  1.00  0.00     0.040 A 
ATOM     75  F   UNL A   1      41.352  30.113  29.122  1.00  0.00    -0.206 F 
ATOM     76  C   UNL A   1      39.591  27.188  27.907  1.00  0.00     0.006 A 
ENDBRANCH  55  69
BRANCH  56  77
ATOM     77  C   UNL A   1      40.696  33.693  38.870  1.00  0.00     0.057 A 
ATOM     78  C   UNL A   1      39.908  33.338  39.970  1.00  0.00     0.134 A 
ATOM     79  C   UNL A   1      41.580  34.767  39.028  1.00  0.00     0.134 A 
ATOM     80  F   UNL A   1      39.029  32.329  39.871  1.00  0.00    -0.206 F 
ATOM     81  C   UNL A   1      39.979  34.035  41.176  1.00  0.00     0.040 A 
ATOM     82  C   UNL A   1      41.678  35.459  40.238  1.00  0.00     0.040 A 
ATOM     83  F   UNL A   1      42.369  35.151  38.015  1.00  0.00    -0.206 F 
ATOM     84  C   UNL A   1      40.870  35.097  41.314  1.00  0.00     0.006 A 
ENDBRANCH  56  77
BRANCH  68  85
ATOM     85  C   UNL A   1      44.643  28.851  35.810  1.00  0.00     0.057 A 
ATOM     86  C   UNL A   1      45.884  29.389  35.449  1.00  0.00     0.134 A 
ATOM     87  C   UNL A   1      44.643  27.691  36.596  1.00  0.00     0.134 A 
ATOM     88  F   UNL A   1      45.951  30.491  34.686  1.00  0.00    -0.206 F 
ATOM     89  C   UNL A   1      47.081  28.786  35.839  1.00  0.00     0.040 A 
ATOM     90  C   UNL A   1      45.833  27.092  37.012  1.00  0.00     0.040 A 
ATOM     91  F   UNL A   1      43.487  27.130  36.982  1.00  0.00    -0.206 F 
ATOM     92  C   UNL A   1      47.057  27.638  36.628  1.00  0.00     0.006 A 
ENDBRANCH  68  85
ENDBRANCH  42  43
ENDBRANCH  34  37
ENDBRANCH  32  33
ENDBRANCH  31  32
ENDBRANCH  30  31
ENDBRANCH  29  30
ENDBRANCH   1  29
TORSDOF 17
ENDMDL
MODEL 3
REMARK VINA RESULT:     -10.9      5.227     10.322
REMARK SMILES C/C(=C/c1cccc(OCC(=O)NCCCCCCNC(=O)c2ccc(-c3c4nc(c(-c5c(F)cccc5F)c5ccc([nH]5)c(-c5c(F)cccc5F)c5nc(c(-c6c(F)cccc6F)c6ccc3[nH]6)C=C5)C=C4)cc2)c1)c1nc2sccc2c(=O)[nH]1
REMARK SMILES IDX 15 1 14 2 13 3 11 4 12 5 10 7 9 8 8 9 4 10 5 11 77 12 6 13
REMARK SMILES IDX 7 14 3 15 1 16 2 17 78 18 79 19 87 20 80 21 85 22 81 24
REMARK SMILES IDX 84 25 86 26 82 27 83 28 16 29 17 30 18 31 19 32 20 33 21 34
REMARK SMILES IDX 22 36 23 37 24 38 76 39 25 40 75 41 26 42 27 43 28 44 69 45
REMARK SMILES IDX 29 46 74 47 68 48 70 49 30 50 73 51 67 52 66 53 31 55 57 56
REMARK SMILES IDX 40 57 56 58 41 59 44 60 55 61 71 62 42 63 43 64 54 66 72 67
REMARK SMILES IDX 45 68 32 69 33 70 38 71 34 72 35 73 37 74 39 75 36 76 58 77
REMARK SMILES IDX 59 78 64 79 60 80 61 81 63 82 65 83 62 84 46 85 47 86 52 87
REMARK SMILES IDX 48 88 49 89 51 90 53 91 50 92
REMARK H PARENT 13 6 87 23 20 35 70 54 44 65
REMARK Flexibility Score: inf
ROOT
ATOM      1  C   UNL A   1      35.215  21.997  26.448  1.00  0.00     0.021 C 
ENDROOT
BRANCH   1   2
ATOM      2  C   UNL A   1      33.990  21.329  27.074  1.00  0.00     0.116 C 
BRANCH   2   3
ATOM      3  N   UNL A   1      33.415  20.273  26.265  1.00  0.00    -0.353 N 
ATOM      4  C   UNL A   1      32.417  20.370  25.338  1.00  0.00     0.257 C 
ATOM      5  O   UNL A   1      32.222  19.429  24.569  1.00  0.00    -0.271 OA
ATOM      6  H   UNL A   1      33.792  19.373  26.401  1.00  0.00     0.163 HD
BRANCH   4   7
ATOM      7  C   UNL A   1      31.597  21.655  25.222  1.00  0.00     0.329 C 
BRANCH   7   8
ATOM      8  O   UNL A   1      32.305  22.825  24.848  1.00  0.00    -0.484 OA
BRANCH   8   9
ATOM      9  C   UNL A   1      31.890  24.028  25.347  1.00  0.00     0.120 A 
ATOM     10  C   UNL A   1      32.092  26.340  26.067  1.00  0.00    -0.022 A 
ATOM     11  C   UNL A   1      30.728  26.359  26.379  1.00  0.00     0.008 A 
ATOM     12  C   UNL A   1      32.673  25.164  25.561  1.00  0.00     0.054 A 
ATOM     13  C   UNL A   1      29.945  25.227  26.165  1.00  0.00     0.004 A 
ATOM     14  C   UNL A   1      30.527  24.071  25.650  1.00  0.00     0.046 A 
BRANCH  10  15
ATOM     15  C   UNL A   1      32.889  27.548  26.321  1.00  0.00     0.015 C 
ATOM     16  C   UNL A   1      33.656  29.909  25.999  1.00  0.00     0.048 C 
ATOM     17  C   UNL A   1      32.753  28.746  25.722  1.00  0.00    -0.008 C 
BRANCH  17  18
ATOM     18  C   UNL A   1      31.703  29.004  24.698  1.00  0.00     0.137 A 
ATOM     19  N   UNL A   1      30.857  29.979  24.818  1.00  0.00    -0.219 NA
ATOM     20  N   UNL A   1      31.701  28.098  23.659  1.00  0.00    -0.306 N 
ATOM     21  C   UNL A   1      29.986  30.099  23.781  1.00  0.00     0.131 A 
ATOM     22  C   UNL A   1      30.808  28.146  22.613  1.00  0.00     0.259 A 
ATOM     23  H   UNL A   1      32.374  27.379  23.666  1.00  0.00     0.171 HD
ATOM     24  S   UNL A   1      28.853  31.374  23.693  1.00  0.00    -0.124 S 
ATOM     25  C   UNL A   1      29.896  29.267  22.688  1.00  0.00     0.077 A 
ATOM     26  O   UNL A   1      30.805  27.319  21.714  1.00  0.00    -0.269 OA
ATOM     27  C   UNL A   1      28.271  30.838  22.172  1.00  0.00     0.068 A 
ATOM     28  C   UNL A   1      28.889  29.677  21.765  1.00  0.00     0.028 A 
ENDBRANCH  17  18
ENDBRANCH  10  15
ENDBRANCH   8   9
ENDBRANCH   7   8
ENDBRANCH   4   7
ENDBRANCH   2   3
ENDBRANCH   1   2
BRANCH   1  29
ATOM     29  C   UNL A   1      35.631  21.484  25.067  1.00  0.00     0.002 C 
BRANCH  29  30
ATOM     30  C   UNL A   1      36.435  20.183  25.023  1.00  0.00     0.002 C 
BRANCH  30  31
ATOM     31  C   UNL A   1      37.919  20.335  24.692  1.00  0.00     0.021 C 
BRANCH  31  32
ATOM     32  C   UNL A   1      38.852  20.366  25.897  1.00  0.00     0.116 C 
BRANCH  32  33
ATOM     33  N   UNL A   1      39.928  19.390  25.818  1.00  0.00    -0.352 N 
ATOM     34  C   UNL A   1      41.268  19.561  26.082  1.00  0.00     0.251 C 
ATOM     35  H   UNL A   1      39.663  18.486  25.538  1.00  0.00     0.163 HD
ATOM     36  O   UNL A   1      42.066  18.657  25.861  1.00  0.00    -0.269 OA
BRANCH  34  37
ATOM     37  C   UNL A   1      41.753  20.860  26.600  1.00  0.00     0.039 A 
ATOM     38  C   UNL A   1      42.149  21.844  25.691  1.00  0.00     0.014 A 
ATOM     39  C   UNL A   1      41.792  21.116  27.973  1.00  0.00     0.014 A 
ATOM     40  C   UNL A   1      42.510  23.112  26.156  1.00  0.00     0.010 A 
ATOM     41  C   UNL A   1      42.083  22.397  28.431  1.00  0.00     0.010 A 
ATOM     42  C   UNL A   1      42.442  23.409  27.527  1.00  0.00    -0.014 A 
BRANCH  42  43
ATOM     43  C   UNL A   1      42.732  24.773  28.035  1.00  0.00     0.031 A 
ATOM     44  C   UNL A   1      44.135  25.155  28.420  1.00  0.00     0.074 A 
ATOM     45  C   UNL A   1      41.722  25.646  28.221  1.00  0.00     0.049 A 
ATOM     46  N   UNL A   1      44.574  26.268  28.951  1.00  0.00    -0.248 NA
ATOM     47  C   UNL A   1      45.177  24.136  28.211  1.00  0.00     0.031 C 
ATOM     48  C   UNL A   1      40.310  25.380  27.942  1.00  0.00     0.029 A 
ATOM     49  N   UNL A   1      41.728  26.931  28.701  1.00  0.00    -0.354 N 
ATOM     50  C   UNL A   1      45.934  26.077  29.155  1.00  0.00     0.074 A 
ATOM     51  C   UNL A   1      46.239  24.725  28.738  1.00  0.00     0.031 C 
ATOM     52  C   UNL A   1      39.590  26.475  28.232  1.00  0.00     0.029 A 
ATOM     53  C   UNL A   1      40.482  27.509  28.746  1.00  0.00     0.049 A 
ATOM     54  H   UNL A   1      42.547  27.397  28.985  1.00  0.00     0.167 HD
ATOM     55  C   UNL A   1      46.851  26.956  29.623  1.00  0.00     0.037 A 
ATOM     56  C   UNL A   1      40.102  28.733  29.158  1.00  0.00     0.037 A 
ATOM     57  C   UNL A   1      46.554  28.312  30.004  1.00  0.00     0.049 A 
ATOM     58  C   UNL A   1      41.143  29.699  29.652  1.00  0.00     0.074 A 
ATOM     59  C   UNL A   1      47.425  29.300  30.428  1.00  0.00     0.029 A 
ATOM     60  N   UNL A   1      45.285  28.870  30.003  1.00  0.00    -0.354 N 
ATOM     61  N   UNL A   1      42.436  29.528  29.776  1.00  0.00    -0.248 NA
ATOM     62  C   UNL A   1      40.671  31.031  30.058  1.00  0.00     0.031 C 
ATOM     63  C   UNL A   1      46.677  30.448  30.715  1.00  0.00     0.029 A 
ATOM     64  C   UNL A   1      45.347  30.185  30.432  1.00  0.00     0.049 A 
ATOM     65  H   UNL A   1      44.461  28.401  29.736  1.00  0.00     0.167 HD
ATOM     66  C   UNL A   1      42.936  30.734  30.246  1.00  0.00     0.074 A 
ATOM     67  C   UNL A   1      41.808  31.634  30.374  1.00  0.00     0.031 C 
ATOM     68  C   UNL A   1      44.215  31.069  30.545  1.00  0.00     0.037 A 
BRANCH  55  69
ATOM     69  C   UNL A   1      48.268  26.477  29.740  1.00  0.00     0.057 A 
ATOM     70  C   UNL A   1      48.721  25.788  30.873  1.00  0.00     0.134 A 
ATOM     71  C   UNL A   1      49.183  26.683  28.701  1.00  0.00     0.134 A 
ATOM     72  F   UNL A   1      47.897  25.568  31.910  1.00  0.00    -0.206 F 
ATOM     73  C   UNL A   1      50.041  25.346  30.981  1.00  0.00     0.040 A 
ATOM     74  C   UNL A   1      50.500  26.224  28.785  1.00  0.00     0.040 A 
ATOM     75  F   UNL A   1      48.813  27.331  27.585  1.00  0.00    -0.206 F 
ATOM     76  C   UNL A   1      50.933  25.560  29.931  1.00  0.00     0.006 A 
ENDBRANCH  55  69
BRANCH  56  77
ATOM     77  C   UNL A   1      38.675  29.132  29.086  1.00  0.00     0.057 A 
ATOM     78  C   UNL A   1      37.845  29.040  30.209  1.00  0.00     0.134 A 
ATOM     79  C   UNL A   1      38.105  29.606  27.899  1.00  0.00     0.134 A 
ATOM     80  F   UNL A   1      38.331  28.574  31.370  1.00  0.00    -0.206 F 
ATOM     81  C   UNL A   1      36.496  29.388  30.152  1.00  0.00     0.040 A 
ATOM     82  C   UNL A   1      36.761  29.979  27.833  1.00  0.00     0.040 A 
ATOM     83  F   UNL A   1      38.849  29.725  26.790  1.00  0.00    -0.206 F 
ATOM     84  C   UNL A   1      35.951  29.864  28.961  1.00  0.00     0.006 A 
ENDBRANCH  56  77
BRANCH  68  85
ATOM     85  C   UNL A   1      44.466  32.472  31.009  1.00  0.00     0.057 A 
ATOM     86  C   UNL A   1      44.447  32.816  32.366  1.00  0.00     0.134 A 
ATOM     87  C   UNL A   1      44.765  33.484  30.087  1.00  0.00     0.134 A 
ATOM     88  F   UNL A   1      44.153  31.895  33.296  1.00  0.00    -0.206 F 
ATOM     89  C   UNL A   1      44.699  34.121  32.790  1.00  0.00     0.040 A 
ATOM     90  C   UNL A   1      45.042  34.787  30.500  1.00  0.00     0.040 A 
ATOM     91  F   UNL A   1      44.806  33.217  28.773  1.00  0.00    -0.206 F 
ATOM     92  C   UNL A   1      45.003  35.110  31.856  1.00  0.00     0.006 A 
ENDBRANCH  68  85
ENDBRANCH  42  43
ENDBRANCH  34  37
ENDBRANCH  32  33
ENDBRANCH  31  32
ENDBRANCH  30  31
ENDBRANCH  29  30
ENDBRANCH   1  29
TORSDOF 17
ENDMDL
