MODEL 1
REMARK VINA RESULT:     -11.9      0.000      0.000
REMARK SMILES Cc1ccc(S(=O)(=O)Nc2cc(C(=O)NCCCCCCNC(=O)c3ccc(-c4c5nc(c(-c6c(F)cccc6F)c6ccc([nH]6)c(-c6c(F)cccc6F)c6nc(c(-c7c(F)cccc7F)c7ccc4[nH]7)C=C6)C=C5)cc3)cnc2N2CCCC2)c(C)c1
REMARK SMILES IDX 18 1 17 2 16 3 15 4 13 5 14 6 12 8 10 9 11 10 81 11 80 12
REMARK SMILES IDX 79 13 9 14 6 16 7 17 8 18 5 19 1 20 2 21 3 22 89 23 4 24
REMARK SMILES IDX 87 25 88 26 82 27 83 28 86 29 84 30 85 31 19 32 20 33 21 34
REMARK SMILES IDX 22 35 23 36 24 38 25 39 26 40 78 41 27 42 77 43 28 44 29 45
REMARK SMILES IDX 30 46 71 47 31 48 76 49 70 50 72 51 32 52 75 53 69 54 68 55
REMARK SMILES IDX 33 57 59 58 42 59 58 60 43 61 46 62 57 63 73 64 44 65 45 66
REMARK SMILES IDX 56 68 74 69 47 70 34 71 35 72 40 73 36 74 37 75 39 76 41 77
REMARK SMILES IDX 38 78 60 79 61 80 66 81 62 82 63 83 65 84 67 85 64 86 48 87
REMARK SMILES IDX 49 88 54 89 50 90 51 91 53 92 55 93 52 94
REMARK H PARENT 15 7 9 15 22 37 72 56 46 67
REMARK Flexibility Score: inf
ROOT
ATOM      1  C   UNL A   1      34.294  32.406  28.742  1.00  0.00     0.002 C 
ENDROOT
BRANCH   1   2
ATOM      2  C   UNL A   1      33.323  32.195  27.575  1.00  0.00     0.021 C 
BRANCH   2   3
ATOM      3  C   UNL A   1      33.055  30.717  27.290  1.00  0.00     0.116 C 
BRANCH   3   4
ATOM      4  N   UNL A   1      32.018  30.576  26.284  1.00  0.00    -0.352 N 
ATOM      5  C   UNL A   1      31.738  29.599  25.364  1.00  0.00     0.252 C 
ATOM      6  O   UNL A   1      30.754  29.759  24.642  1.00  0.00    -0.269 OA
ATOM      7  H   UNL A   1      31.390  31.333  26.257  1.00  0.00     0.163 HD
BRANCH   5   8
ATOM      8  C   UNL A   1      32.510  28.340  25.242  1.00  0.00     0.060 A 
ATOM      9  C   UNL A   1      33.071  26.074  25.765  1.00  0.00     0.092 A 
ATOM     10  C   UNL A   1      32.458  27.269  26.126  1.00  0.00     0.046 A 
ATOM     11  C   UNL A   1      33.927  26.027  24.640  1.00  0.00     0.153 A 
ATOM     12  N   UNL A   1      34.076  27.098  23.839  1.00  0.00    -0.236 NA
ATOM     13  C   UNL A   1      33.341  28.205  24.131  1.00  0.00     0.127 A 
BRANCH   9  14
ATOM     14  N   UNL A   1      32.863  24.869  26.491  1.00  0.00    -0.276 N 
ATOM     15  H   UNL A   1      33.449  24.696  27.263  1.00  0.00     0.180 HD
BRANCH  14  16
ATOM     16  S   UNL A   1      31.702  23.724  26.134  1.00  0.00     0.262 S 
ATOM     17  O   UNL A   1      30.880  24.308  25.090  1.00  0.00    -0.201 OA
ATOM     18  O   UNL A   1      31.142  23.357  27.416  1.00  0.00    -0.201 OA
BRANCH  16  19
ATOM     19  C   UNL A   1      32.376  22.216  25.427  1.00  0.00     0.090 A 
ATOM     20  C   UNL A   1      32.938  18.064  24.393  1.00  0.00     0.044 C 
ATOM     21  C   UNL A   1      32.809  19.526  24.708  1.00  0.00    -0.051 A 
ATOM     22  C   UNL A   1      32.211  20.411  23.810  1.00  0.00     0.005 A 
ATOM     23  C   UNL A   1      33.334  20.033  25.898  1.00  0.00     0.008 A 
ATOM     24  C   UNL A   1      32.016  21.755  24.157  1.00  0.00     0.023 A 
ATOM     25  C   UNL A   1      33.142  21.378  26.267  1.00  0.00    -0.030 A 
ATOM     26  C   UNL A   1      33.806  21.835  27.539  1.00  0.00     0.046 C 
ENDBRANCH  16  19
ENDBRANCH  14  16
ENDBRANCH   9  14
BRANCH  11  27
ATOM     27  N   UNL A   1      34.673  24.904  24.395  1.00  0.00    -0.355 N 
ATOM     28  C   UNL A   1      35.534  24.214  25.334  1.00  0.00     0.118 C 
ATOM     29  C   UNL A   1      34.382  24.088  23.227  1.00  0.00     0.118 C 
ATOM     30  C   UNL A   1      36.410  23.412  24.375  1.00  0.00     0.023 C 
ATOM     31  C   UNL A   1      35.416  22.955  23.309  1.00  0.00     0.023 C 
ENDBRANCH  11  27
ENDBRANCH   5   8
ENDBRANCH   3   4
ENDBRANCH   2   3
ENDBRANCH   1   2
BRANCH   1  32
ATOM     32  C   UNL A   1      34.463  33.870  29.172  1.00  0.00     0.002 C 
BRANCH  32  33
ATOM     33  C   UNL A   1      33.191  34.720  29.111  1.00  0.00     0.021 C 
BRANCH  33  34
ATOM     34  C   UNL A   1      33.337  36.126  29.685  1.00  0.00     0.116 C 
BRANCH  34  35
ATOM     35  N   UNL A   1      32.483  36.330  30.844  1.00  0.00    -0.352 N 
ATOM     36  C   UNL A   1      32.583  35.798  32.105  1.00  0.00     0.251 C 
ATOM     37  H   UNL A   1      31.721  36.938  30.705  1.00  0.00     0.163 HD
ATOM     38  O   UNL A   1      31.663  35.928  32.906  1.00  0.00    -0.269 OA
BRANCH  36  39
ATOM     39  C   UNL A   1      33.797  35.053  32.496  1.00  0.00     0.039 A 
ATOM     40  C   UNL A   1      33.664  33.740  32.957  1.00  0.00     0.014 A 
ATOM     41  C   UNL A   1      35.058  35.655  32.439  1.00  0.00     0.014 A 
ATOM     42  C   UNL A   1      34.800  33.013  33.313  1.00  0.00     0.010 A 
ATOM     43  C   UNL A   1      36.194  34.913  32.743  1.00  0.00     0.010 A 
ATOM     44  C   UNL A   1      36.076  33.587  33.188  1.00  0.00    -0.014 A 
BRANCH  44  45
ATOM     45  C   UNL A   1      37.297  32.818  33.524  1.00  0.00     0.031 A 
ATOM     46  C   UNL A   1      38.053  33.117  34.786  1.00  0.00     0.074 A 
ATOM     47  C   UNL A   1      37.766  31.904  32.655  1.00  0.00     0.049 A 
ATOM     48  N   UNL A   1      39.177  32.603  35.217  1.00  0.00    -0.248 NA
ATOM     49  C   UNL A   1      37.485  34.148  35.666  1.00  0.00     0.031 C 
ATOM     50  C   UNL A   1      37.151  31.567  31.370  1.00  0.00     0.029 A 
ATOM     51  N   UNL A   1      38.878  31.106  32.714  1.00  0.00    -0.354 N 
ATOM     52  C   UNL A   1      39.463  33.264  36.404  1.00  0.00     0.074 A 
ATOM     53  C   UNL A   1      38.414  34.241  36.606  1.00  0.00     0.031 C 
ATOM     54  C   UNL A   1      37.892  30.625  30.766  1.00  0.00     0.029 A 
ATOM     55  C   UNL A   1      39.043  30.312  31.606  1.00  0.00     0.049 A 
ATOM     56  H   UNL A   1      39.500  31.102  33.477  1.00  0.00     0.167 HD
ATOM     57  C   UNL A   1      40.495  33.063  37.257  1.00  0.00     0.037 A 
ATOM     58  C   UNL A   1      40.016  29.433  31.302  1.00  0.00     0.037 A 
ATOM     59  C   UNL A   1      41.520  32.070  37.069  1.00  0.00     0.049 A 
ATOM     60  C   UNL A   1      41.134  29.203  32.277  1.00  0.00     0.074 A 
ATOM     61  C   UNL A   1      42.562  31.733  37.916  1.00  0.00     0.029 A 
ATOM     62  N   UNL A   1      41.632  31.256  35.952  1.00  0.00    -0.354 N 
ATOM     63  N   UNL A   1      41.353  29.780  33.432  1.00  0.00    -0.248 NA
ATOM     64  C   UNL A   1      42.136  28.193  31.909  1.00  0.00     0.031 C 
ATOM     65  C   UNL A   1      43.323  30.735  37.296  1.00  0.00     0.029 A 
ATOM     66  C   UNL A   1      42.735  30.428  36.079  1.00  0.00     0.049 A 
ATOM     67  H   UNL A   1      41.017  31.263  35.184  1.00  0.00     0.167 HD
ATOM     68  C   UNL A   1      42.506  29.196  33.938  1.00  0.00     0.074 A 
ATOM     69  C   UNL A   1      42.934  28.208  32.968  1.00  0.00     0.031 C 
ATOM     70  C   UNL A   1      43.150  29.454  35.102  1.00  0.00     0.037 A 
BRANCH  57  71
ATOM     71  C   UNL A   1      40.560  33.941  38.470  1.00  0.00     0.057 A 
ATOM     72  C   UNL A   1      39.856  33.635  39.642  1.00  0.00     0.134 A 
ATOM     73  C   UNL A   1      41.335  35.108  38.468  1.00  0.00     0.134 A 
ATOM     74  F   UNL A   1      39.084  32.539  39.704  1.00  0.00    -0.206 F 
ATOM     75  C   UNL A   1      39.897  34.471  40.757  1.00  0.00     0.040 A 
ATOM     76  C   UNL A   1      41.403  35.941  39.586  1.00  0.00     0.040 A 
ATOM     77  F   UNL A   1      42.037  35.457  37.379  1.00  0.00    -0.206 F 
ATOM     78  C   UNL A   1      40.675  35.628  40.732  1.00  0.00     0.006 A 
ENDBRANCH  57  71
BRANCH  58  79
ATOM     79  C   UNL A   1      39.950  28.688  30.023  1.00  0.00     0.057 A 
ATOM     80  C   UNL A   1      40.587  29.172  28.876  1.00  0.00     0.134 A 
ATOM     81  C   UNL A   1      39.283  27.461  29.928  1.00  0.00     0.134 A 
ATOM     82  F   UNL A   1      41.229  30.349  28.904  1.00  0.00    -0.206 F 
ATOM     83  C   UNL A   1      40.558  28.465  27.673  1.00  0.00     0.040 A 
ATOM     84  C   UNL A   1      39.261  26.735  28.737  1.00  0.00     0.040 A 
ATOM     85  F   UNL A   1      38.663  26.943  30.997  1.00  0.00    -0.206 F 
ATOM     86  C   UNL A   1      39.899  27.238  27.604  1.00  0.00     0.006 A 
ENDBRANCH  58  79
BRANCH  70  87
ATOM     87  C   UNL A   1      44.378  28.648  35.394  1.00  0.00     0.057 A 
ATOM     88  C   UNL A   1      45.653  29.089  35.016  1.00  0.00     0.134 A 
ATOM     89  C   UNL A   1      44.290  27.438  36.092  1.00  0.00     0.134 A 
ATOM     90  F   UNL A   1      45.802  30.233  34.333  1.00  0.00    -0.206 F 
ATOM     91  C   UNL A   1      46.797  28.344  35.311  1.00  0.00     0.040 A 
ATOM     92  C   UNL A   1      45.427  26.694  36.409  1.00  0.00     0.040 A 
ATOM     93  F   UNL A   1      43.098  26.964  36.485  1.00  0.00    -0.206 F 
ATOM     94  C   UNL A   1      46.685  27.146  36.015  1.00  0.00     0.006 A 
ENDBRANCH  70  87
ENDBRANCH  44  45
ENDBRANCH  36  39
ENDBRANCH  34  35
ENDBRANCH  33  34
ENDBRANCH  32  33
ENDBRANCH   1  32
TORSDOF 17
ENDMDL
MODEL 2
REMARK VINA RESULT:     -11.8      1.684      3.386
REMARK SMILES Cc1ccc(S(=O)(=O)Nc2cc(C(=O)NCCCCCCNC(=O)c3ccc(-c4c5nc(c(-c6c(F)cccc6F)c6ccc([nH]6)c(-c6c(F)cccc6F)c6nc(c(-c7c(F)cccc7F)c7ccc4[nH]7)C=C6)C=C5)cc3)cnc2N2CCCC2)c(C)c1
REMARK SMILES IDX 18 1 17 2 16 3 15 4 13 5 14 6 12 8 10 9 11 10 81 11 80 12
REMARK SMILES IDX 79 13 9 14 6 16 7 17 8 18 5 19 1 20 2 21 3 22 89 23 4 24
REMARK SMILES IDX 87 25 88 26 82 27 83 28 86 29 84 30 85 31 19 32 20 33 21 34
REMARK SMILES IDX 22 35 23 36 24 38 25 39 26 40 78 41 27 42 77 43 28 44 29 45
REMARK SMILES IDX 30 46 71 47 31 48 76 49 70 50 72 51 32 52 75 53 69 54 68 55
REMARK SMILES IDX 33 57 59 58 42 59 58 60 43 61 46 62 57 63 73 64 44 65 45 66
REMARK SMILES IDX 56 68 74 69 47 70 34 71 35 72 40 73 36 74 37 75 39 76 41 77
REMARK SMILES IDX 38 78 60 79 61 80 66 81 62 82 63 83 65 84 67 85 64 86 48 87
REMARK SMILES IDX 49 88 54 89 50 90 51 91 53 92 55 93 52 94
REMARK H PARENT 15 7 9 15 22 37 72 56 46 67
REMARK Flexibility Score: inf
ROOT
ATOM      1  C   UNL A   1      34.839  33.057  28.940  1.00  0.00     0.002 C 
ENDROOT
BRANCH   1   2
ATOM      2  C   UNL A   1      35.555  31.956  28.149  1.00  0.00     0.021 C 
BRANCH   2   3
ATOM      3  C   UNL A   1      34.609  30.841  27.701  1.00  0.00     0.116 C 
BRANCH   3   4
ATOM      4  N   UNL A   1      33.313  31.391  27.344  1.00  0.00    -0.352 N 
ATOM      5  C   UNL A   1      32.170  30.830  26.838  1.00  0.00     0.252 C 
ATOM      6  O   UNL A   1      31.204  31.569  26.654  1.00  0.00    -0.269 OA
ATOM      7  H   UNL A   1      33.242  32.360  27.496  1.00  0.00     0.163 HD
BRANCH   5   8
ATOM      8  C   UNL A   1      32.015  29.381  26.571  1.00  0.00     0.060 A 
ATOM      9  C   UNL A   1      32.267  27.362  25.312  1.00  0.00     0.092 A 
ATOM     10  C   UNL A   1      32.243  28.752  25.353  1.00  0.00     0.046 A 
ATOM     11  C   UNL A   1      31.832  26.612  26.430  1.00  0.00     0.153 A 
ATOM     12  N   UNL A   1      31.496  27.219  27.582  1.00  0.00    -0.236 NA
ATOM     13  C   UNL A   1      31.633  28.571  27.640  1.00  0.00     0.127 A 
BRANCH   9  14
ATOM     14  N   UNL A   1      32.728  26.646  24.172  1.00  0.00    -0.276 N 
ATOM     15  H   UNL A   1      33.412  25.954  24.317  1.00  0.00     0.180 HD
BRANCH  14  16
ATOM     16  S   UNL A   1      32.198  26.892  22.609  1.00  0.00     0.262 S 
ATOM     17  O   UNL A   1      31.770  25.591  22.128  1.00  0.00    -0.201 OA
ATOM     18  O   UNL A   1      33.274  27.616  21.967  1.00  0.00    -0.201 OA
BRANCH  16  19
ATOM     19  C   UNL A   1      30.746  27.945  22.501  1.00  0.00     0.090 A 
ATOM     20  C   UNL A   1      27.654  30.785  23.500  1.00  0.00     0.044 C 
ATOM     21  C   UNL A   1      28.694  29.788  23.079  1.00  0.00    -0.051 A 
ATOM     22  C   UNL A   1      29.787  30.167  22.298  1.00  0.00     0.005 A 
ATOM     23  C   UNL A   1      28.556  28.443  23.428  1.00  0.00     0.008 A 
ATOM     24  C   UNL A   1      30.797  29.245  21.990  1.00  0.00     0.023 A 
ATOM     25  C   UNL A   1      29.563  27.506  23.134  1.00  0.00    -0.030 A 
ATOM     26  C   UNL A   1      29.281  26.071  23.499  1.00  0.00     0.046 C 
ENDBRANCH  16  19
ENDBRANCH  14  16
ENDBRANCH   9  14
BRANCH  11  27
ATOM     27  N   UNL A   1      31.679  25.254  26.324  1.00  0.00    -0.355 N 
ATOM     28  C   UNL A   1      32.715  24.251  26.468  1.00  0.00     0.118 C 
ATOM     29  C   UNL A   1      30.348  24.672  26.401  1.00  0.00     0.118 C 
ATOM     30  C   UNL A   1      32.053  23.062  25.777  1.00  0.00     0.023 C 
ATOM     31  C   UNL A   1      30.602  23.166  26.240  1.00  0.00     0.023 C 
ENDBRANCH  11  27
ENDBRANCH   5   8
ENDBRANCH   3   4
ENDBRANCH   2   3
ENDBRANCH   1   2
BRANCH   1  32
ATOM     32  C   UNL A   1      35.133  34.483  28.454  1.00  0.00     0.002 C 
BRANCH  32  33
ATOM     33  C   UNL A   1      34.039  35.512  28.755  1.00  0.00     0.021 C 
BRANCH  33  34
ATOM     34  C   UNL A   1      32.845  34.963  29.530  1.00  0.00     0.116 C 
BRANCH  34  35
ATOM     35  N   UNL A   1      32.436  35.858  30.602  1.00  0.00    -0.352 N 
ATOM     36  C   UNL A   1      32.877  35.922  31.899  1.00  0.00     0.251 C 
ATOM     37  H   UNL A   1      31.742  36.513  30.362  1.00  0.00     0.163 HD
ATOM     38  O   UNL A   1      32.284  36.613  32.721  1.00  0.00    -0.269 OA
BRANCH  36  39
ATOM     39  C   UNL A   1      34.063  35.144  32.315  1.00  0.00     0.039 A 
ATOM     40  C   UNL A   1      33.876  33.873  32.866  1.00  0.00     0.014 A 
ATOM     41  C   UNL A   1      35.350  35.677  32.191  1.00  0.00     0.014 A 
ATOM     42  C   UNL A   1      34.984  33.115  33.247  1.00  0.00     0.010 A 
ATOM     43  C   UNL A   1      36.455  34.899  32.520  1.00  0.00     0.010 A 
ATOM     44  C   UNL A   1      36.282  33.614  33.057  1.00  0.00    -0.014 A 
BRANCH  44  45
ATOM     45  C   UNL A   1      37.472  32.808  33.418  1.00  0.00     0.031 A 
ATOM     46  C   UNL A   1      38.217  33.091  34.690  1.00  0.00     0.074 A 
ATOM     47  C   UNL A   1      37.925  31.874  32.563  1.00  0.00     0.049 A 
ATOM     48  N   UNL A   1      39.316  32.545  35.144  1.00  0.00    -0.248 NA
ATOM     49  C   UNL A   1      37.668  34.147  35.554  1.00  0.00     0.031 C 
ATOM     50  C   UNL A   1      37.322  31.547  31.270  1.00  0.00     0.029 A 
ATOM     51  N   UNL A   1      39.010  31.040  32.646  1.00  0.00    -0.354 N 
ATOM     52  C   UNL A   1      39.604  33.204  36.331  1.00  0.00     0.074 A 
ATOM     53  C   UNL A   1      38.584  34.217  36.509  1.00  0.00     0.031 C 
ATOM     54  C   UNL A   1      38.041  30.577  30.685  1.00  0.00     0.029 A 
ATOM     55  C   UNL A   1      39.167  30.233  31.547  1.00  0.00     0.049 A 
ATOM     56  H   UNL A   1      39.619  31.022  33.420  1.00  0.00     0.167 HD
ATOM     57  C   UNL A   1      40.614  32.976  37.203  1.00  0.00     0.037 A 
ATOM     58  C   UNL A   1      40.116  29.321  31.265  1.00  0.00     0.037 A 
ATOM     59  C   UNL A   1      41.609  31.949  37.039  1.00  0.00     0.049 A 
ATOM     60  C   UNL A   1      41.210  29.061  32.260  1.00  0.00     0.074 A 
ATOM     61  C   UNL A   1      42.625  31.585  37.906  1.00  0.00     0.029 A 
ATOM     62  N   UNL A   1      41.713  31.124  35.930  1.00  0.00    -0.354 N 
ATOM     63  N   UNL A   1      41.428  29.640  33.415  1.00  0.00    -0.248 NA
ATOM     64  C   UNL A   1      42.185  28.017  31.916  1.00  0.00     0.031 C 
ATOM     65  C   UNL A   1      43.364  30.558  37.305  1.00  0.00     0.029 A 
ATOM     66  C   UNL A   1      42.787  30.262  36.081  1.00  0.00     0.049 A 
ATOM     67  H   UNL A   1      41.112  31.146  35.151  1.00  0.00     0.167 HD
ATOM     68  C   UNL A   1      42.553  29.022  33.944  1.00  0.00     0.074 A 
ATOM     69  C   UNL A   1      42.965  28.014  32.988  1.00  0.00     0.031 C 
ATOM     70  C   UNL A   1      43.186  29.268  35.117  1.00  0.00     0.037 A 
BRANCH  57  71
ATOM     71  C   UNL A   1      40.687  33.861  38.410  1.00  0.00     0.057 A 
ATOM     72  C   UNL A   1      39.945  33.593  39.569  1.00  0.00     0.134 A 
ATOM     73  C   UNL A   1      41.510  34.994  38.418  1.00  0.00     0.134 A 
ATOM     74  F   UNL A   1      39.127  32.530  39.620  1.00  0.00    -0.206 F 
ATOM     75  C   UNL A   1      39.994  34.436  40.679  1.00  0.00     0.040 A 
ATOM     76  C   UNL A   1      41.586  35.833  39.532  1.00  0.00     0.040 A 
ATOM     77  F   UNL A   1      42.250  35.306  37.344  1.00  0.00    -0.206 F 
ATOM     78  C   UNL A   1      40.819  35.560  40.663  1.00  0.00     0.006 A 
ENDBRANCH  57  71
BRANCH  58  79
ATOM     79  C   UNL A   1      40.048  28.569  29.990  1.00  0.00     0.057 A 
ATOM     80  C   UNL A   1      40.764  28.993  28.866  1.00  0.00     0.134 A 
ATOM     81  C   UNL A   1      39.297  27.393  29.877  1.00  0.00     0.134 A 
ATOM     82  F   UNL A   1      41.488  30.120  28.912  1.00  0.00    -0.206 F 
ATOM     83  C   UNL A   1      40.732  28.277  27.668  1.00  0.00     0.040 A 
ATOM     84  C   UNL A   1      39.270  26.658  28.692  1.00  0.00     0.040 A 
ATOM     85  F   UNL A   1      38.598  26.933  30.924  1.00  0.00    -0.206 F 
ATOM     86  C   UNL A   1      39.988  27.101  27.582  1.00  0.00     0.006 A 
ENDBRANCH  58  79
BRANCH  70  87
ATOM     87  C   UNL A   1      44.382  28.425  35.436  1.00  0.00     0.057 A 
ATOM     88  C   UNL A   1      45.684  28.864  35.163  1.00  0.00     0.134 A 
ATOM     89  C   UNL A   1      44.233  27.177  36.054  1.00  0.00     0.134 A 
ATOM     90  F   UNL A   1      45.891  30.043  34.559  1.00  0.00    -0.206 F 
ATOM     91  C   UNL A   1      46.797  28.084  35.482  1.00  0.00     0.040 A 
ATOM     92  C   UNL A   1      45.339  26.397  36.395  1.00  0.00     0.040 A 
ATOM     93  F   UNL A   1      43.013  26.703  36.345  1.00  0.00    -0.206 F 
ATOM     94  C   UNL A   1      46.625  26.849  36.105  1.00  0.00     0.006 A 
ENDBRANCH  70  87
ENDBRANCH  44  45
ENDBRANCH  36  39
ENDBRANCH  34  35
ENDBRANCH  33  34
ENDBRANCH  32  33
ENDBRANCH   1  32
TORSDOF 17
ENDMDL
MODEL 3
REMARK VINA RESULT:     -11.7      1.217      2.142
REMARK SMILES Cc1ccc(S(=O)(=O)Nc2cc(C(=O)NCCCCCCNC(=O)c3ccc(-c4c5nc(c(-c6c(F)cccc6F)c6ccc([nH]6)c(-c6c(F)cccc6F)c6nc(c(-c7c(F)cccc7F)c7ccc4[nH]7)C=C6)C=C5)cc3)cnc2N2CCCC2)c(C)c1
REMARK SMILES IDX 18 1 17 2 16 3 15 4 13 5 14 6 12 8 10 9 11 10 81 11 80 12
REMARK SMILES IDX 79 13 9 14 6 16 7 17 8 18 5 19 1 20 2 21 3 22 89 23 4 24
REMARK SMILES IDX 87 25 88 26 82 27 83 28 86 29 84 30 85 31 19 32 20 33 21 34
REMARK SMILES IDX 22 35 23 36 24 38 25 39 26 40 78 41 27 42 77 43 28 44 29 45
REMARK SMILES IDX 30 46 71 47 31 48 76 49 70 50 72 51 32 52 75 53 69 54 68 55
REMARK SMILES IDX 33 57 59 58 42 59 58 60 43 61 46 62 57 63 73 64 44 65 45 66
REMARK SMILES IDX 56 68 74 69 47 70 34 71 35 72 40 73 36 74 37 75 39 76 41 77
REMARK SMILES IDX 38 78 60 79 61 80 66 81 62 82 63 83 65 84 67 85 64 86 48 87
REMARK SMILES IDX 49 88 54 89 50 90 51 91 53 92 55 93 52 94
REMARK H PARENT 15 7 9 15 22 37 72 56 46 67
REMARK Flexibility Score: inf
ROOT
ATOM      1  C   UNL A   1      34.794  32.802  28.994  1.00  0.00     0.002 C 
ENDROOT
BRANCH   1   2
ATOM      2  C   UNL A   1      35.315  31.768  27.989  1.00  0.00     0.021 C 
BRANCH   2   3
ATOM      3  C   UNL A   1      34.288  30.679  27.677  1.00  0.00     0.116 C 
BRANCH   3   4
ATOM      4  N   UNL A   1      33.115  31.258  27.046  1.00  0.00    -0.352 N 
ATOM      5  C   UNL A   1      32.025  30.708  26.422  1.00  0.00     0.252 C 
ATOM      6  O   UNL A   1      31.164  31.475  25.995  1.00  0.00    -0.269 OA
ATOM      7  H   UNL A   1      33.099  32.241  27.071  1.00  0.00     0.163 HD
BRANCH   5   8
ATOM      8  C   UNL A   1      31.798  29.249  26.301  1.00  0.00     0.060 A 
ATOM      9  C   UNL A   1      31.768  27.138  25.176  1.00  0.00     0.092 A 
ATOM     10  C   UNL A   1      31.776  28.527  25.114  1.00  0.00     0.046 A 
ATOM     11  C   UNL A   1      31.545  26.484  26.410  1.00  0.00     0.153 A 
ATOM     12  N   UNL A   1      31.448  27.182  27.555  1.00  0.00    -0.236 NA
ATOM     13  C   UNL A   1      31.616  28.530  27.483  1.00  0.00     0.127 A 
BRANCH   9  14
ATOM     14  N   UNL A   1      31.988  26.329  24.027  1.00  0.00    -0.276 N 
ATOM     15  H   UNL A   1      31.213  26.138  23.450  1.00  0.00     0.180 HD
BRANCH  14  16
ATOM     16  S   UNL A   1      33.458  25.677  23.581  1.00  0.00     0.262 S 
ATOM     17  O   UNL A   1      34.360  25.944  24.687  1.00  0.00    -0.201 OA
ATOM     18  O   UNL A   1      33.710  26.209  22.260  1.00  0.00    -0.201 OA
BRANCH  16  19
ATOM     19  C   UNL A   1      33.427  23.890  23.408  1.00  0.00     0.090 A 
ATOM     20  C   UNL A   1      32.902  19.692  24.265  1.00  0.00     0.044 C 
ATOM     21  C   UNL A   1      33.110  21.131  23.892  1.00  0.00    -0.051 A 
ATOM     22  C   UNL A   1      32.155  21.836  23.159  1.00  0.00     0.005 A 
ATOM     23  C   UNL A   1      34.299  21.778  24.237  1.00  0.00     0.008 A 
ATOM     24  C   UNL A   1      32.322  23.203  22.897  1.00  0.00     0.023 A 
ATOM     25  C   UNL A   1      34.481  23.151  23.989  1.00  0.00    -0.030 A 
ATOM     26  C   UNL A   1      35.826  23.732  24.344  1.00  0.00     0.046 C 
ENDBRANCH  16  19
ENDBRANCH  14  16
ENDBRANCH   9  14
BRANCH  11  27
ATOM     27  N   UNL A   1      31.352  25.127  26.439  1.00  0.00    -0.355 N 
ATOM     28  C   UNL A   1      30.317  24.384  25.750  1.00  0.00     0.118 C 
ATOM     29  C   UNL A   1      32.421  24.259  26.909  1.00  0.00     0.118 C 
ATOM     30  C   UNL A   1      30.332  23.081  26.544  1.00  0.00     0.023 C 
ATOM     31  C   UNL A   1      31.821  22.850  26.792  1.00  0.00     0.023 C 
ENDBRANCH  11  27
ENDBRANCH   5   8
ENDBRANCH   3   4
ENDBRANCH   2   3
ENDBRANCH   1   2
BRANCH   1  32
ATOM     32  C   UNL A   1      35.252  34.241  28.721  1.00  0.00     0.002 C 
BRANCH  32  33
ATOM     33  C   UNL A   1      34.160  35.308  28.846  1.00  0.00     0.021 C 
BRANCH  33  34
ATOM     34  C   UNL A   1      32.870  34.823  29.503  1.00  0.00     0.116 C 
BRANCH  34  35
ATOM     35  N   UNL A   1      32.449  35.701  30.584  1.00  0.00    -0.352 N 
ATOM     36  C   UNL A   1      32.890  35.760  31.881  1.00  0.00     0.251 C 
ATOM     37  H   UNL A   1      31.744  36.348  30.351  1.00  0.00     0.163 HD
ATOM     38  O   UNL A   1      32.287  36.433  32.710  1.00  0.00    -0.269 OA
BRANCH  36  39
ATOM     39  C   UNL A   1      34.089  34.996  32.288  1.00  0.00     0.039 A 
ATOM     40  C   UNL A   1      33.927  33.695  32.770  1.00  0.00     0.014 A 
ATOM     41  C   UNL A   1      35.362  35.572  32.222  1.00  0.00     0.014 A 
ATOM     42  C   UNL A   1      35.048  32.951  33.142  1.00  0.00     0.010 A 
ATOM     43  C   UNL A   1      36.482  34.811  32.541  1.00  0.00     0.010 A 
ATOM     44  C   UNL A   1      36.335  33.496  33.009  1.00  0.00    -0.014 A 
BRANCH  44  45
ATOM     45  C   UNL A   1      37.540  32.708  33.360  1.00  0.00     0.031 A 
ATOM     46  C   UNL A   1      38.288  32.999  34.629  1.00  0.00     0.074 A 
ATOM     47  C   UNL A   1      38.002  31.783  32.500  1.00  0.00     0.049 A 
ATOM     48  N   UNL A   1      39.399  32.469  35.074  1.00  0.00    -0.248 NA
ATOM     49  C   UNL A   1      37.729  34.044  35.499  1.00  0.00     0.031 C 
ATOM     50  C   UNL A   1      37.395  31.450  31.210  1.00  0.00     0.029 A 
ATOM     51  N   UNL A   1      39.100  30.966  32.574  1.00  0.00    -0.354 N 
ATOM     52  C   UNL A   1      39.684  33.130  36.260  1.00  0.00     0.074 A 
ATOM     53  C   UNL A   1      38.650  34.126  36.448  1.00  0.00     0.031 C 
ATOM     54  C   UNL A   1      38.126  30.493  30.618  1.00  0.00     0.029 A 
ATOM     55  C   UNL A   1      39.263  30.164  31.472  1.00  0.00     0.049 A 
ATOM     56  H   UNL A   1      39.714  30.955  33.344  1.00  0.00     0.167 HD
ATOM     57  C   UNL A   1      40.704  32.915  37.125  1.00  0.00     0.037 A 
ATOM     58  C   UNL A   1      40.224  29.269  31.180  1.00  0.00     0.037 A 
ATOM     59  C   UNL A   1      41.713  31.904  36.952  1.00  0.00     0.049 A 
ATOM     60  C   UNL A   1      41.328  29.023  32.168  1.00  0.00     0.074 A 
ATOM     61  C   UNL A   1      42.741  31.554  37.811  1.00  0.00     0.029 A 
ATOM     62  N   UNL A   1      41.823  31.084  35.840  1.00  0.00    -0.354 N 
ATOM     63  N   UNL A   1      41.545  29.602  33.323  1.00  0.00    -0.248 NA
ATOM     64  C   UNL A   1      42.317  27.995  31.814  1.00  0.00     0.031 C 
ATOM     65  C   UNL A   1      43.492  30.540  37.203  1.00  0.00     0.029 A 
ATOM     66  C   UNL A   1      42.911  30.238  35.981  1.00  0.00     0.049 A 
ATOM     67  H   UNL A   1      41.216  31.098  35.065  1.00  0.00     0.167 HD
ATOM     68  C   UNL A   1      42.683  29.000  33.843  1.00  0.00     0.074 A 
ATOM     69  C   UNL A   1      43.103  28.001  32.882  1.00  0.00     0.031 C 
ATOM     70  C   UNL A   1      43.319  29.253  35.012  1.00  0.00     0.037 A 
BRANCH  57  71
ATOM     71  C   UNL A   1      40.771  33.798  38.335  1.00  0.00     0.057 A 
ATOM     72  C   UNL A   1      41.600  34.927  38.380  1.00  0.00     0.134 A 
ATOM     73  C   UNL A   1      39.998  33.518  39.468  1.00  0.00     0.134 A 
ATOM     74  F   UNL A   1      42.377  35.241  37.331  1.00  0.00    -0.206 F 
ATOM     75  C   UNL A   1      41.682  35.728  39.519  1.00  0.00     0.040 A 
ATOM     76  C   UNL A   1      40.053  34.326  40.606  1.00  0.00     0.040 A 
ATOM     77  F   UNL A   1      39.180  32.456  39.490  1.00  0.00    -0.206 F 
ATOM     78  C   UNL A   1      40.903  35.429  40.636  1.00  0.00     0.006 A 
ENDBRANCH  57  71
BRANCH  58  79
ATOM     79  C   UNL A   1      40.158  28.519  29.904  1.00  0.00     0.057 A 
ATOM     80  C   UNL A   1      40.874  28.947  28.782  1.00  0.00     0.134 A 
ATOM     81  C   UNL A   1      39.411  27.341  29.788  1.00  0.00     0.134 A 
ATOM     82  F   UNL A   1      41.596  30.076  28.831  1.00  0.00    -0.206 F 
ATOM     83  C   UNL A   1      40.846  28.233  27.582  1.00  0.00     0.040 A 
ATOM     84  C   UNL A   1      39.387  26.608  28.601  1.00  0.00     0.040 A 
ATOM     85  F   UNL A   1      38.712  26.877  30.833  1.00  0.00    -0.206 F 
ATOM     86  C   UNL A   1      40.105  27.055  27.493  1.00  0.00     0.006 A 
ENDBRANCH  58  79
BRANCH  70  87
ATOM     87  C   UNL A   1      44.531  28.428  35.320  1.00  0.00     0.057 A 
ATOM     88  C   UNL A   1      45.816  28.844  34.951  1.00  0.00     0.134 A 
ATOM     89  C   UNL A   1      44.415  27.224  36.026  1.00  0.00     0.134 A 
ATOM     90  F   UNL A   1      45.991  29.981  34.261  1.00  0.00    -0.206 F 
ATOM     91  C   UNL A   1      46.944  28.081  35.260  1.00  0.00     0.040 A 
ATOM     92  C   UNL A   1      45.537  26.463  36.357  1.00  0.00     0.040 A 
ATOM     93  F   UNL A   1      43.211  26.774  36.411  1.00  0.00    -0.206 F 
ATOM     94  C   UNL A   1      46.806  26.890  35.971  1.00  0.00     0.006 A 
ENDBRANCH  70  87
ENDBRANCH  44  45
ENDBRANCH  36  39
ENDBRANCH  34  35
ENDBRANCH  33  34
ENDBRANCH  32  33
ENDBRANCH   1  32
TORSDOF 17
ENDMDL
