MODEL 1
REMARK VINA RESULT:     -10.9      0.000      0.000
REMARK SMILES O=C(/C=C/c1ccc(O)c(O)c1)NCCCCCCNC(=O)c1ccc(-c2c3nc(c(-c4c(F)cccc4F)c4ccc([nH]4)c(-c4c(F)cccc4F)c4nc(c(-c5c(F)cccc5F)c5ccc2[nH]5)C=C4)C=C3)cc1
REMARK SMILES IDX 16 1 15 2 14 3 13 4 1 5 2 6 3 8 4 9 5 10 6 11 12 12 7 13
REMARK SMILES IDX 10 14 8 15 11 16 9 18 17 20 18 21 19 22 20 23 21 24 22 26
REMARK SMILES IDX 23 27 24 28 76 29 25 30 75 31 26 32 27 33 28 34 69 35 29 36
REMARK SMILES IDX 74 37 68 38 70 39 30 40 73 41 67 42 66 43 31 45 57 46 40 47
REMARK SMILES IDX 56 48 41 49 44 50 55 51 71 52 42 53 43 54 54 56 72 57 45 58
REMARK SMILES IDX 32 59 33 60 38 61 34 62 35 63 37 64 39 65 36 66 58 67 59 68
REMARK SMILES IDX 64 69 60 70 61 71 63 72 65 73 62 74 46 75 47 76 52 77 48 78
REMARK SMILES IDX 49 79 51 80 53 81 50 82
REMARK H PARENT 13 7 11 17 9 19 20 25 70 44 44 55
REMARK Flexibility Score: inf
ROOT
ATOM      1  C   UNL A   1      31.591  26.996  26.928  1.00  0.00     0.002 C 
ENDROOT
BRANCH   1   2
ATOM      2  C   UNL A   1      32.766  26.464  26.095  1.00  0.00     0.021 C 
BRANCH   2   3
ATOM      3  C   UNL A   1      32.415  26.097  24.653  1.00  0.00     0.116 C 
BRANCH   3   4
ATOM      4  N   UNL A   1      31.635  27.132  24.008  1.00  0.00    -0.353 N 
ATOM      5  O   UNL A   1      29.620  26.037  24.125  1.00  0.00    -0.270 OA
ATOM      6  C   UNL A   1      30.297  26.991  23.755  1.00  0.00     0.243 C 
ATOM      7  H   UNL A   1      32.082  27.968  23.742  1.00  0.00     0.163 HD
BRANCH   6   8
ATOM      8  C   UNL A   1      29.647  28.107  23.023  1.00  0.00     0.072 C 
ATOM      9  C   UNL A   1      29.583  29.380  23.445  1.00  0.00     0.014 C 
BRANCH   9  10
ATOM     10  C   UNL A   1      29.012  30.472  22.642  1.00  0.00    -0.022 A 
ATOM     11  C   UNL A   1      28.479  30.267  21.357  1.00  0.00     0.012 A 
ATOM     12  C   UNL A   1      28.964  31.758  23.198  1.00  0.00     0.058 A 
ATOM     13  C   UNL A   1      27.940  31.331  20.622  1.00  0.00     0.051 A 
ATOM     14  C   UNL A   1      28.428  32.807  22.464  1.00  0.00     0.157 A 
ATOM     15  C   UNL A   1      27.924  32.600  21.183  1.00  0.00     0.157 A 
BRANCH  14  16
ATOM     16  O   UNL A   1      28.402  34.057  23.012  1.00  0.00    -0.504 OA
ATOM     17  H   UNL A   1      27.583  34.489  23.158  1.00  0.00     0.293 HD
ENDBRANCH  14  16
BRANCH  15  18
ATOM     18  O   UNL A   1      27.420  33.681  20.515  1.00  0.00    -0.504 OA
ATOM     19  H   UNL A   1      27.841  34.515  20.587  1.00  0.00     0.293 HD
ENDBRANCH  15  18
ENDBRANCH   9  10
ENDBRANCH   6   8
ENDBRANCH   3   4
ENDBRANCH   2   3
ENDBRANCH   1   2
BRANCH   1  20
ATOM     20  C   UNL A   1      31.802  28.371  27.569  1.00  0.00     0.002 C 
BRANCH  20  21
ATOM     21  C   UNL A   1      31.391  29.569  26.710  1.00  0.00     0.021 C 
BRANCH  21  22
ATOM     22  C   UNL A   1      32.543  30.426  26.193  1.00  0.00     0.116 C 
BRANCH  22  23
ATOM     23  N   UNL A   1      32.412  31.827  26.564  1.00  0.00    -0.352 N 
ATOM     24  C   UNL A   1      33.180  32.584  27.412  1.00  0.00     0.251 C 
ATOM     25  H   UNL A   1      31.661  32.303  26.143  1.00  0.00     0.163 HD
ATOM     26  O   UNL A   1      32.822  33.722  27.712  1.00  0.00    -0.269 OA
BRANCH  24  27
ATOM     27  C   UNL A   1      34.425  32.035  27.995  1.00  0.00     0.039 A 
ATOM     28  C   UNL A   1      35.510  32.894  28.196  1.00  0.00     0.014 A 
ATOM     29  C   UNL A   1      34.539  30.681  28.323  1.00  0.00     0.014 A 
ATOM     30  C   UNL A   1      36.682  32.412  28.783  1.00  0.00     0.010 A 
ATOM     31  C   UNL A   1      35.682  30.216  28.969  1.00  0.00     0.010 A 
ATOM     32  C   UNL A   1      36.766  31.075  29.205  1.00  0.00    -0.014 A 
BRANCH  32  33
ATOM     33  C   UNL A   1      37.976  30.565  29.900  1.00  0.00     0.031 A 
ATOM     34  C   UNL A   1      38.246  30.937  31.332  1.00  0.00     0.074 A 
ATOM     35  C   UNL A   1      38.865  29.813  29.223  1.00  0.00     0.049 A 
ATOM     36  N   UNL A   1      39.265  30.619  32.091  1.00  0.00    -0.248 NA
ATOM     37  C   UNL A   1      37.254  31.800  31.990  1.00  0.00     0.031 C 
ATOM     38  C   UNL A   1      38.743  29.420  27.818  1.00  0.00     0.029 A 
ATOM     39  N   UNL A   1      40.049  29.249  29.626  1.00  0.00    -0.354 N 
ATOM     40  C   UNL A   1      39.047  31.256  33.305  1.00  0.00     0.074 A 
ATOM     41  C   UNL A   1      37.823  32.016  33.167  1.00  0.00     0.031 C 
ATOM     42  C   UNL A   1      39.793  28.651  27.486  1.00  0.00     0.029 A 
ATOM     43  C   UNL A   1      40.677  28.525  28.641  1.00  0.00     0.049 A 
ATOM     44  H   UNL A   1      40.414  29.352  30.534  1.00  0.00     0.167 HD
ATOM     45  C   UNL A   1      39.787  31.200  34.439  1.00  0.00     0.037 A 
ATOM     46  C   UNL A   1      41.833  27.837  28.666  1.00  0.00     0.037 A 
ATOM     47  C   UNL A   1      40.988  30.420  34.585  1.00  0.00     0.049 A 
ATOM     48  C   UNL A   1      42.638  27.792  29.934  1.00  0.00     0.074 A 
ATOM     49  C   UNL A   1      41.763  30.234  35.717  1.00  0.00     0.029 A 
ATOM     50  N   UNL A   1      41.593  29.703  33.565  1.00  0.00    -0.354 N 
ATOM     51  N   UNL A   1      42.379  28.336  31.099  1.00  0.00    -0.248 NA
ATOM     52  C   UNL A   1      43.897  27.034  29.890  1.00  0.00     0.031 C 
ATOM     53  C   UNL A   1      42.861  29.438  35.370  1.00  0.00     0.029 A 
ATOM     54  C   UNL A   1      42.746  29.093  34.033  1.00  0.00     0.049 A 
ATOM     55  H   UNL A   1      41.253  29.635  32.643  1.00  0.00     0.167 HD
ATOM     56  C   UNL A   1      43.424  27.962  31.933  1.00  0.00     0.074 A 
ATOM     57  C   UNL A   1      44.315  27.138  31.144  1.00  0.00     0.031 C 
ATOM     58  C   UNL A   1      43.624  28.272  33.238  1.00  0.00     0.037 A 
BRANCH  45  59
ATOM     59  C   UNL A   1      39.314  32.012  35.610  1.00  0.00     0.057 A 
ATOM     60  C   UNL A   1      38.412  31.499  36.550  1.00  0.00     0.134 A 
ATOM     61  C   UNL A   1      39.782  33.318  35.808  1.00  0.00     0.134 A 
ATOM     62  F   UNL A   1      37.916  30.260  36.413  1.00  0.00    -0.206 F 
ATOM     63  C   UNL A   1      37.965  32.267  37.628  1.00  0.00     0.040 A 
ATOM     64  C   UNL A   1      39.364  34.085  36.896  1.00  0.00     0.040 A 
ATOM     65  F   UNL A   1      40.654  33.867  34.951  1.00  0.00    -0.206 F 
ATOM     66  C   UNL A   1      38.446  33.563  37.805  1.00  0.00     0.006 A 
ENDBRANCH  45  59
BRANCH  46  67
ATOM     67  C   UNL A   1      42.280  27.095  27.462  1.00  0.00     0.057 A 
ATOM     68  C   UNL A   1      43.101  27.710  26.509  1.00  0.00     0.134 A 
ATOM     69  C   UNL A   1      41.904  25.767  27.232  1.00  0.00     0.134 A 
ATOM     70  F   UNL A   1      43.477  28.987  26.666  1.00  0.00    -0.206 F 
ATOM     71  C   UNL A   1      43.521  27.034  25.362  1.00  0.00     0.040 A 
ATOM     72  C   UNL A   1      42.334  25.073  26.101  1.00  0.00     0.040 A 
ATOM     73  F   UNL A   1      41.124  25.122  28.112  1.00  0.00    -0.206 F 
ATOM     74  C   UNL A   1      43.141  25.709  25.159  1.00  0.00     0.006 A 
ENDBRANCH  46  67
BRANCH  58  75
ATOM     75  C   UNL A   1      44.837  27.690  33.900  1.00  0.00     0.057 A 
ATOM     76  C   UNL A   1      44.815  26.426  34.503  1.00  0.00     0.134 A 
ATOM     77  C   UNL A   1      46.049  28.393  33.914  1.00  0.00     0.134 A 
ATOM     78  F   UNL A   1      43.683  25.708  34.537  1.00  0.00    -0.206 F 
ATOM     79  C   UNL A   1      45.950  25.892  35.119  1.00  0.00     0.040 A 
ATOM     80  C   UNL A   1      47.196  27.859  34.503  1.00  0.00     0.040 A 
ATOM     81  F   UNL A   1      46.139  29.605  33.347  1.00  0.00    -0.206 F 
ATOM     82  C   UNL A   1      47.146  26.607  35.113  1.00  0.00     0.006 A 
ENDBRANCH  58  75
ENDBRANCH  32  33
ENDBRANCH  24  27
ENDBRANCH  22  23
ENDBRANCH  21  22
ENDBRANCH  20  21
ENDBRANCH   1  20
TORSDOF 16
ENDMDL
MODEL 2
REMARK VINA RESULT:     -10.8      2.907      5.302
REMARK SMILES O=C(/C=C/c1ccc(O)c(O)c1)NCCCCCCNC(=O)c1ccc(-c2c3nc(c(-c4c(F)cccc4F)c4ccc([nH]4)c(-c4c(F)cccc4F)c4nc(c(-c5c(F)cccc5F)c5ccc2[nH]5)C=C4)C=C3)cc1
REMARK SMILES IDX 16 1 15 2 14 3 13 4 1 5 2 6 3 8 4 9 5 10 6 11 12 12 7 13
REMARK SMILES IDX 10 14 8 15 11 16 9 18 17 20 18 21 19 22 20 23 21 24 22 26
REMARK SMILES IDX 23 27 24 28 76 29 25 30 75 31 26 32 27 33 28 34 69 35 29 36
REMARK SMILES IDX 74 37 68 38 70 39 30 40 73 41 67 42 66 43 31 45 57 46 40 47
REMARK SMILES IDX 56 48 41 49 44 50 55 51 71 52 42 53 43 54 54 56 72 57 45 58
REMARK SMILES IDX 32 59 33 60 38 61 34 62 35 63 37 64 39 65 36 66 58 67 59 68
REMARK SMILES IDX 64 69 60 70 61 71 63 72 65 73 62 74 46 75 47 76 52 77 48 78
REMARK SMILES IDX 49 79 51 80 53 81 50 82
REMARK H PARENT 13 7 11 17 9 19 20 25 70 44 44 55
REMARK Flexibility Score: inf
ROOT
ATOM      1  C   UNL A   1      31.445  27.696  26.093  1.00  0.00     0.002 C 
ENDROOT
BRANCH   1   2
ATOM      2  C   UNL A   1      31.728  26.224  25.764  1.00  0.00     0.021 C 
BRANCH   2   3
ATOM      3  C   UNL A   1      30.482  25.361  25.560  1.00  0.00     0.116 C 
BRANCH   3   4
ATOM      4  N   UNL A   1      30.821  24.004  25.188  1.00  0.00    -0.353 N 
ATOM      5  O   UNL A   1      31.070  23.211  27.329  1.00  0.00    -0.270 OA
ATOM      6  C   UNL A   1      31.134  23.047  26.115  1.00  0.00     0.243 C 
ATOM      7  H   UNL A   1      30.826  23.760  24.234  1.00  0.00     0.163 HD
BRANCH   6   8
ATOM      8  C   UNL A   1      31.531  21.720  25.579  1.00  0.00     0.072 C 
ATOM      9  C   UNL A   1      32.483  21.508  24.656  1.00  0.00     0.014 C 
BRANCH   9  10
ATOM     10  C   UNL A   1      32.909  20.167  24.224  1.00  0.00    -0.022 A 
ATOM     11  C   UNL A   1      34.020  19.511  24.783  1.00  0.00     0.012 A 
ATOM     12  C   UNL A   1      32.153  19.508  23.246  1.00  0.00     0.058 A 
ATOM     13  C   UNL A   1      34.394  18.233  24.348  1.00  0.00     0.051 A 
ATOM     14  C   UNL A   1      32.530  18.241  22.821  1.00  0.00     0.157 A 
ATOM     15  C   UNL A   1      33.645  17.608  23.361  1.00  0.00     0.157 A 
BRANCH  14  16
ATOM     16  O   UNL A   1      31.794  17.617  21.855  1.00  0.00    -0.504 OA
ATOM     17  H   UNL A   1      31.001  18.009  21.543  1.00  0.00     0.293 HD
ENDBRANCH  14  16
BRANCH  15  18
ATOM     18  O   UNL A   1      33.962  16.365  22.889  1.00  0.00    -0.504 OA
ATOM     19  H   UNL A   1      33.679  16.102  22.036  1.00  0.00     0.293 HD
ENDBRANCH  15  18
ENDBRANCH   9  10
ENDBRANCH   6   8
ENDBRANCH   3   4
ENDBRANCH   2   3
ENDBRANCH   1   2
BRANCH   1  20
ATOM     20  C   UNL A   1      31.163  28.601  24.890  1.00  0.00     0.002 C 
BRANCH  20  21
ATOM     21  C   UNL A   1      31.543  30.073  25.069  1.00  0.00     0.021 C 
BRANCH  21  22
ATOM     22  C   UNL A   1      32.007  30.461  26.470  1.00  0.00     0.116 C 
BRANCH  22  23
ATOM     23  N   UNL A   1      31.967  31.897  26.699  1.00  0.00    -0.352 N 
ATOM     24  C   UNL A   1      32.812  32.692  27.432  1.00  0.00     0.251 C 
ATOM     25  H   UNL A   1      31.222  32.369  26.263  1.00  0.00     0.163 HD
ATOM     26  O   UNL A   1      32.528  33.873  27.627  1.00  0.00    -0.269 OA
BRANCH  24  27
ATOM     27  C   UNL A   1      34.053  32.135  28.016  1.00  0.00     0.039 A 
ATOM     28  C   UNL A   1      35.060  33.017  28.422  1.00  0.00     0.014 A 
ATOM     29  C   UNL A   1      34.241  30.756  28.147  1.00  0.00     0.014 A 
ATOM     30  C   UNL A   1      36.223  32.521  29.015  1.00  0.00     0.010 A 
ATOM     31  C   UNL A   1      35.370  30.266  28.799  1.00  0.00     0.010 A 
ATOM     32  C   UNL A   1      36.373  31.142  29.239  1.00  0.00    -0.014 A 
BRANCH  32  33
ATOM     33  C   UNL A   1      37.569  30.606  29.938  1.00  0.00     0.031 A 
ATOM     34  C   UNL A   1      37.851  30.982  31.365  1.00  0.00     0.074 A 
ATOM     35  C   UNL A   1      38.437  29.823  29.266  1.00  0.00     0.049 A 
ATOM     36  N   UNL A   1      38.861  30.642  32.126  1.00  0.00    -0.248 NA
ATOM     37  C   UNL A   1      36.884  31.878  32.017  1.00  0.00     0.031 C 
ATOM     38  C   UNL A   1      38.303  29.421  27.865  1.00  0.00     0.029 A 
ATOM     39  N   UNL A   1      39.604  29.229  29.673  1.00  0.00    -0.354 N 
ATOM     40  C   UNL A   1      38.663  31.296  33.335  1.00  0.00     0.074 A 
ATOM     41  C   UNL A   1      37.460  32.088  33.191  1.00  0.00     0.031 C 
ATOM     42  C   UNL A   1      39.330  28.620  27.539  1.00  0.00     0.029 A 
ATOM     43  C   UNL A   1      40.211  28.480  28.694  1.00  0.00     0.049 A 
ATOM     44  H   UNL A   1      39.973  29.330  30.580  1.00  0.00     0.167 HD
ATOM     45  C   UNL A   1      39.402  31.229  34.469  1.00  0.00     0.037 A 
ATOM     46  C   UNL A   1      41.347  27.760  28.724  1.00  0.00     0.037 A 
ATOM     47  C   UNL A   1      40.581  30.417  34.621  1.00  0.00     0.049 A 
ATOM     48  C   UNL A   1      42.152  27.704  29.992  1.00  0.00     0.074 A 
ATOM     49  C   UNL A   1      41.352  30.219  35.754  1.00  0.00     0.029 A 
ATOM     50  N   UNL A   1      41.165  29.674  33.606  1.00  0.00    -0.354 N 
ATOM     51  N   UNL A   1      41.910  28.265  31.152  1.00  0.00    -0.248 NA
ATOM     52  C   UNL A   1      43.389  26.911  29.954  1.00  0.00     0.031 C 
ATOM     53  C   UNL A   1      42.427  29.390  35.413  1.00  0.00     0.029 A 
ATOM     54  C   UNL A   1      42.301  29.037  34.079  1.00  0.00     0.049 A 
ATOM     55  H   UNL A   1      40.822  29.608  32.685  1.00  0.00     0.167 HD
ATOM     56  C   UNL A   1      42.945  27.870  31.989  1.00  0.00     0.074 A 
ATOM     57  C   UNL A   1      43.811  27.014  31.206  1.00  0.00     0.031 C 
ATOM     58  C   UNL A   1      43.155  28.185  33.291  1.00  0.00     0.037 A 
BRANCH  45  59
ATOM     59  C   UNL A   1      38.953  32.064  35.633  1.00  0.00     0.057 A 
ATOM     60  C   UNL A   1      38.174  31.532  36.669  1.00  0.00     0.134 A 
ATOM     61  C   UNL A   1      39.320  33.412  35.728  1.00  0.00     0.134 A 
ATOM     62  F   UNL A   1      37.778  30.251  36.634  1.00  0.00    -0.206 F 
ATOM     63  C   UNL A   1      37.747  32.320  37.740  1.00  0.00     0.040 A 
ATOM     64  C   UNL A   1      38.923  34.202  36.807  1.00  0.00     0.040 A 
ATOM     65  F   UNL A   1      40.072  33.982  34.775  1.00  0.00    -0.206 F 
ATOM     66  C   UNL A   1      38.126  33.659  37.813  1.00  0.00     0.006 A 
ENDBRANCH  45  59
BRANCH  46  67
ATOM     67  C   UNL A   1      41.773  26.995  27.526  1.00  0.00     0.057 A 
ATOM     68  C   UNL A   1      41.435  25.644  27.385  1.00  0.00     0.134 A 
ATOM     69  C   UNL A   1      42.521  27.586  26.502  1.00  0.00     0.134 A 
ATOM     70  F   UNL A   1      40.736  25.020  28.343  1.00  0.00    -0.206 F 
ATOM     71  C   UNL A   1      41.837  24.903  26.272  1.00  0.00     0.040 A 
ATOM     72  C   UNL A   1      42.912  26.862  25.375  1.00  0.00     0.040 A 
ATOM     73  F   UNL A   1      42.871  28.879  26.578  1.00  0.00    -0.206 F 
ATOM     74  C   UNL A   1      42.574  25.515  25.260  1.00  0.00     0.006 A 
ENDBRANCH  46  67
BRANCH  58  75
ATOM     75  C   UNL A   1      44.352  27.575  33.956  1.00  0.00     0.057 A 
ATOM     76  C   UNL A   1      45.591  28.227  33.993  1.00  0.00     0.134 A 
ATOM     77  C   UNL A   1      44.258  26.328  34.588  1.00  0.00     0.134 A 
ATOM     78  F   UNL A   1      45.751  29.416  33.394  1.00  0.00    -0.206 F 
ATOM     79  C   UNL A   1      46.701  27.649  34.614  1.00  0.00     0.040 A 
ATOM     80  C   UNL A   1      45.353  25.752  35.234  1.00  0.00     0.040 A 
ATOM     81  F   UNL A   1      43.098  25.654  34.596  1.00  0.00    -0.206 F 
ATOM     82  C   UNL A   1      46.581  26.411  35.243  1.00  0.00     0.006 A 
ENDBRANCH  58  75
ENDBRANCH  32  33
ENDBRANCH  24  27
ENDBRANCH  22  23
ENDBRANCH  21  22
ENDBRANCH  20  21
ENDBRANCH   1  20
TORSDOF 16
ENDMDL
MODEL 3
REMARK VINA RESULT:     -10.8      4.973      9.466
REMARK SMILES O=C(/C=C/c1ccc(O)c(O)c1)NCCCCCCNC(=O)c1ccc(-c2c3nc(c(-c4c(F)cccc4F)c4ccc([nH]4)c(-c4c(F)cccc4F)c4nc(c(-c5c(F)cccc5F)c5ccc2[nH]5)C=C4)C=C3)cc1
REMARK SMILES IDX 16 1 15 2 14 3 13 4 1 5 2 6 3 8 4 9 5 10 6 11 12 12 7 13
REMARK SMILES IDX 10 14 8 15 11 16 9 18 17 20 18 21 19 22 20 23 21 24 22 26
REMARK SMILES IDX 23 27 24 28 76 29 25 30 75 31 26 32 27 33 28 34 69 35 29 36
REMARK SMILES IDX 74 37 68 38 70 39 30 40 73 41 67 42 66 43 31 45 57 46 40 47
REMARK SMILES IDX 56 48 41 49 44 50 55 51 71 52 42 53 43 54 54 56 72 57 45 58
REMARK SMILES IDX 32 59 33 60 38 61 34 62 35 63 37 64 39 65 36 66 58 67 59 68
REMARK SMILES IDX 64 69 60 70 61 71 63 72 65 73 62 74 46 75 47 76 52 77 48 78
REMARK SMILES IDX 49 79 51 80 53 81 50 82
REMARK H PARENT 13 7 11 17 9 19 20 25 70 44 44 55
REMARK Flexibility Score: inf
ROOT
ATOM      1  C   UNL A   1      34.061  25.539  25.796  1.00  0.00     0.002 C 
ENDROOT
BRANCH   1   2
ATOM      2  C   UNL A   1      32.713  26.254  25.633  1.00  0.00     0.021 C 
BRANCH   2   3
ATOM      3  C   UNL A   1      31.486  25.368  25.856  1.00  0.00     0.116 C 
BRANCH   3   4
ATOM      4  N   UNL A   1      31.684  24.033  25.334  1.00  0.00    -0.353 N 
ATOM      5  O   UNL A   1      31.402  22.937  27.332  1.00  0.00    -0.270 OA
ATOM      6  C   UNL A   1      31.670  22.923  26.135  1.00  0.00     0.243 C 
ATOM      7  H   UNL A   1      31.833  23.918  24.368  1.00  0.00     0.163 HD
BRANCH   6   8
ATOM      8  C   UNL A   1      31.959  21.629  25.468  1.00  0.00     0.072 C 
ATOM      9  C   UNL A   1      33.172  21.217  25.064  1.00  0.00     0.014 C 
BRANCH   9  10
ATOM     10  C   UNL A   1      33.427  19.885  24.493  1.00  0.00    -0.022 A 
ATOM     11  C   UNL A   1      34.540  19.108  24.857  1.00  0.00     0.012 A 
ATOM     12  C   UNL A   1      32.501  19.360  23.580  1.00  0.00     0.058 A 
ATOM     13  C   UNL A   1      34.749  17.842  24.294  1.00  0.00     0.051 A 
ATOM     14  C   UNL A   1      32.716  18.105  23.027  1.00  0.00     0.157 A 
ATOM     15  C   UNL A   1      33.832  17.351  23.374  1.00  0.00     0.157 A 
BRANCH  14  16
ATOM     16  O   UNL A   1      31.815  17.613  22.127  1.00  0.00    -0.504 OA
ATOM     17  H   UNL A   1      32.106  17.308  21.290  1.00  0.00     0.293 HD
ENDBRANCH  14  16
BRANCH  15  18
ATOM     18  O   UNL A   1      33.983  16.127  22.784  1.00  0.00    -0.504 OA
ATOM     19  H   UNL A   1      33.314  15.795  22.219  1.00  0.00     0.293 HD
ENDBRANCH  15  18
ENDBRANCH   9  10
ENDBRANCH   6   8
ENDBRANCH   3   4
ENDBRANCH   2   3
ENDBRANCH   1   2
BRANCH   1  20
ATOM     20  C   UNL A   1      34.678  24.987  24.508  1.00  0.00     0.002 C 
BRANCH  20  21
ATOM     21  C   UNL A   1      35.602  23.779  24.685  1.00  0.00     0.021 C 
BRANCH  21  22
ATOM     22  C   UNL A   1      36.390  23.747  25.991  1.00  0.00     0.116 C 
BRANCH  22  23
ATOM     23  N   UNL A   1      37.416  22.715  26.005  1.00  0.00    -0.352 N 
ATOM     24  C   UNL A   1      38.753  22.812  26.298  1.00  0.00     0.251 C 
ATOM     25  H   UNL A   1      37.104  21.812  25.768  1.00  0.00     0.163 HD
ATOM     26  O   UNL A   1      39.493  21.847  26.112  1.00  0.00    -0.269 OA
BRANCH  24  27
ATOM     27  C   UNL A   1      39.322  24.078  26.812  1.00  0.00     0.039 A 
ATOM     28  C   UNL A   1      39.956  24.944  25.914  1.00  0.00     0.014 A 
ATOM     29  C   UNL A   1      39.255  24.409  28.168  1.00  0.00     0.014 A 
ATOM     30  C   UNL A   1      40.463  26.165  26.364  1.00  0.00     0.010 A 
ATOM     31  C   UNL A   1      39.701  25.654  28.604  1.00  0.00     0.010 A 
ATOM     32  C   UNL A   1      40.311  26.545  27.707  1.00  0.00    -0.014 A 
BRANCH  32  33
ATOM     33  C   UNL A   1      40.776  27.872  28.185  1.00  0.00     0.031 A 
ATOM     34  C   UNL A   1      42.240  28.214  28.182  1.00  0.00     0.074 A 
ATOM     35  C   UNL A   1      39.883  28.751  28.680  1.00  0.00     0.049 A 
ATOM     36  N   UNL A   1      42.835  29.305  28.594  1.00  0.00    -0.248 NA
ATOM     37  C   UNL A   1      43.158  27.186  27.671  1.00  0.00     0.031 C 
ATOM     38  C   UNL A   1      38.440  28.524  28.783  1.00  0.00     0.029 A 
ATOM     39  N   UNL A   1      40.059  30.011  29.194  1.00  0.00    -0.354 N 
ATOM     40  C   UNL A   1      44.195  29.088  28.411  1.00  0.00     0.074 A 
ATOM     41  C   UNL A   1      44.339  27.744  27.893  1.00  0.00     0.031 C 
ATOM     42  C   UNL A   1      37.859  29.621  29.294  1.00  0.00     0.029 A 
ATOM     43  C   UNL A   1      38.888  30.613  29.588  1.00  0.00     0.049 A 
ATOM     44  H   UNL A   1      40.940  30.443  29.272  1.00  0.00     0.167 HD
ATOM     45  C   UNL A   1      45.228  29.936  28.634  1.00  0.00     0.037 A 
ATOM     46  C   UNL A   1      38.669  31.829  30.122  1.00  0.00     0.037 A 
ATOM     47  C   UNL A   1      45.081  31.282  29.120  1.00  0.00     0.049 A 
ATOM     48  C   UNL A   1      39.832  32.749  30.364  1.00  0.00     0.074 A 
ATOM     49  C   UNL A   1      46.059  32.245  29.302  1.00  0.00     0.029 A 
ATOM     50  N   UNL A   1      43.880  31.855  29.509  1.00  0.00    -0.354 N 
ATOM     51  N   UNL A   1      41.104  32.559  30.113  1.00  0.00    -0.248 NA
ATOM     52  C   UNL A   1      39.525  34.056  30.963  1.00  0.00     0.031 C 
ATOM     53  C   UNL A   1      45.455  33.387  29.842  1.00  0.00     0.029 A 
ATOM     54  C   UNL A   1      44.095  33.150  29.955  1.00  0.00     0.049 A 
ATOM     55  H   UNL A   1      43.003  31.409  29.473  1.00  0.00     0.167 HD
ATOM     56  C   UNL A   1      41.746  33.731  30.493  1.00  0.00     0.074 A 
ATOM     57  C   UNL A   1      40.721  34.628  30.983  1.00  0.00     0.031 C 
ATOM     58  C   UNL A   1      43.066  34.035  30.438  1.00  0.00     0.037 A 
BRANCH  45  59
ATOM     59  C   UNL A   1      46.611  29.422  28.356  1.00  0.00     0.057 A 
ATOM     60  C   UNL A   1      47.381  28.794  29.343  1.00  0.00     0.134 A 
ATOM     61  C   UNL A   1      47.174  29.544  27.079  1.00  0.00     0.134 A 
ATOM     62  F   UNL A   1      46.906  28.655  30.591  1.00  0.00    -0.206 F 
ATOM     63  C   UNL A   1      48.673  28.334  29.080  1.00  0.00     0.040 A 
ATOM     64  C   UNL A   1      48.453  29.064  26.796  1.00  0.00     0.040 A 
ATOM     65  F   UNL A   1      46.489  30.128  26.085  1.00  0.00    -0.206 F 
ATOM     66  C   UNL A   1      49.210  28.465  27.801  1.00  0.00     0.006 A 
ENDBRANCH  45  59
BRANCH  46  67
ATOM     67  C   UNL A   1      37.285  32.266  30.427  1.00  0.00     0.057 A 
ATOM     68  C   UNL A   1      36.557  33.028  29.505  1.00  0.00     0.134 A 
ATOM     69  C   UNL A   1      36.658  31.939  31.634  1.00  0.00     0.134 A 
ATOM     70  F   UNL A   1      37.114  33.388  28.340  1.00  0.00    -0.206 F 
ATOM     71  C   UNL A   1      35.259  33.461  29.779  1.00  0.00     0.040 A 
ATOM     72  C   UNL A   1      35.353  32.348  31.912  1.00  0.00     0.040 A 
ATOM     73  F   UNL A   1      37.301  31.206  32.556  1.00  0.00    -0.206 F 
ATOM     74  C   UNL A   1      34.651  33.116  30.984  1.00  0.00     0.006 A 
ENDBRANCH  46  67
BRANCH  58  75
ATOM     75  C   UNL A   1      43.469  35.407  30.889  1.00  0.00     0.057 A 
ATOM     76  C   UNL A   1      43.803  35.679  32.222  1.00  0.00     0.134 A 
ATOM     77  C   UNL A   1      43.546  36.465  29.974  1.00  0.00     0.134 A 
ATOM     78  F   UNL A   1      43.736  34.714  33.151  1.00  0.00    -0.206 F 
ATOM     79  C   UNL A   1      44.177  36.961  32.633  1.00  0.00     0.040 A 
ATOM     80  C   UNL A   1      43.942  37.744  30.368  1.00  0.00     0.040 A 
ATOM     81  F   UNL A   1      43.246  36.270  28.681  1.00  0.00    -0.206 F 
ATOM     82  C   UNL A   1      44.253  37.996  31.702  1.00  0.00     0.006 A 
ENDBRANCH  58  75
ENDBRANCH  32  33
ENDBRANCH  24  27
ENDBRANCH  22  23
ENDBRANCH  21  22
ENDBRANCH  20  21
ENDBRANCH   1  20
TORSDOF 16
ENDMDL
