MODEL 1
REMARK VINA RESULT:     -12.3      0.000      0.000
REMARK SMILES O=C(NCCCCCCNC(=O)[C@@H](Cc1ccc(O)cc1)Nc1c2ccccc2nc2ccccc12)c1ccc(-c2c3nc(c(-c4c(F)cccc4F)c4ccc([nH]4)c(-c4c(F)cccc4F)c4nc(c(-c5c(F)cccc5F)c5ccc2[nH]5)C=C4)C=C3)cc1
REMARK SMILES IDX 7 1 6 2 5 3 4 4 3 5 1 6 2 7 37 9 38 10 90 11 39 12 89 13
REMARK SMILES IDX 40 14 41 15 42 16 83 17 43 18 88 19 82 20 84 21 44 22 87 23
REMARK SMILES IDX 81 24 80 25 45 27 71 28 54 29 70 30 55 31 58 32 69 33 85 34
REMARK SMILES IDX 56 35 57 36 68 38 86 39 59 40 46 41 47 42 52 43 48 44 49 45
REMARK SMILES IDX 51 46 53 47 50 48 72 49 73 50 78 51 74 52 75 53 77 54 79 55
REMARK SMILES IDX 76 56 60 57 61 58 66 59 62 60 63 61 65 62 67 63 64 64 8 65
REMARK SMILES IDX 9 66 10 67 11 68 12 70 13 71 14 72 15 73 16 74 21 75 17 76
REMARK SMILES IDX 20 77 18 78 19 79 22 81 23 83 24 84 36 85 25 86 29 87 31 88
REMARK SMILES IDX 35 89 26 90 28 91 30 92 32 93 34 94 27 95 33 96
REMARK H PARENT 3 8 84 26 58 37 10 69 19 80 22 82
REMARK Flexibility Score: inf
ROOT
ATOM      1  C   UNL A   1      31.295  27.759  26.336  1.00  0.00     0.002 C 
ENDROOT
BRANCH   1   2
ATOM      2  C   UNL A   1      32.156  28.496  25.307  1.00  0.00     0.002 C 
BRANCH   2   3
ATOM      3  C   UNL A   1      33.617  28.739  25.693  1.00  0.00     0.021 C 
BRANCH   3   4
ATOM      4  C   UNL A   1      33.924  28.715  27.190  1.00  0.00     0.116 C 
BRANCH   4   5
ATOM      5  N   UNL A   1      33.963  30.049  27.766  1.00  0.00    -0.352 N 
ATOM      6  O   UNL A   1      34.689  31.731  29.071  1.00  0.00    -0.269 OA
ATOM      7  C   UNL A   1      34.949  30.680  28.481  1.00  0.00     0.251 C 
ATOM      8  H   UNL A   1      33.152  30.586  27.620  1.00  0.00     0.163 HD
BRANCH   7   9
ATOM      9  C   UNL A   1      36.319  30.127  28.557  1.00  0.00     0.039 A 
ATOM     10  C   UNL A   1      37.216  30.261  27.494  1.00  0.00     0.014 A 
ATOM     11  C   UNL A   1      36.749  29.550  29.759  1.00  0.00     0.014 A 
ATOM     12  C   UNL A   1      38.505  29.739  27.598  1.00  0.00     0.010 A 
ATOM     13  C   UNL A   1      38.064  29.088  29.886  1.00  0.00     0.010 A 
ATOM     14  C   UNL A   1      38.951  29.171  28.803  1.00  0.00    -0.014 A 
BRANCH  14  15
ATOM     15  C   UNL A   1      40.375  28.763  28.944  1.00  0.00     0.031 A 
ATOM     16  C   UNL A   1      40.849  27.408  28.503  1.00  0.00     0.074 A 
ATOM     17  C   UNL A   1      41.246  29.638  29.489  1.00  0.00     0.049 A 
ATOM     18  N   UNL A   1      42.056  26.901  28.557  1.00  0.00    -0.248 NA
ATOM     19  C   UNL A   1      39.843  26.500  27.934  1.00  0.00     0.031 C 
ATOM     20  C   UNL A   1      40.901  30.974  29.981  1.00  0.00     0.029 A 
ATOM     21  N   UNL A   1      42.596  29.540  29.714  1.00  0.00    -0.354 N 
ATOM     22  C   UNL A   1      41.954  25.615  28.040  1.00  0.00     0.074 A 
ATOM     23  C   UNL A   1      40.561  25.409  27.701  1.00  0.00     0.031 C 
ATOM     24  C   UNL A   1      42.014  31.581  30.421  1.00  0.00     0.029 A 
ATOM     25  C   UNL A   1      43.138  30.662  30.292  1.00  0.00     0.049 A 
ATOM     26  H   UNL A   1      43.125  28.742  29.483  1.00  0.00     0.167 HD
ATOM     27  C   UNL A   1      42.934  24.697  27.858  1.00  0.00     0.037 A 
ATOM     28  C   UNL A   1      44.397  30.918  30.694  1.00  0.00     0.037 A 
ATOM     29  C   UNL A   1      44.321  24.909  28.189  1.00  0.00     0.049 A 
ATOM     30  C   UNL A   1      45.456  29.871  30.503  1.00  0.00     0.074 A 
ATOM     31  C   UNL A   1      45.393  24.053  27.997  1.00  0.00     0.029 A 
ATOM     32  N   UNL A   1      44.829  26.053  28.786  1.00  0.00    -0.354 N 
ATOM     33  N   UNL A   1      45.352  28.682  29.961  1.00  0.00    -0.248 NA
ATOM     34  C   UNL A   1      46.806  30.199  30.980  1.00  0.00     0.031 C 
ATOM     35  C   UNL A   1      46.540  24.658  28.521  1.00  0.00     0.029 A 
ATOM     36  C   UNL A   1      46.192  25.913  28.993  1.00  0.00     0.049 A 
ATOM     37  H   UNL A   1      44.299  26.847  29.027  1.00  0.00     0.167 HD
ATOM     38  C   UNL A   1      46.625  28.130  30.012  1.00  0.00     0.074 A 
ATOM     39  C   UNL A   1      47.488  29.122  30.618  1.00  0.00     0.031 C 
ATOM     40  C   UNL A   1      47.041  26.910  29.594  1.00  0.00     0.037 A 
BRANCH  27  41
ATOM     41  C   UNL A   1      42.550  23.366  27.280  1.00  0.00     0.057 A 
ATOM     42  C   UNL A   1      42.670  23.091  25.913  1.00  0.00     0.134 A 
ATOM     43  C   UNL A   1      42.130  22.320  28.114  1.00  0.00     0.134 A 
ATOM     44  F   UNL A   1      43.059  24.050  25.058  1.00  0.00    -0.206 F 
ATOM     45  C   UNL A   1      42.376  21.829  25.393  1.00  0.00     0.040 A 
ATOM     46  C   UNL A   1      41.855  21.048  27.609  1.00  0.00     0.040 A 
ATOM     47  F   UNL A   1      42.002  22.513  29.436  1.00  0.00    -0.206 F 
ATOM     48  C   UNL A   1      41.976  20.800  26.244  1.00  0.00     0.006 A 
ENDBRANCH  27  41
BRANCH  28  49
ATOM     49  C   UNL A   1      44.725  32.220  31.329  1.00  0.00     0.057 A 
ATOM     50  C   UNL A   1      44.590  32.409  32.709  1.00  0.00     0.134 A 
ATOM     51  C   UNL A   1      45.166  33.310  30.568  1.00  0.00     0.134 A 
ATOM     52  F   UNL A   1      44.153  31.409  33.488  1.00  0.00    -0.206 F 
ATOM     53  C   UNL A   1      44.860  33.641  33.307  1.00  0.00     0.040 A 
ATOM     54  C   UNL A   1      45.467  34.539  31.157  1.00  0.00     0.040 A 
ATOM     55  F   UNL A   1      45.321  33.192  29.242  1.00  0.00    -0.206 F 
ATOM     56  C   UNL A   1      45.306  34.709  32.530  1.00  0.00     0.006 A 
ENDBRANCH  28  49
BRANCH  40  57
ATOM     57  C   UNL A   1      48.499  26.595  29.752  1.00  0.00     0.057 A 
ATOM     58  C   UNL A   1      49.440  26.939  28.774  1.00  0.00     0.134 A 
ATOM     59  C   UNL A   1      48.970  25.959  30.908  1.00  0.00     0.134 A 
ATOM     60  F   UNL A   1      49.052  27.535  27.637  1.00  0.00    -0.206 F 
ATOM     61  C   UNL A   1      50.795  26.639  28.929  1.00  0.00     0.040 A 
ATOM     62  C   UNL A   1      50.324  25.678  31.087  1.00  0.00     0.040 A 
ATOM     63  F   UNL A   1      48.122  25.609  31.887  1.00  0.00    -0.206 F 
ATOM     64  C   UNL A   1      51.241  26.012  30.091  1.00  0.00     0.006 A 
ENDBRANCH  40  57
ENDBRANCH  14  15
ENDBRANCH   7   9
ENDBRANCH   4   5
ENDBRANCH   3   4
ENDBRANCH   2   3
ENDBRANCH   1   2
BRANCH   1  65
ATOM     65  C   UNL A   1      31.307  26.226  26.266  1.00  0.00     0.021 C 
BRANCH  65  66
ATOM     66  C   UNL A   1      29.981  25.570  25.835  1.00  0.00     0.116 C 
BRANCH  66  67
ATOM     67  N   UNL A   1      29.924  24.185  26.281  1.00  0.00    -0.354 N 
ATOM     68  C   UNL A   1      30.446  22.975  25.981  1.00  0.00     0.242 C 
ATOM     69  H   UNL A   1      29.310  24.105  27.046  1.00  0.00     0.163 HD
ATOM     70  O   UNL A   1      29.884  22.056  26.607  1.00  0.00    -0.273 OA
BRANCH  68  71
ATOM     71  C   UNL A   1      31.567  22.577  24.980  1.00  0.00     0.173 C 
BRANCH  71  72
ATOM     72  C   UNL A   1      31.426  23.168  23.550  1.00  0.00     0.070 C 
BRANCH  72  73
ATOM     73  C   UNL A   1      32.007  24.507  23.140  1.00  0.00    -0.045 A 
ATOM     74  C   UNL A   1      31.248  25.500  22.533  1.00  0.00     0.007 A 
ATOM     75  C   UNL A   1      33.386  24.746  23.271  1.00  0.00     0.007 A 
ATOM     76  C   UNL A   1      31.817  26.657  21.999  1.00  0.00     0.046 A 
ATOM     77  C   UNL A   1      33.967  25.915  22.766  1.00  0.00     0.046 A 
ATOM     78  C   UNL A   1      33.181  26.849  22.107  1.00  0.00     0.115 A 
BRANCH  78  79
ATOM     79  O   UNL A   1      33.781  27.946  21.568  1.00  0.00    -0.508 OA
ATOM     80  H   UNL A   1      33.815  28.747  22.052  1.00  0.00     0.293 HD
ENDBRANCH  78  79
ENDBRANCH  72  73
ENDBRANCH  71  72
BRANCH  71  81
ATOM     81  N   UNL A   1      32.932  22.588  25.514  1.00  0.00    -0.372 N 
ATOM     82  H   UNL A   1      33.157  23.360  26.084  1.00  0.00     0.161 HD
BRANCH  81  83
ATOM     83  C   UNL A   1      33.965  21.652  25.327  1.00  0.00     0.054 A 
ATOM     84  C   UNL A   1      33.791  20.257  24.990  1.00  0.00     0.024 A 
ATOM     85  C   UNL A   1      35.305  22.136  25.508  1.00  0.00     0.024 A 
ATOM     86  C   UNL A   1      32.571  19.551  24.775  1.00  0.00     0.012 A 
ATOM     87  C   UNL A   1      34.966  19.490  24.806  1.00  0.00     0.073 A 
ATOM     88  C   UNL A   1      36.372  21.248  25.271  1.00  0.00     0.073 A 
ATOM     89  C   UNL A   1      35.638  23.451  25.934  1.00  0.00     0.012 A 
ATOM     90  C   UNL A   1      32.515  18.188  24.458  1.00  0.00     0.001 A 
ATOM     91  C   UNL A   1      34.898  18.143  24.470  1.00  0.00     0.029 A 
ATOM     92  N   UNL A   1      36.200  19.976  24.924  1.00  0.00    -0.248 NA
ATOM     93  C   UNL A   1      37.682  21.683  25.411  1.00  0.00     0.029 A 
ATOM     94  C   UNL A   1      36.962  23.867  26.084  1.00  0.00     0.001 A 
ATOM     95  C   UNL A   1      33.688  17.478  24.304  1.00  0.00     0.002 A 
ATOM     96  C   UNL A   1      37.990  22.981  25.812  1.00  0.00     0.002 A 
ENDBRANCH  81  83
ENDBRANCH  71  81
ENDBRANCH  68  71
ENDBRANCH  66  67
ENDBRANCH  65  66
ENDBRANCH   1  65
TORSDOF 18
ENDMDL
MODEL 2
REMARK VINA RESULT:     -12.3      3.194      6.553
REMARK SMILES O=C(NCCCCCCNC(=O)[C@@H](Cc1ccc(O)cc1)Nc1c2ccccc2nc2ccccc12)c1ccc(-c2c3nc(c(-c4c(F)cccc4F)c4ccc([nH]4)c(-c4c(F)cccc4F)c4nc(c(-c5c(F)cccc5F)c5ccc2[nH]5)C=C4)C=C3)cc1
REMARK SMILES IDX 7 1 6 2 5 3 4 4 3 5 1 6 2 7 37 9 38 10 90 11 39 12 89 13
REMARK SMILES IDX 40 14 41 15 42 16 83 17 43 18 88 19 82 20 84 21 44 22 87 23
REMARK SMILES IDX 81 24 80 25 45 27 71 28 54 29 70 30 55 31 58 32 69 33 85 34
REMARK SMILES IDX 56 35 57 36 68 38 86 39 59 40 46 41 47 42 52 43 48 44 49 45
REMARK SMILES IDX 51 46 53 47 50 48 72 49 73 50 78 51 74 52 75 53 77 54 79 55
REMARK SMILES IDX 76 56 60 57 61 58 66 59 62 60 63 61 65 62 67 63 64 64 8 65
REMARK SMILES IDX 9 66 10 67 11 68 12 70 13 71 14 72 15 73 16 74 21 75 17 76
REMARK SMILES IDX 20 77 18 78 19 79 22 81 23 83 24 84 36 85 25 86 29 87 31 88
REMARK SMILES IDX 35 89 26 90 28 91 30 92 32 93 34 94 27 95 33 96
REMARK H PARENT 3 8 84 26 58 37 10 69 19 80 22 82
REMARK Flexibility Score: inf
ROOT
ATOM      1  C   UNL A   1      33.890  28.082  25.936  1.00  0.00     0.002 C 
ENDROOT
BRANCH   1   2
ATOM      2  C   UNL A   1      33.253  28.967  24.861  1.00  0.00     0.002 C 
BRANCH   2   3
ATOM      3  C   UNL A   1      31.998  29.740  25.273  1.00  0.00     0.021 C 
BRANCH   3   4
ATOM      4  C   UNL A   1      31.975  30.256  26.711  1.00  0.00     0.116 C 
BRANCH   4   5
ATOM      5  N   UNL A   1      31.968  31.708  26.775  1.00  0.00    -0.352 N 
ATOM      6  O   UNL A   1      32.503  33.761  27.524  1.00  0.00    -0.269 OA
ATOM      7  C   UNL A   1      32.821  32.574  27.408  1.00  0.00     0.251 C 
ATOM      8  H   UNL A   1      31.231  32.139  26.286  1.00  0.00     0.163 HD
BRANCH   7   9
ATOM      9  C   UNL A   1      34.117  32.117  27.955  1.00  0.00     0.039 A 
ATOM     10  C   UNL A   1      35.136  33.023  28.260  1.00  0.00     0.014 A 
ATOM     11  C   UNL A   1      34.279  30.761  28.266  1.00  0.00     0.014 A 
ATOM     12  C   UNL A   1      36.344  32.565  28.785  1.00  0.00     0.010 A 
ATOM     13  C   UNL A   1      35.466  30.312  28.856  1.00  0.00     0.010 A 
ATOM     14  C   UNL A   1      36.514  31.209  29.112  1.00  0.00    -0.014 A 
BRANCH  14  15
ATOM     15  C   UNL A   1      37.748  30.768  29.815  1.00  0.00     0.031 A 
ATOM     16  C   UNL A   1      38.032  31.179  31.232  1.00  0.00     0.074 A 
ATOM     17  C   UNL A   1      38.626  29.988  29.151  1.00  0.00     0.049 A 
ATOM     18  N   UNL A   1      39.060  30.878  31.986  1.00  0.00    -0.248 NA
ATOM     19  C   UNL A   1      37.040  32.043  31.889  1.00  0.00     0.031 C 
ATOM     20  C   UNL A   1      38.476  29.545  27.763  1.00  0.00     0.029 A 
ATOM     21  N   UNL A   1      39.811  29.425  29.552  1.00  0.00    -0.354 N 
ATOM     22  C   UNL A   1      38.847  31.521  33.199  1.00  0.00     0.074 A 
ATOM     23  C   UNL A   1      37.602  32.250  33.073  1.00  0.00     0.031 C 
ATOM     24  C   UNL A   1      39.511  28.756  27.439  1.00  0.00     0.029 A 
ATOM     25  C   UNL A   1      40.423  28.680  28.574  1.00  0.00     0.049 A 
ATOM     26  H   UNL A   1      40.186  29.544  30.455  1.00  0.00     0.167 HD
ATOM     27  C   UNL A   1      39.614  31.496  34.315  1.00  0.00     0.037 A 
ATOM     28  C   UNL A   1      41.598  28.023  28.580  1.00  0.00     0.037 A 
ATOM     29  C   UNL A   1      40.849  30.762  34.440  1.00  0.00     0.049 A 
ATOM     30  C   UNL A   1      42.439  28.036  29.824  1.00  0.00     0.074 A 
ATOM     31  C   UNL A   1      41.672  30.641  35.547  1.00  0.00     0.029 A 
ATOM     32  N   UNL A   1      41.443  30.031  33.422  1.00  0.00    -0.354 N 
ATOM     33  N   UNL A   1      42.194  28.603  30.980  1.00  0.00    -0.248 NA
ATOM     34  C   UNL A   1      43.720  27.319  29.764  1.00  0.00     0.031 C 
ATOM     35  C   UNL A   1      42.786  29.877  35.187  1.00  0.00     0.029 A 
ATOM     36  C   UNL A   1      42.634  29.479  33.869  1.00  0.00     0.049 A 
ATOM     37  H   UNL A   1      41.074  29.920  32.516  1.00  0.00     0.167 HD
ATOM     38  C   UNL A   1      43.278  28.294  31.791  1.00  0.00     0.074 A 
ATOM     39  C   UNL A   1      44.171  27.472  31.001  1.00  0.00     0.031 C 
ATOM     40  C   UNL A   1      43.512  28.659  33.074  1.00  0.00     0.037 A 
BRANCH  27  41
ATOM     41  C   UNL A   1      39.155  32.293  35.501  1.00  0.00     0.057 A 
ATOM     42  C   UNL A   1      39.504  33.639  35.668  1.00  0.00     0.134 A 
ATOM     43  C   UNL A   1      38.288  31.729  36.447  1.00  0.00     0.134 A 
ATOM     44  F   UNL A   1      40.337  34.237  34.803  1.00  0.00    -0.206 F 
ATOM     45  C   UNL A   1      39.017  34.393  36.737  1.00  0.00     0.040 A 
ATOM     46  C   UNL A   1      37.776  32.479  37.508  1.00  0.00     0.040 A 
ATOM     47  F   UNL A   1      37.906  30.447  36.343  1.00  0.00    -0.206 F 
ATOM     48  C   UNL A   1      38.142  33.814  37.657  1.00  0.00     0.006 A 
ENDBRANCH  27  41
BRANCH  28  49
ATOM     49  C   UNL A   1      42.055  27.305  27.363  1.00  0.00     0.057 A 
ATOM     50  C   UNL A   1      41.776  25.946  27.174  1.00  0.00     0.134 A 
ATOM     51  C   UNL A   1      42.793  27.957  26.368  1.00  0.00     0.134 A 
ATOM     52  F   UNL A   1      41.090  25.262  28.101  1.00  0.00    -0.206 F 
ATOM     53  C   UNL A   1      42.235  25.257  26.051  1.00  0.00     0.040 A 
ATOM     54  C   UNL A   1      43.233  27.287  25.226  1.00  0.00     0.040 A 
ATOM     55  F   UNL A   1      43.088  29.260  26.487  1.00  0.00    -0.206 F 
ATOM     56  C   UNL A   1      42.961  25.929  25.070  1.00  0.00     0.006 A 
ENDBRANCH  28  49
BRANCH  40  57
ATOM     57  C   UNL A   1      44.769  28.146  33.712  1.00  0.00     0.057 A 
ATOM     58  C   UNL A   1      44.815  26.909  34.366  1.00  0.00     0.134 A 
ATOM     59  C   UNL A   1      45.955  28.890  33.649  1.00  0.00     0.134 A 
ATOM     60  F   UNL A   1      43.711  26.156  34.475  1.00  0.00    -0.206 F 
ATOM     61  C   UNL A   1      45.990  26.442  34.959  1.00  0.00     0.040 A 
ATOM     62  C   UNL A   1      47.141  28.422  34.214  1.00  0.00     0.040 A 
ATOM     63  F   UNL A   1      45.981  30.080  33.030  1.00  0.00    -0.206 F 
ATOM     64  C   UNL A   1      47.159  27.196  34.878  1.00  0.00     0.006 A 
ENDBRANCH  40  57
ENDBRANCH  14  15
ENDBRANCH   7   9
ENDBRANCH   4   5
ENDBRANCH   3   4
ENDBRANCH   2   3
ENDBRANCH   1   2
BRANCH   1  65
ATOM     65  C   UNL A   1      33.379  26.638  26.025  1.00  0.00     0.021 C 
BRANCH  65  66
ATOM     66  C   UNL A   1      31.929  26.476  26.520  1.00  0.00     0.116 C 
BRANCH  66  67
ATOM     67  N   UNL A   1      31.698  25.119  26.997  1.00  0.00    -0.354 N 
ATOM     68  C   UNL A   1      31.558  23.862  26.523  1.00  0.00     0.242 C 
ATOM     69  H   UNL A   1      31.620  25.118  27.978  1.00  0.00     0.163 HD
ATOM     70  O   UNL A   1      31.182  23.068  27.408  1.00  0.00    -0.273 OA
BRANCH  68  71
ATOM     71  C   UNL A   1      31.749  23.294  25.088  1.00  0.00     0.173 C 
BRANCH  71  72
ATOM     72  C   UNL A   1      30.741  23.813  24.026  1.00  0.00     0.070 C 
BRANCH  72  73
ATOM     73  C   UNL A   1      30.701  25.251  23.547  1.00  0.00    -0.045 A 
ATOM     74  C   UNL A   1      29.674  26.125  23.881  1.00  0.00     0.007 A 
ATOM     75  C   UNL A   1      31.673  25.720  22.646  1.00  0.00     0.007 A 
ATOM     76  C   UNL A   1      29.546  27.387  23.301  1.00  0.00     0.046 A 
ATOM     77  C   UNL A   1      31.574  26.996  22.078  1.00  0.00     0.046 A 
ATOM     78  C   UNL A   1      30.494  27.810  22.388  1.00  0.00     0.115 A 
BRANCH  78  79
ATOM     79  O   UNL A   1      30.387  29.018  21.772  1.00  0.00    -0.508 OA
ATOM     80  H   UNL A   1      31.157  29.464  21.478  1.00  0.00     0.293 HD
ENDBRANCH  78  79
ENDBRANCH  72  73
ENDBRANCH  71  72
BRANCH  71  81
ATOM     81  N   UNL A   1      33.134  23.196  24.620  1.00  0.00    -0.372 N 
ATOM     82  H   UNL A   1      33.474  23.984  24.136  1.00  0.00     0.161 HD
BRANCH  81  83
ATOM     83  C   UNL A   1      34.046  22.134  24.765  1.00  0.00     0.054 A 
ATOM     84  C   UNL A   1      33.754  20.734  24.555  1.00  0.00     0.024 A 
ATOM     85  C   UNL A   1      35.376  22.489  25.176  1.00  0.00     0.024 A 
ATOM     86  C   UNL A   1      32.517  20.144  24.161  1.00  0.00     0.012 A 
ATOM     87  C   UNL A   1      34.826  19.824  24.715  1.00  0.00     0.073 A 
ATOM     88  C   UNL A   1      36.337  21.464  25.274  1.00  0.00     0.073 A 
ATOM     89  C   UNL A   1      35.793  23.804  25.514  1.00  0.00     0.012 A 
ATOM     90  C   UNL A   1      32.340  18.765  23.993  1.00  0.00     0.001 A 
ATOM     91  C   UNL A   1      34.643  18.460  24.523  1.00  0.00     0.029 A 
ATOM     92  N   UNL A   1      36.066  20.183  25.041  1.00  0.00    -0.248 NA
ATOM     93  C   UNL A   1      37.640  21.767  25.644  1.00  0.00     0.029 A 
ATOM     94  C   UNL A   1      37.105  24.088  25.899  1.00  0.00     0.001 A 
ATOM     95  C   UNL A   1      33.412  17.916  24.176  1.00  0.00     0.002 A 
ATOM     96  C   UNL A   1      38.036  23.065  25.955  1.00  0.00     0.002 A 
ENDBRANCH  81  83
ENDBRANCH  71  81
ENDBRANCH  68  71
ENDBRANCH  66  67
ENDBRANCH  65  66
ENDBRANCH   1  65
TORSDOF 18
ENDMDL
MODEL 3
REMARK VINA RESULT:     -12.2      0.894      5.937
REMARK SMILES O=C(NCCCCCCNC(=O)[C@@H](Cc1ccc(O)cc1)Nc1c2ccccc2nc2ccccc12)c1ccc(-c2c3nc(c(-c4c(F)cccc4F)c4ccc([nH]4)c(-c4c(F)cccc4F)c4nc(c(-c5c(F)cccc5F)c5ccc2[nH]5)C=C4)C=C3)cc1
REMARK SMILES IDX 7 1 6 2 5 3 4 4 3 5 1 6 2 7 37 9 38 10 90 11 39 12 89 13
REMARK SMILES IDX 40 14 41 15 42 16 83 17 43 18 88 19 82 20 84 21 44 22 87 23
REMARK SMILES IDX 81 24 80 25 45 27 71 28 54 29 70 30 55 31 58 32 69 33 85 34
REMARK SMILES IDX 56 35 57 36 68 38 86 39 59 40 46 41 47 42 52 43 48 44 49 45
REMARK SMILES IDX 51 46 53 47 50 48 72 49 73 50 78 51 74 52 75 53 77 54 79 55
REMARK SMILES IDX 76 56 60 57 61 58 66 59 62 60 63 61 65 62 67 63 64 64 8 65
REMARK SMILES IDX 9 66 10 67 11 68 12 70 13 71 14 72 15 73 16 74 21 75 17 76
REMARK SMILES IDX 20 77 18 78 19 79 22 81 23 83 24 84 36 85 25 86 29 87 31 88
REMARK SMILES IDX 35 89 26 90 28 91 30 92 32 93 34 94 27 95 33 96
REMARK H PARENT 3 8 84 26 58 37 10 69 19 80 22 82
REMARK Flexibility Score: inf
ROOT
ATOM      1  C   UNL A   1      33.795  27.787  25.045  1.00  0.00     0.002 C 
ENDROOT
BRANCH   1   2
ATOM      2  C   UNL A   1      32.776  28.925  24.954  1.00  0.00     0.002 C 
BRANCH   2   3
ATOM      3  C   UNL A   1      32.812  29.961  26.081  1.00  0.00     0.021 C 
BRANCH   3   4
ATOM      4  C   UNL A   1      33.895  29.756  27.140  1.00  0.00     0.116 C 
BRANCH   4   5
ATOM      5  N   UNL A   1      33.914  30.827  28.123  1.00  0.00    -0.352 N 
ATOM      6  O   UNL A   1      34.568  31.962  29.951  1.00  0.00    -0.269 OA
ATOM      7  C   UNL A   1      34.854  31.152  29.066  1.00  0.00     0.251 C 
ATOM      8  H   UNL A   1      33.123  31.413  28.110  1.00  0.00     0.163 HD
BRANCH   7   9
ATOM      9  C   UNL A   1      36.206  30.551  29.044  1.00  0.00     0.039 A 
ATOM     10  C   UNL A   1      36.975  30.538  27.878  1.00  0.00     0.014 A 
ATOM     11  C   UNL A   1      36.757  30.082  30.243  1.00  0.00     0.014 A 
ATOM     12  C   UNL A   1      38.251  29.976  27.889  1.00  0.00     0.010 A 
ATOM     13  C   UNL A   1      38.063  29.580  30.268  1.00  0.00     0.010 A 
ATOM     14  C   UNL A   1      38.819  29.514  29.088  1.00  0.00    -0.014 A 
BRANCH  14  15
ATOM     15  C   UNL A   1      40.236  29.063  29.109  1.00  0.00     0.031 A 
ATOM     16  C   UNL A   1      41.343  29.979  29.545  1.00  0.00     0.074 A 
ATOM     17  C   UNL A   1      40.519  27.803  28.718  1.00  0.00     0.049 A 
ATOM     18  N   UNL A   1      42.629  29.739  29.622  1.00  0.00    -0.248 NA
ATOM     19  C   UNL A   1      40.964  31.343  29.942  1.00  0.00     0.031 C 
ATOM     20  C   UNL A   1      39.534  26.826  28.246  1.00  0.00     0.029 A 
ATOM     21  N   UNL A   1      41.711  27.126  28.660  1.00  0.00    -0.354 N 
ATOM     22  C   UNL A   1      43.213  30.919  30.064  1.00  0.00     0.074 A 
ATOM     23  C   UNL A   1      42.145  31.884  30.215  1.00  0.00     0.031 C 
ATOM     24  C   UNL A   1      40.156  25.669  27.977  1.00  0.00     0.029 A 
ATOM     25  C   UNL A   1      41.587  25.835  28.205  1.00  0.00     0.049 A 
ATOM     26  H   UNL A   1      42.572  27.527  28.920  1.00  0.00     0.167 HD
ATOM     27  C   UNL A   1      44.519  31.169  30.327  1.00  0.00     0.037 A 
ATOM     28  C   UNL A   1      42.522  24.894  27.976  1.00  0.00     0.037 A 
ATOM     29  C   UNL A   1      45.579  30.203  30.183  1.00  0.00     0.049 A 
ATOM     30  C   UNL A   1      43.964  25.210  28.253  1.00  0.00     0.074 A 
ATOM     31  C   UNL A   1      46.926  30.352  30.469  1.00  0.00     0.029 A 
ATOM     32  N   UNL A   1      45.416  28.911  29.705  1.00  0.00    -0.354 N 
ATOM     33  N   UNL A   1      44.491  26.314  28.724  1.00  0.00    -0.248 NA
ATOM     34  C   UNL A   1      44.940  24.151  27.964  1.00  0.00     0.031 C 
ATOM     35  C   UNL A   1      47.584  29.168  30.121  1.00  0.00     0.029 A 
ATOM     36  C   UNL A   1      46.640  28.263  29.665  1.00  0.00     0.049 A 
ATOM     37  H   UNL A   1      44.557  28.513  29.435  1.00  0.00     0.167 HD
ATOM     38  C   UNL A   1      45.856  26.074  28.809  1.00  0.00     0.074 A 
ATOM     39  C   UNL A   1      46.072  24.714  28.360  1.00  0.00     0.031 C 
ATOM     40  C   UNL A   1      46.842  26.907  29.221  1.00  0.00     0.037 A 
BRANCH  27  41
ATOM     41  C   UNL A   1      44.890  32.547  30.792  1.00  0.00     0.057 A 
ATOM     42  C   UNL A   1      44.947  32.878  32.151  1.00  0.00     0.134 A 
ATOM     43  C   UNL A   1      45.271  33.533  29.870  1.00  0.00     0.134 A 
ATOM     44  F   UNL A   1      44.588  31.984  33.084  1.00  0.00    -0.206 F 
ATOM     45  C   UNL A   1      45.360  34.142  32.578  1.00  0.00     0.040 A 
ATOM     46  C   UNL A   1      45.706  34.793  30.286  1.00  0.00     0.040 A 
ATOM     47  F   UNL A   1      45.247  33.280  28.553  1.00  0.00    -0.206 F 
ATOM     48  C   UNL A   1      45.750  35.101  31.643  1.00  0.00     0.006 A 
ENDBRANCH  27  41
BRANCH  28  49
ATOM     49  C   UNL A   1      42.124  23.565  27.446  1.00  0.00     0.057 A 
ATOM     50  C   UNL A   1      41.740  22.527  28.303  1.00  0.00     0.134 A 
ATOM     51  C   UNL A   1      42.134  23.297  26.072  1.00  0.00     0.134 A 
ATOM     52  F   UNL A   1      41.730  22.716  29.631  1.00  0.00    -0.206 F 
ATOM     53  C   UNL A   1      41.402  21.264  27.815  1.00  0.00     0.040 A 
ATOM     54  C   UNL A   1      41.770  22.048  25.568  1.00  0.00     0.040 A 
ATOM     55  F   UNL A   1      42.487  24.251  25.198  1.00  0.00    -0.206 F 
ATOM     56  C   UNL A   1      41.411  21.024  26.442  1.00  0.00     0.006 A 
ENDBRANCH  28  49
BRANCH  40  57
ATOM     57  C   UNL A   1      48.238  26.359  29.234  1.00  0.00     0.057 A 
ATOM     58  C   UNL A   1      49.055  26.390  28.098  1.00  0.00     0.134 A 
ATOM     59  C   UNL A   1      48.778  25.814  30.406  1.00  0.00     0.134 A 
ATOM     60  F   UNL A   1      48.592  26.884  26.940  1.00  0.00    -0.206 F 
ATOM     61  C   UNL A   1      50.353  25.874  28.120  1.00  0.00     0.040 A 
ATOM     62  C   UNL A   1      50.082  25.320  30.448  1.00  0.00     0.040 A 
ATOM     63  F   UNL A   1      48.050  25.761  31.532  1.00  0.00    -0.206 F 
ATOM     64  C   UNL A   1      50.872  25.343  29.299  1.00  0.00     0.006 A 
ENDBRANCH  40  57
ENDBRANCH  14  15
ENDBRANCH   7   9
ENDBRANCH   4   5
ENDBRANCH   3   4
ENDBRANCH   2   3
ENDBRANCH   1   2
BRANCH   1  65
ATOM     65  C   UNL A   1      33.245  26.403  25.417  1.00  0.00     0.021 C 
BRANCH  65  66
ATOM     66  C   UNL A   1      32.000  26.407  26.325  1.00  0.00     0.116 C 
BRANCH  66  67
ATOM     67  N   UNL A   1      31.795  25.093  26.919  1.00  0.00    -0.354 N 
ATOM     68  C   UNL A   1      31.657  23.799  26.555  1.00  0.00     0.242 C 
ATOM     69  H   UNL A   1      31.739  25.173  27.898  1.00  0.00     0.163 HD
ATOM     70  O   UNL A   1      31.310  23.079  27.512  1.00  0.00    -0.273 OA
BRANCH  68  71
ATOM     71  C   UNL A   1      31.821  23.114  25.168  1.00  0.00     0.173 C 
BRANCH  71  72
ATOM     72  C   UNL A   1      30.748  23.490  24.109  1.00  0.00     0.070 C 
BRANCH  72  73
ATOM     73  C   UNL A   1      30.704  24.834  23.408  1.00  0.00    -0.045 A 
ATOM     74  C   UNL A   1      31.598  25.185  22.403  1.00  0.00     0.007 A 
ATOM     75  C   UNL A   1      29.802  25.823  23.836  1.00  0.00     0.007 A 
ATOM     76  C   UNL A   1      31.670  26.477  21.883  1.00  0.00     0.046 A 
ATOM     77  C   UNL A   1      29.843  27.117  23.302  1.00  0.00     0.046 A 
ATOM     78  C   UNL A   1      30.797  27.442  22.349  1.00  0.00     0.115 A 
BRANCH  78  79
ATOM     79  O   UNL A   1      30.857  28.723  21.895  1.00  0.00    -0.508 OA
ATOM     80  H   UNL A   1      31.183  29.404  22.451  1.00  0.00     0.293 HD
ENDBRANCH  78  79
ENDBRANCH  72  73
ENDBRANCH  71  72
BRANCH  71  81
ATOM     81  N   UNL A   1      33.190  23.039  24.652  1.00  0.00    -0.372 N 
ATOM     82  H   UNL A   1      33.492  23.822  24.135  1.00  0.00     0.161 HD
BRANCH  81  83
ATOM     83  C   UNL A   1      34.134  22.005  24.791  1.00  0.00     0.054 A 
ATOM     84  C   UNL A   1      33.885  20.598  24.577  1.00  0.00     0.024 A 
ATOM     85  C   UNL A   1      35.454  22.399  25.200  1.00  0.00     0.024 A 
ATOM     86  C   UNL A   1      32.665  19.972  24.184  1.00  0.00     0.012 A 
ATOM     87  C   UNL A   1      34.985  19.721  24.731  1.00  0.00     0.073 A 
ATOM     88  C   UNL A   1      36.446  21.403  25.293  1.00  0.00     0.073 A 
ATOM     89  C   UNL A   1      35.832  23.725  25.543  1.00  0.00     0.012 A 
ATOM     90  C   UNL A   1      32.530  18.588  24.012  1.00  0.00     0.001 A 
ATOM     91  C   UNL A   1      34.843  18.351  24.535  1.00  0.00     0.029 A 
ATOM     92  N   UNL A   1      36.214  20.116  25.056  1.00  0.00    -0.248 NA
ATOM     93  C   UNL A   1      37.740  21.744  25.660  1.00  0.00     0.029 A 
ATOM     94  C   UNL A   1      37.135  24.048  25.925  1.00  0.00     0.001 A 
ATOM     95  C   UNL A   1      33.629  17.772  24.189  1.00  0.00     0.002 A 
ATOM     96  C   UNL A   1      38.097  23.054  25.976  1.00  0.00     0.002 A 
ENDBRANCH  81  83
ENDBRANCH  71  81
ENDBRANCH  68  71
ENDBRANCH  66  67
ENDBRANCH  65  66
ENDBRANCH   1  65
TORSDOF 18
ENDMDL
