MODEL 1
REMARK VINA RESULT:     -11.6      0.000      0.000
REMARK SMILES Cc1ccc(C(=O)N[C@@H]2C=C[C@H](C(=O)NCCCCCCNC(=O)c3ccc(-c4c5nc(c(-c6c(F)cccc6F)c6ccc([nH]6)c(-c6c(F)cccc6F)c6nc(c(-c7c(F)cccc7F)c7ccc4[nH]7)C=C6)C=C5)cc3)C2)c(F)c1
REMARK SMILES IDX 18 1 17 2 16 3 15 4 13 5 14 6 12 8 9 9 10 10 79 11 11 12
REMARK SMILES IDX 8 13 6 14 7 15 5 17 1 18 2 19 3 20 82 21 4 22 80 23 81 24
REMARK SMILES IDX 19 25 20 26 21 27 22 28 23 29 24 31 25 32 26 33 78 34 27 35
REMARK SMILES IDX 77 36 28 37 29 38 30 39 71 40 31 41 76 42 70 43 72 44 32 45
REMARK SMILES IDX 75 46 69 47 68 48 33 50 59 51 42 52 58 53 43 54 46 55 57 56
REMARK SMILES IDX 73 57 44 58 45 59 56 61 74 62 47 63 34 64 35 65 40 66 36 67
REMARK SMILES IDX 37 68 39 69 41 70 38 71 60 72 61 73 66 74 62 75 63 76 65 77
REMARK SMILES IDX 67 78 64 79 48 80 49 81 54 82 50 83 51 84 53 85 55 86 52 87
REMARK H PARENT 15 7 8 16 22 30 72 49 46 60
REMARK Flexibility Score: inf
ROOT
ATOM      1  C   UNL A   1      34.484  32.114  28.916  1.00  0.00     0.002 C 
ENDROOT
BRANCH   1   2
ATOM      2  C   UNL A   1      33.672  31.746  27.668  1.00  0.00     0.021 C 
BRANCH   2   3
ATOM      3  C   UNL A   1      33.751  30.280  27.240  1.00  0.00     0.116 C 
BRANCH   3   4
ATOM      4  N   UNL A   1      32.591  29.512  27.652  1.00  0.00    -0.356 N 
ATOM      5  C   UNL A   1      32.107  28.338  27.139  1.00  0.00     0.227 C 
ATOM      6  O   UNL A   1      31.187  27.780  27.736  1.00  0.00    -0.274 OA
ATOM      7  H   UNL A   1      32.082  29.886  28.406  1.00  0.00     0.163 HD
BRANCH   5   8
ATOM      8  C   UNL A   1      32.696  27.820  25.826  1.00  0.00     0.103 C 
ATOM      9  C   UNL A   1      31.915  25.569  25.142  1.00  0.00     0.106 C 
ATOM     10  C   UNL A   1      33.338  25.566  25.615  1.00  0.00    -0.006 C 
ATOM     11  C   UNL A   1      31.611  27.073  25.047  1.00  0.00     0.047 C 
ATOM     12  C   UNL A   1      33.754  26.779  25.999  1.00  0.00    -0.016 C 
BRANCH   9  13
ATOM     13  N   UNL A   1      31.147  24.755  26.068  1.00  0.00    -0.346 N 
ATOM     14  C   UNL A   1      31.336  23.493  26.581  1.00  0.00     0.254 C 
ATOM     15  O   UNL A   1      30.733  23.158  27.596  1.00  0.00    -0.269 OA
ATOM     16  H   UNL A   1      30.327  25.193  26.392  1.00  0.00     0.164 HD
BRANCH  14  17
ATOM     17  C   UNL A   1      32.168  22.509  25.871  1.00  0.00     0.075 A 
ATOM     18  C   UNL A   1      34.141  18.938  24.539  1.00  0.00     0.044 C 
ATOM     19  C   UNL A   1      33.517  20.243  24.935  1.00  0.00    -0.048 A 
ATOM     20  C   UNL A   1      32.436  20.771  24.214  1.00  0.00     0.004 A 
ATOM     21  C   UNL A   1      34.010  20.949  26.039  1.00  0.00     0.043 A 
ATOM     22  C   UNL A   1      31.775  21.920  24.666  1.00  0.00     0.017 A 
ATOM     23  C   UNL A   1      33.329  22.068  26.506  1.00  0.00     0.136 A 
ATOM     24  F   UNL A   1      33.780  22.656  27.625  1.00  0.00    -0.206 F 
ENDBRANCH  14  17
ENDBRANCH   9  13
ENDBRANCH   5   8
ENDBRANCH   3   4
ENDBRANCH   2   3
ENDBRANCH   1   2
BRANCH   1  25
ATOM     25  C   UNL A   1      34.682  33.613  29.161  1.00  0.00     0.002 C 
BRANCH  25  26
ATOM     26  C   UNL A   1      33.429  34.475  28.996  1.00  0.00     0.021 C 
BRANCH  26  27
ATOM     27  C   UNL A   1      33.531  35.882  29.579  1.00  0.00     0.116 C 
BRANCH  27  28
ATOM     28  N   UNL A   1      32.572  36.114  30.646  1.00  0.00    -0.352 N 
ATOM     29  C   UNL A   1      32.591  35.686  31.953  1.00  0.00     0.251 C 
ATOM     30  H   UNL A   1      31.792  36.661  30.397  1.00  0.00     0.163 HD
ATOM     31  O   UNL A   1      31.605  35.834  32.664  1.00  0.00    -0.269 OA
BRANCH  29  32
ATOM     32  C   UNL A   1      33.794  35.017  32.494  1.00  0.00     0.039 A 
ATOM     33  C   UNL A   1      33.674  33.716  32.989  1.00  0.00     0.014 A 
ATOM     34  C   UNL A   1      35.033  35.662  32.514  1.00  0.00     0.014 A 
ATOM     35  C   UNL A   1      34.811  33.034  33.427  1.00  0.00     0.010 A 
ATOM     36  C   UNL A   1      36.177  34.956  32.884  1.00  0.00     0.010 A 
ATOM     37  C   UNL A   1      36.079  33.631  33.333  1.00  0.00    -0.014 A 
BRANCH  37  38
ATOM     38  C   UNL A   1      37.311  32.862  33.649  1.00  0.00     0.031 A 
ATOM     39  C   UNL A   1      38.097  33.150  34.897  1.00  0.00     0.074 A 
ATOM     40  C   UNL A   1      37.758  31.946  32.767  1.00  0.00     0.049 A 
ATOM     41  N   UNL A   1      39.223  32.619  35.303  1.00  0.00    -0.248 NA
ATOM     42  C   UNL A   1      37.562  34.183  35.797  1.00  0.00     0.031 C 
ATOM     43  C   UNL A   1      37.112  31.611  31.496  1.00  0.00     0.029 A 
ATOM     44  N   UNL A   1      38.866  31.135  32.799  1.00  0.00    -0.354 N 
ATOM     45  C   UNL A   1      39.535  33.257  36.497  1.00  0.00     0.074 A 
ATOM     46  C   UNL A   1      38.505  34.248  36.725  1.00  0.00     0.031 C 
ATOM     47  C   UNL A   1      37.822  30.653  30.881  1.00  0.00     0.029 A 
ATOM     48  C   UNL A   1      38.996  30.337  31.688  1.00  0.00     0.049 A 
ATOM     49  H   UNL A   1      39.506  31.127  33.546  1.00  0.00     0.167 HD
ATOM     50  C   UNL A   1      40.573  33.023  37.335  1.00  0.00     0.037 A 
ATOM     51  C   UNL A   1      39.959  29.459  31.348  1.00  0.00     0.037 A 
ATOM     52  C   UNL A   1      41.587  32.024  37.110  1.00  0.00     0.049 A 
ATOM     53  C   UNL A   1      41.113  29.238  32.285  1.00  0.00     0.074 A 
ATOM     54  C   UNL A   1      42.638  31.665  37.937  1.00  0.00     0.029 A 
ATOM     55  N   UNL A   1      41.684  31.234  35.975  1.00  0.00    -0.354 N 
ATOM     56  N   UNL A   1      41.350  29.789  33.451  1.00  0.00    -0.248 NA
ATOM     57  C   UNL A   1      42.135  28.270  31.862  1.00  0.00     0.031 C 
ATOM     58  C   UNL A   1      43.407  30.703  37.274  1.00  0.00     0.029 A 
ATOM     59  C   UNL A   1      42.801  30.418  36.061  1.00  0.00     0.049 A 
ATOM     60  H   UNL A   1      41.053  31.251  35.219  1.00  0.00     0.167 HD
ATOM     61  C   UNL A   1      42.532  29.222  33.908  1.00  0.00     0.074 A 
ATOM     62  C   UNL A   1      42.952  28.266  32.905  1.00  0.00     0.031 C 
ATOM     63  C   UNL A   1      43.212  29.475  35.052  1.00  0.00     0.037 A 
BRANCH  50  64
ATOM     64  C   UNL A   1      40.672  33.864  38.576  1.00  0.00     0.057 A 
ATOM     65  C   UNL A   1      41.443  35.033  38.619  1.00  0.00     0.134 A 
ATOM     66  C   UNL A   1      39.941  33.531  39.723  1.00  0.00     0.134 A 
ATOM     67  F   UNL A   1      42.175  35.406  37.558  1.00  0.00    -0.206 F 
ATOM     68  C   UNL A   1      41.502  35.828  39.766  1.00  0.00     0.040 A 
ATOM     69  C   UNL A   1      39.968  34.333  40.866  1.00  0.00     0.040 A 
ATOM     70  F   UNL A   1      39.176  32.430  39.749  1.00  0.00    -0.206 F 
ATOM     71  C   UNL A   1      40.755  35.482  40.891  1.00  0.00     0.006 A 
ENDBRANCH  50  64
BRANCH  51  72
ATOM     72  C   UNL A   1      39.878  28.727  30.058  1.00  0.00     0.057 A 
ATOM     73  C   UNL A   1      39.208  27.501  29.962  1.00  0.00     0.134 A 
ATOM     74  C   UNL A   1      40.481  29.223  28.895  1.00  0.00     0.134 A 
ATOM     75  F   UNL A   1      38.627  26.963  31.043  1.00  0.00    -0.206 F 
ATOM     76  C   UNL A   1      39.161  26.785  28.764  1.00  0.00     0.040 A 
ATOM     77  C   UNL A   1      40.416  28.533  27.684  1.00  0.00     0.040 A 
ATOM     78  F   UNL A   1      41.132  30.395  28.918  1.00  0.00    -0.206 F 
ATOM     79  C   UNL A   1      39.763  27.304  27.620  1.00  0.00     0.006 A 
ENDBRANCH  51  72
BRANCH  63  80
ATOM     80  C   UNL A   1      44.473  28.692  35.289  1.00  0.00     0.057 A 
ATOM     81  C   UNL A   1      45.729  29.184  34.910  1.00  0.00     0.134 A 
ATOM     82  C   UNL A   1      44.433  27.450  35.935  1.00  0.00     0.134 A 
ATOM     83  F   UNL A   1      45.835  30.362  34.276  1.00  0.00    -0.206 F 
ATOM     84  C   UNL A   1      46.897  28.456  35.141  1.00  0.00     0.040 A 
ATOM     85  C   UNL A   1      45.598  26.726  36.198  1.00  0.00     0.040 A 
ATOM     86  F   UNL A   1      43.264  26.924  36.332  1.00  0.00    -0.206 F 
ATOM     87  C   UNL A   1      46.833  27.227  35.794  1.00  0.00     0.006 A 
ENDBRANCH  63  80
ENDBRANCH  37  38
ENDBRANCH  29  32
ENDBRANCH  27  28
ENDBRANCH  26  27
ENDBRANCH  25  26
ENDBRANCH   1  25
TORSDOF 15
ENDMDL
MODEL 2
REMARK VINA RESULT:     -11.5      4.451      6.299
REMARK SMILES Cc1ccc(C(=O)N[C@@H]2C=C[C@H](C(=O)NCCCCCCNC(=O)c3ccc(-c4c5nc(c(-c6c(F)cccc6F)c6ccc([nH]6)c(-c6c(F)cccc6F)c6nc(c(-c7c(F)cccc7F)c7ccc4[nH]7)C=C6)C=C5)cc3)C2)c(F)c1
REMARK SMILES IDX 18 1 17 2 16 3 15 4 13 5 14 6 12 8 9 9 10 10 79 11 11 12
REMARK SMILES IDX 8 13 6 14 7 15 5 17 1 18 2 19 3 20 82 21 4 22 80 23 81 24
REMARK SMILES IDX 19 25 20 26 21 27 22 28 23 29 24 31 25 32 26 33 78 34 27 35
REMARK SMILES IDX 77 36 28 37 29 38 30 39 71 40 31 41 76 42 70 43 72 44 32 45
REMARK SMILES IDX 75 46 69 47 68 48 33 50 59 51 42 52 58 53 43 54 46 55 57 56
REMARK SMILES IDX 73 57 44 58 45 59 56 61 74 62 47 63 34 64 35 65 40 66 36 67
REMARK SMILES IDX 37 68 39 69 41 70 38 71 60 72 61 73 66 74 62 75 63 76 65 77
REMARK SMILES IDX 67 78 64 79 48 80 49 81 54 82 50 83 51 84 53 85 55 86 52 87
REMARK H PARENT 15 7 8 16 22 30 72 49 46 60
REMARK Flexibility Score: inf
ROOT
ATOM      1  C   UNL A   1      31.535  29.202  25.118  1.00  0.00     0.002 C 
ENDROOT
BRANCH   1   2
ATOM      2  C   UNL A   1      30.652  29.237  23.865  1.00  0.00     0.021 C 
BRANCH   2   3
ATOM      3  C   UNL A   1      30.443  27.891  23.169  1.00  0.00     0.116 C 
BRANCH   3   4
ATOM      4  N   UNL A   1      30.166  26.814  24.101  1.00  0.00    -0.356 N 
ATOM      5  C   UNL A   1      30.877  25.668  24.331  1.00  0.00     0.227 C 
ATOM      6  O   UNL A   1      30.539  24.954  25.275  1.00  0.00    -0.274 OA
ATOM      7  H   UNL A   1      29.352  26.924  24.644  1.00  0.00     0.163 HD
BRANCH   5   8
ATOM      8  C   UNL A   1      32.013  25.311  23.371  1.00  0.00     0.103 C 
ATOM      9  C   UNL A   1      33.421  23.397  24.075  1.00  0.00     0.106 C 
ATOM     10  C   UNL A   1      34.131  24.710  24.199  1.00  0.00    -0.006 C 
ATOM     11  C   UNL A   1      32.153  23.789  23.299  1.00  0.00     0.047 C 
ATOM     12  C   UNL A   1      33.365  25.745  23.834  1.00  0.00    -0.016 C 
BRANCH   9  13
ATOM     13  N   UNL A   1      33.283  22.848  25.413  1.00  0.00    -0.346 N 
ATOM     14  C   UNL A   1      33.569  21.615  25.951  1.00  0.00     0.254 C 
ATOM     15  O   UNL A   1      33.682  21.499  27.168  1.00  0.00    -0.269 OA
ATOM     16  H   UNL A   1      32.909  23.484  26.065  1.00  0.00     0.164 HD
BRANCH  14  17
ATOM     17  C   UNL A   1      33.638  20.419  25.097  1.00  0.00     0.075 A 
ATOM     18  C   UNL A   1      33.907  16.410  23.590  1.00  0.00     0.044 C 
ATOM     19  C   UNL A   1      33.823  17.846  24.012  1.00  0.00    -0.048 A 
ATOM     20  C   UNL A   1      32.593  18.518  24.033  1.00  0.00     0.004 A 
ATOM     21  C   UNL A   1      34.981  18.533  24.395  1.00  0.00     0.043 A 
ATOM     22  C   UNL A   1      32.502  19.816  24.552  1.00  0.00     0.017 A 
ATOM     23  C   UNL A   1      34.882  19.807  24.944  1.00  0.00     0.136 A 
ATOM     24  F   UNL A   1      36.007  20.389  25.388  1.00  0.00    -0.206 F 
ENDBRANCH  14  17
ENDBRANCH   9  13
ENDBRANCH   5   8
ENDBRANCH   3   4
ENDBRANCH   2   3
ENDBRANCH   1   2
BRANCH   1  25
ATOM     25  C   UNL A   1      33.038  29.366  24.877  1.00  0.00     0.002 C 
BRANCH  25  26
ATOM     26  C   UNL A   1      33.944  28.581  25.826  1.00  0.00     0.021 C 
BRANCH  26  27
ATOM     27  C   UNL A   1      33.616  28.737  27.309  1.00  0.00     0.116 C 
BRANCH  27  28
ATOM     28  N   UNL A   1      33.657  30.122  27.747  1.00  0.00    -0.352 N 
ATOM     29  C   UNL A   1      34.660  30.814  28.384  1.00  0.00     0.251 C 
ATOM     30  H   UNL A   1      32.844  30.645  27.558  1.00  0.00     0.163 HD
ATOM     31  O   UNL A   1      34.448  31.933  28.833  1.00  0.00    -0.269 OA
BRANCH  29  32
ATOM     32  C   UNL A   1      35.992  30.193  28.556  1.00  0.00     0.039 A 
ATOM     33  C   UNL A   1      36.898  30.243  27.494  1.00  0.00     0.014 A 
ATOM     34  C   UNL A   1      36.350  29.568  29.754  1.00  0.00     0.014 A 
ATOM     35  C   UNL A   1      38.190  29.739  27.661  1.00  0.00     0.010 A 
ATOM     36  C   UNL A   1      37.660  29.131  29.943  1.00  0.00     0.010 A 
ATOM     37  C   UNL A   1      38.596  29.223  28.902  1.00  0.00    -0.014 A 
BRANCH  37  38
ATOM     38  C   UNL A   1      40.010  28.828  29.140  1.00  0.00     0.031 A 
ATOM     39  C   UNL A   1      40.983  29.793  29.756  1.00  0.00     0.074 A 
ATOM     40  C   UNL A   1      40.429  27.614  28.735  1.00  0.00     0.049 A 
ATOM     41  N   UNL A   1      42.264  29.640  29.983  1.00  0.00    -0.248 NA
ATOM     42  C   UNL A   1      40.458  31.110  30.146  1.00  0.00     0.031 C 
ATOM     43  C   UNL A   1      39.593  26.606  28.080  1.00  0.00     0.029 A 
ATOM     44  N   UNL A   1      41.667  27.022  28.804  1.00  0.00    -0.354 N 
ATOM     45  C   UNL A   1      42.698  30.839  30.535  1.00  0.00     0.074 A 
ATOM     46  C   UNL A   1      41.555  31.727  30.562  1.00  0.00     0.031 C 
ATOM     47  C   UNL A   1      40.334  25.516  27.825  1.00  0.00     0.029 A 
ATOM     48  C   UNL A   1      41.706  25.762  28.256  1.00  0.00     0.049 A 
ATOM     49  H   UNL A   1      42.451  27.460  29.206  1.00  0.00     0.167 HD
ATOM     50  C   UNL A   1      43.931  31.161  30.993  1.00  0.00     0.037 A 
ATOM     51  C   UNL A   1      42.734  24.905  28.104  1.00  0.00     0.037 A 
ATOM     52  C   UNL A   1      45.061  30.268  30.978  1.00  0.00     0.049 A 
ATOM     53  C   UNL A   1      44.097  25.300  28.600  1.00  0.00     0.074 A 
ATOM     54  C   UNL A   1      46.332  30.480  31.485  1.00  0.00     0.029 A 
ATOM     55  N   UNL A   1      45.062  29.000  30.417  1.00  0.00    -0.354 N 
ATOM     56  N   UNL A   1      44.473  26.405  29.195  1.00  0.00    -0.248 NA
ATOM     57  C   UNL A   1      45.180  24.325  28.405  1.00  0.00     0.031 C 
ATOM     58  C   UNL A   1      47.118  29.365  31.175  1.00  0.00     0.029 A 
ATOM     59  C   UNL A   1      46.322  28.434  30.530  1.00  0.00     0.049 A 
ATOM     60  H   UNL A   1      44.282  28.566  30.001  1.00  0.00     0.167 HD
ATOM     61  C   UNL A   1      45.826  26.253  29.463  1.00  0.00     0.074 A 
ATOM     62  C   UNL A   1      46.201  24.937  28.988  1.00  0.00     0.031 C 
ATOM     63  C   UNL A   1      46.684  27.126  30.046  1.00  0.00     0.037 A 
BRANCH  50  64
ATOM     64  C   UNL A   1      44.129  32.542  31.551  1.00  0.00     0.057 A 
ATOM     65  C   UNL A   1      44.524  33.618  30.744  1.00  0.00     0.134 A 
ATOM     66  C   UNL A   1      43.867  32.811  32.900  1.00  0.00     0.134 A 
ATOM     67  F   UNL A   1      44.800  33.429  29.445  1.00  0.00    -0.206 F 
ATOM     68  C   UNL A   1      44.672  34.906  31.264  1.00  0.00     0.040 A 
ATOM     69  C   UNL A   1      43.983  34.100  33.425  1.00  0.00     0.040 A 
ATOM     70  F   UNL A   1      43.477  31.830  33.728  1.00  0.00    -0.206 F 
ATOM     71  C   UNL A   1      44.392  35.150  32.607  1.00  0.00     0.006 A 
ENDBRANCH  50  64
BRANCH  51  72
ATOM     72  C   UNL A   1      42.517  23.590  27.448  1.00  0.00     0.057 A 
ATOM     73  C   UNL A   1      42.235  22.443  28.199  1.00  0.00     0.134 A 
ATOM     74  C   UNL A   1      42.600  23.444  26.057  1.00  0.00     0.134 A 
ATOM     75  F   UNL A   1      42.161  22.513  29.536  1.00  0.00    -0.206 F 
ATOM     76  C   UNL A   1      42.069  21.195  27.595  1.00  0.00     0.040 A 
ATOM     77  C   UNL A   1      42.407  22.208  25.438  1.00  0.00     0.040 A 
ATOM     78  F   UNL A   1      42.860  24.505  25.279  1.00  0.00    -0.206 F 
ATOM     79  C   UNL A   1      42.151  21.077  26.209  1.00  0.00     0.006 A 
ENDBRANCH  51  72
BRANCH  63  80
ATOM     80  C   UNL A   1      48.108  26.678  30.218  1.00  0.00     0.057 A 
ATOM     81  C   UNL A   1      48.515  25.919  31.323  1.00  0.00     0.134 A 
ATOM     82  C   UNL A   1      49.074  26.979  29.250  1.00  0.00     0.134 A 
ATOM     83  F   UNL A   1      47.642  25.609  32.294  1.00  0.00    -0.206 F 
ATOM     84  C   UNL A   1      49.838  25.499  31.472  1.00  0.00     0.040 A 
ATOM     85  C   UNL A   1      50.394  26.539  29.373  1.00  0.00     0.040 A 
ATOM     86  F   UNL A   1      48.750  27.694  28.162  1.00  0.00    -0.206 F 
ATOM     87  C   UNL A   1      50.779  25.802  30.491  1.00  0.00     0.006 A 
ENDBRANCH  63  80
ENDBRANCH  37  38
ENDBRANCH  29  32
ENDBRANCH  27  28
ENDBRANCH  26  27
ENDBRANCH  25  26
ENDBRANCH   1  25
TORSDOF 15
ENDMDL
MODEL 3
REMARK VINA RESULT:     -11.5      2.024      6.775
REMARK SMILES Cc1ccc(C(=O)N[C@@H]2C=C[C@H](C(=O)NCCCCCCNC(=O)c3ccc(-c4c5nc(c(-c6c(F)cccc6F)c6ccc([nH]6)c(-c6c(F)cccc6F)c6nc(c(-c7c(F)cccc7F)c7ccc4[nH]7)C=C6)C=C5)cc3)C2)c(F)c1
REMARK SMILES IDX 18 1 17 2 16 3 15 4 13 5 14 6 12 8 9 9 10 10 79 11 11 12
REMARK SMILES IDX 8 13 6 14 7 15 5 17 1 18 2 19 3 20 82 21 4 22 80 23 81 24
REMARK SMILES IDX 19 25 20 26 21 27 22 28 23 29 24 31 25 32 26 33 78 34 27 35
REMARK SMILES IDX 77 36 28 37 29 38 30 39 71 40 31 41 76 42 70 43 72 44 32 45
REMARK SMILES IDX 75 46 69 47 68 48 33 50 59 51 42 52 58 53 43 54 46 55 57 56
REMARK SMILES IDX 73 57 44 58 45 59 56 61 74 62 47 63 34 64 35 65 40 66 36 67
REMARK SMILES IDX 37 68 39 69 41 70 38 71 60 72 61 73 66 74 62 75 63 76 65 77
REMARK SMILES IDX 67 78 64 79 48 80 49 81 54 82 50 83 51 84 53 85 55 86 52 87
REMARK H PARENT 15 7 8 16 22 30 72 49 46 60
REMARK Flexibility Score: inf
ROOT
ATOM      1  C   UNL A   1      29.508  31.713  24.278  1.00  0.00     0.002 C 
ENDROOT
BRANCH   1   2
ATOM      2  C   UNL A   1      29.006  30.698  23.244  1.00  0.00     0.021 C 
BRANCH   2   3
ATOM      3  C   UNL A   1      30.000  29.599  22.863  1.00  0.00     0.116 C 
BRANCH   3   4
ATOM      4  N   UNL A   1      29.475  28.265  23.085  1.00  0.00    -0.356 N 
ATOM      5  C   UNL A   1      29.962  27.268  23.886  1.00  0.00     0.227 C 
ATOM      6  O   UNL A   1      29.276  26.258  24.039  1.00  0.00    -0.274 OA
ATOM      7  H   UNL A   1      28.652  28.047  22.591  1.00  0.00     0.163 HD
BRANCH   5   8
ATOM      8  C   UNL A   1      31.354  27.440  24.497  1.00  0.00     0.103 C 
ATOM      9  C   UNL A   1      31.982  25.729  26.176  1.00  0.00     0.106 C 
ATOM     10  C   UNL A   1      31.703  27.066  26.793  1.00  0.00    -0.006 C 
ATOM     11  C   UNL A   1      32.000  26.065  24.676  1.00  0.00     0.047 C 
ATOM     12  C   UNL A   1      31.348  27.985  25.888  1.00  0.00    -0.016 C 
BRANCH   9  13
ATOM     13  N   UNL A   1      30.983  24.800  26.675  1.00  0.00    -0.346 N 
ATOM     14  C   UNL A   1      30.996  23.443  26.896  1.00  0.00     0.254 C 
ATOM     15  O   UNL A   1      30.152  22.943  27.634  1.00  0.00    -0.269 OA
ATOM     16  H   UNL A   1      30.124  25.228  26.900  1.00  0.00     0.164 HD
BRANCH  14  17
ATOM     17  C   UNL A   1      31.941  22.573  26.178  1.00  0.00     0.075 A 
ATOM     18  C   UNL A   1      34.175  19.238  24.663  1.00  0.00     0.044 C 
ATOM     19  C   UNL A   1      33.466  20.470  25.140  1.00  0.00    -0.048 A 
ATOM     20  C   UNL A   1      32.469  21.073  24.360  1.00  0.00     0.004 A 
ATOM     21  C   UNL A   1      33.794  21.031  26.380  1.00  0.00     0.043 A 
ATOM     22  C   UNL A   1      31.721  22.143  24.867  1.00  0.00     0.017 A 
ATOM     23  C   UNL A   1      33.025  22.069  26.896  1.00  0.00     0.136 A 
ATOM     24  F   UNL A   1      33.314  22.511  28.130  1.00  0.00    -0.206 F 
ENDBRANCH  14  17
ENDBRANCH   9  13
ENDBRANCH   5   8
ENDBRANCH   3   4
ENDBRANCH   2   3
ENDBRANCH   1   2
BRANCH   1  25
ATOM     25  C   UNL A   1      30.684  31.252  25.143  1.00  0.00     0.002 C 
BRANCH  25  26
ATOM     26  C   UNL A   1      30.866  32.012  26.459  1.00  0.00     0.021 C 
BRANCH  26  27
ATOM     27  C   UNL A   1      32.274  32.546  26.707  1.00  0.00     0.116 C 
BRANCH  27  28
ATOM     28  N   UNL A   1      32.271  33.869  27.309  1.00  0.00    -0.352 N 
ATOM     29  C   UNL A   1      33.082  34.392  28.288  1.00  0.00     0.251 C 
ATOM     30  H   UNL A   1      31.585  34.485  26.961  1.00  0.00     0.163 HD
ATOM     31  O   UNL A   1      32.818  35.475  28.794  1.00  0.00    -0.269 OA
BRANCH  29  32
ATOM     32  C   UNL A   1      34.262  33.631  28.755  1.00  0.00     0.039 A 
ATOM     33  C   UNL A   1      35.532  34.182  28.570  1.00  0.00     0.014 A 
ATOM     34  C   UNL A   1      34.121  32.385  29.372  1.00  0.00     0.014 A 
ATOM     35  C   UNL A   1      36.653  33.522  29.078  1.00  0.00     0.010 A 
ATOM     36  C   UNL A   1      35.232  31.763  29.940  1.00  0.00     0.010 A 
ATOM     37  C   UNL A   1      36.507  32.331  29.809  1.00  0.00    -0.014 A 
BRANCH  37  38
ATOM     38  C   UNL A   1      37.672  31.702  30.486  1.00  0.00     0.031 A 
ATOM     39  C   UNL A   1      38.505  30.670  29.780  1.00  0.00     0.074 A 
ATOM     40  C   UNL A   1      37.935  32.018  31.769  1.00  0.00     0.049 A 
ATOM     41  N   UNL A   1      39.519  29.977  30.234  1.00  0.00    -0.248 NA
ATOM     42  C   UNL A   1      38.139  30.357  28.390  1.00  0.00     0.031 C 
ATOM     43  C   UNL A   1      37.171  32.968  32.580  1.00  0.00     0.029 A 
ATOM     44  N   UNL A   1      38.912  31.567  32.622  1.00  0.00    -0.354 N 
ATOM     45  C   UNL A   1      39.907  29.144  29.193  1.00  0.00     0.074 A 
ATOM     46  C   UNL A   1      38.988  29.382  28.100  1.00  0.00     0.031 C 
ATOM     47  C   UNL A   1      37.717  33.043  33.803  1.00  0.00     0.029 A 
ATOM     48  C   UNL A   1      38.842  32.117  33.880  1.00  0.00     0.049 A 
ATOM     49  H   UNL A   1      39.597  30.912  32.359  1.00  0.00     0.167 HD
ATOM     50  C   UNL A   1      40.945  28.275  29.146  1.00  0.00     0.037 A 
ATOM     51  C   UNL A   1      39.588  31.890  34.978  1.00  0.00     0.037 A 
ATOM     52  C   UNL A   1      41.866  28.053  30.232  1.00  0.00     0.049 A 
ATOM     53  C   UNL A   1      40.718  30.902  34.905  1.00  0.00     0.074 A 
ATOM     54  C   UNL A   1      42.991  27.246  30.255  1.00  0.00     0.029 A 
ATOM     55  N   UNL A   1      41.763  28.630  31.489  1.00  0.00    -0.354 N 
ATOM     56  N   UNL A   1      41.124  30.183  33.887  1.00  0.00    -0.248 NA
ATOM     57  C   UNL A   1      41.498  30.695  36.134  1.00  0.00     0.031 C 
ATOM     58  C   UNL A   1      43.532  27.286  31.544  1.00  0.00     0.029 A 
ATOM     59  C   UNL A   1      42.781  28.164  32.307  1.00  0.00     0.049 A 
ATOM     60  H   UNL A   1      41.070  29.275  31.760  1.00  0.00     0.167 HD
ATOM     61  C   UNL A   1      42.215  29.456  34.345  1.00  0.00     0.074 A 
ATOM     62  C   UNL A   1      42.423  29.838  35.726  1.00  0.00     0.031 C 
ATOM     63  C   UNL A   1      42.973  28.548  33.683  1.00  0.00     0.037 A 
BRANCH  50  64
ATOM     64  C   UNL A   1      41.144  27.492  27.880  1.00  0.00     0.057 A 
ATOM     65  C   UNL A   1      41.955  27.961  26.838  1.00  0.00     0.134 A 
ATOM     66  C   UNL A   1      40.564  26.226  27.725  1.00  0.00     0.134 A 
ATOM     67  F   UNL A   1      42.535  29.168  26.917  1.00  0.00    -0.206 F 
ATOM     68  C   UNL A   1      42.163  27.209  25.679  1.00  0.00     0.040 A 
ATOM     69  C   UNL A   1      40.788  25.453  26.584  1.00  0.00     0.040 A 
ATOM     70  F   UNL A   1      39.782  25.712  28.687  1.00  0.00    -0.206 F 
ATOM     71  C   UNL A   1      41.585  25.948  25.555  1.00  0.00     0.006 A 
ENDBRANCH  50  64
BRANCH  51  72
ATOM     72  C   UNL A   1      39.289  32.608  36.244  1.00  0.00     0.057 A 
ATOM     73  C   UNL A   1      39.924  33.816  36.560  1.00  0.00     0.134 A 
ATOM     74  C   UNL A   1      38.374  32.100  37.175  1.00  0.00     0.134 A 
ATOM     75  F   UNL A   1      40.823  34.346  35.719  1.00  0.00    -0.206 F 
ATOM     76  C   UNL A   1      39.679  34.477  37.765  1.00  0.00     0.040 A 
ATOM     77  C   UNL A   1      38.098  32.765  38.370  1.00  0.00     0.040 A 
ATOM     78  F   UNL A   1      37.726  30.951  36.930  1.00  0.00    -0.206 F 
ATOM     79  C   UNL A   1      38.760  33.954  38.671  1.00  0.00     0.006 A 
ENDBRANCH  51  72
BRANCH  63  80
ATOM     80  C   UNL A   1      44.108  27.919  34.440  1.00  0.00     0.057 A 
ATOM     81  C   UNL A   1      45.371  28.521  34.510  1.00  0.00     0.134 A 
ATOM     82  C   UNL A   1      43.926  26.717  35.135  1.00  0.00     0.134 A 
ATOM     83  F   UNL A   1      45.616  29.667  33.855  1.00  0.00    -0.206 F 
ATOM     84  C   UNL A   1      46.420  27.936  35.222  1.00  0.00     0.040 A 
ATOM     85  C   UNL A   1      44.958  26.138  35.875  1.00  0.00     0.040 A 
ATOM     86  F   UNL A   1      42.739  26.092  35.117  1.00  0.00    -0.206 F 
ATOM     87  C   UNL A   1      46.212  26.745  35.914  1.00  0.00     0.006 A 
ENDBRANCH  63  80
ENDBRANCH  37  38
ENDBRANCH  29  32
ENDBRANCH  27  28
ENDBRANCH  26  27
ENDBRANCH  25  26
ENDBRANCH   1  25
TORSDOF 15
ENDMDL
