MODEL 1
REMARK VINA RESULT:     -12.1      0.000      0.000
REMARK SMILES COc1cc(OC)c([C@H]2CC(=O)Nc3c(C(=O)NCCCCCCNC(=O)c4ccc(-c5c6nc(c(-c7c(F)cccc7F)c7ccc([nH]7)c(-c7c(F)cccc7F)c7nc(c(-c8c(F)cccc8F)c8ccc5[nH]8)C=C7)C=C6)cc4)cn(-c4ccccc4)c32)cc1OC
REMARK SMILES IDX 21 1 20 2 19 3 18 4 16 5 17 6 15 8 9 9 10 10 90 11 11 12
REMARK SMILES IDX 14 13 83 14 12 15 13 16 82 17 8 19 3 20 4 21 92 22 5 23
REMARK SMILES IDX 91 24 2 25 1 26 93 27 94 28 6 29 7 30 84 31 85 32 89 33
REMARK SMILES IDX 86 34 88 35 87 36 22 37 23 38 24 39 25 40 26 41 27 43 28 44
REMARK SMILES IDX 29 45 81 46 30 47 80 48 31 49 32 50 33 51 74 52 34 53 79 54
REMARK SMILES IDX 73 55 75 56 35 57 78 58 72 59 71 60 36 62 62 63 45 64 61 65
REMARK SMILES IDX 46 66 49 67 60 68 76 69 47 70 48 71 59 73 77 74 50 75 37 76
REMARK SMILES IDX 38 77 43 78 39 79 40 80 42 81 44 82 41 83 63 84 64 85 69 86
REMARK SMILES IDX 65 87 66 88 68 89 70 90 67 91 51 92 52 93 57 94 53 95 54 96
REMARK SMILES IDX 56 97 58 98 55 99
REMARK H PARENT 18 7 13 18 25 42 75 61 49 72
REMARK Flexibility Score: inf
ROOT
ATOM      1  C   UNL A   1      34.981  21.656  25.543  1.00  0.00     0.002 C 
ENDROOT
BRANCH   1   2
ATOM      2  C   UNL A   1      34.613  20.245  25.079  1.00  0.00     0.021 C 
BRANCH   2   3
ATOM      3  C   UNL A   1      33.099  20.000  25.049  1.00  0.00     0.116 C 
BRANCH   3   4
ATOM      4  N   UNL A   1      32.572  20.211  23.730  1.00  0.00    -0.352 N 
ATOM      5  C   UNL A   1      32.151  21.316  23.055  1.00  0.00     0.254 C 
ATOM      6  O   UNL A   1      31.846  21.106  21.875  1.00  0.00    -0.269 OA
ATOM      7  H   UNL A   1      32.503  19.382  23.203  1.00  0.00     0.163 HD
BRANCH   5   8
ATOM      8  C   UNL A   1      32.043  22.671  23.615  1.00  0.00     0.081 A 
ATOM      9  C   UNL A   1      30.910  25.739  25.465  1.00  0.00     0.082 C 
ATOM     10  C   UNL A   1      29.632  25.112  26.037  1.00  0.00     0.115 C 
ATOM     11  C   UNL A   1      31.592  24.710  24.573  1.00  0.00     0.055 A 
ATOM     12  C   UNL A   1      29.890  23.726  26.559  1.00  0.00     0.225 C 
ATOM     13  C   UNL A   1      31.380  23.342  24.687  1.00  0.00     0.076 A 
ATOM     14  N   UNL A   1      32.533  24.905  23.580  1.00  0.00    -0.317 N 
ATOM     15  O   UNL A   1      29.384  23.298  27.594  1.00  0.00    -0.275 OA
ATOM     16  N   UNL A   1      30.622  22.903  25.748  1.00  0.00    -0.324 N 
ATOM     17  C   UNL A   1      32.690  23.704  22.936  1.00  0.00     0.107 A 
ATOM     18  H   UNL A   1      30.605  21.937  25.935  1.00  0.00     0.170 HD
BRANCH   9  19
ATOM     19  C   UNL A   1      30.525  27.090  24.876  1.00  0.00     0.008 A 
ATOM     20  C   UNL A   1      29.792  29.548  23.630  1.00  0.00     0.164 A 
ATOM     21  C   UNL A   1      30.826  29.482  24.571  1.00  0.00     0.097 A 
ATOM     22  C   UNL A   1      29.057  28.395  23.367  1.00  0.00     0.161 A 
ATOM     23  C   UNL A   1      31.181  28.286  25.214  1.00  0.00     0.126 A 
ATOM     24  C   UNL A   1      29.405  27.200  24.018  1.00  0.00     0.058 A 
BRANCH  20  25
ATOM     25  O   UNL A   1      29.651  30.777  23.052  1.00  0.00    -0.493 OA
ATOM     26  C   UNL A   1      28.661  31.640  23.594  1.00  0.00     0.278 C 
ENDBRANCH  20  25
BRANCH  22  27
ATOM     27  O   UNL A   1      27.932  28.325  22.593  1.00  0.00    -0.493 OA
ATOM     28  C   UNL A   1      26.705  28.427  23.310  1.00  0.00     0.278 C 
ENDBRANCH  22  27
BRANCH  23  29
ATOM     29  O   UNL A   1      32.014  28.495  26.283  1.00  0.00    -0.496 OA
ATOM     30  C   UNL A   1      31.562  28.195  27.592  1.00  0.00     0.278 C 
ENDBRANCH  23  29
ENDBRANCH   9  19
BRANCH  14  31
ATOM     31  C   UNL A   1      33.192  26.099  23.199  1.00  0.00     0.045 A 
ATOM     32  C   UNL A   1      33.981  26.798  24.118  1.00  0.00     0.026 A 
ATOM     33  C   UNL A   1      32.985  26.607  21.911  1.00  0.00     0.026 A 
ATOM     34  C   UNL A   1      34.511  28.038  23.762  1.00  0.00     0.002 A 
ATOM     35  C   UNL A   1      33.500  27.858  21.573  1.00  0.00     0.002 A 
ATOM     36  C   UNL A   1      34.250  28.577  22.501  1.00  0.00     0.000 A 
ENDBRANCH  14  31
ENDBRANCH   5   8
ENDBRANCH   3   4
ENDBRANCH   2   3
ENDBRANCH   1   2
BRANCH   1  37
ATOM     37  C   UNL A   1      35.783  22.470  24.516  1.00  0.00     0.002 C 
BRANCH  37  38
ATOM     38  C   UNL A   1      37.287  22.161  24.448  1.00  0.00     0.021 C 
BRANCH  38  39
ATOM     39  C   UNL A   1      37.984  22.319  25.791  1.00  0.00     0.116 C 
BRANCH  39  40
ATOM     40  N   UNL A   1      39.281  21.650  25.787  1.00  0.00    -0.352 N 
ATOM     41  C   UNL A   1      40.521  22.142  26.123  1.00  0.00     0.251 C 
ATOM     42  H   UNL A   1      39.267  20.707  25.502  1.00  0.00     0.163 HD
ATOM     43  O   UNL A   1      41.535  21.565  25.769  1.00  0.00    -0.269 OA
BRANCH  41  44
ATOM     44  C   UNL A   1      40.609  23.383  26.910  1.00  0.00     0.039 A 
ATOM     45  C   UNL A   1      41.601  23.514  27.884  1.00  0.00     0.014 A 
ATOM     46  C   UNL A   1      39.697  24.410  26.672  1.00  0.00     0.014 A 
ATOM     47  C   UNL A   1      41.717  24.721  28.565  1.00  0.00     0.010 A 
ATOM     48  C   UNL A   1      39.881  25.638  27.263  1.00  0.00     0.010 A 
ATOM     49  C   UNL A   1      40.868  25.788  28.233  1.00  0.00    -0.014 A 
BRANCH  49  50
ATOM     50  C   UNL A   1      41.117  27.110  28.800  1.00  0.00     0.031 A 
ATOM     51  C   UNL A   1      42.286  27.818  28.202  1.00  0.00     0.074 A 
ATOM     52  C   UNL A   1      40.258  27.741  29.628  1.00  0.00     0.049 A 
ATOM     53  N   UNL A   1      43.386  28.164  28.785  1.00  0.00    -0.248 NA
ATOM     54  C   UNL A   1      42.287  28.050  26.747  1.00  0.00     0.031 C 
ATOM     55  C   UNL A   1      38.917  27.311  30.040  1.00  0.00     0.029 A 
ATOM     56  N   UNL A   1      40.364  28.973  30.199  1.00  0.00    -0.354 N 
ATOM     57  C   UNL A   1      44.134  28.840  27.824  1.00  0.00     0.074 A 
ATOM     58  C   UNL A   1      43.496  28.583  26.561  1.00  0.00     0.031 C 
ATOM     59  C   UNL A   1      38.257  28.355  30.588  1.00  0.00     0.029 A 
ATOM     60  C   UNL A   1      39.174  29.472  30.719  1.00  0.00     0.049 A 
ATOM     61  H   UNL A   1      41.213  29.470  30.240  1.00  0.00     0.167 HD
ATOM     62  C   UNL A   1      45.074  29.758  28.187  1.00  0.00     0.037 A 
ATOM     63  C   UNL A   1      38.952  30.723  31.192  1.00  0.00     0.037 A 
ATOM     64  C   UNL A   1      45.437  29.599  29.574  1.00  0.00     0.049 A 
ATOM     65  C   UNL A   1      40.273  31.326  31.487  1.00  0.00     0.074 A 
ATOM     66  C   UNL A   1      45.975  28.580  30.336  1.00  0.00     0.029 A 
ATOM     67  N   UNL A   1      44.903  30.491  30.470  1.00  0.00    -0.354 N 
ATOM     68  N   UNL A   1      41.054  30.937  32.453  1.00  0.00    -0.248 NA
ATOM     69  C   UNL A   1      40.919  32.089  30.431  1.00  0.00     0.031 C 
ATOM     70  C   UNL A   1      45.315  28.675  31.597  1.00  0.00     0.029 A 
ATOM     71  C   UNL A   1      44.467  29.783  31.556  1.00  0.00     0.049 A 
ATOM     72  H   UNL A   1      44.844  31.467  30.352  1.00  0.00     0.167 HD
ATOM     73  C   UNL A   1      42.331  31.003  31.918  1.00  0.00     0.074 A 
ATOM     74  C   UNL A   1      42.196  31.822  30.715  1.00  0.00     0.031 C 
ATOM     75  C   UNL A   1      43.311  30.150  32.339  1.00  0.00     0.037 A 
BRANCH  62  76
ATOM     76  C   UNL A   1      45.351  31.046  27.439  1.00  0.00     0.057 A 
ATOM     77  C   UNL A   1      46.675  31.338  27.057  1.00  0.00     0.134 A 
ATOM     78  C   UNL A   1      44.460  32.135  27.362  1.00  0.00     0.134 A 
ATOM     79  F   UNL A   1      47.625  30.390  27.079  1.00  0.00    -0.206 F 
ATOM     80  C   UNL A   1      47.101  32.634  26.738  1.00  0.00     0.040 A 
ATOM     81  C   UNL A   1      44.865  33.423  26.994  1.00  0.00     0.040 A 
ATOM     82  F   UNL A   1      43.178  32.050  27.732  1.00  0.00    -0.206 F 
ATOM     83  C   UNL A   1      46.195  33.685  26.720  1.00  0.00     0.006 A 
ENDBRANCH  62  76
BRANCH  63  84
ATOM     84  C   UNL A   1      37.715  31.534  31.173  1.00  0.00     0.057 A 
ATOM     85  C   UNL A   1      37.166  31.988  29.965  1.00  0.00     0.134 A 
ATOM     86  C   UNL A   1      36.886  31.637  32.304  1.00  0.00     0.134 A 
ATOM     87  F   UNL A   1      37.866  31.900  28.824  1.00  0.00    -0.206 F 
ATOM     88  C   UNL A   1      35.858  32.480  29.877  1.00  0.00     0.040 A 
ATOM     89  C   UNL A   1      35.580  32.132  32.232  1.00  0.00     0.040 A 
ATOM     90  F   UNL A   1      37.284  31.174  33.498  1.00  0.00    -0.206 F 
ATOM     91  C   UNL A   1      35.055  32.540  31.011  1.00  0.00     0.006 A 
ENDBRANCH  63  84
BRANCH  75  92
ATOM     92  C   UNL A   1      43.065  29.360  33.595  1.00  0.00     0.057 A 
ATOM     93  C   UNL A   1      42.407  28.121  33.642  1.00  0.00     0.134 A 
ATOM     94  C   UNL A   1      43.643  29.813  34.786  1.00  0.00     0.134 A 
ATOM     95  F   UNL A   1      41.904  27.558  32.537  1.00  0.00    -0.206 F 
ATOM     96  C   UNL A   1      42.295  27.392  34.829  1.00  0.00     0.040 A 
ATOM     97  C   UNL A   1      43.569  29.077  35.970  1.00  0.00     0.040 A 
ATOM     98  F   UNL A   1      44.334  30.964  34.807  1.00  0.00    -0.206 F 
ATOM     99  C   UNL A   1      42.883  27.867  35.998  1.00  0.00     0.006 A 
ENDBRANCH  75  92
ENDBRANCH  49  50
ENDBRANCH  41  44
ENDBRANCH  39  40
ENDBRANCH  38  39
ENDBRANCH  37  38
ENDBRANCH   1  37
TORSDOF 18
ENDMDL
MODEL 2
REMARK VINA RESULT:     -11.7      2.151      3.578
REMARK SMILES COc1cc(OC)c([C@H]2CC(=O)Nc3c(C(=O)NCCCCCCNC(=O)c4ccc(-c5c6nc(c(-c7c(F)cccc7F)c7ccc([nH]7)c(-c7c(F)cccc7F)c7nc(c(-c8c(F)cccc8F)c8ccc5[nH]8)C=C7)C=C6)cc4)cn(-c4ccccc4)c32)cc1OC
REMARK SMILES IDX 21 1 20 2 19 3 18 4 16 5 17 6 15 8 9 9 10 10 90 11 11 12
REMARK SMILES IDX 14 13 83 14 12 15 13 16 82 17 8 19 3 20 4 21 92 22 5 23
REMARK SMILES IDX 91 24 2 25 1 26 93 27 94 28 6 29 7 30 84 31 85 32 89 33
REMARK SMILES IDX 86 34 88 35 87 36 22 37 23 38 24 39 25 40 26 41 27 43 28 44
REMARK SMILES IDX 29 45 81 46 30 47 80 48 31 49 32 50 33 51 74 52 34 53 79 54
REMARK SMILES IDX 73 55 75 56 35 57 78 58 72 59 71 60 36 62 62 63 45 64 61 65
REMARK SMILES IDX 46 66 49 67 60 68 76 69 47 70 48 71 59 73 77 74 50 75 37 76
REMARK SMILES IDX 38 77 43 78 39 79 40 80 42 81 44 82 41 83 63 84 64 85 69 86
REMARK SMILES IDX 65 87 66 88 68 89 70 90 67 91 51 92 52 93 57 94 53 95 54 96
REMARK SMILES IDX 56 97 58 98 55 99
REMARK H PARENT 18 7 13 18 25 42 75 61 49 72
REMARK Flexibility Score: inf
ROOT
ATOM      1  C   UNL A   1      39.383  22.016  26.688  1.00  0.00     0.002 C 
ENDROOT
BRANCH   1   2
ATOM      2  C   UNL A   1      39.016  23.466  27.014  1.00  0.00     0.021 C 
BRANCH   2   3
ATOM      3  C   UNL A   1      37.758  23.945  26.279  1.00  0.00     0.116 C 
BRANCH   3   4
ATOM      4  N   UNL A   1      37.539  23.179  25.084  1.00  0.00    -0.352 N 
ATOM      5  C   UNL A   1      36.497  23.077  24.213  1.00  0.00     0.254 C 
ATOM      6  O   UNL A   1      36.726  22.366  23.228  1.00  0.00    -0.269 OA
ATOM      7  H   UNL A   1      38.305  22.607  24.845  1.00  0.00     0.163 HD
BRANCH   5   8
ATOM      8  C   UNL A   1      35.189  23.730  24.365  1.00  0.00     0.081 A 
ATOM      9  C   UNL A   1      31.628  24.840  23.909  1.00  0.00     0.082 C 
ATOM     10  C   UNL A   1      31.370  24.017  22.640  1.00  0.00     0.115 C 
ATOM     11  C   UNL A   1      33.080  24.640  24.323  1.00  0.00     0.055 A 
ATOM     12  C   UNL A   1      31.924  22.626  22.769  1.00  0.00     0.225 C 
ATOM     13  C   UNL A   1      33.838  23.541  23.942  1.00  0.00     0.076 A 
ATOM     14  N   UNL A   1      33.866  25.422  25.149  1.00  0.00    -0.317 N 
ATOM     15  O   UNL A   1      31.339  21.632  22.345  1.00  0.00    -0.275 OA
ATOM     16  N   UNL A   1      33.193  22.526  23.272  1.00  0.00    -0.324 N 
ATOM     17  C   UNL A   1      35.147  24.940  25.056  1.00  0.00     0.107 A 
ATOM     18  H   UNL A   1      33.674  21.677  23.146  1.00  0.00     0.170 HD
BRANCH   9  19
ATOM     19  C   UNL A   1      31.123  26.252  23.642  1.00  0.00     0.008 A 
ATOM     20  C   UNL A   1      30.309  28.951  23.212  1.00  0.00     0.164 A 
ATOM     21  C   UNL A   1      29.407  27.973  23.646  1.00  0.00     0.097 A 
ATOM     22  C   UNL A   1      31.611  28.566  22.907  1.00  0.00     0.161 A 
ATOM     23  C   UNL A   1      29.785  26.634  23.836  1.00  0.00     0.126 A 
ATOM     24  C   UNL A   1      31.988  27.225  23.085  1.00  0.00     0.058 A 
BRANCH  20  25
ATOM     25  O   UNL A   1      29.778  30.208  23.169  1.00  0.00    -0.493 OA
ATOM     26  C   UNL A   1      29.244  30.646  21.927  1.00  0.00     0.278 C 
ENDBRANCH  20  25
BRANCH  22  27
ATOM     27  O   UNL A   1      32.565  29.363  22.335  1.00  0.00    -0.493 OA
ATOM     28  C   UNL A   1      33.903  28.898  22.489  1.00  0.00     0.278 C 
ENDBRANCH  22  27
BRANCH  23  29
ATOM     29  O   UNL A   1      28.704  25.804  23.989  1.00  0.00    -0.496 OA
ATOM     30  C   UNL A   1      27.417  26.359  24.192  1.00  0.00     0.278 C 
ENDBRANCH  23  29
ENDBRANCH   9  19
BRANCH  14  31
ATOM     31  C   UNL A   1      33.501  26.558  25.912  1.00  0.00     0.045 A 
ATOM     32  C   UNL A   1      32.329  26.555  26.673  1.00  0.00     0.026 A 
ATOM     33  C   UNL A   1      34.295  27.710  25.837  1.00  0.00     0.026 A 
ATOM     34  C   UNL A   1      31.921  27.727  27.309  1.00  0.00     0.002 A 
ATOM     35  C   UNL A   1      33.867  28.883  26.456  1.00  0.00     0.002 A 
ATOM     36  C   UNL A   1      32.676  28.894  27.180  1.00  0.00     0.000 A 
ENDBRANCH  14  31
ENDBRANCH   5   8
ENDBRANCH   3   4
ENDBRANCH   2   3
ENDBRANCH   1   2
BRANCH   1  37
ATOM     37  C   UNL A   1      40.876  21.690  26.853  1.00  0.00     0.002 C 
BRANCH  37  38
ATOM     38  C   UNL A   1      41.381  20.466  26.072  1.00  0.00     0.021 C 
BRANCH  38  39
ATOM     39  C   UNL A   1      42.633  19.852  26.680  1.00  0.00     0.116 C 
BRANCH  39  40
ATOM     40  N   UNL A   1      43.698  19.750  25.687  1.00  0.00    -0.352 N 
ATOM     41  C   UNL A   1      44.366  20.745  25.014  1.00  0.00     0.251 C 
ATOM     42  H   UNL A   1      43.980  18.832  25.467  1.00  0.00     0.163 HD
ATOM     43  O   UNL A   1      44.996  20.495  24.000  1.00  0.00    -0.269 OA
BRANCH  41  44
ATOM     44  C   UNL A   1      44.303  22.123  25.527  1.00  0.00     0.039 A 
ATOM     45  C   UNL A   1      43.542  23.079  24.851  1.00  0.00     0.014 A 
ATOM     46  C   UNL A   1      45.008  22.455  26.683  1.00  0.00     0.014 A 
ATOM     47  C   UNL A   1      43.433  24.355  25.391  1.00  0.00     0.010 A 
ATOM     48  C   UNL A   1      44.811  23.680  27.276  1.00  0.00     0.010 A 
ATOM     49  C   UNL A   1      44.052  24.644  26.617  1.00  0.00    -0.014 A 
BRANCH  49  50
ATOM     50  C   UNL A   1      43.775  25.913  27.283  1.00  0.00     0.031 A 
ATOM     51  C   UNL A   1      44.720  27.008  26.924  1.00  0.00     0.074 A 
ATOM     52  C   UNL A   1      42.650  26.155  27.989  1.00  0.00     0.049 A 
ATOM     53  N   UNL A   1      45.554  27.622  27.698  1.00  0.00    -0.248 NA
ATOM     54  C   UNL A   1      44.850  27.375  25.503  1.00  0.00     0.031 C 
ATOM     55  C   UNL A   1      41.479  25.286  28.151  1.00  0.00     0.029 A 
ATOM     56  N   UNL A   1      42.266  27.293  28.630  1.00  0.00    -0.354 N 
ATOM     57  C   UNL A   1      46.168  28.592  26.909  1.00  0.00     0.074 A 
ATOM     58  C   UNL A   1      45.832  28.277  25.547  1.00  0.00     0.031 C 
ATOM     59  C   UNL A   1      40.443  26.007  28.633  1.00  0.00     0.029 A 
ATOM     60  C   UNL A   1      40.918  27.337  28.970  1.00  0.00     0.049 A 
ATOM     61  H   UNL A   1      42.892  28.024  28.837  1.00  0.00     0.167 HD
ATOM     62  C   UNL A   1      46.695  29.717  27.469  1.00  0.00     0.037 A 
ATOM     63  C   UNL A   1      40.236  28.400  29.463  1.00  0.00     0.037 A 
ATOM     64  C   UNL A   1      46.892  29.541  28.887  1.00  0.00     0.049 A 
ATOM     65  C   UNL A   1      41.233  29.355  30.003  1.00  0.00     0.074 A 
ATOM     66  C   UNL A   1      47.620  28.671  29.675  1.00  0.00     0.029 A 
ATOM     67  N   UNL A   1      45.975  30.125  29.726  1.00  0.00    -0.354 N 
ATOM     68  N   UNL A   1      41.954  29.136  31.064  1.00  0.00    -0.248 NA
ATOM     69  C   UNL A   1      41.736  30.385  29.108  1.00  0.00     0.031 C 
ATOM     70  C   UNL A   1      46.795  28.426  30.813  1.00  0.00     0.029 A 
ATOM     71  C   UNL A   1      45.646  29.209  30.688  1.00  0.00     0.049 A 
ATOM     72  H   UNL A   1      45.619  31.040  29.650  1.00  0.00     0.167 HD
ATOM     73  C   UNL A   1      43.201  29.653  30.751  1.00  0.00     0.074 A 
ATOM     74  C   UNL A   1      42.977  30.506  29.586  1.00  0.00     0.031 C 
ATOM     75  C   UNL A   1      44.336  29.114  31.286  1.00  0.00     0.037 A 
BRANCH  62  76
ATOM     76  C   UNL A   1      46.639  31.096  26.843  1.00  0.00     0.057 A 
ATOM     77  C   UNL A   1      47.805  31.888  26.840  1.00  0.00     0.134 A 
ATOM     78  C   UNL A   1      45.451  31.792  26.542  1.00  0.00     0.134 A 
ATOM     79  F   UNL A   1      49.005  31.351  27.106  1.00  0.00    -0.206 F 
ATOM     80  C   UNL A   1      47.772  33.278  26.668  1.00  0.00     0.040 A 
ATOM     81  C   UNL A   1      45.415  33.172  26.317  1.00  0.00     0.040 A 
ATOM     82  F   UNL A   1      44.248  31.208  26.548  1.00  0.00    -0.206 F 
ATOM     83  C   UNL A   1      46.571  33.927  26.419  1.00  0.00     0.006 A 
ENDBRANCH  62  76
BRANCH  63  84
ATOM     84  C   UNL A   1      38.817  28.779  29.280  1.00  0.00     0.057 A 
ATOM     85  C   UNL A   1      37.934  28.824  30.368  1.00  0.00     0.134 A 
ATOM     86  C   UNL A   1      38.366  29.382  28.093  1.00  0.00     0.134 A 
ATOM     87  F   UNL A   1      38.288  28.306  31.554  1.00  0.00    -0.206 F 
ATOM     88  C   UNL A   1      36.690  29.464  30.295  1.00  0.00     0.040 A 
ATOM     89  C   UNL A   1      37.124  30.019  28.004  1.00  0.00     0.040 A 
ATOM     90  F   UNL A   1      39.153  29.454  27.010  1.00  0.00    -0.206 F 
ATOM     91  C   UNL A   1      36.288  30.078  29.112  1.00  0.00     0.006 A 
ENDBRANCH  63  84
BRANCH  75  92
ATOM     92  C   UNL A   1      44.187  28.163  32.442  1.00  0.00     0.057 A 
ATOM     93  C   UNL A   1      44.024  26.775  32.317  1.00  0.00     0.134 A 
ATOM     94  C   UNL A   1      44.355  28.666  33.737  1.00  0.00     0.134 A 
ATOM     95  F   UNL A   1      43.951  26.187  31.117  1.00  0.00    -0.206 F 
ATOM     96  C   UNL A   1      43.988  25.935  33.435  1.00  0.00     0.040 A 
ATOM     97  C   UNL A   1      44.357  27.833  34.859  1.00  0.00     0.040 A 
ATOM     98  F   UNL A   1      44.569  29.977  33.931  1.00  0.00    -0.206 F 
ATOM     99  C   UNL A   1      44.161  26.464  34.711  1.00  0.00     0.006 A 
ENDBRANCH  75  92
ENDBRANCH  49  50
ENDBRANCH  41  44
ENDBRANCH  39  40
ENDBRANCH  38  39
ENDBRANCH  37  38
ENDBRANCH   1  37
TORSDOF 18
ENDMDL
MODEL 3
REMARK VINA RESULT:     -11.0      2.420      8.011
REMARK SMILES COc1cc(OC)c([C@H]2CC(=O)Nc3c(C(=O)NCCCCCCNC(=O)c4ccc(-c5c6nc(c(-c7c(F)cccc7F)c7ccc([nH]7)c(-c7c(F)cccc7F)c7nc(c(-c8c(F)cccc8F)c8ccc5[nH]8)C=C7)C=C6)cc4)cn(-c4ccccc4)c32)cc1OC
REMARK SMILES IDX 21 1 20 2 19 3 18 4 16 5 17 6 15 8 9 9 10 10 90 11 11 12
REMARK SMILES IDX 14 13 83 14 12 15 13 16 82 17 8 19 3 20 4 21 92 22 5 23
REMARK SMILES IDX 91 24 2 25 1 26 93 27 94 28 6 29 7 30 84 31 85 32 89 33
REMARK SMILES IDX 86 34 88 35 87 36 22 37 23 38 24 39 25 40 26 41 27 43 28 44
REMARK SMILES IDX 29 45 81 46 30 47 80 48 31 49 32 50 33 51 74 52 34 53 79 54
REMARK SMILES IDX 73 55 75 56 35 57 78 58 72 59 71 60 36 62 62 63 45 64 61 65
REMARK SMILES IDX 46 66 49 67 60 68 76 69 47 70 48 71 59 73 77 74 50 75 37 76
REMARK SMILES IDX 38 77 43 78 39 79 40 80 42 81 44 82 41 83 63 84 64 85 69 86
REMARK SMILES IDX 65 87 66 88 68 89 70 90 67 91 51 92 52 93 57 94 53 95 54 96
REMARK SMILES IDX 56 97 58 98 55 99
REMARK H PARENT 18 7 13 18 25 42 75 61 49 72
REMARK Flexibility Score: inf
ROOT
ATOM      1  C   UNL A   1      36.186  31.637  28.944  1.00  0.00     0.002 C 
ENDROOT
BRANCH   1   2
ATOM      2  C   UNL A   1      35.602  30.252  28.659  1.00  0.00     0.021 C 
BRANCH   2   3
ATOM      3  C   UNL A   1      34.969  30.143  27.266  1.00  0.00     0.116 C 
BRANCH   3   4
ATOM      4  N   UNL A   1      33.539  30.251  27.344  1.00  0.00    -0.352 N 
ATOM      5  C   UNL A   1      32.514  29.468  26.905  1.00  0.00     0.254 C 
ATOM      6  O   UNL A   1      31.393  29.855  27.253  1.00  0.00    -0.269 OA
ATOM      7  H   UNL A   1      33.236  31.061  27.815  1.00  0.00     0.163 HD
BRANCH   5   8
ATOM      8  C   UNL A   1      32.655  28.254  26.087  1.00  0.00     0.081 A 
ATOM      9  C   UNL A   1      32.102  25.470  23.626  1.00  0.00     0.082 C 
ATOM     10  C   UNL A   1      30.737  25.967  23.133  1.00  0.00     0.115 C 
ATOM     11  C   UNL A   1      32.582  26.402  24.730  1.00  0.00     0.055 A 
ATOM     12  C   UNL A   1      30.747  27.452  22.903  1.00  0.00     0.225 C 
ATOM     13  C   UNL A   1      32.130  27.707  24.877  1.00  0.00     0.076 A 
ATOM     14  N   UNL A   1      33.536  26.179  25.705  1.00  0.00    -0.317 N 
ATOM     15  O   UNL A   1      30.180  27.984  21.951  1.00  0.00    -0.275 OA
ATOM     16  N   UNL A   1      31.314  28.211  23.890  1.00  0.00    -0.324 N 
ATOM     17  C   UNL A   1      33.471  27.236  26.578  1.00  0.00     0.107 A 
ATOM     18  H   UNL A   1      31.126  29.177  23.895  1.00  0.00     0.170 HD
BRANCH   9  19
ATOM     19  C   UNL A   1      31.961  23.982  23.922  1.00  0.00     0.008 A 
ATOM     20  C   UNL A   1      31.702  21.233  24.634  1.00  0.00     0.164 A 
ATOM     21  C   UNL A   1      32.538  21.645  23.590  1.00  0.00     0.097 A 
ATOM     22  C   UNL A   1      30.920  22.189  25.277  1.00  0.00     0.161 A 
ATOM     23  C   UNL A   1      32.656  22.991  23.209  1.00  0.00     0.126 A 
ATOM     24  C   UNL A   1      31.029  23.534  24.889  1.00  0.00     0.058 A 
BRANCH  20  25
ATOM     25  O   UNL A   1      31.786  19.899  24.912  1.00  0.00    -0.493 OA
ATOM     26  C   UNL A   1      33.037  19.410  25.375  1.00  0.00     0.278 C 
ENDBRANCH  20  25
BRANCH  22  27
ATOM     27  O   UNL A   1      29.951  21.932  26.208  1.00  0.00    -0.493 OA
ATOM     28  C   UNL A   1      29.776  22.953  27.186  1.00  0.00     0.278 C 
ENDBRANCH  22  27
BRANCH  23  29
ATOM     29  O   UNL A   1      33.299  23.139  22.007  1.00  0.00    -0.496 OA
ATOM     30  C   UNL A   1      33.052  24.289  21.217  1.00  0.00     0.278 C 
ENDBRANCH  23  29
ENDBRANCH   9  19
BRANCH  14  31
ATOM     31  C   UNL A   1      34.395  25.066  25.873  1.00  0.00     0.045 A 
ATOM     32  C   UNL A   1      35.527  24.915  25.066  1.00  0.00     0.026 A 
ATOM     33  C   UNL A   1      34.056  24.082  26.811  1.00  0.00     0.026 A 
ATOM     34  C   UNL A   1      36.283  23.747  25.158  1.00  0.00     0.002 A 
ATOM     35  C   UNL A   1      34.805  22.908  26.879  1.00  0.00     0.002 A 
ATOM     36  C   UNL A   1      35.908  22.736  26.045  1.00  0.00     0.000 A 
ENDBRANCH  14  31
ENDBRANCH   5   8
ENDBRANCH   3   4
ENDBRANCH   2   3
ENDBRANCH   1   2
BRANCH   1  37
ATOM     37  C   UNL A   1      35.677  32.743  28.006  1.00  0.00     0.002 C 
BRANCH  37  38
ATOM     38  C   UNL A   1      35.084  33.982  28.696  1.00  0.00     0.021 C 
BRANCH  38  39
ATOM     39  C   UNL A   1      34.427  33.658  30.029  1.00  0.00     0.116 C 
BRANCH  39  40
ATOM     40  N   UNL A   1      34.695  34.705  31.010  1.00  0.00    -0.352 N 
ATOM     41  C   UNL A   1      35.636  34.745  32.013  1.00  0.00     0.251 C 
ATOM     42  H   UNL A   1      34.119  35.501  30.944  1.00  0.00     0.163 HD
ATOM     43  O   UNL A   1      35.528  35.536  32.935  1.00  0.00    -0.269 OA
BRANCH  41  44
ATOM     44  C   UNL A   1      36.773  33.812  31.965  1.00  0.00     0.039 A 
ATOM     45  C   UNL A   1      36.627  32.518  32.469  1.00  0.00     0.014 A 
ATOM     46  C   UNL A   1      37.983  34.236  31.418  1.00  0.00     0.014 A 
ATOM     47  C   UNL A   1      37.687  31.627  32.348  1.00  0.00     0.010 A 
ATOM     48  C   UNL A   1      38.990  33.325  31.197  1.00  0.00     0.010 A 
ATOM     49  C   UNL A   1      38.860  32.029  31.689  1.00  0.00    -0.014 A 
BRANCH  49  50
ATOM     50  C   UNL A   1      39.890  31.042  31.383  1.00  0.00     0.031 A 
ATOM     51  C   UNL A   1      40.726  30.652  32.555  1.00  0.00     0.074 A 
ATOM     52  C   UNL A   1      39.956  30.371  30.214  1.00  0.00     0.049 A 
ATOM     53  N   UNL A   1      41.992  30.845  32.724  1.00  0.00    -0.248 NA
ATOM     54  C   UNL A   1      40.046  30.099  33.739  1.00  0.00     0.031 C 
ATOM     55  C   UNL A   1      39.007  30.406  29.095  1.00  0.00     0.029 A 
ATOM     56  N   UNL A   1      40.845  29.417  29.820  1.00  0.00    -0.354 N 
ATOM     57  C   UNL A   1      42.311  30.256  33.946  1.00  0.00     0.074 A 
ATOM     58  C   UNL A   1      41.060  29.978  34.598  1.00  0.00     0.031 C 
ATOM     59  C   UNL A   1      39.240  29.360  28.272  1.00  0.00     0.029 A 
ATOM     60  C   UNL A   1      40.447  28.682  28.708  1.00  0.00     0.049 A 
ATOM     61  H   UNL A   1      41.699  29.261  30.284  1.00  0.00     0.167 HD
ATOM     62  C   UNL A   1      43.577  29.821  34.203  1.00  0.00     0.037 A 
ATOM     63  C   UNL A   1      41.050  27.578  28.202  1.00  0.00     0.037 A 
ATOM     64  C   UNL A   1      44.520  30.414  33.287  1.00  0.00     0.049 A 
ATOM     65  C   UNL A   1      42.432  27.544  28.736  1.00  0.00     0.074 A 
ATOM     66  C   UNL A   1      44.904  31.703  32.974  1.00  0.00     0.029 A 
ATOM     67  N   UNL A   1      44.969  29.630  32.253  1.00  0.00    -0.354 N 
ATOM     68  N   UNL A   1      43.365  28.389  28.403  1.00  0.00    -0.248 NA
ATOM     69  C   UNL A   1      42.660  26.819  29.976  1.00  0.00     0.031 C 
ATOM     70  C   UNL A   1      45.128  31.690  31.565  1.00  0.00     0.029 A 
ATOM     71  C   UNL A   1      44.935  30.384  31.112  1.00  0.00     0.049 A 
ATOM     72  H   UNL A   1      45.265  28.693  32.321  1.00  0.00     0.167 HD
ATOM     73  C   UNL A   1      44.050  28.635  29.582  1.00  0.00     0.074 A 
ATOM     74  C   UNL A   1      43.646  27.560  30.487  1.00  0.00     0.031 C 
ATOM     75  C   UNL A   1      44.649  29.842  29.805  1.00  0.00     0.037 A 
BRANCH  62  76
ATOM     76  C   UNL A   1      43.912  28.565  34.982  1.00  0.00     0.057 A 
ATOM     77  C   UNL A   1      43.300  27.352  34.609  1.00  0.00     0.134 A 
ATOM     78  C   UNL A   1      44.537  28.548  36.245  1.00  0.00     0.134 A 
ATOM     79  F   UNL A   1      42.672  27.229  33.429  1.00  0.00    -0.206 F 
ATOM     80  C   UNL A   1      43.216  26.253  35.473  1.00  0.00     0.040 A 
ATOM     81  C   UNL A   1      44.504  27.437  37.094  1.00  0.00     0.040 A 
ATOM     82  F   UNL A   1      45.124  29.626  36.778  1.00  0.00    -0.206 F 
ATOM     83  C   UNL A   1      43.809  26.298  36.727  1.00  0.00     0.006 A 
ENDBRANCH  62  76
BRANCH  63  84
ATOM     84  C   UNL A   1      40.458  26.416  27.503  1.00  0.00     0.057 A 
ATOM     85  C   UNL A   1      41.001  25.943  26.299  1.00  0.00     0.134 A 
ATOM     86  C   UNL A   1      39.534  25.569  28.139  1.00  0.00     0.134 A 
ATOM     87  F   UNL A   1      41.916  26.664  25.636  1.00  0.00    -0.206 F 
ATOM     88  C   UNL A   1      40.674  24.685  25.777  1.00  0.00     0.040 A 
ATOM     89  C   UNL A   1      39.194  24.314  27.625  1.00  0.00     0.040 A 
ATOM     90  F   UNL A   1      39.002  25.892  29.326  1.00  0.00    -0.206 F 
ATOM     91  C   UNL A   1      39.779  23.859  26.449  1.00  0.00     0.006 A 
ENDBRANCH  63  84
BRANCH  75  92
ATOM     92  C   UNL A   1      44.811  30.773  28.635  1.00  0.00     0.057 A 
ATOM     93  C   UNL A   1      43.895  31.776  28.281  1.00  0.00     0.134 A 
ATOM     94  C   UNL A   1      46.016  30.738  27.924  1.00  0.00     0.134 A 
ATOM     95  F   UNL A   1      42.758  31.952  28.963  1.00  0.00    -0.206 F 
ATOM     96  C   UNL A   1      44.152  32.672  27.238  1.00  0.00     0.040 A 
ATOM     97  C   UNL A   1      46.300  31.650  26.905  1.00  0.00     0.040 A 
ATOM     98  F   UNL A   1      46.963  29.840  28.241  1.00  0.00    -0.206 F 
ATOM     99  C   UNL A   1      45.361  32.615  26.551  1.00  0.00     0.006 A 
ENDBRANCH  75  92
ENDBRANCH  49  50
ENDBRANCH  41  44
ENDBRANCH  39  40
ENDBRANCH  38  39
ENDBRANCH  37  38
ENDBRANCH   1  37
TORSDOF 18
ENDMDL
