MODEL 1
REMARK VINA RESULT:     -11.8      0.000      0.000
REMARK SMILES CS(=O)(=O)c1ccc(C2=NN(c3ccc(C(=O)NCCCCCCNC(=O)c4ccc(-c5c6nc(c(-c7c(F)cccc7F)c7ccc([nH]7)c(-c7c(F)cccc7F)c7nc(c(-c8c(F)cccc8F)c8ccc5[nH]8)C=C7)C=C6)cc4)cc3)[C@H](c3ccc(Cl)cc3)C2)cc1
REMARK SMILES IDX 21 1 20 2 19 3 18 4 16 5 17 6 15 8 12 9 13 10 83 11 14 12
REMARK SMILES IDX 82 13 11 14 9 15 10 16 92 17 84 18 8 19 5 20 6 21 94 22 7 23
REMARK SMILES IDX 93 24 2 25 1 26 3 27 4 28 85 29 86 30 91 31 87 32 90 33
REMARK SMILES IDX 88 34 89 35 22 36 23 37 24 38 25 39 26 40 27 42 28 43 29 44
REMARK SMILES IDX 81 45 30 46 80 47 31 48 32 49 33 50 74 51 34 52 79 53 73 54
REMARK SMILES IDX 75 55 35 56 78 57 72 58 71 59 36 61 62 62 45 63 61 64 46 65
REMARK SMILES IDX 49 66 60 67 76 68 47 69 48 70 59 72 77 73 50 74 37 75 38 76
REMARK SMILES IDX 43 77 39 78 40 79 42 80 44 81 41 82 63 83 64 84 69 85 65 86
REMARK SMILES IDX 66 87 68 88 70 89 67 90 51 91 52 92 57 93 53 94 54 95 56 96
REMARK SMILES IDX 58 97 55 98
REMARK H PARENT 18 7 25 41 75 60 49 71
REMARK Flexibility Score: inf
ROOT
ATOM      1  C   UNL A   1      41.474  25.508  26.896  1.00  0.00     0.002 C 
ENDROOT
BRANCH   1   2
ATOM      2  C   UNL A   1      39.944  25.584  26.820  1.00  0.00     0.021 C 
BRANCH   2   3
ATOM      3  C   UNL A   1      39.250  24.470  27.607  1.00  0.00     0.116 C 
BRANCH   3   4
ATOM      4  N   UNL A   1      39.398  23.205  26.912  1.00  0.00    -0.352 N 
ATOM      5  C   UNL A   1      38.533  22.499  26.115  1.00  0.00     0.251 C 
ATOM      6  O   UNL A   1      38.921  21.442  25.620  1.00  0.00    -0.269 OA
ATOM      7  H   UNL A   1      40.277  22.777  27.034  1.00  0.00     0.163 HD
BRANCH   5   8
ATOM      8  C   UNL A   1      37.185  23.018  25.769  1.00  0.00     0.039 A 
ATOM      9  C   UNL A   1      34.524  23.748  25.219  1.00  0.00     0.060 A 
ATOM     10  C   UNL A   1      34.934  23.513  26.534  1.00  0.00     0.029 A 
ATOM     11  C   UNL A   1      35.481  23.714  24.203  1.00  0.00     0.029 A 
ATOM     12  C   UNL A   1      36.257  23.150  26.810  1.00  0.00     0.016 A 
ATOM     13  C   UNL A   1      36.806  23.376  24.475  1.00  0.00     0.016 A 
BRANCH   9  14
ATOM     14  N   UNL A   1      33.206  24.009  24.897  1.00  0.00    -0.257 N 
ATOM     15  C   UNL A   1      31.570  25.336  24.676  1.00  0.00     0.071 C 
ATOM     16  N   UNL A   1      32.857  25.268  24.559  1.00  0.00    -0.176 NA
ATOM     17  C   UNL A   1      30.891  24.095  25.192  1.00  0.00     0.091 C 
ATOM     18  C   UNL A   1      32.085  23.120  25.210  1.00  0.00     0.144 C 
BRANCH  15  19
ATOM     19  C   UNL A   1      30.832  26.560  24.336  1.00  0.00    -0.002 A 
ATOM     20  C   UNL A   1      29.405  28.805  23.533  1.00  0.00     0.067 A 
ATOM     21  C   UNL A   1      28.795  27.548  23.492  1.00  0.00     0.021 A 
ATOM     22  C   UNL A   1      30.725  28.945  23.978  1.00  0.00     0.021 A 
ATOM     23  C   UNL A   1      29.517  26.422  23.880  1.00  0.00     0.011 A 
ATOM     24  C   UNL A   1      31.439  27.815  24.392  1.00  0.00     0.011 A 
BRANCH  20  25
ATOM     25  S   UNL A   1      28.443  30.202  23.000  1.00  0.00     0.175 S 
ATOM     26  C   UNL A   1      28.923  30.542  21.331  1.00  0.00     0.163 C 
ATOM     27  O   UNL A   1      28.881  31.333  23.800  1.00  0.00    -0.224 OA
ATOM     28  O   UNL A   1      27.061  29.773  22.992  1.00  0.00    -0.224 OA
ENDBRANCH  20  25
ENDBRANCH  15  19
BRANCH  18  29
ATOM     29  C   UNL A   1      32.063  21.935  24.242  1.00  0.00    -0.023 A 
ATOM     30  C   UNL A   1      31.844  22.048  22.859  1.00  0.00     0.007 A 
ATOM     31  C   UNL A   1      32.331  20.648  24.756  1.00  0.00     0.007 A 
ATOM     32  C   UNL A   1      31.883  20.919  22.029  1.00  0.00     0.021 A 
ATOM     33  C   UNL A   1      32.401  19.526  23.927  1.00  0.00     0.021 A 
ATOM     34  C   UNL A   1      32.171  19.666  22.564  1.00  0.00     0.041 A 
ATOM     35  Cl  UNL A   1      32.254  18.289  21.536  1.00  0.00    -0.084 Cl
ENDBRANCH  18  29
ENDBRANCH   9  14
ENDBRANCH   5   8
ENDBRANCH   3   4
ENDBRANCH   2   3
ENDBRANCH   1   2
BRANCH   1  36
ATOM     36  C   UNL A   1      42.198  26.013  25.643  1.00  0.00     0.002 C 
BRANCH  36  37
ATOM     37  C   UNL A   1      43.178  25.014  25.023  1.00  0.00     0.021 C 
BRANCH  37  38
ATOM     38  C   UNL A   1      43.234  23.671  25.743  1.00  0.00     0.116 C 
BRANCH  38  39
ATOM     39  N   UNL A   1      44.601  23.291  26.060  1.00  0.00    -0.352 N 
ATOM     40  C   UNL A   1      45.461  23.822  26.986  1.00  0.00     0.251 C 
ATOM     41  H   UNL A   1      44.962  22.542  25.532  1.00  0.00     0.163 HD
ATOM     42  O   UNL A   1      46.656  23.548  26.947  1.00  0.00    -0.269 OA
BRANCH  40  43
ATOM     43  C   UNL A   1      44.948  24.735  28.028  1.00  0.00     0.039 A 
ATOM     44  C   UNL A   1      45.243  26.096  27.939  1.00  0.00     0.014 A 
ATOM     45  C   UNL A   1      44.196  24.246  29.102  1.00  0.00     0.014 A 
ATOM     46  C   UNL A   1      44.742  26.975  28.899  1.00  0.00     0.010 A 
ATOM     47  C   UNL A   1      43.632  25.133  30.012  1.00  0.00     0.010 A 
ATOM     48  C   UNL A   1      43.905  26.506  29.926  1.00  0.00    -0.014 A 
BRANCH  48  49
ATOM     49  C   UNL A   1      43.309  27.443  30.910  1.00  0.00     0.031 A 
ATOM     50  C   UNL A   1      43.933  27.625  32.266  1.00  0.00     0.074 A 
ATOM     51  C   UNL A   1      42.173  28.095  30.596  1.00  0.00     0.049 A 
ATOM     52  N   UNL A   1      43.540  28.379  33.262  1.00  0.00    -0.248 NA
ATOM     53  C   UNL A   1      45.141  26.835  32.554  1.00  0.00     0.031 C 
ATOM     54  C   UNL A   1      41.441  27.957  29.335  1.00  0.00     0.029 A 
ATOM     55  N   UNL A   1      41.429  28.997  31.315  1.00  0.00    -0.354 N 
ATOM     56  C   UNL A   1      44.443  28.147  34.292  1.00  0.00     0.074 A 
ATOM     57  C   UNL A   1      45.368  27.139  33.822  1.00  0.00     0.031 C 
ATOM     58  C   UNL A   1      40.370  28.766  29.359  1.00  0.00     0.029 A 
ATOM     59  C   UNL A   1      40.316  29.447  30.648  1.00  0.00     0.049 A 
ATOM     60  H   UNL A   1      41.672  29.293  32.222  1.00  0.00     0.167 HD
ATOM     61  C   UNL A   1      44.506  28.736  35.509  1.00  0.00     0.037 A 
ATOM     62  C   UNL A   1      39.355  30.307  31.035  1.00  0.00     0.037 A 
ATOM     63  C   UNL A   1      43.590  29.749  35.965  1.00  0.00     0.049 A 
ATOM     64  C   UNL A   1      39.447  30.945  32.392  1.00  0.00     0.074 A 
ATOM     65  C   UNL A   1      43.611  30.459  37.154  1.00  0.00     0.029 A 
ATOM     66  N   UNL A   1      42.482  30.190  35.257  1.00  0.00    -0.354 N 
ATOM     67  N   UNL A   1      40.355  30.782  33.324  1.00  0.00    -0.248 NA
ATOM     68  C   UNL A   1      38.386  31.897  32.748  1.00  0.00     0.031 C 
ATOM     69  C   UNL A   1      42.481  31.283  37.191  1.00  0.00     0.029 A 
ATOM     70  C   UNL A   1      41.792  31.137  35.998  1.00  0.00     0.049 A 
ATOM     71  H   UNL A   1      42.223  29.877  34.360  1.00  0.00     0.167 HD
ATOM     72  C   UNL A   1      39.990  31.626  34.365  1.00  0.00     0.074 A 
ATOM     73  C   UNL A   1      38.789  32.314  33.939  1.00  0.00     0.031 C 
ATOM     74  C   UNL A   1      40.594  31.813  35.564  1.00  0.00     0.037 A 
BRANCH  61  75
ATOM     75  C   UNL A   1      45.600  28.292  36.440  1.00  0.00     0.057 A 
ATOM     76  C   UNL A   1      45.418  27.249  37.357  1.00  0.00     0.134 A 
ATOM     77  C   UNL A   1      46.864  28.897  36.397  1.00  0.00     0.134 A 
ATOM     78  F   UNL A   1      44.231  26.632  37.459  1.00  0.00    -0.206 F 
ATOM     79  C   UNL A   1      46.440  26.844  38.219  1.00  0.00     0.040 A 
ATOM     80  C   UNL A   1      47.903  28.480  37.230  1.00  0.00     0.040 A 
ATOM     81  F   UNL A   1      47.112  29.896  35.538  1.00  0.00    -0.206 F 
ATOM     82  C   UNL A   1      47.690  27.456  38.151  1.00  0.00     0.006 A 
ENDBRANCH  61  75
BRANCH  62  83
ATOM     83  C   UNL A   1      38.230  30.621  30.117  1.00  0.00     0.057 A 
ATOM     84  C   UNL A   1      38.195  31.819  29.396  1.00  0.00     0.134 A 
ATOM     85  C   UNL A   1      37.165  29.730  29.938  1.00  0.00     0.134 A 
ATOM     86  F   UNL A   1      39.178  32.721  29.538  1.00  0.00    -0.206 F 
ATOM     87  C   UNL A   1      37.132  32.131  28.547  1.00  0.00     0.040 A 
ATOM     88  C   UNL A   1      36.110  30.015  29.070  1.00  0.00     0.040 A 
ATOM     89  F   UNL A   1      37.143  28.559  30.592  1.00  0.00    -0.206 F 
ATOM     90  C   UNL A   1      36.088  31.223  28.377  1.00  0.00     0.006 A 
ENDBRANCH  62  83
BRANCH  74  91
ATOM     91  C   UNL A   1      39.981  32.824  36.490  1.00  0.00     0.057 A 
ATOM     92  C   UNL A   1      40.482  34.128  36.603  1.00  0.00     0.134 A 
ATOM     93  C   UNL A   1      38.858  32.495  37.260  1.00  0.00     0.134 A 
ATOM     94  F   UNL A   1      41.563  34.505  35.904  1.00  0.00    -0.206 F 
ATOM     95  C   UNL A   1      39.906  35.058  37.471  1.00  0.00     0.040 A 
ATOM     96  C   UNL A   1      38.254  33.427  38.107  1.00  0.00     0.040 A 
ATOM     97  F   UNL A   1      38.321  31.268  37.194  1.00  0.00    -0.206 F 
ATOM     98  C   UNL A   1      38.784  34.709  38.221  1.00  0.00     0.006 A 
ENDBRANCH  74  91
ENDBRANCH  48  49
ENDBRANCH  40  43
ENDBRANCH  38  39
ENDBRANCH  37  38
ENDBRANCH  36  37
ENDBRANCH   1  36
TORSDOF 17
ENDMDL
MODEL 2
REMARK VINA RESULT:     -11.3      6.116     12.940
REMARK SMILES CS(=O)(=O)c1ccc(C2=NN(c3ccc(C(=O)NCCCCCCNC(=O)c4ccc(-c5c6nc(c(-c7c(F)cccc7F)c7ccc([nH]7)c(-c7c(F)cccc7F)c7nc(c(-c8c(F)cccc8F)c8ccc5[nH]8)C=C7)C=C6)cc4)cc3)[C@H](c3ccc(Cl)cc3)C2)cc1
REMARK SMILES IDX 21 1 20 2 19 3 18 4 16 5 17 6 15 8 12 9 13 10 83 11 14 12
REMARK SMILES IDX 82 13 11 14 9 15 10 16 92 17 84 18 8 19 5 20 6 21 94 22 7 23
REMARK SMILES IDX 93 24 2 25 1 26 3 27 4 28 85 29 86 30 91 31 87 32 90 33
REMARK SMILES IDX 88 34 89 35 22 36 23 37 24 38 25 39 26 40 27 42 28 43 29 44
REMARK SMILES IDX 81 45 30 46 80 47 31 48 32 49 33 50 74 51 34 52 79 53 73 54
REMARK SMILES IDX 75 55 35 56 78 57 72 58 71 59 36 61 62 62 45 63 61 64 46 65
REMARK SMILES IDX 49 66 60 67 76 68 47 69 48 70 59 72 77 73 50 74 37 75 38 76
REMARK SMILES IDX 43 77 39 78 40 79 42 80 44 81 41 82 63 83 64 84 69 85 65 86
REMARK SMILES IDX 66 87 68 88 70 89 67 90 51 91 52 92 57 93 53 94 54 95 56 96
REMARK SMILES IDX 58 97 55 98
REMARK H PARENT 18 7 25 41 75 60 49 71
REMARK Flexibility Score: inf
ROOT
ATOM      1  C   UNL A   1      37.887  32.947  30.541  1.00  0.00     0.002 C 
ENDROOT
BRANCH   1   2
ATOM      2  C   UNL A   1      38.642  33.625  31.690  1.00  0.00     0.021 C 
BRANCH   2   3
ATOM      3  C   UNL A   1      38.861  32.701  32.890  1.00  0.00     0.116 C 
BRANCH   3   4
ATOM      4  N   UNL A   1      37.893  31.620  32.867  1.00  0.00    -0.352 N 
ATOM      5  C   UNL A   1      38.005  30.294  33.198  1.00  0.00     0.251 C 
ATOM      6  O   UNL A   1      37.006  29.581  33.107  1.00  0.00    -0.269 OA
ATOM      7  H   UNL A   1      36.996  31.887  32.560  1.00  0.00     0.163 HD
BRANCH   5   8
ATOM      8  C   UNL A   1      39.264  29.724  33.739  1.00  0.00     0.039 A 
ATOM      9  C   UNL A   1      41.525  28.378  34.738  1.00  0.00     0.060 A 
ATOM     10  C   UNL A   1      41.078  28.137  33.436  1.00  0.00     0.029 A 
ATOM     11  C   UNL A   1      40.891  29.370  35.490  1.00  0.00     0.029 A 
ATOM     12  C   UNL A   1      39.955  28.805  32.937  1.00  0.00     0.016 A 
ATOM     13  C   UNL A   1      39.785  30.056  34.989  1.00  0.00     0.016 A 
BRANCH   9  14
ATOM     14  N   UNL A   1      42.568  27.667  35.300  1.00  0.00    -0.257 N 
ATOM     15  C   UNL A   1      43.523  25.845  35.802  1.00  0.00     0.071 C 
ATOM     16  N   UNL A   1      42.779  26.397  34.898  1.00  0.00    -0.176 NA
ATOM     17  C   UNL A   1      43.852  26.702  36.995  1.00  0.00     0.091 C 
ATOM     18  C   UNL A   1      43.260  28.048  36.533  1.00  0.00     0.144 C 
BRANCH  15  19
ATOM     19  C   UNL A   1      43.998  24.461  35.665  1.00  0.00    -0.002 A 
ATOM     20  C   UNL A   1      45.062  21.908  35.403  1.00  0.00     0.067 A 
ATOM     21  C   UNL A   1      45.456  22.714  36.475  1.00  0.00     0.021 A 
ATOM     22  C   UNL A   1      44.135  22.372  34.463  1.00  0.00     0.021 A 
ATOM     23  C   UNL A   1      44.933  23.999  36.597  1.00  0.00     0.011 A 
ATOM     24  C   UNL A   1      43.591  23.654  34.602  1.00  0.00     0.011 A 
BRANCH  20  25
ATOM     25  S   UNL A   1      45.784  20.287  35.287  1.00  0.00     0.175 S 
ATOM     26  C   UNL A   1      46.387  19.883  36.901  1.00  0.00     0.163 C 
ATOM     27  O   UNL A   1      46.948  20.416  34.425  1.00  0.00    -0.224 OA
ATOM     28  O   UNL A   1      44.706  19.377  34.968  1.00  0.00    -0.224 OA
ENDBRANCH  20  25
ENDBRANCH  15  19
BRANCH  18  29
ATOM     29  C   UNL A   1      44.224  29.205  36.263  1.00  0.00    -0.023 A 
ATOM     30  C   UNL A   1      45.250  29.172  35.303  1.00  0.00     0.007 A 
ATOM     31  C   UNL A   1      44.046  30.406  36.984  1.00  0.00     0.007 A 
ATOM     32  C   UNL A   1      46.066  30.289  35.082  1.00  0.00     0.021 A 
ATOM     33  C   UNL A   1      44.838  31.531  36.743  1.00  0.00     0.021 A 
ATOM     34  C   UNL A   1      45.851  31.466  35.795  1.00  0.00     0.041 A 
ATOM     35  Cl  UNL A   1      46.831  32.847  35.493  1.00  0.00    -0.084 Cl
ENDBRANCH  18  29
ENDBRANCH   9  14
ENDBRANCH   5   8
ENDBRANCH   3   4
ENDBRANCH   2   3
ENDBRANCH   1   2
BRANCH   1  36
ATOM     36  C   UNL A   1      37.193  33.916  29.577  1.00  0.00     0.002 C 
BRANCH  36  37
ATOM     37  C   UNL A   1      35.726  33.589  29.286  1.00  0.00     0.021 C 
BRANCH  37  38
ATOM     38  C   UNL A   1      35.488  32.975  27.911  1.00  0.00     0.116 C 
BRANCH  38  39
ATOM     39  N   UNL A   1      34.540  31.873  27.975  1.00  0.00    -0.352 N 
ATOM     40  C   UNL A   1      34.774  30.523  27.992  1.00  0.00     0.251 C 
ATOM     41  H   UNL A   1      33.592  32.136  28.010  1.00  0.00     0.163 HD
ATOM     42  O   UNL A   1      33.855  29.734  27.794  1.00  0.00    -0.269 OA
BRANCH  40  43
ATOM     43  C   UNL A   1      36.139  30.015  28.243  1.00  0.00     0.039 A 
ATOM     44  C   UNL A   1      37.084  30.084  27.217  1.00  0.00     0.014 A 
ATOM     45  C   UNL A   1      36.480  29.454  29.477  1.00  0.00     0.014 A 
ATOM     46  C   UNL A   1      38.384  29.636  27.446  1.00  0.00     0.010 A 
ATOM     47  C   UNL A   1      37.796  29.082  29.729  1.00  0.00     0.010 A 
ATOM     48  C   UNL A   1      38.761  29.160  28.714  1.00  0.00    -0.014 A 
BRANCH  48  49
ATOM     49  C   UNL A   1      40.160  28.749  28.988  1.00  0.00     0.031 A 
ATOM     50  C   UNL A   1      41.107  29.683  29.687  1.00  0.00     0.074 A 
ATOM     51  C   UNL A   1      40.590  27.546  28.560  1.00  0.00     0.049 A 
ATOM     52  N   UNL A   1      42.369  29.507  29.989  1.00  0.00    -0.248 NA
ATOM     53  C   UNL A   1      40.578  31.001  30.073  1.00  0.00     0.031 C 
ATOM     54  C   UNL A   1      39.782  26.575  27.819  1.00  0.00     0.029 A 
ATOM     55  N   UNL A   1      41.814  26.938  28.679  1.00  0.00    -0.354 N 
ATOM     56  C   UNL A   1      42.783  30.690  30.588  1.00  0.00     0.074 A 
ATOM     57  C   UNL A   1      41.658  31.597  30.554  1.00  0.00     0.031 C 
ATOM     58  C   UNL A   1      40.525  25.484  27.573  1.00  0.00     0.029 A 
ATOM     59  C   UNL A   1      41.868  25.693  28.101  1.00  0.00     0.049 A 
ATOM     60  H   UNL A   1      42.580  27.355  29.135  1.00  0.00     0.167 HD
ATOM     61  C   UNL A   1      43.987  30.985  31.136  1.00  0.00     0.037 A 
ATOM     62  C   UNL A   1      42.888  24.820  28.003  1.00  0.00     0.037 A 
ATOM     63  C   UNL A   1      45.099  30.071  31.179  1.00  0.00     0.049 A 
ATOM     64  C   UNL A   1      44.214  25.171  28.617  1.00  0.00     0.074 A 
ATOM     65  C   UNL A   1      46.337  30.248  31.773  1.00  0.00     0.029 A 
ATOM     66  N   UNL A   1      45.112  28.813  30.596  1.00  0.00    -0.354 N 
ATOM     67  N   UNL A   1      44.568  26.259  29.258  1.00  0.00    -0.248 NA
ATOM     68  C   UNL A   1      45.281  24.168  28.503  1.00  0.00     0.031 C 
ATOM     69  C   UNL A   1      47.120  29.123  31.496  1.00  0.00     0.029 A 
ATOM     70  C   UNL A   1      46.349  28.216  30.787  1.00  0.00     0.049 A 
ATOM     71  H   UNL A   1      44.356  28.403  30.117  1.00  0.00     0.167 HD
ATOM     72  C   UNL A   1      45.887  26.063  29.644  1.00  0.00     0.074 A 
ATOM     73  C   UNL A   1      46.263  24.742  29.183  1.00  0.00     0.031 C 
ATOM     74  C   UNL A   1      46.712  26.901  30.319  1.00  0.00     0.037 A 
BRANCH  61  75
ATOM     75  C   UNL A   1      44.165  32.355  31.726  1.00  0.00     0.057 A 
ATOM     76  C   UNL A   1      43.802  32.649  33.047  1.00  0.00     0.134 A 
ATOM     77  C   UNL A   1      44.736  33.389  30.972  1.00  0.00     0.134 A 
ATOM     78  F   UNL A   1      43.240  31.709  33.823  1.00  0.00    -0.206 F 
ATOM     79  C   UNL A   1      43.970  33.926  33.586  1.00  0.00     0.040 A 
ATOM     80  C   UNL A   1      44.939  34.661  31.509  1.00  0.00     0.040 A 
ATOM     81  F   UNL A   1      45.114  33.177  29.702  1.00  0.00    -0.206 F 
ATOM     82  C   UNL A   1      44.548  34.935  32.818  1.00  0.00     0.006 A 
ENDBRANCH  61  75
BRANCH  62  83
ATOM     83  C   UNL A   1      42.688  23.524  27.305  1.00  0.00     0.057 A 
ATOM     84  C   UNL A   1      42.226  22.395  27.989  1.00  0.00     0.134 A 
ATOM     85  C   UNL A   1      42.954  23.385  25.937  1.00  0.00     0.134 A 
ATOM     86  F   UNL A   1      41.970  22.461  29.304  1.00  0.00    -0.206 F 
ATOM     87  C   UNL A   1      42.054  21.169  27.345  1.00  0.00     0.040 A 
ATOM     88  C   UNL A   1      42.758  22.173  25.273  1.00  0.00     0.040 A 
ATOM     89  F   UNL A   1      43.390  24.432  25.221  1.00  0.00    -0.206 F 
ATOM     90  C   UNL A   1      42.315  21.057  25.980  1.00  0.00     0.006 A 
ENDBRANCH  62  83
BRANCH  74  91
ATOM     91  C   UNL A   1      48.095  26.402  30.625  1.00  0.00     0.057 A 
ATOM     92  C   UNL A   1      49.159  26.563  29.727  1.00  0.00     0.134 A 
ATOM     93  C   UNL A   1      48.372  25.774  31.847  1.00  0.00     0.134 A 
ATOM     94  F   UNL A   1      48.961  27.145  28.534  1.00  0.00    -0.206 F 
ATOM     95  C   UNL A   1      50.440  26.091  30.021  1.00  0.00     0.040 A 
ATOM     96  C   UNL A   1      49.655  25.327  32.165  1.00  0.00     0.040 A 
ATOM     97  F   UNL A   1      47.403  25.595  32.756  1.00  0.00    -0.206 F 
ATOM     98  C   UNL A   1      50.692  25.476  31.246  1.00  0.00     0.006 A 
ENDBRANCH  74  91
ENDBRANCH  48  49
ENDBRANCH  40  43
ENDBRANCH  38  39
ENDBRANCH  37  38
ENDBRANCH  36  37
ENDBRANCH   1  36
TORSDOF 17
ENDMDL
MODEL 3
REMARK VINA RESULT:     -11.2      3.239      8.941
REMARK SMILES CS(=O)(=O)c1ccc(C2=NN(c3ccc(C(=O)NCCCCCCNC(=O)c4ccc(-c5c6nc(c(-c7c(F)cccc7F)c7ccc([nH]7)c(-c7c(F)cccc7F)c7nc(c(-c8c(F)cccc8F)c8ccc5[nH]8)C=C7)C=C6)cc4)cc3)[C@H](c3ccc(Cl)cc3)C2)cc1
REMARK SMILES IDX 21 1 20 2 19 3 18 4 16 5 17 6 15 8 12 9 13 10 83 11 14 12
REMARK SMILES IDX 82 13 11 14 9 15 10 16 92 17 84 18 8 19 5 20 6 21 94 22 7 23
REMARK SMILES IDX 93 24 2 25 1 26 3 27 4 28 85 29 86 30 91 31 87 32 90 33
REMARK SMILES IDX 88 34 89 35 22 36 23 37 24 38 25 39 26 40 27 42 28 43 29 44
REMARK SMILES IDX 81 45 30 46 80 47 31 48 32 49 33 50 74 51 34 52 79 53 73 54
REMARK SMILES IDX 75 55 35 56 78 57 72 58 71 59 36 61 62 62 45 63 61 64 46 65
REMARK SMILES IDX 49 66 60 67 76 68 47 69 48 70 59 72 77 73 50 74 37 75 38 76
REMARK SMILES IDX 43 77 39 78 40 79 42 80 44 81 41 82 63 83 64 84 69 85 65 86
REMARK SMILES IDX 66 87 68 88 70 89 67 90 51 91 52 92 57 93 53 94 54 95 56 96
REMARK SMILES IDX 58 97 55 98
REMARK H PARENT 18 7 25 41 75 60 49 71
REMARK Flexibility Score: inf
ROOT
ATOM      1  C   UNL A   1      32.913  30.307  27.067  1.00  0.00     0.002 C 
ENDROOT
BRANCH   1   2
ATOM      2  C   UNL A   1      31.689  30.508  26.164  1.00  0.00     0.021 C 
BRANCH   2   3
ATOM      3  C   UNL A   1      31.428  29.320  25.236  1.00  0.00     0.116 C 
BRANCH   3   4
ATOM      4  N   UNL A   1      31.922  29.613  23.904  1.00  0.00    -0.352 N 
ATOM      5  C   UNL A   1      32.822  28.956  23.104  1.00  0.00     0.251 C 
ATOM      6  O   UNL A   1      33.055  29.412  21.986  1.00  0.00    -0.269 OA
ATOM      7  H   UNL A   1      31.543  30.428  23.502  1.00  0.00     0.163 HD
BRANCH   5   8
ATOM      8  C   UNL A   1      33.450  27.675  23.518  1.00  0.00     0.039 A 
ATOM      9  C   UNL A   1      34.386  25.117  24.225  1.00  0.00     0.060 A 
ATOM     10  C   UNL A   1      34.030  25.398  22.903  1.00  0.00     0.029 A 
ATOM     11  C   UNL A   1      34.365  26.156  25.159  1.00  0.00     0.029 A 
ATOM     12  C   UNL A   1      33.565  26.669  22.549  1.00  0.00     0.016 A 
ATOM     13  C   UNL A   1      33.924  27.431  24.806  1.00  0.00     0.016 A 
BRANCH   9  14
ATOM     14  N   UNL A   1      34.754  23.849  24.632  1.00  0.00    -0.257 N 
ATOM     15  C   UNL A   1      36.211  22.352  24.974  1.00  0.00     0.071 C 
ATOM     16  N   UNL A   1      36.031  23.633  25.010  1.00  0.00    -0.176 NA
ATOM     17  C   UNL A   1      35.044  21.538  24.484  1.00  0.00     0.091 C 
ATOM     18  C   UNL A   1      33.971  22.638  24.377  1.00  0.00     0.144 C 
BRANCH  15  19
ATOM     19  C   UNL A   1      37.488  21.746  25.378  1.00  0.00    -0.002 A 
ATOM     20  C   UNL A   1      39.984  20.729  26.052  1.00  0.00     0.067 A 
ATOM     21  C   UNL A   1      39.655  22.042  26.402  1.00  0.00     0.021 A 
ATOM     22  C   UNL A   1      39.068  19.921  25.369  1.00  0.00     0.021 A 
ATOM     23  C   UNL A   1      38.409  22.555  26.050  1.00  0.00     0.011 A 
ATOM     24  C   UNL A   1      37.807  20.430  25.040  1.00  0.00     0.011 A 
BRANCH  20  25
ATOM     25  S   UNL A   1      41.599  20.140  26.506  1.00  0.00     0.175 S 
ATOM     26  C   UNL A   1      42.642  21.564  26.635  1.00  0.00     0.163 C 
ATOM     27  O   UNL A   1      42.087  19.366  25.376  1.00  0.00    -0.224 OA
ATOM     28  O   UNL A   1      41.471  19.554  27.822  1.00  0.00    -0.224 OA
ENDBRANCH  20  25
ENDBRANCH  15  19
BRANCH  18  29
ATOM     29  C   UNL A   1      32.773  22.571  25.327  1.00  0.00    -0.023 A 
ATOM     30  C   UNL A   1      32.873  22.582  26.728  1.00  0.00     0.007 A 
ATOM     31  C   UNL A   1      31.477  22.551  24.767  1.00  0.00     0.007 A 
ATOM     32  C   UNL A   1      31.726  22.564  27.532  1.00  0.00     0.021 A 
ATOM     33  C   UNL A   1      30.332  22.563  25.566  1.00  0.00     0.021 A 
ATOM     34  C   UNL A   1      30.461  22.564  26.949  1.00  0.00     0.041 A 
ATOM     35  Cl  UNL A   1      29.056  22.579  27.941  1.00  0.00    -0.084 Cl
ENDBRANCH  18  29
ENDBRANCH   9  14
ENDBRANCH   5   8
ENDBRANCH   3   4
ENDBRANCH   2   3
ENDBRANCH   1   2
BRANCH   1  36
ATOM     36  C   UNL A   1      33.481  31.598  27.666  1.00  0.00     0.002 C 
BRANCH  36  37
ATOM     37  C   UNL A   1      32.529  32.796  27.625  1.00  0.00     0.021 C 
BRANCH  37  38
ATOM     38  C   UNL A   1      33.226  34.136  27.416  1.00  0.00     0.116 C 
BRANCH  38  39
ATOM     39  N   UNL A   1      32.901  35.079  28.476  1.00  0.00    -0.352 N 
ATOM     40  C   UNL A   1      33.331  35.109  29.777  1.00  0.00     0.251 C 
ATOM     41  H   UNL A   1      32.281  35.800  28.221  1.00  0.00     0.163 HD
ATOM     42  O   UNL A   1      32.764  35.822  30.598  1.00  0.00    -0.269 OA
BRANCH  40  43
ATOM     43  C   UNL A   1      34.476  34.272  30.193  1.00  0.00     0.039 A 
ATOM     44  C   UNL A   1      35.749  34.580  29.708  1.00  0.00     0.014 A 
ATOM     45  C   UNL A   1      34.293  33.176  31.041  1.00  0.00     0.014 A 
ATOM     46  C   UNL A   1      36.844  33.819  30.113  1.00  0.00     0.010 A 
ATOM     47  C   UNL A   1      35.396  32.468  31.507  1.00  0.00     0.010 A 
ATOM     48  C   UNL A   1      36.682  32.776  31.042  1.00  0.00    -0.014 A 
BRANCH  48  49
ATOM     49  C   UNL A   1      37.852  32.007  31.535  1.00  0.00     0.031 A 
ATOM     50  C   UNL A   1      38.467  32.324  32.869  1.00  0.00     0.074 A 
ATOM     51  C   UNL A   1      38.391  31.051  30.753  1.00  0.00     0.049 A 
ATOM     52  N   UNL A   1      39.504  31.777  33.452  1.00  0.00    -0.248 NA
ATOM     53  C   UNL A   1      37.856  33.419  33.639  1.00  0.00     0.031 C 
ATOM     54  C   UNL A   1      37.919  30.691  29.413  1.00  0.00     0.029 A 
ATOM     55  N   UNL A   1      39.456  30.214  30.966  1.00  0.00    -0.354 N 
ATOM     56  C   UNL A   1      39.674  32.466  34.646  1.00  0.00     0.074 A 
ATOM     57  C   UNL A   1      38.672  33.509  34.678  1.00  0.00     0.031 C 
ATOM     58  C   UNL A   1      38.676  29.689  28.937  1.00  0.00     0.029 A 
ATOM     59  C   UNL A   1      39.707  29.364  29.917  1.00  0.00     0.049 A 
ATOM     60  H   UNL A   1      39.990  30.222  31.794  1.00  0.00     0.167 HD
ATOM     61  C   UNL A   1      40.570  32.237  35.635  1.00  0.00     0.037 A 
ATOM     62  C   UNL A   1      40.665  28.431  29.758  1.00  0.00     0.037 A 
ATOM     63  C   UNL A   1      41.557  31.188  35.603  1.00  0.00     0.049 A 
ATOM     64  C   UNL A   1      41.649  28.197  30.869  1.00  0.00     0.074 A 
ATOM     65  C   UNL A   1      42.465  30.828  36.584  1.00  0.00     0.029 A 
ATOM     66  N   UNL A   1      41.772  30.337  34.528  1.00  0.00    -0.354 N 
ATOM     67  N   UNL A   1      41.745  28.797  32.031  1.00  0.00    -0.248 NA
ATOM     68  C   UNL A   1      42.654  27.147  30.651  1.00  0.00     0.031 C 
ATOM     69  C   UNL A   1      43.269  29.801  36.080  1.00  0.00     0.029 A 
ATOM     70  C   UNL A   1      42.821  29.476  34.810  1.00  0.00     0.049 A 
ATOM     71  H   UNL A   1      41.256  30.344  33.690  1.00  0.00     0.167 HD
ATOM     72  C   UNL A   1      42.801  28.184  32.692  1.00  0.00     0.074 A 
ATOM     73  C   UNL A   1      43.300  27.151  31.808  1.00  0.00     0.031 C 
ATOM     74  C   UNL A   1      43.312  28.453  33.919  1.00  0.00     0.037 A 
BRANCH  61  75
ATOM     75  C   UNL A   1      40.531  33.143  36.833  1.00  0.00     0.057 A 
ATOM     76  C   UNL A   1      41.428  34.209  36.989  1.00  0.00     0.134 A 
ATOM     77  C   UNL A   1      39.563  32.968  37.831  1.00  0.00     0.134 A 
ATOM     78  F   UNL A   1      42.388  34.429  36.077  1.00  0.00    -0.206 F 
ATOM     79  C   UNL A   1      41.385  35.045  38.107  1.00  0.00     0.040 A 
ATOM     80  C   UNL A   1      39.489  33.816  38.936  1.00  0.00     0.040 A 
ATOM     81  F   UNL A   1      38.667  31.973  37.742  1.00  0.00    -0.206 F 
ATOM     82  C   UNL A   1      40.407  34.854  39.081  1.00  0.00     0.006 A 
ENDBRANCH  61  75
BRANCH  62  83
ATOM     83  C   UNL A   1      40.729  27.642  28.501  1.00  0.00     0.057 A 
ATOM     84  C   UNL A   1      39.989  26.465  28.345  1.00  0.00     0.134 A 
ATOM     85  C   UNL A   1      41.530  28.047  27.427  1.00  0.00     0.134 A 
ATOM     86  F   UNL A   1      39.215  26.016  29.345  1.00  0.00    -0.206 F 
ATOM     87  C   UNL A   1      40.058  25.708  27.175  1.00  0.00     0.040 A 
ATOM     88  C   UNL A   1      41.587  27.316  26.240  1.00  0.00     0.040 A 
ATOM     89  F   UNL A   1      42.257  29.171  27.509  1.00  0.00    -0.206 F 
ATOM     90  C   UNL A   1      40.855  26.137  26.115  1.00  0.00     0.006 A 
ENDBRANCH  62  83
BRANCH  74  91
ATOM     91  C   UNL A   1      44.452  27.597  34.390  1.00  0.00     0.057 A 
ATOM     92  C   UNL A   1      45.789  27.960  34.182  1.00  0.00     0.134 A 
ATOM     93  C   UNL A   1      44.208  26.404  35.084  1.00  0.00     0.134 A 
ATOM     94  F   UNL A   1      46.094  29.083  33.514  1.00  0.00    -0.206 F 
ATOM     95  C   UNL A   1      46.841  27.153  34.621  1.00  0.00     0.040 A 
ATOM     96  C   UNL A   1      45.251  25.606  35.556  1.00  0.00     0.040 A 
ATOM     97  F   UNL A   1      42.952  26.001  35.326  1.00  0.00    -0.206 F 
ATOM     98  C   UNL A   1      46.572  25.975  35.316  1.00  0.00     0.006 A 
ENDBRANCH  74  91
ENDBRANCH  48  49
ENDBRANCH  40  43
ENDBRANCH  38  39
ENDBRANCH  37  38
ENDBRANCH  36  37
ENDBRANCH   1  36
TORSDOF 17
ENDMDL
