MODEL 1
REMARK VINA RESULT:     -12.6      0.000      0.000
REMARK SMILES O=C(NCCCCCCNC(=O)c1cc(Cl)c2c(c1)[C@H]1C=CC[C@H]1[C@H](c1ccc(S(=O)(=O)N3CCOCC3)cc1)N2)c1ccc(-c2c3nc(c(-c4c(F)cccc4F)c4ccc([nH]4)c(-c4c(F)cccc4F)c4nc(c(-c5c(F)cccc5F)c5ccc2[nH]5)C=C4)C=C3)cc1
REMARK SMILES IDX 7 1 6 2 5 3 4 4 3 5 1 6 2 7 42 9 43 10 95 11 44 12 94 13
REMARK SMILES IDX 45 14 46 15 47 16 88 17 48 18 93 19 87 20 89 21 49 22 92 23
REMARK SMILES IDX 86 24 85 25 50 27 76 28 59 29 75 30 60 31 63 32 74 33 90 34
REMARK SMILES IDX 61 35 62 36 73 38 91 39 64 40 51 41 52 42 57 43 53 44 54 45
REMARK SMILES IDX 56 46 58 47 55 48 77 49 78 50 83 51 79 52 80 53 82 54 84 55
REMARK SMILES IDX 81 56 65 57 66 58 71 59 67 60 68 61 70 62 72 63 69 64 8 65
REMARK SMILES IDX 9 66 10 67 11 68 12 70 13 71 14 72 19 73 15 74 18 75 16 76
REMARK SMILES IDX 17 77 20 78 41 79 21 80 24 81 25 82 22 84 23 85 26 86 27 87
REMARK SMILES IDX 40 88 28 89 39 90 29 91 30 92 31 93 32 94 33 95 34 96 38 97
REMARK SMILES IDX 35 98 37 99 36 100
REMARK H PARENT 3 8 89 26 63 37 10 69 41 83
REMARK Flexibility Score: inf
ROOT
ATOM      1  C   UNL A   1      45.731  22.620  24.757  1.00  0.00     0.002 C 
ENDROOT
BRANCH   1   2
ATOM      2  C   UNL A   1      46.448  23.876  25.256  1.00  0.00     0.002 C 
BRANCH   2   3
ATOM      3  C   UNL A   1      46.009  24.374  26.636  1.00  0.00     0.021 C 
BRANCH   3   4
ATOM      4  C   UNL A   1      45.345  25.747  26.639  1.00  0.00     0.116 C 
BRANCH   4   5
ATOM      5  N   UNL A   1      44.345  25.871  25.593  1.00  0.00    -0.352 N 
ATOM      6  O   UNL A   1      42.306  26.304  24.729  1.00  0.00    -0.269 OA
ATOM      7  C   UNL A   1      43.106  26.455  25.646  1.00  0.00     0.251 C 
ATOM      8  H   UNL A   1      44.593  25.480  24.723  1.00  0.00     0.163 HD
BRANCH   7   9
ATOM      9  C   UNL A   1      42.733  27.263  26.824  1.00  0.00     0.039 A 
ATOM     10  C   UNL A   1      42.126  26.662  27.932  1.00  0.00     0.014 A 
ATOM     11  C   UNL A   1      43.022  28.629  26.827  1.00  0.00     0.014 A 
ATOM     12  C   UNL A   1      41.732  27.446  29.013  1.00  0.00     0.010 A 
ATOM     13  C   UNL A   1      42.665  29.407  27.929  1.00  0.00     0.010 A 
ATOM     14  C   UNL A   1      42.003  28.824  29.021  1.00  0.00    -0.014 A 
BRANCH  14  15
ATOM     15  C   UNL A   1      41.636  29.637  30.203  1.00  0.00     0.031 A 
ATOM     16  C   UNL A   1      40.378  30.455  30.213  1.00  0.00     0.074 A 
ATOM     17  C   UNL A   1      42.454  29.632  31.272  1.00  0.00     0.049 A 
ATOM     18  N   UNL A   1      39.900  31.220  31.161  1.00  0.00    -0.248 NA
ATOM     19  C   UNL A   1      39.546  30.409  29.000  1.00  0.00     0.031 C 
ATOM     20  C   UNL A   1      43.709  28.884  31.370  1.00  0.00     0.029 A 
ATOM     21  N   UNL A   1      42.355  30.278  32.477  1.00  0.00    -0.354 N 
ATOM     22  C   UNL A   1      38.715  31.747  30.664  1.00  0.00     0.074 A 
ATOM     23  C   UNL A   1      38.559  31.238  29.318  1.00  0.00     0.031 C 
ATOM     24  C   UNL A   1      44.260  29.109  32.574  1.00  0.00     0.029 A 
ATOM     25  C   UNL A   1      43.418  30.043  33.313  1.00  0.00     0.049 A 
ATOM     26  H   UNL A   1      41.594  30.856  32.719  1.00  0.00     0.167 HD
ATOM     27  C   UNL A   1      37.835  32.570  31.282  1.00  0.00     0.037 A 
ATOM     28  C   UNL A   1      43.691  30.541  34.533  1.00  0.00     0.037 A 
ATOM     29  C   UNL A   1      37.995  33.075  32.622  1.00  0.00     0.049 A 
ATOM     30  C   UNL A   1      42.723  31.498  35.166  1.00  0.00     0.074 A 
ATOM     31  C   UNL A   1      37.132  33.874  33.352  1.00  0.00     0.029 A 
ATOM     32  N   UNL A   1      39.101  32.842  33.426  1.00  0.00    -0.354 N 
ATOM     33  N   UNL A   1      41.572  31.934  34.712  1.00  0.00    -0.248 NA
ATOM     34  C   UNL A   1      43.093  32.035  36.483  1.00  0.00     0.031 C 
ATOM     35  C   UNL A   1      37.736  34.162  34.581  1.00  0.00     0.029 A 
ATOM     36  C   UNL A   1      38.956  33.510  34.632  1.00  0.00     0.049 A 
ATOM     37  H   UNL A   1      39.874  32.286  33.177  1.00  0.00     0.167 HD
ATOM     38  C   UNL A   1      41.075  32.782  35.691  1.00  0.00     0.074 A 
ATOM     39  C   UNL A   1      42.037  32.780  36.775  1.00  0.00     0.031 C 
ATOM     40  C   UNL A   1      39.927  33.502  35.695  1.00  0.00     0.037 A 
BRANCH  27  41
ATOM     41  C   UNL A   1      36.615  32.987  30.515  1.00  0.00     0.057 A 
ATOM     42  C   UNL A   1      35.377  32.377  30.754  1.00  0.00     0.134 A 
ATOM     43  C   UNL A   1      36.678  33.946  29.497  1.00  0.00     0.134 A 
ATOM     44  F   UNL A   1      35.251  31.446  31.712  1.00  0.00    -0.206 F 
ATOM     45  C   UNL A   1      34.246  32.702  30.003  1.00  0.00     0.040 A 
ATOM     46  C   UNL A   1      35.550  34.293  28.751  1.00  0.00     0.040 A 
ATOM     47  F   UNL A   1      37.832  34.574  29.225  1.00  0.00    -0.206 F 
ATOM     48  C   UNL A   1      34.331  33.664  28.999  1.00  0.00     0.006 A 
ENDBRANCH  27  41
BRANCH  28  49
ATOM     49  C   UNL A   1      44.943  30.163  35.232  1.00  0.00     0.057 A 
ATOM     50  C   UNL A   1      44.979  29.087  36.126  1.00  0.00     0.134 A 
ATOM     51  C   UNL A   1      46.141  30.843  34.990  1.00  0.00     0.134 A 
ATOM     52  F   UNL A   1      43.862  28.397  36.403  1.00  0.00    -0.206 F 
ATOM     53  C   UNL A   1      46.162  28.700  36.755  1.00  0.00     0.040 A 
ATOM     54  C   UNL A   1      47.337  30.451  35.593  1.00  0.00     0.040 A 
ATOM     55  F   UNL A   1      46.172  31.870  34.127  1.00  0.00    -0.206 F 
ATOM     56  C   UNL A   1      47.349  29.377  36.481  1.00  0.00     0.006 A 
ENDBRANCH  28  49
BRANCH  40  57
ATOM     57  C   UNL A   1      39.652  34.329  36.915  1.00  0.00     0.057 A 
ATOM     58  C   UNL A   1      39.036  33.765  38.039  1.00  0.00     0.134 A 
ATOM     59  C   UNL A   1      39.997  35.685  36.976  1.00  0.00     0.134 A 
ATOM     60  F   UNL A   1      38.677  32.472  38.043  1.00  0.00    -0.206 F 
ATOM     61  C   UNL A   1      38.774  34.521  39.182  1.00  0.00     0.040 A 
ATOM     62  C   UNL A   1      39.763  36.445  38.123  1.00  0.00     0.040 A 
ATOM     63  F   UNL A   1      40.607  36.278  35.939  1.00  0.00    -0.206 F 
ATOM     64  C   UNL A   1      39.146  35.863  39.228  1.00  0.00     0.006 A 
ENDBRANCH  40  57
ENDBRANCH  14  15
ENDBRANCH   7   9
ENDBRANCH   4   5
ENDBRANCH   3   4
ENDBRANCH   2   3
ENDBRANCH   1   2
BRANCH   1  65
ATOM     65  C   UNL A   1      44.466  22.873  23.934  1.00  0.00     0.021 C 
BRANCH  65  66
ATOM     66  C   UNL A   1      43.158  22.681  24.696  1.00  0.00     0.116 C 
BRANCH  66  67
ATOM     67  N   UNL A   1      43.103  21.400  25.379  1.00  0.00    -0.352 N 
ATOM     68  C   UNL A   1      42.079  20.878  26.126  1.00  0.00     0.251 C 
ATOM     69  H   UNL A   1      43.904  20.834  25.296  1.00  0.00     0.163 HD
ATOM     70  O   UNL A   1      42.219  19.844  26.768  1.00  0.00    -0.269 OA
BRANCH  68  71
ATOM     71  C   UNL A   1      40.804  21.610  26.173  1.00  0.00     0.041 A 
ATOM     72  C   UNL A   1      40.680  22.765  26.942  1.00  0.00     0.036 A 
ATOM     73  C   UNL A   1      39.720  21.106  25.460  1.00  0.00     0.020 A 
ATOM     74  C   UNL A   1      39.429  23.358  27.068  1.00  0.00     0.065 A 
ATOM     75  C   UNL A   1      38.464  21.721  25.567  1.00  0.00    -0.015 A 
ATOM     76  Cl  UNL A   1      39.288  24.750  28.090  1.00  0.00    -0.082 Cl
ATOM     77  C   UNL A   1      38.297  22.826  26.418  1.00  0.00     0.057 A 
ATOM     78  C   UNL A   1      37.329  21.205  24.734  1.00  0.00     0.049 C 
ATOM     79  N   UNL A   1      37.054  23.428  26.550  1.00  0.00    -0.376 N 
ATOM     80  C   UNL A   1      36.756  19.883  25.178  1.00  0.00    -0.023 C 
ATOM     81  C   UNL A   1      36.075  22.104  24.708  1.00  0.00     0.031 C 
ATOM     82  C   UNL A   1      35.849  22.747  26.102  1.00  0.00     0.114 C 
ATOM     83  H   UNL A   1      36.986  24.324  26.952  1.00  0.00     0.161 HD
ATOM     84  C   UNL A   1      35.445  19.824  24.915  1.00  0.00    -0.030 C 
ATOM     85  C   UNL A   1      34.981  21.100  24.283  1.00  0.00     0.034 C 
BRANCH  82  86
ATOM     86  C   UNL A   1      34.688  23.734  26.111  1.00  0.00    -0.025 A 
ATOM     87  C   UNL A   1      34.755  25.029  25.560  1.00  0.00     0.007 A 
ATOM     88  C   UNL A   1      33.482  23.324  26.685  1.00  0.00     0.007 A 
ATOM     89  C   UNL A   1      33.637  25.875  25.565  1.00  0.00     0.022 A 
ATOM     90  C   UNL A   1      32.363  24.141  26.642  1.00  0.00     0.022 A 
ATOM     91  C   UNL A   1      32.430  25.414  26.093  1.00  0.00     0.082 A 
BRANCH  91  92
ATOM     92  S   UNL A   1      30.992  26.460  26.039  1.00  0.00     0.243 S 
ATOM     93  O   UNL A   1      29.873  25.590  25.735  1.00  0.00    -0.207 OA
ATOM     94  O   UNL A   1      31.029  27.268  27.235  1.00  0.00    -0.207 OA
BRANCH  92  95
ATOM     95  N   UNL A   1      31.235  27.474  24.725  1.00  0.00    -0.193 NA
ATOM     96  C   UNL A   1      31.430  28.933  24.870  1.00  0.00     0.131 C 
ATOM     97  C   UNL A   1      31.203  26.976  23.339  1.00  0.00     0.131 C 
ATOM     98  C   UNL A   1      30.561  29.730  23.880  1.00  0.00     0.177 C 
ATOM     99  C   UNL A   1      30.257  27.828  22.491  1.00  0.00     0.177 C 
ATOM    100  O   UNL A   1      30.617  29.215  22.544  1.00  0.00    -0.379 OA
ENDBRANCH  92  95
ENDBRANCH  91  92
ENDBRANCH  82  86
ENDBRANCH  68  71
ENDBRANCH  66  67
ENDBRANCH  65  66
ENDBRANCH   1  65
TORSDOF 16
ENDMDL
MODEL 2
REMARK VINA RESULT:     -12.2      4.261      8.553
REMARK SMILES O=C(NCCCCCCNC(=O)c1cc(Cl)c2c(c1)[C@H]1C=CC[C@H]1[C@H](c1ccc(S(=O)(=O)N3CCOCC3)cc1)N2)c1ccc(-c2c3nc(c(-c4c(F)cccc4F)c4ccc([nH]4)c(-c4c(F)cccc4F)c4nc(c(-c5c(F)cccc5F)c5ccc2[nH]5)C=C4)C=C3)cc1
REMARK SMILES IDX 7 1 6 2 5 3 4 4 3 5 1 6 2 7 42 9 43 10 95 11 44 12 94 13
REMARK SMILES IDX 45 14 46 15 47 16 88 17 48 18 93 19 87 20 89 21 49 22 92 23
REMARK SMILES IDX 86 24 85 25 50 27 76 28 59 29 75 30 60 31 63 32 74 33 90 34
REMARK SMILES IDX 61 35 62 36 73 38 91 39 64 40 51 41 52 42 57 43 53 44 54 45
REMARK SMILES IDX 56 46 58 47 55 48 77 49 78 50 83 51 79 52 80 53 82 54 84 55
REMARK SMILES IDX 81 56 65 57 66 58 71 59 67 60 68 61 70 62 72 63 69 64 8 65
REMARK SMILES IDX 9 66 10 67 11 68 12 70 13 71 14 72 19 73 15 74 18 75 16 76
REMARK SMILES IDX 17 77 20 78 41 79 21 80 24 81 25 82 22 84 23 85 26 86 27 87
REMARK SMILES IDX 40 88 28 89 39 90 29 91 30 92 31 93 32 94 33 95 34 96 38 97
REMARK SMILES IDX 35 98 37 99 36 100
REMARK H PARENT 3 8 89 26 63 37 10 69 41 83
REMARK Flexibility Score: inf
ROOT
ATOM      1  C   UNL A   1      35.502  20.840  25.376  1.00  0.00     0.002 C 
ENDROOT
BRANCH   1   2
ATOM      2  C   UNL A   1      36.814  20.807  24.588  1.00  0.00     0.002 C 
BRANCH   2   3
ATOM      3  C   UNL A   1      37.797  19.708  25.001  1.00  0.00     0.021 C 
BRANCH   3   4
ATOM      4  C   UNL A   1      38.945  20.176  25.890  1.00  0.00     0.116 C 
BRANCH   4   5
ATOM      5  N   UNL A   1      40.021  19.202  25.946  1.00  0.00    -0.352 N 
ATOM      6  O   UNL A   1      42.161  18.489  25.909  1.00  0.00    -0.269 OA
ATOM      7  C   UNL A   1      41.369  19.411  26.072  1.00  0.00     0.251 C 
ATOM      8  H   UNL A   1      39.742  18.259  25.887  1.00  0.00     0.163 HD
BRANCH   7   9
ATOM      9  C   UNL A   1      41.869  20.762  26.395  1.00  0.00     0.039 A 
ATOM     10  C   UNL A   1      42.123  21.687  25.376  1.00  0.00     0.014 A 
ATOM     11  C   UNL A   1      42.055  21.112  27.734  1.00  0.00     0.014 A 
ATOM     12  C   UNL A   1      42.645  22.938  25.694  1.00  0.00     0.010 A 
ATOM     13  C   UNL A   1      42.537  22.383  28.054  1.00  0.00     0.010 A 
ATOM     14  C   UNL A   1      42.851  23.297  27.035  1.00  0.00    -0.014 A 
BRANCH  14  15
ATOM     15  C   UNL A   1      43.346  24.653  27.365  1.00  0.00     0.031 A 
ATOM     16  C   UNL A   1      42.406  25.716  27.856  1.00  0.00     0.074 A 
ATOM     17  C   UNL A   1      44.656  24.919  27.216  1.00  0.00     0.049 A 
ATOM     18  N   UNL A   1      42.666  26.953  28.195  1.00  0.00    -0.248 NA
ATOM     19  C   UNL A   1      40.989  25.342  27.983  1.00  0.00     0.031 C 
ATOM     20  C   UNL A   1      45.661  23.967  26.735  1.00  0.00     0.029 A 
ATOM     21  N   UNL A   1      45.368  26.067  27.449  1.00  0.00    -0.354 N 
ATOM     22  C   UNL A   1      41.451  27.506  28.576  1.00  0.00     0.074 A 
ATOM     23  C   UNL A   1      40.445  26.480  28.398  1.00  0.00     0.031 C 
ATOM     24  C   UNL A   1      46.861  24.570  26.715  1.00  0.00     0.029 A 
ATOM     25  C   UNL A   1      46.702  25.955  27.145  1.00  0.00     0.049 A 
ATOM     26  H   UNL A   1      44.961  26.893  27.800  1.00  0.00     0.167 HD
ATOM     27  C   UNL A   1      41.202  28.754  29.041  1.00  0.00     0.037 A 
ATOM     28  C   UNL A   1      47.684  26.874  27.190  1.00  0.00     0.037 A 
ATOM     29  C   UNL A   1      42.206  29.772  29.215  1.00  0.00     0.049 A 
ATOM     30  C   UNL A   1      47.364  28.265  27.654  1.00  0.00     0.074 A 
ATOM     31  C   UNL A   1      42.060  31.050  29.728  1.00  0.00     0.029 A 
ATOM     32  N   UNL A   1      43.541  29.633  28.865  1.00  0.00    -0.354 N 
ATOM     33  N   UNL A   1      46.223  28.755  28.075  1.00  0.00    -0.248 NA
ATOM     34  C   UNL A   1      48.470  29.233  27.647  1.00  0.00     0.031 C 
ATOM     35  C   UNL A   1      43.297  31.699  29.646  1.00  0.00     0.029 A 
ATOM     36  C   UNL A   1      44.221  30.813  29.120  1.00  0.00     0.049 A 
ATOM     37  H   UNL A   1      43.945  28.817  28.490  1.00  0.00     0.167 HD
ATOM     38  C   UNL A   1      46.476  30.081  28.397  1.00  0.00     0.074 A 
ATOM     39  C   UNL A   1      47.884  30.311  28.147  1.00  0.00     0.031 C 
ATOM     40  C   UNL A   1      45.621  31.027  28.857  1.00  0.00     0.037 A 
BRANCH  27  41
ATOM     41  C   UNL A   1      39.785  29.096  29.392  1.00  0.00     0.057 A 
ATOM     42  C   UNL A   1      39.315  28.939  30.702  1.00  0.00     0.134 A 
ATOM     43  C   UNL A   1      38.869  29.523  28.422  1.00  0.00     0.134 A 
ATOM     44  F   UNL A   1      40.140  28.528  31.676  1.00  0.00    -0.206 F 
ATOM     45  C   UNL A   1      37.981  29.185  31.033  1.00  0.00     0.040 A 
ATOM     46  C   UNL A   1      37.538  29.791  28.746  1.00  0.00     0.040 A 
ATOM     47  F   UNL A   1      39.259  29.703  27.152  1.00  0.00    -0.206 F 
ATOM     48  C   UNL A   1      37.089  29.615  30.053  1.00  0.00     0.006 A 
ENDBRANCH  27  41
BRANCH  28  49
ATOM     49  C   UNL A   1      49.060  26.519  26.765  1.00  0.00     0.057 A 
ATOM     50  C   UNL A   1      49.966  25.933  27.657  1.00  0.00     0.134 A 
ATOM     51  C   UNL A   1      49.487  26.721  25.449  1.00  0.00     0.134 A 
ATOM     52  F   UNL A   1      49.618  25.717  28.934  1.00  0.00    -0.206 F 
ATOM     53  C   UNL A   1      51.248  25.558  27.253  1.00  0.00     0.040 A 
ATOM     54  C   UNL A   1      50.757  26.328  25.025  1.00  0.00     0.040 A 
ATOM     55  F   UNL A   1      48.655  27.260  24.544  1.00  0.00    -0.206 F 
ATOM     56  C   UNL A   1      51.643  25.746  25.930  1.00  0.00     0.006 A 
ENDBRANCH  28  49
BRANCH  40  57
ATOM     57  C   UNL A   1      46.197  32.383  29.129  1.00  0.00     0.057 A 
ATOM     58  C   UNL A   1      46.195  33.374  28.139  1.00  0.00     0.134 A 
ATOM     59  C   UNL A   1      46.755  32.709  30.371  1.00  0.00     0.134 A 
ATOM     60  F   UNL A   1      45.679  33.124  26.926  1.00  0.00    -0.206 F 
ATOM     61  C   UNL A   1      46.727  34.642  28.376  1.00  0.00     0.040 A 
ATOM     62  C   UNL A   1      47.266  33.981  30.629  1.00  0.00     0.040 A 
ATOM     63  F   UNL A   1      46.770  31.810  31.367  1.00  0.00    -0.206 F 
ATOM     64  C   UNL A   1      47.257  34.950  29.627  1.00  0.00     0.006 A 
ENDBRANCH  40  57
ENDBRANCH  14  15
ENDBRANCH   7   9
ENDBRANCH   4   5
ENDBRANCH   3   4
ENDBRANCH   2   3
ENDBRANCH   1   2
BRANCH   1  65
ATOM     65  C   UNL A   1      34.276  20.316  24.627  1.00  0.00     0.021 C 
BRANCH  65  66
ATOM     66  C   UNL A   1      33.254  21.382  24.247  1.00  0.00     0.116 C 
BRANCH  66  67
ATOM     67  N   UNL A   1      33.245  21.652  22.819  1.00  0.00    -0.352 N 
ATOM     68  C   UNL A   1      33.247  22.867  22.183  1.00  0.00     0.251 C 
ATOM     69  H   UNL A   1      33.236  20.862  22.233  1.00  0.00     0.163 HD
ATOM     70  O   UNL A   1      33.094  22.953  20.971  1.00  0.00    -0.269 OA
BRANCH  68  71
ATOM     71  C   UNL A   1      33.402  24.082  22.997  1.00  0.00     0.041 A 
ATOM     72  C   UNL A   1      34.350  24.134  24.017  1.00  0.00     0.036 A 
ATOM     73  C   UNL A   1      32.562  25.162  22.746  1.00  0.00     0.020 A 
ATOM     74  C   UNL A   1      34.381  25.246  24.851  1.00  0.00     0.065 A 
ATOM     75  C   UNL A   1      32.613  26.296  23.571  1.00  0.00    -0.015 A 
ATOM     76  Cl  UNL A   1      35.518  25.253  26.157  1.00  0.00    -0.082 Cl
ATOM     77  C   UNL A   1      33.491  26.324  24.667  1.00  0.00     0.057 A 
ATOM     78  C   UNL A   1      31.750  27.477  23.238  1.00  0.00     0.049 C 
ATOM     79  N   UNL A   1      33.533  27.430  25.504  1.00  0.00    -0.376 N 
ATOM     80  C   UNL A   1      30.280  27.297  23.519  1.00  0.00    -0.023 C 
ATOM     81  C   UNL A   1      32.071  28.765  24.026  1.00  0.00     0.031 C 
ATOM     82  C   UNL A   1      32.463  28.415  25.485  1.00  0.00     0.114 C 
ATOM     83  H   UNL A   1      34.294  27.549  26.117  1.00  0.00     0.161 HD
ATOM     84  C   UNL A   1      29.721  28.460  23.874  1.00  0.00    -0.030 C 
ATOM     85  C   UNL A   1      30.748  29.550  23.890  1.00  0.00     0.034 C 
BRANCH  82  86
ATOM     86  C   UNL A   1      32.898  29.637  26.284  1.00  0.00    -0.025 A 
ATOM     87  C   UNL A   1      34.176  29.784  26.859  1.00  0.00     0.007 A 
ATOM     88  C   UNL A   1      31.982  30.680  26.442  1.00  0.00     0.007 A 
ATOM     89  C   UNL A   1      34.529  30.952  27.549  1.00  0.00     0.022 A 
ATOM     90  C   UNL A   1      32.349  31.855  27.079  1.00  0.00     0.022 A 
ATOM     91  C   UNL A   1      33.611  31.999  27.639  1.00  0.00     0.082 A 
BRANCH  91  92
ATOM     92  S   UNL A   1      34.079  33.510  28.455  1.00  0.00     0.243 S 
ATOM     93  O   UNL A   1      34.778  34.303  27.463  1.00  0.00    -0.207 OA
ATOM     94  O   UNL A   1      32.896  33.995  29.125  1.00  0.00    -0.207 OA
BRANCH  92  95
ATOM     95  N   UNL A   1      35.185  33.051  29.629  1.00  0.00    -0.193 NA
ATOM     96  C   UNL A   1      34.778  32.442  30.913  1.00  0.00     0.131 C 
ATOM     97  C   UNL A   1      36.631  33.290  29.474  1.00  0.00     0.131 C 
ATOM     98  C   UNL A   1      35.492  33.094  32.111  1.00  0.00     0.177 C 
ATOM     99  C   UNL A   1      37.188  33.994  30.713  1.00  0.00     0.177 C 
ATOM    100  O   UNL A   1      36.901  33.252  31.906  1.00  0.00    -0.379 OA
ENDBRANCH  92  95
ENDBRANCH  91  92
ENDBRANCH  82  86
ENDBRANCH  68  71
ENDBRANCH  66  67
ENDBRANCH  65  66
ENDBRANCH   1  65
TORSDOF 16
ENDMDL
MODEL 3
REMARK VINA RESULT:     -12.1      5.724     13.217
REMARK SMILES O=C(NCCCCCCNC(=O)c1cc(Cl)c2c(c1)[C@H]1C=CC[C@H]1[C@H](c1ccc(S(=O)(=O)N3CCOCC3)cc1)N2)c1ccc(-c2c3nc(c(-c4c(F)cccc4F)c4ccc([nH]4)c(-c4c(F)cccc4F)c4nc(c(-c5c(F)cccc5F)c5ccc2[nH]5)C=C4)C=C3)cc1
REMARK SMILES IDX 7 1 6 2 5 3 4 4 3 5 1 6 2 7 42 9 43 10 95 11 44 12 94 13
REMARK SMILES IDX 45 14 46 15 47 16 88 17 48 18 93 19 87 20 89 21 49 22 92 23
REMARK SMILES IDX 86 24 85 25 50 27 76 28 59 29 75 30 60 31 63 32 74 33 90 34
REMARK SMILES IDX 61 35 62 36 73 38 91 39 64 40 51 41 52 42 57 43 53 44 54 45
REMARK SMILES IDX 56 46 58 47 55 48 77 49 78 50 83 51 79 52 80 53 82 54 84 55
REMARK SMILES IDX 81 56 65 57 66 58 71 59 67 60 68 61 70 62 72 63 69 64 8 65
REMARK SMILES IDX 9 66 10 67 11 68 12 70 13 71 14 72 19 73 15 74 18 75 16 76
REMARK SMILES IDX 17 77 20 78 41 79 21 80 24 81 25 82 22 84 23 85 26 86 27 87
REMARK SMILES IDX 40 88 28 89 39 90 29 91 30 92 31 93 32 94 33 95 34 96 38 97
REMARK SMILES IDX 35 98 37 99 36 100
REMARK H PARENT 3 8 89 26 63 37 10 69 41 83
REMARK Flexibility Score: inf
ROOT
ATOM      1  C   UNL A   1      43.281  39.316  29.693  1.00  0.00     0.002 C 
ENDROOT
BRANCH   1   2
ATOM      2  C   UNL A   1      44.555  39.244  30.538  1.00  0.00     0.002 C 
BRANCH   2   3
ATOM      3  C   UNL A   1      44.653  38.034  31.471  1.00  0.00     0.021 C 
BRANCH   3   4
ATOM      4  C   UNL A   1      45.369  36.825  30.878  1.00  0.00     0.116 C 
BRANCH   4   5
ATOM      5  N   UNL A   1      46.325  37.206  29.854  1.00  0.00    -0.352 N 
ATOM      6  O   UNL A   1      47.881  36.867  28.255  1.00  0.00    -0.269 OA
ATOM      7  C   UNL A   1      46.954  36.421  28.923  1.00  0.00     0.251 C 
ATOM      8  H   UNL A   1      46.553  38.164  29.824  1.00  0.00     0.163 HD
BRANCH   7   9
ATOM      9  C   UNL A   1      46.516  35.024  28.735  1.00  0.00     0.039 A 
ATOM     10  C   UNL A   1      45.852  34.640  27.565  1.00  0.00     0.014 A 
ATOM     11  C   UNL A   1      46.803  34.086  29.730  1.00  0.00     0.014 A 
ATOM     12  C   UNL A   1      45.399  33.330  27.427  1.00  0.00     0.010 A 
ATOM     13  C   UNL A   1      46.386  32.762  29.571  1.00  0.00     0.010 A 
ATOM     14  C   UNL A   1      45.667  32.382  28.427  1.00  0.00    -0.014 A 
BRANCH  14  15
ATOM     15  C   UNL A   1      45.236  30.977  28.240  1.00  0.00     0.031 A 
ATOM     16  C   UNL A   1      46.181  29.950  27.688  1.00  0.00     0.074 A 
ATOM     17  C   UNL A   1      43.978  30.635  28.574  1.00  0.00     0.049 A 
ATOM     18  N   UNL A   1      45.975  28.677  27.464  1.00  0.00    -0.248 NA
ATOM     19  C   UNL A   1      47.535  30.410  27.342  1.00  0.00     0.031 C 
ATOM     20  C   UNL A   1      42.969  31.552  29.109  1.00  0.00     0.029 A 
ATOM     21  N   UNL A   1      43.332  29.427  28.509  1.00  0.00    -0.354 N 
ATOM     22  C   UNL A   1      47.168  28.183  26.952  1.00  0.00     0.074 A 
ATOM     23  C   UNL A   1      48.087  29.299  26.870  1.00  0.00     0.031 C 
ATOM     24  C   UNL A   1      41.832  30.871  29.329  1.00  0.00     0.029 A 
ATOM     25  C   UNL A   1      42.023  29.485  28.919  1.00  0.00     0.049 A 
ATOM     26  H   UNL A   1      43.766  28.599  28.199  1.00  0.00     0.167 HD
ATOM     27  C   UNL A   1      47.469  26.912  26.595  1.00  0.00     0.037 A 
ATOM     28  C   UNL A   1      41.077  28.528  28.941  1.00  0.00     0.037 A 
ATOM     29  C   UNL A   1      46.551  25.805  26.676  1.00  0.00     0.049 A 
ATOM     30  C   UNL A   1      41.427  27.142  28.482  1.00  0.00     0.074 A 
ATOM     31  C   UNL A   1      46.780  24.470  26.385  1.00  0.00     0.029 A 
ATOM     32  N   UNL A   1      45.224  25.907  27.063  1.00  0.00    -0.354 N 
ATOM     33  N   UNL A   1      42.578  26.674  28.064  1.00  0.00    -0.248 NA
ATOM     34  C   UNL A   1      40.342  26.150  28.495  1.00  0.00     0.031 C 
ATOM     35  C   UNL A   1      45.579  23.773  26.553  1.00  0.00     0.029 A 
ATOM     36  C   UNL A   1      44.613  24.666  26.986  1.00  0.00     0.049 A 
ATOM     37  H   UNL A   1      44.781  26.738  27.349  1.00  0.00     0.167 HD
ATOM     38  C   UNL A   1      42.362  25.333  27.781  1.00  0.00     0.074 A 
ATOM     39  C   UNL A   1      40.975  25.056  28.098  1.00  0.00     0.031 C 
ATOM     40  C   UNL A   1      43.230  24.411  27.298  1.00  0.00     0.037 A 
BRANCH  27  41
ATOM     41  C   UNL A   1      48.850  26.644  26.074  1.00  0.00     0.057 A 
ATOM     42  C   UNL A   1      49.877  26.250  26.941  1.00  0.00     0.134 A 
ATOM     43  C   UNL A   1      49.178  26.835  24.726  1.00  0.00     0.134 A 
ATOM     44  F   UNL A   1      49.630  26.056  28.245  1.00  0.00    -0.206 F 
ATOM     45  C   UNL A   1      51.184  26.064  26.486  1.00  0.00     0.040 A 
ATOM     46  C   UNL A   1      50.478  26.633  24.257  1.00  0.00     0.040 A 
ATOM     47  F   UNL A   1      48.238  27.201  23.842  1.00  0.00    -0.206 F 
ATOM     48  C   UNL A   1      51.486  26.254  25.140  1.00  0.00     0.006 A 
ENDBRANCH  27  41
BRANCH  28  49
ATOM     49  C   UNL A   1      39.701  28.847  29.393  1.00  0.00     0.057 A 
ATOM     50  C   UNL A   1      38.720  29.271  28.489  1.00  0.00     0.134 A 
ATOM     51  C   UNL A   1      39.326  28.697  30.732  1.00  0.00     0.134 A 
ATOM     52  F   UNL A   1      39.020  29.438  27.192  1.00  0.00    -0.206 F 
ATOM     53  C   UNL A   1      37.413  29.534  28.900  1.00  0.00     0.040 A 
ATOM     54  C   UNL A   1      38.016  28.932  31.153  1.00  0.00     0.040 A 
ATOM     55  F   UNL A   1      40.218  28.275  31.640  1.00  0.00    -0.206 F 
ATOM     56  C   UNL A   1      37.056  29.354  30.235  1.00  0.00     0.006 A 
ENDBRANCH  28  49
BRANCH  40  57
ATOM     57  C   UNL A   1      42.701  23.022  27.103  1.00  0.00     0.057 A 
ATOM     58  C   UNL A   1      42.439  22.529  25.819  1.00  0.00     0.134 A 
ATOM     59  C   UNL A   1      42.450  22.173  28.188  1.00  0.00     0.134 A 
ATOM     60  F   UNL A   1      42.654  23.294  24.738  1.00  0.00    -0.206 F 
ATOM     61  C   UNL A   1      41.947  21.238  25.621  1.00  0.00     0.040 A 
ATOM     62  C   UNL A   1      41.982  20.871  28.001  1.00  0.00     0.040 A 
ATOM     63  F   UNL A   1      42.698  22.580  29.442  1.00  0.00    -0.206 F 
ATOM     64  C   UNL A   1      41.725  20.404  26.714  1.00  0.00     0.006 A 
ENDBRANCH  40  57
ENDBRANCH  14  15
ENDBRANCH   7   9
ENDBRANCH   4   5
ENDBRANCH   3   4
ENDBRANCH   2   3
ENDBRANCH   1   2
BRANCH   1  65
ATOM     65  C   UNL A   1      43.435  38.864  28.240  1.00  0.00     0.021 C 
BRANCH  65  66
ATOM     66  C   UNL A   1      42.158  38.329  27.598  1.00  0.00     0.116 C 
BRANCH  66  67
ATOM     67  N   UNL A   1      42.423  37.250  26.661  1.00  0.00    -0.352 N 
ATOM     68  C   UNL A   1      42.341  35.899  26.875  1.00  0.00     0.251 C 
ATOM     69  H   UNL A   1      42.698  37.525  25.756  1.00  0.00     0.163 HD
ATOM     70  O   UNL A   1      42.732  35.095  26.037  1.00  0.00    -0.269 OA
BRANCH  68  71
ATOM     71  C   UNL A   1      41.803  35.426  28.159  1.00  0.00     0.041 A 
ATOM     72  C   UNL A   1      42.657  35.138  29.221  1.00  0.00     0.036 A 
ATOM     73  C   UNL A   1      40.428  35.242  28.277  1.00  0.00     0.020 A 
ATOM     74  C   UNL A   1      42.130  34.570  30.375  1.00  0.00     0.065 A 
ATOM     75  C   UNL A   1      39.894  34.693  29.452  1.00  0.00    -0.015 A 
ATOM     76  Cl  UNL A   1      43.224  34.154  31.651  1.00  0.00    -0.082 Cl
ATOM     77  C   UNL A   1      40.750  34.302  30.495  1.00  0.00     0.057 A 
ATOM     78  C   UNL A   1      38.405  34.572  29.586  1.00  0.00     0.049 C 
ATOM     79  N   UNL A   1      40.235  33.737  31.652  1.00  0.00    -0.376 N 
ATOM     80  C   UNL A   1      37.772  33.487  28.752  1.00  0.00    -0.023 C 
ATOM     81  C   UNL A   1      37.901  34.221  31.002  1.00  0.00     0.031 C 
ATOM     82  C   UNL A   1      38.874  33.224  31.684  1.00  0.00     0.114 C 
ATOM     83  H   UNL A   1      40.796  33.681  32.459  1.00  0.00     0.161 HD
ATOM     84  C   UNL A   1      36.702  32.977  29.373  1.00  0.00    -0.030 C 
ATOM     85  C   UNL A   1      36.501  33.643  30.700  1.00  0.00     0.034 C 
BRANCH  82  86
ATOM     86  C   UNL A   1      38.490  32.923  33.127  1.00  0.00    -0.025 A 
ATOM     87  C   UNL A   1      38.502  31.631  33.689  1.00  0.00     0.007 A 
ATOM     88  C   UNL A   1      38.119  33.993  33.945  1.00  0.00     0.007 A 
ATOM     89  C   UNL A   1      38.176  31.426  35.037  1.00  0.00     0.022 A 
ATOM     90  C   UNL A   1      37.848  33.796  35.290  1.00  0.00     0.022 A 
ATOM     91  C   UNL A   1      37.866  32.523  35.842  1.00  0.00     0.082 A 
BRANCH  91  92
ATOM     92  S   UNL A   1      37.519  32.273  37.570  1.00  0.00     0.243 S 
ATOM     93  O   UNL A   1      36.354  33.082  37.867  1.00  0.00    -0.207 OA
ATOM     94  O   UNL A   1      37.533  30.846  37.787  1.00  0.00    -0.207 OA
BRANCH  92  95
ATOM     95  N   UNL A   1      38.831  32.931  38.382  1.00  0.00    -0.193 NA
ATOM     96  C   UNL A   1      38.683  33.741  39.610  1.00  0.00     0.131 C 
ATOM     97  C   UNL A   1      40.209  32.792  37.880  1.00  0.00     0.131 C 
ATOM     98  C   UNL A   1      39.519  35.033  39.550  1.00  0.00     0.177 C 
ATOM     99  C   UNL A   1      40.892  34.159  37.820  1.00  0.00     0.177 C 
ATOM    100  O   UNL A   1      40.860  34.813  39.097  1.00  0.00    -0.379 OA
ENDBRANCH  92  95
ENDBRANCH  91  92
ENDBRANCH  82  86
ENDBRANCH  68  71
ENDBRANCH  66  67
ENDBRANCH  65  66
ENDBRANCH   1  65
TORSDOF 16
ENDMDL
