MODEL 1
REMARK VINA RESULT:     -11.6      0.000      0.000
REMARK SMILES Cc1cc(CNS(=O)(=O)c2ccc(C(=O)NCCCCCCNC(=O)c3ccc(-c4c5nc(c(-c6c(F)cccc6F)c6ccc([nH]6)c(-c6c(F)cccc6F)c6nc(c(-c7c(F)cccc7F)c7ccc4[nH]7)C=C6)C=C5)cc3)cc2F)no1
REMARK SMILES IDX 18 1 17 2 16 3 14 4 15 5 13 7 10 8 11 9 81 10 12 11 80 12
REMARK SMILES IDX 82 13 7 14 8 15 9 16 6 17 5 19 4 20 1 21 2 22 3 23 84 24
REMARK SMILES IDX 83 25 19 26 20 27 21 28 22 29 23 30 24 31 25 33 26 34 27 35
REMARK SMILES IDX 79 36 28 37 78 38 29 39 30 40 31 41 72 42 32 43 77 44 71 45
REMARK SMILES IDX 73 46 33 47 76 48 70 49 69 50 34 52 60 53 43 54 59 55 44 56
REMARK SMILES IDX 47 57 58 58 74 59 45 60 46 61 57 63 75 64 48 65 35 66 36 67
REMARK SMILES IDX 41 68 37 69 38 70 40 71 42 72 39 73 61 74 62 75 67 76 63 77
REMARK SMILES IDX 64 78 66 79 68 80 65 81 49 82 50 83 55 84 51 85 52 86 54 87
REMARK SMILES IDX 56 88 53 89
REMARK H PARENT 16 6 6 18 23 32 73 51 47 62
REMARK Flexibility Score: inf
ROOT
ATOM      1  C   UNL A   1      31.000  29.082  23.191  1.00  0.00     0.021 C 
ENDROOT
BRANCH   1   2
ATOM      2  C   UNL A   1      30.646  27.822  22.397  1.00  0.00     0.116 C 
BRANCH   2   3
ATOM      3  N   UNL A   1      31.821  27.313  21.716  1.00  0.00    -0.352 N 
ATOM      4  C   UNL A   1      32.727  26.330  22.006  1.00  0.00     0.251 C 
ATOM      5  O   UNL A   1      33.640  26.151  21.199  1.00  0.00    -0.269 OA
ATOM      6  H   UNL A   1      32.007  27.773  20.866  1.00  0.00     0.163 HD
BRANCH   4   7
ATOM      7  C   UNL A   1      32.655  25.447  23.205  1.00  0.00     0.042 A 
ATOM      8  C   UNL A   1      32.711  23.877  25.535  1.00  0.00     0.118 A 
ATOM      9  C   UNL A   1      33.785  24.719  25.249  1.00  0.00     0.026 A 
ATOM     10  C   UNL A   1      31.624  23.824  24.676  1.00  0.00     0.144 A 
ATOM     11  C   UNL A   1      33.758  25.487  24.082  1.00  0.00     0.015 A 
ATOM     12  C   UNL A   1      31.570  24.636  23.542  1.00  0.00     0.054 A 
ATOM     13  F   UNL A   1      30.580  23.026  24.931  1.00  0.00    -0.205 F 
BRANCH   8  14
ATOM     14  S   UNL A   1      32.703  22.936  27.024  1.00  0.00     0.243 S 
ATOM     15  O   UNL A   1      31.440  23.202  27.686  1.00  0.00    -0.207 OA
ATOM     16  O   UNL A   1      33.968  23.165  27.677  1.00  0.00    -0.207 OA
BRANCH  14  17
ATOM     17  N   UNL A   1      32.659  21.336  26.539  1.00  0.00    -0.205 NA
ATOM     18  H   UNL A   1      32.621  20.765  27.382  1.00  0.00     0.141 HD
BRANCH  17  19
ATOM     19  C   UNL A   1      33.769  20.835  25.724  1.00  0.00     0.158 C 
BRANCH  19  20
ATOM     20  C   UNL A   1      33.411  19.478  25.217  1.00  0.00     0.099 A 
ATOM     21  C   UNL A   1      33.566  16.201  23.584  1.00  0.00     0.091 C 
ATOM     22  C   UNL A   1      33.399  17.493  24.270  1.00  0.00     0.133 A 
ATOM     23  C   UNL A   1      34.200  18.592  24.452  1.00  0.00     0.073 A 
ATOM     24  O   UNL A   1      32.203  17.704  24.882  1.00  0.00    -0.361 OA
ATOM     25  N   UNL A   1      32.206  18.950  25.485  1.00  0.00    -0.083 NA
ENDBRANCH  19  20
ENDBRANCH  17  19
ENDBRANCH  14  17
ENDBRANCH   8  14
ENDBRANCH   4   7
ENDBRANCH   2   3
ENDBRANCH   1   2
BRANCH   1  26
ATOM     26  C   UNL A   1      31.551  28.783  24.593  1.00  0.00     0.002 C 
BRANCH  26  27
ATOM     27  C   UNL A   1      32.948  29.351  24.877  1.00  0.00     0.002 C 
BRANCH  27  28
ATOM     28  C   UNL A   1      33.864  28.446  25.708  1.00  0.00     0.021 C 
BRANCH  28  29
ATOM     29  C   UNL A   1      33.667  28.558  27.217  1.00  0.00     0.116 C 
BRANCH  29  30
ATOM     30  N   UNL A   1      33.612  29.943  27.651  1.00  0.00    -0.352 N 
ATOM     31  C   UNL A   1      34.556  30.689  28.306  1.00  0.00     0.251 C 
ATOM     32  H   UNL A   1      32.772  30.415  27.446  1.00  0.00     0.163 HD
ATOM     33  O   UNL A   1      34.255  31.781  28.779  1.00  0.00    -0.269 OA
BRANCH  31  34
ATOM     34  C   UNL A   1      35.941  30.186  28.451  1.00  0.00     0.039 A 
ATOM     35  C   UNL A   1      36.343  29.676  29.689  1.00  0.00     0.014 A 
ATOM     36  C   UNL A   1      36.859  30.277  27.400  1.00  0.00     0.014 A 
ATOM     37  C   UNL A   1      37.657  29.241  29.868  1.00  0.00     0.010 A 
ATOM     38  C   UNL A   1      38.154  29.790  27.561  1.00  0.00     0.010 A 
ATOM     39  C   UNL A   1      38.571  29.288  28.804  1.00  0.00    -0.014 A 
BRANCH  39  40
ATOM     40  C   UNL A   1      39.982  28.873  28.993  1.00  0.00     0.031 A 
ATOM     41  C   UNL A   1      40.960  29.818  29.635  1.00  0.00     0.074 A 
ATOM     42  C   UNL A   1      40.391  27.665  28.562  1.00  0.00     0.049 A 
ATOM     43  N   UNL A   1      42.243  29.665  29.842  1.00  0.00    -0.248 NA
ATOM     44  C   UNL A   1      40.430  31.116  30.083  1.00  0.00     0.031 C 
ATOM     45  C   UNL A   1      39.545  26.672  27.898  1.00  0.00     0.029 A 
ATOM     46  N   UNL A   1      41.625  27.068  28.619  1.00  0.00    -0.354 N 
ATOM     47  C   UNL A   1      42.675  30.849  30.426  1.00  0.00     0.074 A 
ATOM     48  C   UNL A   1      41.528  31.727  30.502  1.00  0.00     0.031 C 
ATOM     49  C   UNL A   1      40.278  25.579  27.633  1.00  0.00     0.029 A 
ATOM     50  C   UNL A   1      41.650  25.804  28.083  1.00  0.00     0.049 A 
ATOM     51  H   UNL A   1      42.418  27.505  29.007  1.00  0.00     0.167 HD
ATOM     52  C   UNL A   1      43.910  31.167  30.879  1.00  0.00     0.037 A 
ATOM     53  C   UNL A   1      42.663  24.925  27.973  1.00  0.00     0.037 A 
ATOM     54  C   UNL A   1      45.040  30.278  30.838  1.00  0.00     0.049 A 
ATOM     55  C   UNL A   1      44.019  25.290  28.507  1.00  0.00     0.074 A 
ATOM     56  C   UNL A   1      46.326  30.498  31.301  1.00  0.00     0.029 A 
ATOM     57  N   UNL A   1      45.016  28.996  30.314  1.00  0.00    -0.354 N 
ATOM     58  N   UNL A   1      44.407  26.403  29.081  1.00  0.00    -0.248 NA
ATOM     59  C   UNL A   1      45.077  24.275  28.387  1.00  0.00     0.031 C 
ATOM     60  C   UNL A   1      47.085  29.353  31.038  1.00  0.00     0.029 A 
ATOM     61  C   UNL A   1      46.263  28.410  30.442  1.00  0.00     0.049 A 
ATOM     62  H   UNL A   1      44.227  28.565  29.910  1.00  0.00     0.167 HD
ATOM     63  C   UNL A   1      45.740  26.214  29.416  1.00  0.00     0.074 A 
ATOM     64  C   UNL A   1      46.096  24.877  28.986  1.00  0.00     0.031 C 
ATOM     65  C   UNL A   1      46.593  27.071  30.028  1.00  0.00     0.037 A 
BRANCH  52  66
ATOM     66  C   UNL A   1      44.101  32.530  31.473  1.00  0.00     0.057 A 
ATOM     67  C   UNL A   1      44.019  32.728  32.856  1.00  0.00     0.134 A 
ATOM     68  C   UNL A   1      44.322  33.657  30.670  1.00  0.00     0.134 A 
ATOM     69  F   UNL A   1      43.803  31.692  33.682  1.00  0.00    -0.206 F 
ATOM     70  C   UNL A   1      44.143  33.999  33.421  1.00  0.00     0.040 A 
ATOM     71  C   UNL A   1      44.473  34.929  31.224  1.00  0.00     0.040 A 
ATOM     72  F   UNL A   1      44.426  33.532  29.339  1.00  0.00    -0.206 F 
ATOM     73  C   UNL A   1      44.375  35.104  32.603  1.00  0.00     0.006 A 
ENDBRANCH  52  66
BRANCH  53  74
ATOM     74  C   UNL A   1      42.414  23.590  27.374  1.00  0.00     0.057 A 
ATOM     75  C   UNL A   1      42.076  22.485  28.162  1.00  0.00     0.134 A 
ATOM     76  C   UNL A   1      42.536  23.390  25.995  1.00  0.00     0.134 A 
ATOM     77  F   UNL A   1      41.952  22.612  29.491  1.00  0.00    -0.206 F 
ATOM     78  C   UNL A   1      41.877  21.222  27.599  1.00  0.00     0.040 A 
ATOM     79  C   UNL A   1      42.323  22.138  25.416  1.00  0.00     0.040 A 
ATOM     80  F   UNL A   1      42.844  24.416  25.189  1.00  0.00    -0.206 F 
ATOM     81  C   UNL A   1      41.997  21.048  26.222  1.00  0.00     0.006 A 
ENDBRANCH  53  74
BRANCH  65  82
ATOM     82  C   UNL A   1      47.982  26.585  30.307  1.00  0.00     0.057 A 
ATOM     83  C   UNL A   1      48.283  25.963  31.526  1.00  0.00     0.134 A 
ATOM     84  C   UNL A   1      49.033  26.800  29.409  1.00  0.00     0.134 A 
ATOM     85  F   UNL A   1      47.321  25.738  32.433  1.00  0.00    -0.206 F 
ATOM     86  C   UNL A   1      49.587  25.580  31.845  1.00  0.00     0.040 A 
ATOM     87  C   UNL A   1      50.337  26.403  29.708  1.00  0.00     0.040 A 
ATOM     88  F   UNL A   1      48.805  27.384  28.223  1.00  0.00    -0.206 F 
ATOM     89  C   UNL A   1      50.617  25.799  30.933  1.00  0.00     0.006 A 
ENDBRANCH  65  82
ENDBRANCH  39  40
ENDBRANCH  31  34
ENDBRANCH  29  30
ENDBRANCH  28  29
ENDBRANCH  27  28
ENDBRANCH  26  27
ENDBRANCH   1  26
TORSDOF 17
ENDMDL
MODEL 2
REMARK VINA RESULT:     -11.5      1.569      2.179
REMARK SMILES Cc1cc(CNS(=O)(=O)c2ccc(C(=O)NCCCCCCNC(=O)c3ccc(-c4c5nc(c(-c6c(F)cccc6F)c6ccc([nH]6)c(-c6c(F)cccc6F)c6nc(c(-c7c(F)cccc7F)c7ccc4[nH]7)C=C6)C=C5)cc3)cc2F)no1
REMARK SMILES IDX 18 1 17 2 16 3 14 4 15 5 13 7 10 8 11 9 81 10 12 11 80 12
REMARK SMILES IDX 82 13 7 14 8 15 9 16 6 17 5 19 4 20 1 21 2 22 3 23 84 24
REMARK SMILES IDX 83 25 19 26 20 27 21 28 22 29 23 30 24 31 25 33 26 34 27 35
REMARK SMILES IDX 79 36 28 37 78 38 29 39 30 40 31 41 72 42 32 43 77 44 71 45
REMARK SMILES IDX 73 46 33 47 76 48 70 49 69 50 34 52 60 53 43 54 59 55 44 56
REMARK SMILES IDX 47 57 58 58 74 59 45 60 46 61 57 63 75 64 48 65 35 66 36 67
REMARK SMILES IDX 41 68 37 69 38 70 40 71 42 72 39 73 61 74 62 75 67 76 63 77
REMARK SMILES IDX 64 78 66 79 68 80 65 81 49 82 50 83 55 84 51 85 52 86 54 87
REMARK SMILES IDX 56 88 53 89
REMARK H PARENT 16 6 6 18 23 32 73 51 47 62
REMARK Flexibility Score: inf
ROOT
ATOM      1  C   UNL A   1      31.388  28.340  23.226  1.00  0.00     0.021 C 
ENDROOT
BRANCH   1   2
ATOM      2  C   UNL A   1      30.883  26.983  22.729  1.00  0.00     0.116 C 
BRANCH   2   3
ATOM      3  N   UNL A   1      31.633  26.569  21.559  1.00  0.00    -0.352 N 
ATOM      4  C   UNL A   1      32.680  25.709  21.366  1.00  0.00     0.251 C 
ATOM      5  O   UNL A   1      33.101  25.586  20.215  1.00  0.00    -0.269 OA
ATOM      6  H   UNL A   1      31.325  26.997  20.728  1.00  0.00     0.163 HD
BRANCH   4   7
ATOM      7  C   UNL A   1      33.308  24.893  22.444  1.00  0.00     0.042 A 
ATOM      8  C   UNL A   1      34.425  23.173  24.364  1.00  0.00     0.118 A 
ATOM      9  C   UNL A   1      33.686  22.637  23.310  1.00  0.00     0.026 A 
ATOM     10  C   UNL A   1      34.610  24.544  24.454  1.00  0.00     0.144 A 
ATOM     11  C   UNL A   1      33.121  23.498  22.367  1.00  0.00     0.015 A 
ATOM     12  C   UNL A   1      34.097  25.399  23.478  1.00  0.00     0.054 A 
ATOM     13  F   UNL A   1      35.320  25.082  25.454  1.00  0.00    -0.205 F 
BRANCH   8  14
ATOM     14  S   UNL A   1      35.187  22.102  25.538  1.00  0.00     0.243 S 
ATOM     15  O   UNL A   1      36.612  22.372  25.495  1.00  0.00    -0.207 OA
ATOM     16  O   UNL A   1      34.655  20.782  25.314  1.00  0.00    -0.207 OA
BRANCH  14  17
ATOM     17  N   UNL A   1      34.648  22.626  27.032  1.00  0.00    -0.205 NA
ATOM     18  H   UNL A   1      35.373  22.402  27.712  1.00  0.00     0.141 HD
BRANCH  17  19
ATOM     19  C   UNL A   1      33.389  22.075  27.540  1.00  0.00     0.158 C 
BRANCH  19  20
ATOM     20  C   UNL A   1      32.257  22.806  26.900  1.00  0.00     0.099 A 
ATOM     21  C   UNL A   1      29.952  25.454  25.846  1.00  0.00     0.091 C 
ATOM     22  C   UNL A   1      30.816  24.318  26.210  1.00  0.00     0.133 A 
ATOM     23  C   UNL A   1      31.934  24.178  26.992  1.00  0.00     0.073 A 
ATOM     24  O   UNL A   1      30.482  23.110  25.683  1.00  0.00    -0.361 OA
ATOM     25  N   UNL A   1      31.389  22.154  26.109  1.00  0.00    -0.083 NA
ENDBRANCH  19  20
ENDBRANCH  17  19
ENDBRANCH  14  17
ENDBRANCH   8  14
ENDBRANCH   4   7
ENDBRANCH   2   3
ENDBRANCH   1   2
BRANCH   1  26
ATOM     26  C   UNL A   1      32.008  28.281  24.630  1.00  0.00     0.002 C 
BRANCH  26  27
ATOM     27  C   UNL A   1      33.436  28.833  24.733  1.00  0.00     0.002 C 
BRANCH  27  28
ATOM     28  C   UNL A   1      34.271  28.272  25.890  1.00  0.00     0.021 C 
BRANCH  28  29
ATOM     29  C   UNL A   1      33.663  28.485  27.272  1.00  0.00     0.116 C 
BRANCH  29  30
ATOM     30  N   UNL A   1      33.615  29.893  27.628  1.00  0.00    -0.352 N 
ATOM     31  C   UNL A   1      34.566  30.670  28.236  1.00  0.00     0.251 C 
ATOM     32  H   UNL A   1      32.776  30.356  27.401  1.00  0.00     0.163 HD
ATOM     33  O   UNL A   1      34.271  31.788  28.649  1.00  0.00    -0.269 OA
BRANCH  31  34
ATOM     34  C   UNL A   1      35.949  30.170  28.402  1.00  0.00     0.039 A 
ATOM     35  C   UNL A   1      36.321  29.625  29.635  1.00  0.00     0.014 A 
ATOM     36  C   UNL A   1      36.893  30.297  27.379  1.00  0.00     0.014 A 
ATOM     37  C   UNL A   1      37.633  29.192  29.836  1.00  0.00     0.010 A 
ATOM     38  C   UNL A   1      38.186  29.811  27.560  1.00  0.00     0.010 A 
ATOM     39  C   UNL A   1      38.573  29.276  28.798  1.00  0.00    -0.014 A 
BRANCH  39  40
ATOM     40  C   UNL A   1      39.982  28.862  29.011  1.00  0.00     0.031 A 
ATOM     41  C   UNL A   1      40.943  29.801  29.686  1.00  0.00     0.074 A 
ATOM     42  C   UNL A   1      40.404  27.661  28.574  1.00  0.00     0.049 A 
ATOM     43  N   UNL A   1      42.222  29.649  29.919  1.00  0.00    -0.248 NA
ATOM     44  C   UNL A   1      40.399  31.092  30.140  1.00  0.00     0.031 C 
ATOM     45  C   UNL A   1      39.575  26.674  27.880  1.00  0.00     0.029 A 
ATOM     46  N   UNL A   1      41.638  27.067  28.650  1.00  0.00    -0.354 N 
ATOM     47  C   UNL A   1      42.637  30.826  30.528  1.00  0.00     0.074 A 
ATOM     48  C   UNL A   1      41.486  31.701  30.590  1.00  0.00     0.031 C 
ATOM     49  C   UNL A   1      40.317  25.587  27.616  1.00  0.00     0.029 A 
ATOM     50  C   UNL A   1      41.678  25.810  28.098  1.00  0.00     0.049 A 
ATOM     51  H   UNL A   1      42.421  27.500  29.060  1.00  0.00     0.167 HD
ATOM     52  C   UNL A   1      43.861  31.142  31.010  1.00  0.00     0.037 A 
ATOM     53  C   UNL A   1      42.697  24.935  27.998  1.00  0.00     0.037 A 
ATOM     54  C   UNL A   1      44.995  30.258  30.983  1.00  0.00     0.049 A 
ATOM     55  C   UNL A   1      44.040  25.297  28.566  1.00  0.00     0.074 A 
ATOM     56  C   UNL A   1      46.270  30.476  31.476  1.00  0.00     0.029 A 
ATOM     57  N   UNL A   1      44.986  28.982  30.442  1.00  0.00    -0.354 N 
ATOM     58  N   UNL A   1      44.412  26.404  29.163  1.00  0.00    -0.248 NA
ATOM     59  C   UNL A   1      45.103  24.287  28.456  1.00  0.00     0.031 C 
ATOM     60  C   UNL A   1      47.038  29.336  31.214  1.00  0.00     0.029 A 
ATOM     61  C   UNL A   1      46.232  28.399  30.589  1.00  0.00     0.049 A 
ATOM     62  H   UNL A   1      44.208  28.554  30.016  1.00  0.00     0.167 HD
ATOM     63  C   UNL A   1      45.738  26.214  29.524  1.00  0.00     0.074 A 
ATOM     64  C   UNL A   1      46.108  24.884  29.084  1.00  0.00     0.031 C 
ATOM     65  C   UNL A   1      46.575  27.066  30.164  1.00  0.00     0.037 A 
BRANCH  52  66
ATOM     66  C   UNL A   1      44.035  32.499  31.626  1.00  0.00     0.057 A 
ATOM     67  C   UNL A   1      43.770  32.709  32.985  1.00  0.00     0.134 A 
ATOM     68  C   UNL A   1      44.423  33.607  30.863  1.00  0.00     0.134 A 
ATOM     69  F   UNL A   1      43.390  31.691  33.771  1.00  0.00    -0.206 F 
ATOM     70  C   UNL A   1      43.877  33.976  33.561  1.00  0.00     0.040 A 
ATOM     71  C   UNL A   1      44.558  34.874  31.433  1.00  0.00     0.040 A 
ATOM     72  F   UNL A   1      44.705  33.469  29.559  1.00  0.00    -0.206 F 
ATOM     73  C   UNL A   1      44.277  35.063  32.785  1.00  0.00     0.006 A 
ENDBRANCH  52  66
BRANCH  53  74
ATOM     74  C   UNL A   1      42.465  23.607  27.377  1.00  0.00     0.057 A 
ATOM     75  C   UNL A   1      42.071  22.501  28.138  1.00  0.00     0.134 A 
ATOM     76  C   UNL A   1      42.659  23.415  26.005  1.00  0.00     0.134 A 
ATOM     77  F   UNL A   1      41.877  22.621  29.459  1.00  0.00    -0.206 F 
ATOM     78  C   UNL A   1      41.889  21.245  27.555  1.00  0.00     0.040 A 
ATOM     79  C   UNL A   1      42.463  22.170  25.407  1.00  0.00     0.040 A 
ATOM     80  F   UNL A   1      43.023  24.443  25.224  1.00  0.00    -0.206 F 
ATOM     81  C   UNL A   1      42.081  21.079  26.185  1.00  0.00     0.006 A 
ENDBRANCH  53  74
BRANCH  65  82
ATOM     82  C   UNL A   1      47.960  26.581  30.467  1.00  0.00     0.057 A 
ATOM     83  C   UNL A   1      48.226  25.899  31.661  1.00  0.00     0.134 A 
ATOM     84  C   UNL A   1      49.038  26.854  29.619  1.00  0.00     0.134 A 
ATOM     85  F   UNL A   1      47.235  25.616  32.521  1.00  0.00    -0.206 F 
ATOM     86  C   UNL A   1      49.522  25.512  32.006  1.00  0.00     0.040 A 
ATOM     87  C   UNL A   1      50.336  26.454  29.943  1.00  0.00     0.040 A 
ATOM     88  F   UNL A   1      48.845  27.497  28.458  1.00  0.00    -0.206 F 
ATOM     89  C   UNL A   1      50.581  25.790  31.144  1.00  0.00     0.006 A 
ENDBRANCH  65  82
ENDBRANCH  39  40
ENDBRANCH  31  34
ENDBRANCH  29  30
ENDBRANCH  28  29
ENDBRANCH  27  28
ENDBRANCH  26  27
ENDBRANCH   1  26
TORSDOF 17
ENDMDL
MODEL 3
REMARK VINA RESULT:     -11.3      2.340      7.429
REMARK SMILES Cc1cc(CNS(=O)(=O)c2ccc(C(=O)NCCCCCCNC(=O)c3ccc(-c4c5nc(c(-c6c(F)cccc6F)c6ccc([nH]6)c(-c6c(F)cccc6F)c6nc(c(-c7c(F)cccc7F)c7ccc4[nH]7)C=C6)C=C5)cc3)cc2F)no1
REMARK SMILES IDX 18 1 17 2 16 3 14 4 15 5 13 7 10 8 11 9 81 10 12 11 80 12
REMARK SMILES IDX 82 13 7 14 8 15 9 16 6 17 5 19 4 20 1 21 2 22 3 23 84 24
REMARK SMILES IDX 83 25 19 26 20 27 21 28 22 29 23 30 24 31 25 33 26 34 27 35
REMARK SMILES IDX 79 36 28 37 78 38 29 39 30 40 31 41 72 42 32 43 77 44 71 45
REMARK SMILES IDX 73 46 33 47 76 48 70 49 69 50 34 52 60 53 43 54 59 55 44 56
REMARK SMILES IDX 47 57 58 58 74 59 45 60 46 61 57 63 75 64 48 65 35 66 36 67
REMARK SMILES IDX 41 68 37 69 38 70 40 71 42 72 39 73 61 74 62 75 67 76 63 77
REMARK SMILES IDX 64 78 66 79 68 80 65 81 49 82 50 83 55 84 51 85 52 86 54 87
REMARK SMILES IDX 56 88 53 89
REMARK H PARENT 16 6 6 18 23 32 73 51 47 62
REMARK Flexibility Score: inf
ROOT
ATOM      1  C   UNL A   1      33.536  20.821  26.216  1.00  0.00     0.021 C 
ENDROOT
BRANCH   1   2
ATOM      2  C   UNL A   1      33.095  22.282  26.093  1.00  0.00     0.116 C 
BRANCH   2   3
ATOM      3  N   UNL A   1      31.793  22.464  26.706  1.00  0.00    -0.352 N 
ATOM      4  C   UNL A   1      30.923  23.517  26.776  1.00  0.00     0.251 C 
ATOM      5  O   UNL A   1      29.876  23.341  27.398  1.00  0.00    -0.269 OA
ATOM      6  H   UNL A   1      31.467  21.660  27.171  1.00  0.00     0.163 HD
BRANCH   4   7
ATOM      7  C   UNL A   1      31.146  24.837  26.118  1.00  0.00     0.042 A 
ATOM      8  C   UNL A   1      31.383  27.282  24.754  1.00  0.00     0.118 A 
ATOM      9  C   UNL A   1      30.404  26.370  24.363  1.00  0.00     0.026 A 
ATOM     10  C   UNL A   1      32.225  26.982  25.815  1.00  0.00     0.144 A 
ATOM     11  C   UNL A   1      30.300  25.150  25.035  1.00  0.00     0.015 A 
ATOM     12  C   UNL A   1      32.082  25.789  26.525  1.00  0.00     0.054 A 
ATOM     13  F   UNL A   1      33.170  27.843  26.212  1.00  0.00    -0.205 F 
BRANCH   8  14
ATOM     14  S   UNL A   1      31.501  28.846  23.952  1.00  0.00     0.243 S 
ATOM     15  O   UNL A   1      32.366  29.677  24.768  1.00  0.00    -0.207 OA
ATOM     16  O   UNL A   1      30.160  29.248  23.610  1.00  0.00    -0.207 OA
BRANCH  14  17
ATOM     17  N   UNL A   1      32.327  28.553  22.527  1.00  0.00    -0.205 NA
ATOM     18  H   UNL A   1      31.738  27.949  21.954  1.00  0.00     0.141 HD
BRANCH  17  19
ATOM     19  C   UNL A   1      33.645  27.919  22.615  1.00  0.00     0.158 C 
BRANCH  19  20
ATOM     20  C   UNL A   1      33.505  26.479  22.250  1.00  0.00     0.099 A 
ATOM     21  C   UNL A   1      33.376  22.821  22.431  1.00  0.00     0.091 C 
ATOM     22  C   UNL A   1      33.406  24.282  22.249  1.00  0.00     0.133 A 
ATOM     23  C   UNL A   1      33.643  25.346  23.081  1.00  0.00     0.073 A 
ATOM     24  O   UNL A   1      33.146  24.742  20.996  1.00  0.00    -0.361 OA
ATOM     25  N   UNL A   1      33.201  26.125  20.991  1.00  0.00    -0.083 NA
ENDBRANCH  19  20
ENDBRANCH  17  19
ENDBRANCH  14  17
ENDBRANCH   8  14
ENDBRANCH   4   7
ENDBRANCH   2   3
ENDBRANCH   1   2
BRANCH   1  26
ATOM     26  C   UNL A   1      34.518  20.388  25.116  1.00  0.00     0.002 C 
BRANCH  26  27
ATOM     27  C   UNL A   1      35.898  21.056  25.178  1.00  0.00     0.002 C 
BRANCH  27  28
ATOM     28  C   UNL A   1      37.088  20.118  24.945  1.00  0.00     0.021 C 
BRANCH  28  29
ATOM     29  C   UNL A   1      38.440  20.696  25.351  1.00  0.00     0.116 C 
BRANCH  29  30
ATOM     30  N   UNL A   1      39.429  19.654  25.567  1.00  0.00    -0.352 N 
ATOM     31  C   UNL A   1      40.725  19.760  25.997  1.00  0.00     0.251 C 
ATOM     32  H   UNL A   1      39.122  18.738  25.376  1.00  0.00     0.163 HD
ATOM     33  O   UNL A   1      41.477  18.792  25.920  1.00  0.00    -0.269 OA
BRANCH  31  34
ATOM     34  C   UNL A   1      41.230  21.035  26.553  1.00  0.00     0.039 A 
ATOM     35  C   UNL A   1      41.130  21.253  27.931  1.00  0.00     0.014 A 
ATOM     36  C   UNL A   1      41.736  22.038  25.720  1.00  0.00     0.014 A 
ATOM     37  C   UNL A   1      41.553  22.467  28.475  1.00  0.00     0.010 A 
ATOM     38  C   UNL A   1      42.211  23.227  26.271  1.00  0.00     0.010 A 
ATOM     39  C   UNL A   1      42.102  23.460  27.650  1.00  0.00    -0.014 A 
BRANCH  39  40
ATOM     40  C   UNL A   1      42.513  24.772  28.208  1.00  0.00     0.031 A 
ATOM     41  C   UNL A   1      41.487  25.852  28.410  1.00  0.00     0.074 A 
ATOM     42  C   UNL A   1      43.806  25.002  28.503  1.00  0.00     0.049 A 
ATOM     43  N   UNL A   1      41.651  27.080  28.834  1.00  0.00    -0.248 NA
ATOM     44  C   UNL A   1      40.095  25.516  28.068  1.00  0.00     0.031 C 
ATOM     45  C   UNL A   1      44.898  24.045  28.324  1.00  0.00     0.029 A 
ATOM     46  N   UNL A   1      44.419  26.117  29.016  1.00  0.00    -0.354 N 
ATOM     47  C   UNL A   1      40.392  27.664  28.794  1.00  0.00     0.074 A 
ATOM     48  C   UNL A   1      39.481  26.674  28.264  1.00  0.00     0.031 C 
ATOM     49  C   UNL A   1      46.044  24.604  28.746  1.00  0.00     0.029 A 
ATOM     50  C   UNL A   1      45.771  25.966  29.198  1.00  0.00     0.049 A 
ATOM     51  H   UNL A   1      43.935  26.948  29.232  1.00  0.00     0.167 HD
ATOM     52  C   UNL A   1      40.024  28.907  29.184  1.00  0.00     0.037 A 
ATOM     53  C   UNL A   1      46.687  26.827  29.682  1.00  0.00     0.037 A 
ATOM     54  C   UNL A   1      40.923  29.878  29.747  1.00  0.00     0.049 A 
ATOM     55  C   UNL A   1      46.250  28.192  30.134  1.00  0.00     0.074 A 
ATOM     56  C   UNL A   1      40.639  31.154  30.202  1.00  0.00     0.029 A 
ATOM     57  N   UNL A   1      42.280  29.675  29.942  1.00  0.00    -0.354 N 
ATOM     58  N   UNL A   1      45.051  28.723  30.115  1.00  0.00    -0.248 NA
ATOM     59  C   UNL A   1      47.289  29.075  30.683  1.00  0.00     0.031 C 
ATOM     60  C   UNL A   1      41.830  31.730  30.654  1.00  0.00     0.029 A 
ATOM     61  C   UNL A   1      42.848  30.800  30.512  1.00  0.00     0.049 A 
ATOM     62  H   UNL A   1      42.768  28.851  29.710  1.00  0.00     0.167 HD
ATOM     63  C   UNL A   1      45.185  29.986  30.673  1.00  0.00     0.074 A 
ATOM     64  C   UNL A   1      46.581  30.143  31.027  1.00  0.00     0.031 C 
ATOM     65  C   UNL A   1      44.235  30.931  30.877  1.00  0.00     0.037 A 
BRANCH  52  66
ATOM     66  C   UNL A   1      38.581  29.284  29.029  1.00  0.00     0.057 A 
ATOM     67  C   UNL A   1      38.078  29.704  27.792  1.00  0.00     0.134 A 
ATOM     68  C   UNL A   1      37.699  29.273  30.118  1.00  0.00     0.134 A 
ATOM     69  F   UNL A   1      38.871  29.743  26.711  1.00  0.00    -0.206 F 
ATOM     70  C   UNL A   1      36.749  30.108  27.644  1.00  0.00     0.040 A 
ATOM     71  C   UNL A   1      36.363  29.650  29.977  1.00  0.00     0.040 A 
ATOM     72  F   UNL A   1      38.115  28.867  31.326  1.00  0.00    -0.206 F 
ATOM     73  C   UNL A   1      35.886  30.077  28.738  1.00  0.00     0.006 A 
ENDBRANCH  52  66
BRANCH  53  74
ATOM     74  C   UNL A   1      48.101  26.399  29.810  1.00  0.00     0.057 A 
ATOM     75  C   UNL A   1      48.571  25.756  30.961  1.00  0.00     0.134 A 
ATOM     76  C   UNL A   1      49.021  26.649  28.786  1.00  0.00     0.134 A 
ATOM     77  F   UNL A   1      47.739  25.497  31.980  1.00  0.00    -0.206 F 
ATOM     78  C   UNL A   1      49.911  25.387  31.092  1.00  0.00     0.040 A 
ATOM     79  C   UNL A   1      50.359  26.269  28.896  1.00  0.00     0.040 A 
ATOM     80  F   UNL A   1      48.624  27.249  27.654  1.00  0.00    -0.206 F 
ATOM     81  C   UNL A   1      50.808  25.640  30.056  1.00  0.00     0.006 A 
ENDBRANCH  53  74
BRANCH  65  82
ATOM     82  C   UNL A   1      44.656  32.204  31.544  1.00  0.00     0.057 A 
ATOM     83  C   UNL A   1      44.575  32.334  32.937  1.00  0.00     0.134 A 
ATOM     84  C   UNL A   1      45.066  33.321  30.809  1.00  0.00     0.134 A 
ATOM     85  F   UNL A   1      44.179  31.301  33.696  1.00  0.00    -0.206 F 
ATOM     86  C   UNL A   1      44.879  33.538  33.574  1.00  0.00     0.040 A 
ATOM     87  C   UNL A   1      45.392  34.524  31.437  1.00  0.00     0.040 A 
ATOM     88  F   UNL A   1      45.171  33.256  29.473  1.00  0.00    -0.206 F 
ATOM     89  C   UNL A   1      45.291  34.637  32.823  1.00  0.00     0.006 A 
ENDBRANCH  65  82
ENDBRANCH  39  40
ENDBRANCH  31  34
ENDBRANCH  29  30
ENDBRANCH  28  29
ENDBRANCH  27  28
ENDBRANCH  26  27
ENDBRANCH   1  26
TORSDOF 17
ENDMDL
