MODEL 1
REMARK VINA RESULT:     -11.8      0.000      0.000
REMARK SMILES CCc1ccc(S(=O)(=O)N2CCC3(CC2)NC(=O)C[C@H]3C(=O)NCCCCCCNC(=O)c2ccc(-c3c4nc(c(-c5c(F)cccc5F)c5ccc([nH]5)c(-c5c(F)cccc5F)c5nc(c(-c6c(F)cccc6F)c6ccc3[nH]6)C=C5)C=C4)cc2)s1
REMARK SMILES IDX 26 1 25 2 24 3 23 4 21 5 22 6 20 8 10 9 11 10 15 11 12 12
REMARK SMILES IDX 14 13 13 14 16 15 17 16 19 18 18 19 7 20 8 21 9 22 6 23 3 24
REMARK SMILES IDX 4 25 87 26 5 27 2 28 1 29 27 30 28 31 29 32 30 33 31 34
REMARK SMILES IDX 32 36 33 37 34 38 86 39 35 40 85 41 36 42 37 43 38 44 79 45
REMARK SMILES IDX 39 46 84 47 78 48 80 49 40 50 83 51 77 52 76 53 41 55 67 56
REMARK SMILES IDX 50 57 66 58 51 59 54 60 65 61 81 62 52 63 53 64 64 66 82 67
REMARK SMILES IDX 55 68 42 69 43 70 48 71 44 72 45 73 47 74 49 75 46 76 68 77
REMARK SMILES IDX 69 78 74 79 70 80 71 81 73 82 75 83 72 84 56 85 57 86 62 87
REMARK SMILES IDX 58 88 59 89 61 90 63 91 60 92
REMARK H PARENT 23 7 16 17 30 35 80 54 54 65
REMARK Flexibility Score: inf
ROOT
ATOM      1  C   UNL A   1      33.357  29.283  26.841  1.00  0.00     0.002 C 
ENDROOT
BRANCH   1   2
ATOM      2  C   UNL A   1      32.918  29.435  25.386  1.00  0.00     0.021 C 
BRANCH   2   3
ATOM      3  C   UNL A   1      31.405  29.584  25.198  1.00  0.00     0.116 C 
BRANCH   3   4
ATOM      4  N   UNL A   1      30.925  29.069  23.924  1.00  0.00    -0.356 N 
ATOM      5  C   UNL A   1      31.339  28.102  23.062  1.00  0.00     0.226 C 
ATOM      6  O   UNL A   1      30.659  27.964  22.038  1.00  0.00    -0.275 OA
ATOM      7  H   UNL A   1      30.110  29.527  23.613  1.00  0.00     0.163 HD
BRANCH   5   8
ATOM      8  C   UNL A   1      32.559  27.192  23.249  1.00  0.00     0.113 C 
ATOM      9  N   UNL A   1      32.166  24.642  26.479  1.00  0.00    -0.197 NA
ATOM     10  C   UNL A   1      33.501  25.067  26.052  1.00  0.00     0.105 C 
ATOM     11  C   UNL A   1      31.126  25.576  26.077  1.00  0.00     0.105 C 
ATOM     12  C   UNL A   1      33.591  25.195  24.532  1.00  0.00     0.046 C 
ATOM     13  C   UNL A   1      31.006  25.580  24.564  1.00  0.00     0.046 C 
ATOM     14  C   UNL A   1      32.334  25.752  23.768  1.00  0.00     0.055 C 
ATOM     15  N   UNL A   1      32.307  25.044  22.480  1.00  0.00    -0.350 N 
ATOM     16  C   UNL A   1      32.962  25.688  21.457  1.00  0.00     0.221 C 
ATOM     17  H   UNL A   1      31.855  24.178  22.359  1.00  0.00     0.164 HD
ATOM     18  C   UNL A   1      33.342  27.055  21.931  1.00  0.00     0.116 C 
ATOM     19  O   UNL A   1      33.151  25.210  20.354  1.00  0.00    -0.275 OA
BRANCH   9  20
ATOM     20  S   UNL A   1      31.799  23.065  26.999  1.00  0.00     0.252 S 
ATOM     21  O   UNL A   1      30.367  22.977  27.159  1.00  0.00    -0.206 OA
ATOM     22  O   UNL A   1      32.723  22.722  28.061  1.00  0.00    -0.206 OA
BRANCH  20  23
ATOM     23  C   UNL A   1      32.177  21.911  25.684  1.00  0.00     0.135 A 
ATOM     24  C   UNL A   1      32.955  19.947  24.382  1.00  0.00     0.006 A 
ATOM     25  C   UNL A   1      32.297  20.858  23.591  1.00  0.00     0.017 A 
ATOM     26  S   UNL A   1      33.013  20.455  26.030  1.00  0.00    -0.127 S 
ATOM     27  C   UNL A   1      31.914  21.977  24.341  1.00  0.00     0.034 A 
BRANCH  24  28
ATOM     28  C   UNL A   1      33.558  18.670  23.892  1.00  0.00     0.043 C 
ATOM     29  C   UNL A   1      32.684  18.018  22.832  1.00  0.00     0.010 C 
ENDBRANCH  24  28
ENDBRANCH  20  23
ENDBRANCH   9  20
ENDBRANCH   5   8
ENDBRANCH   3   4
ENDBRANCH   2   3
ENDBRANCH   1   2
BRANCH   1  30
ATOM     30  C   UNL A   1      33.821  30.586  27.493  1.00  0.00     0.002 C 
BRANCH  30  31
ATOM     31  C   UNL A   1      32.721  31.637  27.671  1.00  0.00     0.021 C 
BRANCH  31  32
ATOM     32  C   UNL A   1      32.992  32.953  26.950  1.00  0.00     0.116 C 
BRANCH  32  33
ATOM     33  N   UNL A   1      32.647  34.096  27.780  1.00  0.00    -0.352 N 
ATOM     34  C   UNL A   1      33.206  34.514  28.960  1.00  0.00     0.251 C 
ATOM     35  H   UNL A   1      31.904  34.649  27.446  1.00  0.00     0.163 HD
ATOM     36  O   UNL A   1      32.626  35.334  29.663  1.00  0.00    -0.269 OA
BRANCH  34  37
ATOM     37  C   UNL A   1      34.510  33.966  29.382  1.00  0.00     0.039 A 
ATOM     38  C   UNL A   1      34.568  33.165  30.524  1.00  0.00     0.014 A 
ATOM     39  C   UNL A   1      35.671  34.255  28.660  1.00  0.00     0.014 A 
ATOM     40  C   UNL A   1      35.787  32.609  30.912  1.00  0.00     0.010 A 
ATOM     41  C   UNL A   1      36.869  33.635  29.001  1.00  0.00     0.010 A 
ATOM     42  C   UNL A   1      36.940  32.812  30.135  1.00  0.00    -0.014 A 
BRANCH  42  43
ATOM     43  C   UNL A   1      38.223  32.158  30.492  1.00  0.00     0.031 A 
ATOM     44  C   UNL A   1      39.176  32.819  31.448  1.00  0.00     0.074 A 
ATOM     45  C   UNL A   1      38.553  30.991  29.907  1.00  0.00     0.049 A 
ATOM     46  N   UNL A   1      40.352  32.414  31.853  1.00  0.00    -0.248 NA
ATOM     47  C   UNL A   1      38.766  34.119  31.999  1.00  0.00     0.031 C 
ATOM     48  C   UNL A   1      37.736  30.279  28.922  1.00  0.00     0.029 A 
ATOM     49  N   UNL A   1      39.665  30.201  30.051  1.00  0.00    -0.354 N 
ATOM     50  C   UNL A   1      40.825  33.409  32.698  1.00  0.00     0.074 A 
ATOM     51  C   UNL A   1      39.836  34.466  32.697  1.00  0.00     0.031 C 
ATOM     52  C   UNL A   1      38.360  29.143  28.574  1.00  0.00     0.029 A 
ATOM     53  C   UNL A   1      39.636  29.067  29.275  1.00  0.00     0.049 A 
ATOM     54  H   UNL A   1      40.411  30.423  30.653  1.00  0.00     0.167 HD
ATOM     55  C   UNL A   1      41.967  33.431  33.426  1.00  0.00     0.037 A 
ATOM     56  C   UNL A   1      40.542  28.081  29.138  1.00  0.00     0.037 A 
ATOM     57  C   UNL A   1      42.943  32.372  33.427  1.00  0.00     0.049 A 
ATOM     58  C   UNL A   1      41.810  28.133  29.943  1.00  0.00     0.074 A 
ATOM     59  C   UNL A   1      44.102  32.268  34.175  1.00  0.00     0.029 A 
ATOM     60  N   UNL A   1      42.879  31.237  32.629  1.00  0.00    -0.354 N 
ATOM     61  N   UNL A   1      42.208  29.042  30.800  1.00  0.00    -0.248 NA
ATOM     62  C   UNL A   1      42.751  27.019  29.767  1.00  0.00     0.031 C 
ATOM     63  C   UNL A   1      44.772  31.104  33.783  1.00  0.00     0.029 A 
ATOM     64  C   UNL A   1      43.997  30.446  32.842  1.00  0.00     0.049 A 
ATOM     65  H   UNL A   1      42.148  31.026  32.006  1.00  0.00     0.167 HD
ATOM     66  C   UNL A   1      43.432  28.599  31.285  1.00  0.00     0.074 A 
ATOM     67  C   UNL A   1      43.702  27.332  30.637  1.00  0.00     0.031 C 
ATOM     68  C   UNL A   1      44.257  29.188  32.185  1.00  0.00     0.037 A 
BRANCH  55  69
ATOM     69  C   UNL A   1      42.224  34.648  34.271  1.00  0.00     0.057 A 
ATOM     70  C   UNL A   1      42.796  35.814  33.742  1.00  0.00     0.134 A 
ATOM     71  C   UNL A   1      41.880  34.661  35.629  1.00  0.00     0.134 A 
ATOM     72  F   UNL A   1      43.159  35.869  32.452  1.00  0.00    -0.206 F 
ATOM     73  C   UNL A   1      43.053  36.929  34.541  1.00  0.00     0.040 A 
ATOM     74  C   UNL A   1      42.101  35.783  36.430  1.00  0.00     0.040 A 
ATOM     75  F   UNL A   1      41.320  33.584  36.201  1.00  0.00    -0.206 F 
ATOM     76  C   UNL A   1      42.700  36.918  35.888  1.00  0.00     0.006 A 
ENDBRANCH  55  69
BRANCH  56  77
ATOM     77  C   UNL A   1      40.265  26.951  28.215  1.00  0.00     0.057 A 
ATOM     78  C   UNL A   1      40.820  26.911  26.931  1.00  0.00     0.134 A 
ATOM     79  C   UNL A   1      39.455  25.876  28.601  1.00  0.00     0.134 A 
ATOM     80  F   UNL A   1      41.591  27.920  26.498  1.00  0.00    -0.206 F 
ATOM     81  C   UNL A   1      40.569  25.851  26.058  1.00  0.00     0.040 A 
ATOM     82  C   UNL A   1      39.218  24.796  27.749  1.00  0.00     0.040 A 
ATOM     83  F   UNL A   1      38.903  25.848  29.823  1.00  0.00    -0.206 F 
ATOM     84  C   UNL A   1      39.772  24.785  26.470  1.00  0.00     0.006 A 
ENDBRANCH  56  77
BRANCH  68  85
ATOM     85  C   UNL A   1      45.518  28.454  32.545  1.00  0.00     0.057 A 
ATOM     86  C   UNL A   1      46.727  28.683  31.876  1.00  0.00     0.134 A 
ATOM     87  C   UNL A   1      45.528  27.531  33.599  1.00  0.00     0.134 A 
ATOM     88  F   UNL A   1      46.786  29.544  30.848  1.00  0.00    -0.206 F 
ATOM     89  C   UNL A   1      47.894  27.998  32.224  1.00  0.00     0.040 A 
ATOM     90  C   UNL A   1      46.695  26.866  33.977  1.00  0.00     0.040 A 
ATOM     91  F   UNL A   1      44.407  27.272  34.289  1.00  0.00    -0.206 F 
ATOM     92  C   UNL A   1      47.881  27.093  33.283  1.00  0.00     0.006 A 
ENDBRANCH  68  85
ENDBRANCH  42  43
ENDBRANCH  34  37
ENDBRANCH  32  33
ENDBRANCH  31  32
ENDBRANCH  30  31
ENDBRANCH   1  30
TORSDOF 16
ENDMDL
MODEL 2
REMARK VINA RESULT:     -11.8      1.511      1.996
REMARK SMILES CCc1ccc(S(=O)(=O)N2CCC3(CC2)NC(=O)C[C@H]3C(=O)NCCCCCCNC(=O)c2ccc(-c3c4nc(c(-c5c(F)cccc5F)c5ccc([nH]5)c(-c5c(F)cccc5F)c5nc(c(-c6c(F)cccc6F)c6ccc3[nH]6)C=C5)C=C4)cc2)s1
REMARK SMILES IDX 26 1 25 2 24 3 23 4 21 5 22 6 20 8 10 9 11 10 15 11 12 12
REMARK SMILES IDX 14 13 13 14 16 15 17 16 19 18 18 19 7 20 8 21 9 22 6 23 3 24
REMARK SMILES IDX 4 25 87 26 5 27 2 28 1 29 27 30 28 31 29 32 30 33 31 34
REMARK SMILES IDX 32 36 33 37 34 38 86 39 35 40 85 41 36 42 37 43 38 44 79 45
REMARK SMILES IDX 39 46 84 47 78 48 80 49 40 50 83 51 77 52 76 53 41 55 67 56
REMARK SMILES IDX 50 57 66 58 51 59 54 60 65 61 81 62 52 63 53 64 64 66 82 67
REMARK SMILES IDX 55 68 42 69 43 70 48 71 44 72 45 73 47 74 49 75 46 76 68 77
REMARK SMILES IDX 69 78 74 79 70 80 71 81 73 82 75 83 72 84 56 85 57 86 62 87
REMARK SMILES IDX 58 88 59 89 61 90 63 91 60 92
REMARK H PARENT 23 7 16 17 30 35 80 54 54 65
REMARK Flexibility Score: inf
ROOT
ATOM      1  C   UNL A   1      33.664  29.263  26.493  1.00  0.00     0.002 C 
ENDROOT
BRANCH   1   2
ATOM      2  C   UNL A   1      32.956  29.733  25.224  1.00  0.00     0.021 C 
BRANCH   2   3
ATOM      3  C   UNL A   1      31.454  29.429  25.191  1.00  0.00     0.116 C 
BRANCH   3   4
ATOM      4  N   UNL A   1      30.984  28.960  23.896  1.00  0.00    -0.356 N 
ATOM      5  C   UNL A   1      31.394  28.012  23.013  1.00  0.00     0.226 C 
ATOM      6  O   UNL A   1      30.727  27.915  21.976  1.00  0.00    -0.275 OA
ATOM      7  H   UNL A   1      30.183  29.442  23.587  1.00  0.00     0.163 HD
BRANCH   5   8
ATOM      8  C   UNL A   1      32.595  27.075  23.190  1.00  0.00     0.113 C 
ATOM      9  N   UNL A   1      32.201  24.581  26.465  1.00  0.00    -0.197 NA
ATOM     10  C   UNL A   1      33.537  24.967  26.007  1.00  0.00     0.105 C 
ATOM     11  C   UNL A   1      31.176  25.535  26.068  1.00  0.00     0.105 C 
ATOM     12  C   UNL A   1      33.602  25.071  24.484  1.00  0.00     0.046 C 
ATOM     13  C   UNL A   1      31.029  25.520  24.558  1.00  0.00     0.046 C 
ATOM     14  C   UNL A   1      32.345  25.648  23.735  1.00  0.00     0.055 C 
ATOM     15  N   UNL A   1      32.276  24.922  22.458  1.00  0.00    -0.350 N 
ATOM     16  C   UNL A   1      32.928  25.536  21.414  1.00  0.00     0.221 C 
ATOM     17  H   UNL A   1      31.801  24.067  22.358  1.00  0.00     0.164 HD
ATOM     18  C   UNL A   1      33.349  26.899  21.860  1.00  0.00     0.116 C 
ATOM     19  O   UNL A   1      33.084  25.037  20.315  1.00  0.00    -0.275 OA
BRANCH   9  20
ATOM     20  S   UNL A   1      31.806  23.021  27.014  1.00  0.00     0.252 S 
ATOM     21  O   UNL A   1      30.366  22.923  27.059  1.00  0.00    -0.206 OA
ATOM     22  O   UNL A   1      32.641  22.730  28.162  1.00  0.00    -0.206 OA
BRANCH  20  23
ATOM     23  C   UNL A   1      32.301  21.821  25.782  1.00  0.00     0.135 A 
ATOM     24  C   UNL A   1      33.295  19.871  24.614  1.00  0.00     0.006 A 
ATOM     25  C   UNL A   1      32.516  20.629  23.774  1.00  0.00     0.017 A 
ATOM     26  S   UNL A   1      33.317  20.511  26.216  1.00  0.00    -0.127 S 
ATOM     27  C   UNL A   1      32.010  21.748  24.446  1.00  0.00     0.034 A 
BRANCH  24  28
ATOM     28  C   UNL A   1      34.043  18.643  24.207  1.00  0.00     0.043 C 
ATOM     29  C   UNL A   1      33.154  17.687  23.427  1.00  0.00     0.010 C 
ENDBRANCH  24  28
ENDBRANCH  20  23
ENDBRANCH   9  20
ENDBRANCH   5   8
ENDBRANCH   3   4
ENDBRANCH   2   3
ENDBRANCH   1   2
BRANCH   1  30
ATOM     30  C   UNL A   1      33.960  30.381  27.493  1.00  0.00     0.002 C 
BRANCH  30  31
ATOM     31  C   UNL A   1      33.642  31.791  26.987  1.00  0.00     0.021 C 
BRANCH  31  32
ATOM     32  C   UNL A   1      32.388  32.407  27.600  1.00  0.00     0.116 C 
BRANCH  32  33
ATOM     33  N   UNL A   1      32.507  33.850  27.717  1.00  0.00    -0.352 N 
ATOM     34  C   UNL A   1      33.342  34.592  28.511  1.00  0.00     0.251 C 
ATOM     35  H   UNL A   1      31.899  34.371  27.143  1.00  0.00     0.163 HD
ATOM     36  O   UNL A   1      33.129  35.787  28.687  1.00  0.00    -0.269 OA
BRANCH  34  37
ATOM     37  C   UNL A   1      34.499  33.942  29.160  1.00  0.00     0.039 A 
ATOM     38  C   UNL A   1      34.272  33.053  30.212  1.00  0.00     0.014 A 
ATOM     39  C   UNL A   1      35.802  34.222  28.737  1.00  0.00     0.014 A 
ATOM     40  C   UNL A   1      35.353  32.403  30.806  1.00  0.00     0.010 A 
ATOM     41  C   UNL A   1      36.870  33.513  29.276  1.00  0.00     0.010 A 
ATOM     42  C   UNL A   1      36.657  32.602  30.322  1.00  0.00    -0.014 A 
BRANCH  42  43
ATOM     43  C   UNL A   1      37.803  31.853  30.892  1.00  0.00     0.031 A 
ATOM     44  C   UNL A   1      38.310  32.168  32.272  1.00  0.00     0.074 A 
ATOM     45  C   UNL A   1      38.425  30.926  30.140  1.00  0.00     0.049 A 
ATOM     46  N   UNL A   1      39.316  31.641  32.922  1.00  0.00    -0.248 NA
ATOM     47  C   UNL A   1      37.612  33.234  33.006  1.00  0.00     0.031 C 
ATOM     48  C   UNL A   1      38.060  30.570  28.767  1.00  0.00     0.029 A 
ATOM     49  N   UNL A   1      39.495  30.116  30.420  1.00  0.00    -0.354 N 
ATOM     50  C   UNL A   1      39.376  32.315  34.135  1.00  0.00     0.074 A 
ATOM     51  C   UNL A   1      38.346  33.331  34.104  1.00  0.00     0.031 C 
ATOM     52  C   UNL A   1      38.873  29.593  28.336  1.00  0.00     0.029 A 
ATOM     53  C   UNL A   1      39.841  29.285  29.383  1.00  0.00     0.049 A 
ATOM     54  H   UNL A   1      39.971  30.129  31.282  1.00  0.00     0.167 HD
ATOM     55  C   UNL A   1      40.199  32.092  35.187  1.00  0.00     0.037 A 
ATOM     56  C   UNL A   1      40.833  28.380  29.283  1.00  0.00     0.037 A 
ATOM     57  C   UNL A   1      41.218  31.074  35.213  1.00  0.00     0.049 A 
ATOM     58  C   UNL A   1      41.746  28.160  30.457  1.00  0.00     0.074 A 
ATOM     59  C   UNL A   1      42.063  30.726  36.252  1.00  0.00     0.029 A 
ATOM     60  N   UNL A   1      41.538  30.249  34.143  1.00  0.00    -0.354 N 
ATOM     61  N   UNL A   1      41.741  28.749  31.629  1.00  0.00    -0.248 NA
ATOM     62  C   UNL A   1      42.797  27.147  30.297  1.00  0.00     0.031 C 
ATOM     63  C   UNL A   1      42.937  29.736  35.790  1.00  0.00     0.029 A 
ATOM     64  C   UNL A   1      42.593  29.417  34.486  1.00  0.00     0.049 A 
ATOM     65  H   UNL A   1      41.084  30.253  33.271  1.00  0.00     0.167 HD
ATOM     66  C   UNL A   1      42.769  28.160  32.354  1.00  0.00     0.074 A 
ATOM     67  C   UNL A   1      43.364  27.158  31.495  1.00  0.00     0.031 C 
ATOM     68  C   UNL A   1      43.181  28.426  33.618  1.00  0.00     0.037 A 
BRANCH  55  69
ATOM     69  C   UNL A   1      40.036  32.978  36.391  1.00  0.00     0.057 A 
ATOM     70  C   UNL A   1      40.794  34.145  36.565  1.00  0.00     0.134 A 
ATOM     71  C   UNL A   1      39.097  32.670  37.383  1.00  0.00     0.134 A 
ATOM     72  F   UNL A   1      41.720  34.497  35.658  1.00  0.00    -0.206 F 
ATOM     73  C   UNL A   1      40.652  34.948  37.697  1.00  0.00     0.040 A 
ATOM     74  C   UNL A   1      38.922  33.484  38.505  1.00  0.00     0.040 A 
ATOM     75  F   UNL A   1      38.330  31.574  37.279  1.00  0.00    -0.206 F 
ATOM     76  C   UNL A   1      39.710  34.620  38.669  1.00  0.00     0.006 A 
ENDBRANCH  55  69
BRANCH  56  77
ATOM     77  C   UNL A   1      40.995  27.601  28.029  1.00  0.00     0.057 A 
ATOM     78  C   UNL A   1      40.360  26.366  27.856  1.00  0.00     0.134 A 
ATOM     79  C   UNL A   1      41.772  28.081  26.968  1.00  0.00     0.134 A 
ATOM     80  F   UNL A   1      39.616  25.846  28.843  1.00  0.00    -0.206 F 
ATOM     81  C   UNL A   1      40.503  25.629  26.680  1.00  0.00     0.040 A 
ATOM     82  C   UNL A   1      41.901  27.368  25.774  1.00  0.00     0.040 A 
ATOM     83  F   UNL A   1      42.398  29.263  27.066  1.00  0.00    -0.206 F 
ATOM     84  C   UNL A   1      41.269  26.134  25.631  1.00  0.00     0.006 A 
ENDBRANCH  56  77
BRANCH  68  85
ATOM     85  C   UNL A   1      44.314  27.601  34.160  1.00  0.00     0.057 A 
ATOM     86  C   UNL A   1      45.645  28.034  34.097  1.00  0.00     0.134 A 
ATOM     87  C   UNL A   1      44.064  26.371  34.783  1.00  0.00     0.134 A 
ATOM     88  F   UNL A   1      45.956  29.195  33.501  1.00  0.00    -0.206 F 
ATOM     89  C   UNL A   1      46.689  27.260  34.609  1.00  0.00     0.040 A 
ATOM     90  C   UNL A   1      45.095  25.605  35.328  1.00  0.00     0.040 A 
ATOM     91  F   UNL A   1      42.812  25.901  34.887  1.00  0.00    -0.206 F 
ATOM     92  C   UNL A   1      46.414  26.046  35.234  1.00  0.00     0.006 A 
ENDBRANCH  68  85
ENDBRANCH  42  43
ENDBRANCH  34  37
ENDBRANCH  32  33
ENDBRANCH  31  32
ENDBRANCH  30  31
ENDBRANCH   1  30
TORSDOF 16
ENDMDL
MODEL 3
REMARK VINA RESULT:     -11.7      1.643      6.002
REMARK SMILES CCc1ccc(S(=O)(=O)N2CCC3(CC2)NC(=O)C[C@H]3C(=O)NCCCCCCNC(=O)c2ccc(-c3c4nc(c(-c5c(F)cccc5F)c5ccc([nH]5)c(-c5c(F)cccc5F)c5nc(c(-c6c(F)cccc6F)c6ccc3[nH]6)C=C5)C=C4)cc2)s1
REMARK SMILES IDX 26 1 25 2 24 3 23 4 21 5 22 6 20 8 10 9 11 10 15 11 12 12
REMARK SMILES IDX 14 13 13 14 16 15 17 16 19 18 18 19 7 20 8 21 9 22 6 23 3 24
REMARK SMILES IDX 4 25 87 26 5 27 2 28 1 29 27 30 28 31 29 32 30 33 31 34
REMARK SMILES IDX 32 36 33 37 34 38 86 39 35 40 85 41 36 42 37 43 38 44 79 45
REMARK SMILES IDX 39 46 84 47 78 48 80 49 40 50 83 51 77 52 76 53 41 55 67 56
REMARK SMILES IDX 50 57 66 58 51 59 54 60 65 61 81 62 52 63 53 64 64 66 82 67
REMARK SMILES IDX 55 68 42 69 43 70 48 71 44 72 45 73 47 74 49 75 46 76 68 77
REMARK SMILES IDX 69 78 74 79 70 80 71 81 73 82 75 83 72 84 56 85 57 86 62 87
REMARK SMILES IDX 58 88 59 89 61 90 63 91 60 92
REMARK H PARENT 23 7 16 17 30 35 80 54 54 65
REMARK Flexibility Score: inf
ROOT
ATOM      1  C   UNL A   1      33.690  29.276  26.757  1.00  0.00     0.002 C 
ENDROOT
BRANCH   1   2
ATOM      2  C   UNL A   1      33.065  29.625  25.408  1.00  0.00     0.021 C 
BRANCH   2   3
ATOM      3  C   UNL A   1      31.549  29.410  25.342  1.00  0.00     0.116 C 
BRANCH   3   4
ATOM      4  N   UNL A   1      31.076  29.005  24.027  1.00  0.00    -0.356 N 
ATOM      5  C   UNL A   1      31.470  28.085  23.107  1.00  0.00     0.226 C 
ATOM      6  O   UNL A   1      30.808  28.046  22.064  1.00  0.00    -0.275 OA
ATOM      7  H   UNL A   1      30.287  29.516  23.734  1.00  0.00     0.163 HD
BRANCH   5   8
ATOM      8  C   UNL A   1      32.650  27.116  23.251  1.00  0.00     0.113 C 
ATOM      9  N   UNL A   1      32.236  24.570  26.483  1.00  0.00    -0.197 NA
ATOM     10  C   UNL A   1      33.575  24.933  26.015  1.00  0.00     0.105 C 
ATOM     11  C   UNL A   1      31.230  25.556  26.117  1.00  0.00     0.105 C 
ATOM     12  C   UNL A   1      33.624  25.064  24.493  1.00  0.00     0.046 C 
ATOM     13  C   UNL A   1      31.063  25.574  24.609  1.00  0.00     0.046 C 
ATOM     14  C   UNL A   1      32.372  25.686  23.772  1.00  0.00     0.055 C 
ATOM     15  N   UNL A   1      32.270  24.987  22.482  1.00  0.00    -0.350 N 
ATOM     16  C   UNL A   1      32.923  25.604  21.442  1.00  0.00     0.221 C 
ATOM     17  H   UNL A   1      31.773  24.145  22.373  1.00  0.00     0.164 HD
ATOM     18  C   UNL A   1      33.383  26.948  21.909  1.00  0.00     0.116 C 
ATOM     19  O   UNL A   1      33.053  25.123  20.331  1.00  0.00    -0.275 OA
BRANCH   9  20
ATOM     20  S   UNL A   1      31.809  23.010  27.007  1.00  0.00     0.252 S 
ATOM     21  O   UNL A   1      30.368  22.943  27.060  1.00  0.00    -0.206 OA
ATOM     22  O   UNL A   1      32.645  22.681  28.145  1.00  0.00    -0.206 OA
BRANCH  20  23
ATOM     23  C   UNL A   1      32.271  21.821  25.752  1.00  0.00     0.135 A 
ATOM     24  C   UNL A   1      33.183  19.853  24.548  1.00  0.00     0.006 A 
ATOM     25  C   UNL A   1      32.475  20.681  23.712  1.00  0.00     0.017 A 
ATOM     26  S   UNL A   1      33.196  20.441  26.171  1.00  0.00    -0.127 S 
ATOM     27  C   UNL A   1      32.015  21.806  24.406  1.00  0.00     0.034 A 
BRANCH  24  28
ATOM     28  C   UNL A   1      33.871  18.596  24.123  1.00  0.00     0.043 C 
ATOM     29  C   UNL A   1      32.969  17.385  24.302  1.00  0.00     0.010 C 
ENDBRANCH  24  28
ENDBRANCH  20  23
ENDBRANCH   9  20
ENDBRANCH   5   8
ENDBRANCH   3   4
ENDBRANCH   2   3
ENDBRANCH   1   2
BRANCH   1  30
ATOM     30  C   UNL A   1      34.098  30.492  27.590  1.00  0.00     0.002 C 
BRANCH  30  31
ATOM     31  C   UNL A   1      33.678  31.840  26.999  1.00  0.00     0.021 C 
BRANCH  31  32
ATOM     32  C   UNL A   1      32.365  32.385  27.552  1.00  0.00     0.116 C 
BRANCH  32  33
ATOM     33  N   UNL A   1      32.397  33.833  27.671  1.00  0.00    -0.352 N 
ATOM     34  C   UNL A   1      33.151  34.621  28.501  1.00  0.00     0.251 C 
ATOM     35  H   UNL A   1      31.788  34.318  27.067  1.00  0.00     0.163 HD
ATOM     36  O   UNL A   1      32.863  35.802  28.663  1.00  0.00    -0.269 OA
BRANCH  34  37
ATOM     37  C   UNL A   1      34.310  34.038  29.205  1.00  0.00     0.039 A 
ATOM     38  C   UNL A   1      34.085  33.200  30.298  1.00  0.00     0.014 A 
ATOM     39  C   UNL A   1      35.614  34.330  28.792  1.00  0.00     0.014 A 
ATOM     40  C   UNL A   1      35.170  32.612  30.947  1.00  0.00     0.010 A 
ATOM     41  C   UNL A   1      36.688  33.679  29.389  1.00  0.00     0.010 A 
ATOM     42  C   UNL A   1      36.478  32.819  30.477  1.00  0.00    -0.014 A 
BRANCH  42  43
ATOM     43  C   UNL A   1      37.632  32.133  31.108  1.00  0.00     0.031 A 
ATOM     44  C   UNL A   1      38.352  31.029  30.386  1.00  0.00     0.074 A 
ATOM     45  C   UNL A   1      37.994  32.470  32.361  1.00  0.00     0.049 A 
ATOM     46  N   UNL A   1      39.358  30.298  30.791  1.00  0.00    -0.248 NA
ATOM     47  C   UNL A   1      37.858  30.684  29.044  1.00  0.00     0.031 C 
ATOM     48  C   UNL A   1      37.338  33.487  33.185  1.00  0.00     0.029 A 
ATOM     49  N   UNL A   1      38.999  31.990  33.162  1.00  0.00    -0.354 N 
ATOM     50  C   UNL A   1      39.613  29.402  29.760  1.00  0.00     0.074 A 
ATOM     51  C   UNL A   1      38.615  29.641  28.739  1.00  0.00     0.031 C 
ATOM     52  C   UNL A   1      37.975  33.577  34.362  1.00  0.00     0.029 A 
ATOM     53  C   UNL A   1      39.055  32.596  34.393  1.00  0.00     0.049 A 
ATOM     54  H   UNL A   1      39.620  31.280  32.881  1.00  0.00     0.167 HD
ATOM     55  C   UNL A   1      40.602  28.482  29.662  1.00  0.00     0.037 A 
ATOM     56  C   UNL A   1      39.879  32.380  35.436  1.00  0.00     0.037 A 
ATOM     57  C   UNL A   1      41.595  28.255  30.680  1.00  0.00     0.049 A 
ATOM     58  C   UNL A   1      40.960  31.341  35.312  1.00  0.00     0.074 A 
ATOM     59  C   UNL A   1      42.675  27.390  30.653  1.00  0.00     0.029 A 
ATOM     60  N   UNL A   1      41.622  28.890  31.914  1.00  0.00    -0.354 N 
ATOM     61  N   UNL A   1      41.240  30.557  34.300  1.00  0.00    -0.248 NA
ATOM     62  C   UNL A   1      41.841  31.164  36.473  1.00  0.00     0.031 C 
ATOM     63  C   UNL A   1      43.316  27.454  31.895  1.00  0.00     0.029 A 
ATOM     64  C   UNL A   1      42.679  28.409  32.672  1.00  0.00     0.049 A 
ATOM     65  H   UNL A   1      40.986  29.579  32.209  1.00  0.00     0.167 HD
ATOM     66  C   UNL A   1      42.344  29.811  34.691  1.00  0.00     0.074 A 
ATOM     67  C   UNL A   1      42.691  30.250  36.026  1.00  0.00     0.031 C 
ATOM     68  C   UNL A   1      43.011  28.850  34.004  1.00  0.00     0.037 A 
BRANCH  55  69
ATOM     69  C   UNL A   1      40.644  27.644  28.415  1.00  0.00     0.057 A 
ATOM     70  C   UNL A   1      39.955  26.426  28.312  1.00  0.00     0.134 A 
ATOM     71  C   UNL A   1      41.371  28.066  27.294  1.00  0.00     0.134 A 
ATOM     72  F   UNL A   1      39.247  25.956  29.350  1.00  0.00    -0.206 F 
ATOM     73  C   UNL A   1      40.021  25.644  27.158  1.00  0.00     0.040 A 
ATOM     74  C   UNL A   1      41.416  27.308  26.122  1.00  0.00     0.040 A 
ATOM     75  F   UNL A   1      42.048  29.225  27.317  1.00  0.00    -0.206 F 
ATOM     76  C   UNL A   1      40.749  26.088  26.056  1.00  0.00     0.006 A 
ENDBRANCH  55  69
BRANCH  56  77
ATOM     77  C   UNL A   1      39.725  33.182  36.675  1.00  0.00     0.057 A 
ATOM     78  C   UNL A   1      40.450  34.363  36.869  1.00  0.00     0.134 A 
ATOM     79  C   UNL A   1      38.834  32.799  37.685  1.00  0.00     0.134 A 
ATOM     80  F   UNL A   1      41.331  34.773  35.944  1.00  0.00    -0.206 F 
ATOM     81  C   UNL A   1      40.308  35.126  38.029  1.00  0.00     0.040 A 
ATOM     82  C   UNL A   1      38.661  33.567  38.838  1.00  0.00     0.040 A 
ATOM     83  F   UNL A   1      38.100  31.684  37.555  1.00  0.00    -0.206 F 
ATOM     84  C   UNL A   1      39.405  34.732  39.014  1.00  0.00     0.006 A 
ENDBRANCH  56  77
BRANCH  68  85
ATOM     85  C   UNL A   1      44.202  28.226  34.675  1.00  0.00     0.057 A 
ATOM     86  C   UNL A   1      45.483  28.785  34.585  1.00  0.00     0.134 A 
ATOM     87  C   UNL A   1      44.056  27.069  35.451  1.00  0.00     0.134 A 
ATOM     88  F   UNL A   1      45.695  29.886  33.847  1.00  0.00    -0.206 F 
ATOM     89  C   UNL A   1      46.581  28.199  35.217  1.00  0.00     0.040 A 
ATOM     90  C   UNL A   1      45.140  26.493  36.115  1.00  0.00     0.040 A 
ATOM     91  F   UNL A   1      42.856  26.486  35.590  1.00  0.00    -0.206 F 
ATOM     92  C   UNL A   1      46.409  27.054  35.993  1.00  0.00     0.006 A 
ENDBRANCH  68  85
ENDBRANCH  42  43
ENDBRANCH  34  37
ENDBRANCH  32  33
ENDBRANCH  31  32
ENDBRANCH  30  31
ENDBRANCH   1  30
TORSDOF 16
ENDMDL
