MODEL 1
REMARK VINA RESULT:     -12.0      0.000      0.000
REMARK SMILES Cc1nsc(NC(=O)C2([NH3+])CCCCC2)c1C(=O)NCCCCCCNC(=O)c1ccc(-c2c3nc(c(-c4c(F)cccc4F)c4ccc([nH]4)c(-c4c(F)cccc4F)c4nc(c(-c5c(F)cccc5F)c5ccc2[nH]5)C=C4)C=C3)cc1
REMARK SMILES IDX 22 1 21 2 20 3 19 4 17 5 18 6 16 8 1 9 2 10 3 11 4 12 5 13
REMARK SMILES IDX 6 14 7 15 8 17 9 18 11 19 15 20 12 21 14 22 13 23 10 24
REMARK SMILES IDX 23 28 24 29 25 30 26 31 27 32 28 34 29 35 30 36 82 37 31 38
REMARK SMILES IDX 81 39 32 40 33 41 34 42 75 43 35 44 80 45 74 46 76 47 36 48
REMARK SMILES IDX 79 49 73 50 72 51 37 53 63 54 46 55 62 56 47 57 50 58 61 59
REMARK SMILES IDX 77 60 48 61 49 62 60 64 78 65 51 66 38 67 39 68 44 69 40 70
REMARK SMILES IDX 41 71 43 72 45 73 42 74 64 75 65 76 70 77 66 78 67 79 69 80
REMARK SMILES IDX 71 81 68 82 52 83 53 84 58 85 54 86 55 87 57 88 59 89 56 90
REMARK H PARENT 19 7 6 16 10 25 10 26 10 27 26 33 76 52 50 63
REMARK Flexibility Score: inf
ROOT
ATOM      1  C   UNL A   1      39.762  21.600  25.787  1.00  0.00     0.002 C 
ENDROOT
BRANCH   1   2
ATOM      2  C   UNL A   1      38.642  22.367  26.494  1.00  0.00     0.021 C 
BRANCH   2   3
ATOM      3  C   UNL A   1      38.207  23.621  25.739  1.00  0.00     0.116 C 
BRANCH   3   4
ATOM      4  N   UNL A   1      37.459  23.270  24.570  1.00  0.00    -0.352 N 
ATOM      5  C   UNL A   1      36.158  22.953  24.338  1.00  0.00     0.256 C 
ATOM      6  O   UNL A   1      35.920  22.765  23.137  1.00  0.00    -0.269 OA
ATOM      7  H   UNL A   1      38.008  23.256  23.753  1.00  0.00     0.163 HD
BRANCH   5   8
ATOM      8  C   UNL A   1      35.070  22.848  25.331  1.00  0.00     0.097 A 
ATOM      9  C   UNL A   1      33.930  25.254  25.849  1.00  0.00     0.069 C 
ATOM     10  C   UNL A   1      34.156  23.791  25.991  1.00  0.00     0.066 A 
ATOM     11  N   UNL A   1      33.353  23.265  26.916  1.00  0.00    -0.195 NA
ATOM     12  S   UNL A   1      33.630  21.678  27.046  1.00  0.00    -0.017 S 
ATOM     13  C   UNL A   1      34.774  21.558  25.822  1.00  0.00     0.129 A 
BRANCH  13  14
ATOM     14  N   UNL A   1      35.315  20.361  25.374  1.00  0.00    -0.310 N 
ATOM     15  C   UNL A   1      34.867  19.141  24.963  1.00  0.00     0.286 C 
ATOM     16  H   UNL A   1      36.299  20.405  25.346  1.00  0.00     0.171 HD
ATOM     17  O   UNL A   1      35.749  18.394  24.512  1.00  0.00    -0.267 OA
BRANCH  15  18
ATOM     18  C   UNL A   1      33.395  18.631  25.069  1.00  0.00     0.174 C 
ATOM     19  C   UNL A   1      32.389  19.626  24.437  1.00  0.00     0.079 C 
ATOM     20  C   UNL A   1      33.287  17.257  24.374  1.00  0.00     0.079 C 
ATOM     21  C   UNL A   1      32.384  19.665  22.910  1.00  0.00     0.007 C 
ATOM     22  C   UNL A   1      33.381  17.361  22.850  1.00  0.00     0.007 C 
ATOM     23  C   UNL A   1      32.298  18.275  22.299  1.00  0.00     0.001 C 
BRANCH  18  24
ATOM     24  N   UNL A   1      32.961  18.613  26.487  1.00  0.00    -0.345 N 
ATOM     25  H   UNL A   1      33.135  17.690  26.884  1.00  0.00     0.345 HD
ATOM     26  H   UNL A   1      31.963  18.823  26.539  1.00  0.00     0.345 HD
ATOM     27  H   UNL A   1      33.484  19.314  27.012  1.00  0.00     0.345 HD
ENDBRANCH  18  24
ENDBRANCH  15  18
ENDBRANCH  13  14
ENDBRANCH   5   8
ENDBRANCH   3   4
ENDBRANCH   2   3
ENDBRANCH   1   2
BRANCH   1  28
ATOM     28  C   UNL A   1      40.763  20.906  26.727  1.00  0.00     0.002 C 
BRANCH  28  29
ATOM     29  C   UNL A   1      41.448  19.646  26.171  1.00  0.00     0.021 C 
BRANCH  29  30
ATOM     30  C   UNL A   1      42.857  19.465  26.703  1.00  0.00     0.116 C 
BRANCH  30  31
ATOM     31  N   UNL A   1      43.839  19.395  25.617  1.00  0.00    -0.352 N 
ATOM     32  C   UNL A   1      44.322  20.408  24.809  1.00  0.00     0.251 C 
ATOM     33  H   UNL A   1      44.206  18.500  25.437  1.00  0.00     0.163 HD
ATOM     34  O   UNL A   1      44.875  20.171  23.752  1.00  0.00    -0.269 OA
BRANCH  32  35
ATOM     35  C   UNL A   1      44.160  21.792  25.277  1.00  0.00     0.039 A 
ATOM     36  C   UNL A   1      43.207  22.659  24.736  1.00  0.00     0.014 A 
ATOM     37  C   UNL A   1      44.970  22.187  26.331  1.00  0.00     0.014 A 
ATOM     38  C   UNL A   1      43.049  23.912  25.320  1.00  0.00     0.010 A 
ATOM     39  C   UNL A   1      44.631  23.289  27.053  1.00  0.00     0.010 A 
ATOM     40  C   UNL A   1      43.765  24.210  26.487  1.00  0.00    -0.014 A 
BRANCH  40  41
ATOM     41  C   UNL A   1      43.608  25.467  27.198  1.00  0.00     0.031 A 
ATOM     42  C   UNL A   1      44.618  26.497  26.857  1.00  0.00     0.074 A 
ATOM     43  C   UNL A   1      42.493  25.739  27.914  1.00  0.00     0.049 A 
ATOM     44  N   UNL A   1      45.548  26.971  27.615  1.00  0.00    -0.248 NA
ATOM     45  C   UNL A   1      44.701  26.948  25.457  1.00  0.00     0.031 C 
ATOM     46  C   UNL A   1      41.279  24.923  28.081  1.00  0.00     0.029 A 
ATOM     47  N   UNL A   1      42.171  26.876  28.581  1.00  0.00    -0.354 N 
ATOM     48  C   UNL A   1      46.187  27.950  26.861  1.00  0.00     0.074 A 
ATOM     49  C   UNL A   1      45.768  27.749  25.499  1.00  0.00     0.031 C 
ATOM     50  C   UNL A   1      40.283  25.680  28.591  1.00  0.00     0.029 A 
ATOM     51  C   UNL A   1      40.838  26.964  28.966  1.00  0.00     0.049 A 
ATOM     52  H   UNL A   1      42.828  27.582  28.778  1.00  0.00     0.167 HD
ATOM     53  C   UNL A   1      46.780  29.015  27.467  1.00  0.00     0.037 A 
ATOM     54  C   UNL A   1      40.233  28.029  29.545  1.00  0.00     0.037 A 
ATOM     55  C   UNL A   1      47.004  28.755  28.869  1.00  0.00     0.049 A 
ATOM     56  C   UNL A   1      41.309  28.865  30.135  1.00  0.00     0.074 A 
ATOM     57  C   UNL A   1      47.706  27.803  29.584  1.00  0.00     0.029 A 
ATOM     58  N   UNL A   1      46.130  29.317  29.767  1.00  0.00    -0.354 N 
ATOM     59  N   UNL A   1      42.059  28.472  31.128  1.00  0.00    -0.248 NA
ATOM     60  C   UNL A   1      41.875  29.913  29.301  1.00  0.00     0.031 C 
ATOM     61  C   UNL A   1      46.877  27.503  30.707  1.00  0.00     0.029 A 
ATOM     62  C   UNL A   1      45.760  28.336  30.652  1.00  0.00     0.049 A 
ATOM     63  H   UNL A   1      45.823  30.253  29.776  1.00  0.00     0.167 HD
ATOM     64  C   UNL A   1      43.338  28.905  30.803  1.00  0.00     0.074 A 
ATOM     65  C   UNL A   1      43.147  29.852  29.704  1.00  0.00     0.031 C 
ATOM     66  C   UNL A   1      44.446  28.242  31.250  1.00  0.00     0.037 A 
BRANCH  53  67
ATOM     67  C   UNL A   1      46.772  30.418  26.905  1.00  0.00     0.057 A 
ATOM     68  C   UNL A   1      47.965  31.163  26.921  1.00  0.00     0.134 A 
ATOM     69  C   UNL A   1      45.605  31.165  26.642  1.00  0.00     0.134 A 
ATOM     70  F   UNL A   1      49.143  30.569  27.164  1.00  0.00    -0.206 F 
ATOM     71  C   UNL A   1      47.982  32.556  26.782  1.00  0.00     0.040 A 
ATOM     72  C   UNL A   1      45.618  32.549  26.450  1.00  0.00     0.040 A 
ATOM     73  F   UNL A   1      44.381  30.627  26.657  1.00  0.00    -0.206 F 
ATOM     74  C   UNL A   1      46.803  33.255  26.557  1.00  0.00     0.006 A 
ENDBRANCH  53  67
BRANCH  54  75
ATOM     75  C   UNL A   1      38.855  28.517  29.322  1.00  0.00     0.057 A 
ATOM     76  C   UNL A   1      37.934  28.618  30.372  1.00  0.00     0.134 A 
ATOM     77  C   UNL A   1      38.491  29.149  28.118  1.00  0.00     0.134 A 
ATOM     78  F   UNL A   1      38.212  28.088  31.572  1.00  0.00    -0.206 F 
ATOM     79  C   UNL A   1      36.726  29.318  30.238  1.00  0.00     0.040 A 
ATOM     80  C   UNL A   1      37.290  29.849  27.970  1.00  0.00     0.040 A 
ATOM     81  F   UNL A   1      39.333  29.183  27.074  1.00  0.00    -0.206 F 
ATOM     82  C   UNL A   1      36.405  29.945  29.037  1.00  0.00     0.006 A 
ENDBRANCH  54  75
BRANCH  66  83
ATOM     83  C   UNL A   1      44.250  27.156  32.275  1.00  0.00     0.057 A 
ATOM     84  C   UNL A   1      44.202  25.787  31.970  1.00  0.00     0.134 A 
ATOM     85  C   UNL A   1      44.283  27.492  33.631  1.00  0.00     0.134 A 
ATOM     86  F   UNL A   1      44.264  25.358  30.706  1.00  0.00    -0.206 F 
ATOM     87  C   UNL A   1      44.157  24.801  32.962  1.00  0.00     0.040 A 
ATOM     88  C   UNL A   1      44.267  26.518  34.635  1.00  0.00     0.040 A 
ATOM     89  F   UNL A   1      44.387  28.777  34.004  1.00  0.00    -0.206 F 
ATOM     90  C   UNL A   1      44.196  25.168  34.302  1.00  0.00     0.006 A 
ENDBRANCH  66  83
ENDBRANCH  40  41
ENDBRANCH  32  35
ENDBRANCH  30  31
ENDBRANCH  29  30
ENDBRANCH  28  29
ENDBRANCH   1  28
TORSDOF 16
ENDMDL
MODEL 2
REMARK VINA RESULT:     -11.9      1.606      3.147
REMARK SMILES Cc1nsc(NC(=O)C2([NH3+])CCCCC2)c1C(=O)NCCCCCCNC(=O)c1ccc(-c2c3nc(c(-c4c(F)cccc4F)c4ccc([nH]4)c(-c4c(F)cccc4F)c4nc(c(-c5c(F)cccc5F)c5ccc2[nH]5)C=C4)C=C3)cc1
REMARK SMILES IDX 22 1 21 2 20 3 19 4 17 5 18 6 16 8 1 9 2 10 3 11 4 12 5 13
REMARK SMILES IDX 6 14 7 15 8 17 9 18 11 19 15 20 12 21 14 22 13 23 10 24
REMARK SMILES IDX 23 28 24 29 25 30 26 31 27 32 28 34 29 35 30 36 82 37 31 38
REMARK SMILES IDX 81 39 32 40 33 41 34 42 75 43 35 44 80 45 74 46 76 47 36 48
REMARK SMILES IDX 79 49 73 50 72 51 37 53 63 54 46 55 62 56 47 57 50 58 61 59
REMARK SMILES IDX 77 60 48 61 49 62 60 64 78 65 51 66 38 67 39 68 44 69 40 70
REMARK SMILES IDX 41 71 43 72 45 73 42 74 64 75 65 76 70 77 66 78 67 79 69 80
REMARK SMILES IDX 71 81 68 82 52 83 53 84 58 85 54 86 55 87 57 88 59 89 56 90
REMARK H PARENT 19 7 6 16 10 25 10 26 10 27 26 33 76 52 50 63
REMARK Flexibility Score: inf
ROOT
ATOM      1  C   UNL A   1      39.066  21.924  25.896  1.00  0.00     0.002 C 
ENDROOT
BRANCH   1   2
ATOM      2  C   UNL A   1      38.502  23.276  26.339  1.00  0.00     0.021 C 
BRANCH   2   3
ATOM      3  C   UNL A   1      37.075  23.518  25.852  1.00  0.00     0.116 C 
BRANCH   3   4
ATOM      4  N   UNL A   1      36.993  23.350  24.433  1.00  0.00    -0.352 N 
ATOM      5  C   UNL A   1      36.006  22.970  23.580  1.00  0.00     0.256 C 
ATOM      6  O   UNL A   1      36.358  23.014  22.393  1.00  0.00    -0.269 OA
ATOM      7  H   UNL A   1      37.839  23.557  23.973  1.00  0.00     0.163 HD
BRANCH   5   8
ATOM      8  C   UNL A   1      34.630  22.561  23.926  1.00  0.00     0.097 A 
ATOM      9  C   UNL A   1      34.596  20.520  25.713  1.00  0.00     0.069 C 
ATOM     10  C   UNL A   1      34.026  21.531  24.783  1.00  0.00     0.066 A 
ATOM     11  N   UNL A   1      32.695  21.455  24.742  1.00  0.00    -0.195 NA
ATOM     12  S   UNL A   1      32.112  22.564  23.721  1.00  0.00    -0.017 S 
ATOM     13  C   UNL A   1      33.577  23.284  23.325  1.00  0.00     0.129 A 
BRANCH  13  14
ATOM     14  N   UNL A   1      33.701  24.422  22.540  1.00  0.00    -0.310 N 
ATOM     15  C   UNL A   1      33.647  25.774  22.706  1.00  0.00     0.286 C 
ATOM     16  H   UNL A   1      33.875  24.187  21.599  1.00  0.00     0.171 HD
ATOM     17  O   UNL A   1      33.959  26.428  21.699  1.00  0.00    -0.267 OA
BRANCH  15  18
ATOM     18  C   UNL A   1      33.188  26.513  24.002  1.00  0.00     0.174 C 
ATOM     19  C   UNL A   1      33.489  28.032  23.942  1.00  0.00     0.079 C 
ATOM     20  C   UNL A   1      31.674  26.283  24.203  1.00  0.00     0.079 C 
ATOM     21  C   UNL A   1      32.578  28.842  23.023  1.00  0.00     0.007 C 
ATOM     22  C   UNL A   1      30.824  27.053  23.190  1.00  0.00     0.007 C 
ATOM     23  C   UNL A   1      31.106  28.545  23.265  1.00  0.00     0.001 C 
BRANCH  18  24
ATOM     24  N   UNL A   1      34.010  26.080  25.157  1.00  0.00    -0.345 N 
ATOM     25  H   UNL A   1      34.910  25.736  24.824  1.00  0.00     0.345 HD
ATOM     26  H   UNL A   1      33.526  25.334  25.658  1.00  0.00     0.345 HD
ATOM     27  H   UNL A   1      34.158  26.870  25.784  1.00  0.00     0.345 HD
ENDBRANCH  18  24
ENDBRANCH  15  18
ENDBRANCH  13  14
ENDBRANCH   5   8
ENDBRANCH   3   4
ENDBRANCH   2   3
ENDBRANCH   1   2
BRANCH   1  28
ATOM     28  C   UNL A   1      40.237  21.401  26.745  1.00  0.00     0.002 C 
BRANCH  28  29
ATOM     29  C   UNL A   1      40.910  20.112  26.245  1.00  0.00     0.021 C 
BRANCH  29  30
ATOM     30  C   UNL A   1      42.222  19.827  26.952  1.00  0.00     0.116 C 
BRANCH  30  31
ATOM     31  N   UNL A   1      43.324  19.665  25.999  1.00  0.00    -0.352 N 
ATOM     32  C   UNL A   1      43.967  20.623  25.235  1.00  0.00     0.251 C 
ATOM     33  H   UNL A   1      43.653  18.744  25.885  1.00  0.00     0.163 HD
ATOM     34  O   UNL A   1      44.630  20.321  24.261  1.00  0.00    -0.269 OA
BRANCH  32  35
ATOM     35  C   UNL A   1      43.839  22.027  25.650  1.00  0.00     0.039 A 
ATOM     36  C   UNL A   1      43.023  22.936  24.971  1.00  0.00     0.014 A 
ATOM     37  C   UNL A   1      44.530  22.400  26.793  1.00  0.00     0.014 A 
ATOM     38  C   UNL A   1      42.874  24.213  25.503  1.00  0.00     0.010 A 
ATOM     39  C   UNL A   1      44.175  23.542  27.441  1.00  0.00     0.010 A 
ATOM     40  C   UNL A   1      43.452  24.499  26.748  1.00  0.00    -0.014 A 
BRANCH  40  41
ATOM     41  C   UNL A   1      43.288  25.783  27.407  1.00  0.00     0.031 A 
ATOM     42  C   UNL A   1      44.291  26.806  27.020  1.00  0.00     0.074 A 
ATOM     43  C   UNL A   1      42.173  26.078  28.113  1.00  0.00     0.049 A 
ATOM     44  N   UNL A   1      45.219  27.317  27.755  1.00  0.00    -0.248 NA
ATOM     45  C   UNL A   1      44.368  27.198  25.602  1.00  0.00     0.031 C 
ATOM     46  C   UNL A   1      40.965  25.262  28.316  1.00  0.00     0.029 A 
ATOM     47  N   UNL A   1      41.845  27.240  28.733  1.00  0.00    -0.354 N 
ATOM     48  C   UNL A   1      45.849  28.268  26.960  1.00  0.00     0.074 A 
ATOM     49  C   UNL A   1      45.429  28.006  25.608  1.00  0.00     0.031 C 
ATOM     50  C   UNL A   1      39.965  26.033  28.797  1.00  0.00     0.029 A 
ATOM     51  C   UNL A   1      40.512  27.335  29.116  1.00  0.00     0.049 A 
ATOM     52  H   UNL A   1      42.497  27.958  28.898  1.00  0.00     0.167 HD
ATOM     53  C   UNL A   1      46.437  29.360  27.519  1.00  0.00     0.037 A 
ATOM     54  C   UNL A   1      39.901  28.420  29.652  1.00  0.00     0.037 A 
ATOM     55  C   UNL A   1      46.666  29.161  28.931  1.00  0.00     0.049 A 
ATOM     56  C   UNL A   1      40.973  29.286  30.204  1.00  0.00     0.074 A 
ATOM     57  C   UNL A   1      47.375  28.244  29.683  1.00  0.00     0.029 A 
ATOM     58  N   UNL A   1      45.789  29.755  29.807  1.00  0.00    -0.354 N 
ATOM     59  N   UNL A   1      41.727  28.941  31.211  1.00  0.00    -0.248 NA
ATOM     60  C   UNL A   1      41.530  30.303  29.325  1.00  0.00     0.031 C 
ATOM     61  C   UNL A   1      46.551  27.986  30.820  1.00  0.00     0.029 A 
ATOM     62  C   UNL A   1      45.428  28.809  30.732  1.00  0.00     0.049 A 
ATOM     63  H   UNL A   1      45.477  30.688  29.777  1.00  0.00     0.167 HD
ATOM     64  C   UNL A   1      43.002  29.368  30.865  1.00  0.00     0.074 A 
ATOM     65  C   UNL A   1      42.804  30.266  29.728  1.00  0.00     0.031 C 
ATOM     66  C   UNL A   1      44.116  28.731  31.337  1.00  0.00     0.037 A 
BRANCH  53  67
ATOM     67  C   UNL A   1      46.419  30.738  26.899  1.00  0.00     0.057 A 
ATOM     68  C   UNL A   1      47.610  31.486  26.869  1.00  0.00     0.134 A 
ATOM     69  C   UNL A   1      45.247  31.472  26.621  1.00  0.00     0.134 A 
ATOM     70  F   UNL A   1      48.793  30.904  27.121  1.00  0.00    -0.206 F 
ATOM     71  C   UNL A   1      47.622  32.872  26.671  1.00  0.00     0.040 A 
ATOM     72  C   UNL A   1      45.255  32.847  26.371  1.00  0.00     0.040 A 
ATOM     73  F   UNL A   1      44.024  30.933  26.674  1.00  0.00    -0.206 F 
ATOM     74  C   UNL A   1      46.439  33.559  26.433  1.00  0.00     0.006 A 
ENDBRANCH  53  67
BRANCH  54  75
ATOM     75  C   UNL A   1      38.519  28.888  29.412  1.00  0.00     0.057 A 
ATOM     76  C   UNL A   1      37.605  29.043  30.461  1.00  0.00     0.134 A 
ATOM     77  C   UNL A   1      38.145  29.453  28.178  1.00  0.00     0.134 A 
ATOM     78  F   UNL A   1      37.893  28.580  31.686  1.00  0.00    -0.206 F 
ATOM     79  C   UNL A   1      36.393  29.729  30.297  1.00  0.00     0.040 A 
ATOM     80  C   UNL A   1      36.939  30.138  28.000  1.00  0.00     0.040 A 
ATOM     81  F   UNL A   1      38.980  29.433  27.128  1.00  0.00    -0.206 F 
ATOM     82  C   UNL A   1      36.061  30.289  29.066  1.00  0.00     0.006 A 
ENDBRANCH  54  75
BRANCH  66  83
ATOM     83  C   UNL A   1      43.929  27.687  32.407  1.00  0.00     0.057 A 
ATOM     84  C   UNL A   1      43.901  26.306  32.160  1.00  0.00     0.134 A 
ATOM     85  C   UNL A   1      43.951  28.082  33.747  1.00  0.00     0.134 A 
ATOM     86  F   UNL A   1      43.974  25.824  30.916  1.00  0.00    -0.206 F 
ATOM     87  C   UNL A   1      43.864  25.363  33.194  1.00  0.00     0.040 A 
ATOM     88  C   UNL A   1      43.943  27.152  34.792  1.00  0.00     0.040 A 
ATOM     89  F   UNL A   1      44.036  29.383  34.065  1.00  0.00    -0.206 F 
ATOM     90  C   UNL A   1      43.892  25.787  34.517  1.00  0.00     0.006 A 
ENDBRANCH  66  83
ENDBRANCH  40  41
ENDBRANCH  32  35
ENDBRANCH  30  31
ENDBRANCH  29  30
ENDBRANCH  28  29
ENDBRANCH   1  28
TORSDOF 16
ENDMDL
MODEL 3
REMARK VINA RESULT:     -11.8      1.497      2.966
REMARK SMILES Cc1nsc(NC(=O)C2([NH3+])CCCCC2)c1C(=O)NCCCCCCNC(=O)c1ccc(-c2c3nc(c(-c4c(F)cccc4F)c4ccc([nH]4)c(-c4c(F)cccc4F)c4nc(c(-c5c(F)cccc5F)c5ccc2[nH]5)C=C4)C=C3)cc1
REMARK SMILES IDX 22 1 21 2 20 3 19 4 17 5 18 6 16 8 1 9 2 10 3 11 4 12 5 13
REMARK SMILES IDX 6 14 7 15 8 17 9 18 11 19 15 20 12 21 14 22 13 23 10 24
REMARK SMILES IDX 23 28 24 29 25 30 26 31 27 32 28 34 29 35 30 36 82 37 31 38
REMARK SMILES IDX 81 39 32 40 33 41 34 42 75 43 35 44 80 45 74 46 76 47 36 48
REMARK SMILES IDX 79 49 73 50 72 51 37 53 63 54 46 55 62 56 47 57 50 58 61 59
REMARK SMILES IDX 77 60 48 61 49 62 60 64 78 65 51 66 38 67 39 68 44 69 40 70
REMARK SMILES IDX 41 71 43 72 45 73 42 74 64 75 65 76 70 77 66 78 67 79 69 80
REMARK SMILES IDX 71 81 68 82 52 83 53 84 58 85 54 86 55 87 57 88 59 89 56 90
REMARK H PARENT 19 7 6 16 10 25 10 26 10 27 26 33 76 52 50 63
REMARK Flexibility Score: inf
ROOT
ATOM      1  C   UNL A   1      39.418  22.465  26.135  1.00  0.00     0.002 C 
ENDROOT
BRANCH   1   2
ATOM      2  C   UNL A   1      38.112  21.786  25.717  1.00  0.00     0.021 C 
BRANCH   2   3
ATOM      3  C   UNL A   1      36.973  22.774  25.475  1.00  0.00     0.116 C 
BRANCH   3   4
ATOM      4  N   UNL A   1      36.045  22.748  26.565  1.00  0.00    -0.352 N 
ATOM      5  C   UNL A   1      34.875  22.097  26.797  1.00  0.00     0.256 C 
ATOM      6  O   UNL A   1      34.416  22.327  27.924  1.00  0.00    -0.269 OA
ATOM      7  H   UNL A   1      36.315  23.329  27.312  1.00  0.00     0.163 HD
BRANCH   5   8
ATOM      8  C   UNL A   1      34.166  21.177  25.886  1.00  0.00     0.097 A 
ATOM      9  C   UNL A   1      35.851  19.396  24.724  1.00  0.00     0.069 C 
ATOM     10  C   UNL A   1      34.555  20.073  24.997  1.00  0.00     0.066 A 
ATOM     11  N   UNL A   1      33.571  19.547  24.266  1.00  0.00    -0.195 NA
ATOM     12  S   UNL A   1      32.181  20.307  24.585  1.00  0.00    -0.017 S 
ATOM     13  C   UNL A   1      32.767  21.332  25.781  1.00  0.00     0.129 A 
BRANCH  13  14
ATOM     14  N   UNL A   1      31.972  22.178  26.542  1.00  0.00    -0.310 N 
ATOM     15  C   UNL A   1      31.293  23.348  26.374  1.00  0.00     0.286 C 
ATOM     16  H   UNL A   1      31.871  21.838  27.461  1.00  0.00     0.171 HD
ATOM     17  O   UNL A   1      30.585  23.675  27.340  1.00  0.00    -0.267 OA
BRANCH  15  18
ATOM     18  C   UNL A   1      31.387  24.282  25.128  1.00  0.00     0.174 C 
ATOM     19  C   UNL A   1      30.648  25.626  25.352  1.00  0.00     0.079 C 
ATOM     20  C   UNL A   1      32.875  24.546  24.808  1.00  0.00     0.079 C 
ATOM     21  C   UNL A   1      31.352  26.610  26.283  1.00  0.00     0.007 C 
ATOM     22  C   UNL A   1      33.542  25.467  25.833  1.00  0.00     0.007 C 
ATOM     23  C   UNL A   1      32.817  26.800  25.919  1.00  0.00     0.001 C 
BRANCH  18  24
ATOM     24  N   UNL A   1      30.632  23.700  23.992  1.00  0.00    -0.345 N 
ATOM     25  H   UNL A   1      31.217  23.020  23.508  1.00  0.00     0.345 HD
ATOM     26  H   UNL A   1      30.367  24.443  23.344  1.00  0.00     0.345 HD
ATOM     27  H   UNL A   1      29.793  23.239  24.343  1.00  0.00     0.345 HD
ENDBRANCH  18  24
ENDBRANCH  15  18
ENDBRANCH  13  14
ENDBRANCH   5   8
ENDBRANCH   3   4
ENDBRANCH   2   3
ENDBRANCH   1   2
BRANCH   1  28
ATOM     28  C   UNL A   1      40.319  21.625  27.056  1.00  0.00     0.002 C 
BRANCH  28  29
ATOM     29  C   UNL A   1      40.872  20.322  26.453  1.00  0.00     0.021 C 
BRANCH  29  30
ATOM     30  C   UNL A   1      42.194  19.909  27.073  1.00  0.00     0.116 C 
BRANCH  30  31
ATOM     31  N   UNL A   1      43.229  19.712  26.054  1.00  0.00    -0.352 N 
ATOM     32  C   UNL A   1      43.852  20.647  25.248  1.00  0.00     0.251 C 
ATOM     33  H   UNL A   1      43.521  18.781  25.924  1.00  0.00     0.163 HD
ATOM     34  O   UNL A   1      44.443  20.324  24.236  1.00  0.00    -0.269 OA
BRANCH  32  35
ATOM     35  C   UNL A   1      43.792  22.056  25.665  1.00  0.00     0.039 A 
ATOM     36  C   UNL A   1      43.025  23.005  24.985  1.00  0.00     0.014 A 
ATOM     37  C   UNL A   1      44.499  22.393  26.810  1.00  0.00     0.014 A 
ATOM     38  C   UNL A   1      42.938  24.288  25.520  1.00  0.00     0.010 A 
ATOM     39  C   UNL A   1      44.199  23.550  27.460  1.00  0.00     0.010 A 
ATOM     40  C   UNL A   1      43.527  24.543  26.767  1.00  0.00    -0.014 A 
BRANCH  40  41
ATOM     41  C   UNL A   1      43.425  25.832  27.427  1.00  0.00     0.031 A 
ATOM     42  C   UNL A   1      44.483  26.801  27.051  1.00  0.00     0.074 A 
ATOM     43  C   UNL A   1      42.321  26.184  28.124  1.00  0.00     0.049 A 
ATOM     44  N   UNL A   1      45.431  27.261  27.795  1.00  0.00    -0.248 NA
ATOM     45  C   UNL A   1      44.593  27.192  25.635  1.00  0.00     0.031 C 
ATOM     46  C   UNL A   1      41.070  25.433  28.316  1.00  0.00     0.029 A 
ATOM     47  N   UNL A   1      42.049  27.360  28.745  1.00  0.00    -0.354 N 
ATOM     48  C   UNL A   1      46.117  28.179  27.007  1.00  0.00     0.074 A 
ATOM     49  C   UNL A   1      45.695  27.943  25.652  1.00  0.00     0.031 C 
ATOM     50  C   UNL A   1      40.108  26.254  28.790  1.00  0.00     0.029 A 
ATOM     51  C   UNL A   1      40.720  27.525  29.118  1.00  0.00     0.049 A 
ATOM     52  H   UNL A   1      42.737  28.042  28.917  1.00  0.00     0.167 HD
ATOM     53  C   UNL A   1      46.757  29.238  27.573  1.00  0.00     0.037 A 
ATOM     54  C   UNL A   1      40.163  28.639  29.651  1.00  0.00     0.037 A 
ATOM     55  C   UNL A   1      46.963  29.024  28.987  1.00  0.00     0.049 A 
ATOM     56  C   UNL A   1      41.275  29.447  30.213  1.00  0.00     0.074 A 
ATOM     57  C   UNL A   1      47.617  28.070  29.742  1.00  0.00     0.029 A 
ATOM     58  N   UNL A   1      46.112  29.661  29.857  1.00  0.00    -0.354 N 
ATOM     59  N   UNL A   1      42.001  29.060  31.226  1.00  0.00    -0.248 NA
ATOM     60  C   UNL A   1      41.891  30.434  29.342  1.00  0.00     0.031 C 
ATOM     61  C   UNL A   1      46.771  27.853  30.872  1.00  0.00     0.029 A 
ATOM     62  C   UNL A   1      45.693  28.734  30.777  1.00  0.00     0.049 A 
ATOM     63  H   UNL A   1      45.850  30.610  29.827  1.00  0.00     0.167 HD
ATOM     64  C   UNL A   1      43.300  29.420  30.892  1.00  0.00     0.074 A 
ATOM     65  C   UNL A   1      43.158  30.330  29.754  1.00  0.00     0.031 C 
ATOM     66  C   UNL A   1      44.375  28.725  31.370  1.00  0.00     0.037 A 
BRANCH  53  67
ATOM     67  C   UNL A   1      46.817  30.616  26.957  1.00  0.00     0.057 A 
ATOM     68  C   UNL A   1      48.045  31.303  26.944  1.00  0.00     0.134 A 
ATOM     69  C   UNL A   1      45.687  31.409  26.664  1.00  0.00     0.134 A 
ATOM     70  F   UNL A   1      49.193  30.662  27.210  1.00  0.00    -0.206 F 
ATOM     71  C   UNL A   1      48.129  32.687  26.750  1.00  0.00     0.040 A 
ATOM     72  C   UNL A   1      45.767  32.782  26.418  1.00  0.00     0.040 A 
ATOM     73  F   UNL A   1      44.438  30.932  26.700  1.00  0.00    -0.206 F 
ATOM     74  C   UNL A   1      46.985  33.433  26.498  1.00  0.00     0.006 A 
ENDBRANCH  53  67
BRANCH  54  75
ATOM     75  C   UNL A   1      38.810  29.180  29.400  1.00  0.00     0.057 A 
ATOM     76  C   UNL A   1      38.400  29.563  28.117  1.00  0.00     0.134 A 
ATOM     77  C   UNL A   1      37.794  29.084  30.370  1.00  0.00     0.134 A 
ATOM     78  F   UNL A   1      39.288  29.637  27.115  1.00  0.00    -0.206 F 
ATOM     79  C   UNL A   1      37.056  29.823  27.812  1.00  0.00     0.040 A 
ATOM     80  C   UNL A   1      36.451  29.342  30.080  1.00  0.00     0.040 A 
ATOM     81  F   UNL A   1      38.063  28.649  31.611  1.00  0.00    -0.206 F 
ATOM     82  C   UNL A   1      36.075  29.703  28.793  1.00  0.00     0.006 A 
ENDBRANCH  54  75
BRANCH  66  83
ATOM     83  C   UNL A   1      44.124  27.690  32.437  1.00  0.00     0.057 A 
ATOM     84  C   UNL A   1      44.020  26.313  32.186  1.00  0.00     0.134 A 
ATOM     85  C   UNL A   1      44.162  28.079  33.778  1.00  0.00     0.134 A 
ATOM     86  F   UNL A   1      44.071  25.831  30.940  1.00  0.00    -0.206 F 
ATOM     87  C   UNL A   1      43.924  25.371  33.216  1.00  0.00     0.040 A 
ATOM     88  C   UNL A   1      44.096  27.148  34.820  1.00  0.00     0.040 A 
ATOM     89  F   UNL A   1      44.319  29.372  34.101  1.00  0.00    -0.206 F 
ATOM     90  C   UNL A   1      43.970  25.789  34.541  1.00  0.00     0.006 A 
ENDBRANCH  66  83
ENDBRANCH  40  41
ENDBRANCH  32  35
ENDBRANCH  30  31
ENDBRANCH  29  30
ENDBRANCH  28  29
ENDBRANCH   1  28
TORSDOF 16
ENDMDL
