MODEL 1
REMARK VINA RESULT:     -11.2      0.000      0.000
REMARK SMILES O=C(CSc1ccc2ccccc2n1)NCc1ccc(C(=O)NCCCCCCNC(=O)c2ccc(-c3c4nc(c(-c5c(F)cccc5F)c5ccc([nH]5)c(-c5c(F)cccc5F)c5nc(c(-c6c(F)cccc6F)c6ccc3[nH]6)C=C5)C=C4)cc2)cc1
REMARK SMILES IDX 25 1 24 2 23 3 21 4 22 5 20 7 17 8 18 9 88 10 19 11 87 12
REMARK SMILES IDX 16 13 15 14 1 15 2 16 3 18 4 19 5 20 6 21 14 22 7 23 13 24
REMARK SMILES IDX 8 25 12 26 9 27 11 28 10 29 26 30 27 31 28 32 29 33 30 34
REMARK SMILES IDX 31 35 32 37 33 38 34 39 86 40 35 41 85 42 36 43 37 44 38 45
REMARK SMILES IDX 79 46 39 47 84 48 78 49 80 50 40 51 83 52 77 53 76 54 41 56
REMARK SMILES IDX 67 57 50 58 66 59 51 60 54 61 65 62 81 63 52 64 53 65 64 67
REMARK SMILES IDX 82 68 55 69 42 70 43 71 48 72 44 73 45 74 47 75 49 76 46 77
REMARK SMILES IDX 68 78 69 79 74 80 70 81 71 82 73 83 75 84 72 85 56 86 57 87
REMARK SMILES IDX 62 88 58 89 59 90 61 91 63 92 60 93
REMARK H PARENT 23 6 15 17 30 36 80 55 54 66
REMARK Flexibility Score: inf
ROOT
ATOM      1  C   UNL A   1      36.080  21.844  24.882  1.00  0.00     0.021 C 
ENDROOT
BRANCH   1   2
ATOM      2  C   UNL A   1      35.200  21.468  26.076  1.00  0.00     0.116 C 
BRANCH   2   3
ATOM      3  N   UNL A   1      34.154  20.557  25.656  1.00  0.00    -0.352 N 
ATOM      4  C   UNL A   1      32.805  20.712  25.479  1.00  0.00     0.251 C 
ATOM      5  O   UNL A   1      32.166  19.731  25.093  1.00  0.00    -0.269 OA
ATOM      6  H   UNL A   1      34.478  19.647  25.458  1.00  0.00     0.163 HD
BRANCH   4   7
ATOM      7  C   UNL A   1      32.095  22.007  25.667  1.00  0.00     0.039 A 
ATOM      8  C   UNL A   1      30.722  24.480  25.814  1.00  0.00    -0.029 A 
ATOM      9  C   UNL A   1      30.670  23.704  24.651  1.00  0.00     0.006 A 
ATOM     10  C   UNL A   1      31.416  23.970  26.922  1.00  0.00     0.006 A 
ATOM     11  C   UNL A   1      31.359  22.489  24.575  1.00  0.00     0.014 A 
ATOM     12  C   UNL A   1      32.072  22.735  26.857  1.00  0.00     0.014 A 
BRANCH   8  13
ATOM     13  C   UNL A   1      29.983  25.790  25.956  1.00  0.00     0.151 C 
BRANCH  13  14
ATOM     14  N   UNL A   1      30.790  26.952  25.660  1.00  0.00    -0.351 N 
ATOM     15  O   UNL A   1      31.012  27.628  27.836  1.00  0.00    -0.274 OA
ATOM     16  C   UNL A   1      31.299  27.766  26.650  1.00  0.00     0.230 C 
ATOM     17  H   UNL A   1      30.983  27.169  24.719  1.00  0.00     0.163 HD
BRANCH  16  18
ATOM     18  C   UNL A   1      32.170  28.910  26.157  1.00  0.00     0.176 C 
BRANCH  18  19
ATOM     19  S   UNL A   1      33.941  28.482  26.231  1.00  0.00    -0.096 SA
BRANCH  19  20
ATOM     20  C   UNL A   1      33.941  27.074  25.140  1.00  0.00     0.097 A 
ATOM     21  C   UNL A   1      34.432  25.863  25.600  1.00  0.00     0.036 A 
ATOM     22  N   UNL A   1      33.417  27.239  23.907  1.00  0.00    -0.241 NA
ATOM     23  C   UNL A   1      34.393  24.766  24.748  1.00  0.00     0.013 A 
ATOM     24  C   UNL A   1      33.371  26.174  23.084  1.00  0.00     0.072 A 
ATOM     25  C   UNL A   1      33.851  24.902  23.467  1.00  0.00     0.000 A 
ATOM     26  C   UNL A   1      32.825  26.305  21.814  1.00  0.00     0.029 A 
ATOM     27  C   UNL A   1      33.772  23.813  22.582  1.00  0.00     0.010 A 
ATOM     28  C   UNL A   1      32.738  25.222  20.931  1.00  0.00     0.002 A 
ATOM     29  C   UNL A   1      33.212  23.974  21.316  1.00  0.00     0.001 A 
ENDBRANCH  19  20
ENDBRANCH  18  19
ENDBRANCH  16  18
ENDBRANCH  13  14
ENDBRANCH   8  13
ENDBRANCH   4   7
ENDBRANCH   2   3
ENDBRANCH   1   2
BRANCH   1  30
ATOM     30  C   UNL A   1      37.452  21.156  24.898  1.00  0.00     0.002 C 
BRANCH  30  31
ATOM     31  C   UNL A   1      37.420  19.644  24.641  1.00  0.00     0.002 C 
BRANCH  31  32
ATOM     32  C   UNL A   1      38.512  18.843  25.355  1.00  0.00     0.021 C 
BRANCH  32  33
ATOM     33  C   UNL A   1      39.609  19.695  25.986  1.00  0.00     0.116 C 
BRANCH  33  34
ATOM     34  N   UNL A   1      40.886  19.000  26.007  1.00  0.00    -0.352 N 
ATOM     35  C   UNL A   1      42.151  19.509  26.157  1.00  0.00     0.251 C 
ATOM     36  H   UNL A   1      40.836  18.023  25.896  1.00  0.00     0.163 HD
ATOM     37  O   UNL A   1      43.132  18.812  25.923  1.00  0.00    -0.269 OA
BRANCH  35  38
ATOM     38  C   UNL A   1      42.332  20.910  26.593  1.00  0.00     0.039 A 
ATOM     39  C   UNL A   1      42.290  21.207  27.958  1.00  0.00     0.014 A 
ATOM     40  C   UNL A   1      42.522  21.930  25.656  1.00  0.00     0.014 A 
ATOM     41  C   UNL A   1      42.493  22.519  28.387  1.00  0.00     0.010 A 
ATOM     42  C   UNL A   1      42.789  23.227  26.088  1.00  0.00     0.010 A 
ATOM     43  C   UNL A   1      42.773  23.534  27.457  1.00  0.00    -0.014 A 
BRANCH  43  44
ATOM     44  C   UNL A   1      43.053  24.924  27.897  1.00  0.00     0.031 A 
ATOM     45  C   UNL A   1      44.468  25.373  28.127  1.00  0.00     0.074 A 
ATOM     46  C   UNL A   1      42.028  25.759  28.151  1.00  0.00     0.049 A 
ATOM     47  N   UNL A   1      44.909  26.520  28.578  1.00  0.00    -0.248 NA
ATOM     48  C   UNL A   1      45.529  24.396  27.834  1.00  0.00     0.031 C 
ATOM     49  C   UNL A   1      40.610  25.427  28.007  1.00  0.00     0.029 A 
ATOM     50  N   UNL A   1      42.022  27.058  28.595  1.00  0.00    -0.354 N 
ATOM     51  C   UNL A   1      46.291  26.397  28.638  1.00  0.00     0.074 A 
ATOM     52  C   UNL A   1      46.613  25.048  28.223  1.00  0.00     0.031 C 
ATOM     53  C   UNL A   1      39.872  26.499  28.339  1.00  0.00     0.029 A 
ATOM     54  C   UNL A   1      40.762  27.580  28.750  1.00  0.00     0.049 A 
ATOM     55  H   UNL A   1      42.844  27.566  28.784  1.00  0.00     0.167 HD
ATOM     56  C   UNL A   1      47.209  27.330  28.985  1.00  0.00     0.037 A 
ATOM     57  C   UNL A   1      40.367  28.792  29.184  1.00  0.00     0.037 A 
ATOM     58  C   UNL A   1      46.886  28.677  29.375  1.00  0.00     0.049 A 
ATOM     59  C   UNL A   1      41.406  29.808  29.570  1.00  0.00     0.074 A 
ATOM     60  C   UNL A   1      47.748  29.715  29.687  1.00  0.00     0.029 A 
ATOM     61  N   UNL A   1      45.598  29.175  29.505  1.00  0.00    -0.354 N 
ATOM     62  N   UNL A   1      42.712  29.699  29.561  1.00  0.00    -0.248 NA
ATOM     63  C   UNL A   1      40.915  31.117  30.022  1.00  0.00     0.031 C 
ATOM     64  C   UNL A   1      46.979  30.827  30.047  1.00  0.00     0.029 A 
ATOM     65  C   UNL A   1      45.641  30.497  29.915  1.00  0.00     0.049 A 
ATOM     66  H   UNL A   1      44.775  28.662  29.332  1.00  0.00     0.167 HD
ATOM     67  C   UNL A   1      43.200  30.930  29.980  1.00  0.00     0.074 A 
ATOM     68  C   UNL A   1      42.049  31.776  30.221  1.00  0.00     0.031 C 
ATOM     69  C   UNL A   1      44.485  31.325  30.148  1.00  0.00     0.037 A 
BRANCH  56  70
ATOM     70  C   UNL A   1      48.653  26.922  28.956  1.00  0.00     0.057 A 
ATOM     71  C   UNL A   1      49.270  26.310  30.057  1.00  0.00     0.134 A 
ATOM     72  C   UNL A   1      49.429  27.114  27.806  1.00  0.00     0.134 A 
ATOM     73  F   UNL A   1      48.585  26.107  31.193  1.00  0.00    -0.206 F 
ATOM     74  C   UNL A   1      50.612  25.928  30.024  1.00  0.00     0.040 A 
ATOM     75  C   UNL A   1      50.766  26.713  27.752  1.00  0.00     0.040 A 
ATOM     76  F   UNL A   1      48.902  27.689  26.716  1.00  0.00    -0.206 F 
ATOM     77  C   UNL A   1      51.362  26.124  28.866  1.00  0.00     0.006 A 
ENDBRANCH  56  70
BRANCH  57  78
ATOM     78  C   UNL A   1      38.922  29.121  29.255  1.00  0.00     0.057 A 
ATOM     79  C   UNL A   1      38.229  29.566  28.124  1.00  0.00     0.134 A 
ATOM     80  C   UNL A   1      38.202  29.000  30.449  1.00  0.00     0.134 A 
ATOM     81  F   UNL A   1      38.869  29.718  26.956  1.00  0.00    -0.206 F 
ATOM     82  C   UNL A   1      36.874  29.898  28.181  1.00  0.00     0.040 A 
ATOM     83  C   UNL A   1      36.842  29.306  30.515  1.00  0.00     0.040 A 
ATOM     84  F   UNL A   1      38.808  28.571  31.566  1.00  0.00    -0.206 F 
ATOM     85  C   UNL A   1      36.175  29.764  29.379  1.00  0.00     0.006 A 
ENDBRANCH  57  78
BRANCH  69  86
ATOM     86  C   UNL A   1      44.714  32.740  30.588  1.00  0.00     0.057 A 
ATOM     87  C   UNL A   1      44.855  33.081  31.939  1.00  0.00     0.134 A 
ATOM     88  C   UNL A   1      44.830  33.770  29.646  1.00  0.00     0.134 A 
ATOM     89  F   UNL A   1      44.741  32.143  32.891  1.00  0.00    -0.206 F 
ATOM     90  C   UNL A   1      45.082  34.399  32.339  1.00  0.00     0.040 A 
ATOM     91  C   UNL A   1      45.082  35.087  30.030  1.00  0.00     0.040 A 
ATOM     92  F   UNL A   1      44.713  33.510  28.334  1.00  0.00    -0.206 F 
ATOM     93  C   UNL A   1      45.203  35.405  31.381  1.00  0.00     0.006 A 
ENDBRANCH  69  86
ENDBRANCH  43  44
ENDBRANCH  35  38
ENDBRANCH  33  34
ENDBRANCH  32  33
ENDBRANCH  31  32
ENDBRANCH  30  31
ENDBRANCH   1  30
TORSDOF 18
ENDMDL
MODEL 2
REMARK VINA RESULT:     -11.1      1.873      6.419
REMARK SMILES O=C(CSc1ccc2ccccc2n1)NCc1ccc(C(=O)NCCCCCCNC(=O)c2ccc(-c3c4nc(c(-c5c(F)cccc5F)c5ccc([nH]5)c(-c5c(F)cccc5F)c5nc(c(-c6c(F)cccc6F)c6ccc3[nH]6)C=C5)C=C4)cc2)cc1
REMARK SMILES IDX 25 1 24 2 23 3 21 4 22 5 20 7 17 8 18 9 88 10 19 11 87 12
REMARK SMILES IDX 16 13 15 14 1 15 2 16 3 18 4 19 5 20 6 21 14 22 7 23 13 24
REMARK SMILES IDX 8 25 12 26 9 27 11 28 10 29 26 30 27 31 28 32 29 33 30 34
REMARK SMILES IDX 31 35 32 37 33 38 34 39 86 40 35 41 85 42 36 43 37 44 38 45
REMARK SMILES IDX 79 46 39 47 84 48 78 49 80 50 40 51 83 52 77 53 76 54 41 56
REMARK SMILES IDX 67 57 50 58 66 59 51 60 54 61 65 62 81 63 52 64 53 65 64 67
REMARK SMILES IDX 82 68 55 69 42 70 43 71 48 72 44 73 45 74 47 75 49 76 46 77
REMARK SMILES IDX 68 78 69 79 74 80 70 81 71 82 73 83 75 84 72 85 56 86 57 87
REMARK SMILES IDX 62 88 58 89 59 90 61 91 63 92 60 93
REMARK H PARENT 23 6 15 17 30 36 80 55 54 66
REMARK Flexibility Score: inf
ROOT
ATOM      1  C   UNL A   1      36.284  22.912  23.687  1.00  0.00     0.021 C 
ENDROOT
BRANCH   1   2
ATOM      2  C   UNL A   1      35.627  24.096  24.402  1.00  0.00     0.116 C 
BRANCH   2   3
ATOM      3  N   UNL A   1      34.749  23.617  25.451  1.00  0.00    -0.352 N 
ATOM      4  C   UNL A   1      33.743  24.215  26.163  1.00  0.00     0.251 C 
ATOM      5  O   UNL A   1      33.157  23.530  27.003  1.00  0.00    -0.269 OA
ATOM      6  H   UNL A   1      34.905  22.677  25.700  1.00  0.00     0.163 HD
BRANCH   4   7
ATOM      7  C   UNL A   1      33.291  25.614  25.930  1.00  0.00     0.039 A 
ATOM      8  C   UNL A   1      32.243  28.220  25.564  1.00  0.00    -0.029 A 
ATOM      9  C   UNL A   1      31.598  27.304  26.401  1.00  0.00     0.006 A 
ATOM     10  C   UNL A   1      33.453  27.836  24.966  1.00  0.00     0.006 A 
ATOM     11  C   UNL A   1      32.110  26.013  26.570  1.00  0.00     0.014 A 
ATOM     12  C   UNL A   1      33.985  26.557  25.168  1.00  0.00     0.014 A 
BRANCH   8  13
ATOM     13  C   UNL A   1      31.744  29.631  25.359  1.00  0.00     0.151 C 
BRANCH  13  14
ATOM     14  N   UNL A   1      31.025  29.824  24.121  1.00  0.00    -0.351 N 
ATOM     15  O   UNL A   1      29.701  31.524  24.894  1.00  0.00    -0.274 OA
ATOM     16  C   UNL A   1      30.079  30.815  23.966  1.00  0.00     0.230 C 
ATOM     17  H   UNL A   1      31.219  29.227  23.361  1.00  0.00     0.163 HD
BRANCH  16  18
ATOM     18  C   UNL A   1      29.464  30.905  22.577  1.00  0.00     0.176 C 
BRANCH  18  19
ATOM     19  S   UNL A   1      28.066  29.750  22.388  1.00  0.00    -0.096 SA
BRANCH  19  20
ATOM     20  C   UNL A   1      28.900  28.226  22.785  1.00  0.00     0.097 A 
ATOM     21  C   UNL A   1      28.325  27.361  23.702  1.00  0.00     0.036 A 
ATOM     22  N   UNL A   1      30.052  27.956  22.135  1.00  0.00    -0.241 NA
ATOM     23  C   UNL A   1      28.970  26.161  23.975  1.00  0.00     0.013 A 
ATOM     24  C   UNL A   1      30.672  26.789  22.392  1.00  0.00     0.072 A 
ATOM     25  C   UNL A   1      30.161  25.849  23.314  1.00  0.00     0.000 A 
ATOM     26  C   UNL A   1      31.852  26.473  21.730  1.00  0.00     0.029 A 
ATOM     27  C   UNL A   1      30.834  24.636  23.544  1.00  0.00     0.010 A 
ATOM     28  C   UNL A   1      32.522  25.264  21.951  1.00  0.00     0.002 A 
ATOM     29  C   UNL A   1      32.012  24.344  22.859  1.00  0.00     0.001 A 
ENDBRANCH  19  20
ENDBRANCH  18  19
ENDBRANCH  16  18
ENDBRANCH  13  14
ENDBRANCH   8  13
ENDBRANCH   4   7
ENDBRANCH   2   3
ENDBRANCH   1   2
BRANCH   1  30
ATOM     30  C   UNL A   1      37.215  22.096  24.594  1.00  0.00     0.002 C 
BRANCH  30  31
ATOM     31  C   UNL A   1      36.764  20.652  24.851  1.00  0.00     0.002 C 
BRANCH  31  32
ATOM     32  C   UNL A   1      37.899  19.638  25.014  1.00  0.00     0.021 C 
BRANCH  32  33
ATOM     33  C   UNL A   1      39.119  20.172  25.760  1.00  0.00     0.116 C 
BRANCH  33  34
ATOM     34  N   UNL A   1      40.153  19.158  25.895  1.00  0.00    -0.352 N 
ATOM     35  C   UNL A   1      41.499  19.313  26.110  1.00  0.00     0.251 C 
ATOM     36  H   UNL A   1      39.843  18.227  25.821  1.00  0.00     0.163 HD
ATOM     37  O   UNL A   1      42.262  18.363  25.971  1.00  0.00    -0.269 OA
BRANCH  35  38
ATOM     38  C   UNL A   1      42.035  20.635  26.499  1.00  0.00     0.039 A 
ATOM     39  C   UNL A   1      42.484  21.505  25.502  1.00  0.00     0.014 A 
ATOM     40  C   UNL A   1      42.114  21.004  27.845  1.00  0.00     0.014 A 
ATOM     41  C   UNL A   1      42.961  22.769  25.851  1.00  0.00     0.010 A 
ATOM     42  C   UNL A   1      42.529  22.289  28.187  1.00  0.00     0.010 A 
ATOM     43  C   UNL A   1      42.960  23.182  27.194  1.00  0.00    -0.014 A 
BRANCH  43  44
ATOM     44  C   UNL A   1      43.405  24.544  27.580  1.00  0.00     0.031 A 
ATOM     45  C   UNL A   1      42.397  25.580  27.991  1.00  0.00     0.074 A 
ATOM     46  C   UNL A   1      44.710  24.864  27.497  1.00  0.00     0.049 A 
ATOM     47  N   UNL A   1      42.583  26.841  28.293  1.00  0.00    -0.248 NA
ATOM     48  C   UNL A   1      40.991  25.151  28.046  1.00  0.00     0.031 C 
ATOM     49  C   UNL A   1      45.779  23.960  27.071  1.00  0.00     0.029 A 
ATOM     50  N   UNL A   1      45.359  26.045  27.758  1.00  0.00    -0.354 N 
ATOM     51  C   UNL A   1      41.321  27.356  28.558  1.00  0.00     0.074 A 
ATOM     52  C   UNL A   1      40.372  26.285  28.334  1.00  0.00     0.031 C 
ATOM     53  C   UNL A   1      46.951  24.612  27.117  1.00  0.00     0.029 A 
ATOM     54  C   UNL A   1      46.713  25.988  27.542  1.00  0.00     0.049 A 
ATOM     55  H   UNL A   1      44.897  26.857  28.071  1.00  0.00     0.167 HD
ATOM     56  C   UNL A   1      40.985  28.601  28.972  1.00  0.00     0.037 A 
ATOM     57  C   UNL A   1      47.657  26.940  27.664  1.00  0.00     0.037 A 
ATOM     58  C   UNL A   1      41.933  29.656  29.216  1.00  0.00     0.049 A 
ATOM     59  C   UNL A   1      47.258  28.317  28.119  1.00  0.00     0.074 A 
ATOM     60  C   UNL A   1      41.698  30.933  29.694  1.00  0.00     0.029 A 
ATOM     61  N   UNL A   1      43.299  29.555  29.001  1.00  0.00    -0.354 N 
ATOM     62  N   UNL A   1      46.068  28.772  28.427  1.00  0.00    -0.248 NA
ATOM     63  C   UNL A   1      48.333  29.309  28.247  1.00  0.00     0.031 C 
ATOM     64  C   UNL A   1      42.918  31.618  29.728  1.00  0.00     0.029 A 
ATOM     65  C   UNL A   1      43.917  30.754  29.313  1.00  0.00     0.049 A 
ATOM     66  H   UNL A   1      43.761  28.749  28.672  1.00  0.00     0.167 HD
ATOM     67  C   UNL A   1      46.254  30.094  28.810  1.00  0.00     0.074 A 
ATOM     68  C   UNL A   1      47.674  30.363  28.708  1.00  0.00     0.031 C 
ATOM     69  C   UNL A   1      45.333  31.003  29.210  1.00  0.00     0.037 A 
BRANCH  56  70
ATOM     70  C   UNL A   1      39.528  28.887  29.189  1.00  0.00     0.057 A 
ATOM     71  C   UNL A   1      38.699  29.331  28.148  1.00  0.00     0.134 A 
ATOM     72  C   UNL A   1      38.937  28.686  30.442  1.00  0.00     0.134 A 
ATOM     73  F   UNL A   1      39.206  29.554  26.925  1.00  0.00    -0.206 F 
ATOM     74  C   UNL A   1      37.344  29.592  28.353  1.00  0.00     0.040 A 
ATOM     75  C   UNL A   1      37.576  28.919  30.654  1.00  0.00     0.040 A 
ATOM     76  F   UNL A   1      39.669  28.258  31.480  1.00  0.00    -0.206 F 
ATOM     77  C   UNL A   1      36.778  29.379  29.608  1.00  0.00     0.006 A 
ENDBRANCH  56  70
BRANCH  57  78
ATOM     78  C   UNL A   1      49.077  26.621  27.373  1.00  0.00     0.057 A 
ATOM     79  C   UNL A   1      49.623  26.862  26.108  1.00  0.00     0.134 A 
ATOM     80  C   UNL A   1      49.918  26.069  28.346  1.00  0.00     0.134 A 
ATOM     81  F   UNL A   1      48.862  27.373  25.129  1.00  0.00    -0.206 F 
ATOM     82  C   UNL A   1      50.951  26.549  25.813  1.00  0.00     0.040 A 
ATOM     83  C   UNL A   1      51.254  25.773  28.073  1.00  0.00     0.040 A 
ATOM     84  F   UNL A   1      49.455  25.821  29.580  1.00  0.00    -0.206 F 
ATOM     85  C   UNL A   1      51.773  26.007  26.799  1.00  0.00     0.006 A 
ENDBRANCH  57  78
BRANCH  69  86
ATOM     86  C   UNL A   1      45.835  32.363  29.595  1.00  0.00     0.057 A 
ATOM     87  C   UNL A   1      46.253  32.655  30.899  1.00  0.00     0.134 A 
ATOM     88  C   UNL A   1      45.933  33.384  28.641  1.00  0.00     0.134 A 
ATOM     89  F   UNL A   1      46.171  31.725  31.863  1.00  0.00    -0.206 F 
ATOM     90  C   UNL A   1      46.732  33.919  31.246  1.00  0.00     0.040 A 
ATOM     91  C   UNL A   1      46.434  34.644  28.968  1.00  0.00     0.040 A 
ATOM     92  F   UNL A   1      45.556  33.168  27.371  1.00  0.00    -0.206 F 
ATOM     93  C   UNL A   1      46.830  34.915  30.276  1.00  0.00     0.006 A 
ENDBRANCH  69  86
ENDBRANCH  43  44
ENDBRANCH  35  38
ENDBRANCH  33  34
ENDBRANCH  32  33
ENDBRANCH  31  32
ENDBRANCH  30  31
ENDBRANCH   1  30
TORSDOF 18
ENDMDL
MODEL 3
REMARK VINA RESULT:     -11.1      1.680      6.419
REMARK SMILES O=C(CSc1ccc2ccccc2n1)NCc1ccc(C(=O)NCCCCCCNC(=O)c2ccc(-c3c4nc(c(-c5c(F)cccc5F)c5ccc([nH]5)c(-c5c(F)cccc5F)c5nc(c(-c6c(F)cccc6F)c6ccc3[nH]6)C=C5)C=C4)cc2)cc1
REMARK SMILES IDX 25 1 24 2 23 3 21 4 22 5 20 7 17 8 18 9 88 10 19 11 87 12
REMARK SMILES IDX 16 13 15 14 1 15 2 16 3 18 4 19 5 20 6 21 14 22 7 23 13 24
REMARK SMILES IDX 8 25 12 26 9 27 11 28 10 29 26 30 27 31 28 32 29 33 30 34
REMARK SMILES IDX 31 35 32 37 33 38 34 39 86 40 35 41 85 42 36 43 37 44 38 45
REMARK SMILES IDX 79 46 39 47 84 48 78 49 80 50 40 51 83 52 77 53 76 54 41 56
REMARK SMILES IDX 67 57 50 58 66 59 51 60 54 61 65 62 81 63 52 64 53 65 64 67
REMARK SMILES IDX 82 68 55 69 42 70 43 71 48 72 44 73 45 74 47 75 49 76 46 77
REMARK SMILES IDX 68 78 69 79 74 80 70 81 71 82 73 83 75 84 72 85 56 86 57 87
REMARK SMILES IDX 62 88 58 89 59 90 61 91 63 92 60 93
REMARK H PARENT 23 6 15 17 30 36 80 55 54 66
REMARK Flexibility Score: inf
ROOT
ATOM      1  C   UNL A   1      36.135  23.021  23.632  1.00  0.00     0.021 C 
ENDROOT
BRANCH   1   2
ATOM      2  C   UNL A   1      34.755  23.636  23.883  1.00  0.00     0.116 C 
BRANCH   2   3
ATOM      3  N   UNL A   1      34.346  23.395  25.253  1.00  0.00    -0.352 N 
ATOM      4  C   UNL A   1      33.205  23.699  25.947  1.00  0.00     0.251 C 
ATOM      5  O   UNL A   1      33.145  23.345  27.125  1.00  0.00    -0.269 OA
ATOM      6  H   UNL A   1      35.020  22.917  25.789  1.00  0.00     0.163 HD
BRANCH   4   7
ATOM      7  C   UNL A   1      32.027  24.373  25.335  1.00  0.00     0.039 A 
ATOM      8  C   UNL A   1      29.718  25.698  24.367  1.00  0.00    -0.029 A 
ATOM      9  C   UNL A   1      30.135  25.869  25.691  1.00  0.00     0.006 A 
ATOM     10  C   UNL A   1      30.508  24.908  23.518  1.00  0.00     0.006 A 
ATOM     11  C   UNL A   1      31.268  25.204  26.171  1.00  0.00     0.014 A 
ATOM     12  C   UNL A   1      31.665  24.275  23.991  1.00  0.00     0.014 A 
BRANCH   8  13
ATOM     13  C   UNL A   1      28.513  26.405  23.792  1.00  0.00     0.151 C 
BRANCH  13  14
ATOM     14  N   UNL A   1      28.758  27.783  23.436  1.00  0.00    -0.351 N 
ATOM     15  O   UNL A   1      26.553  28.400  23.403  1.00  0.00    -0.274 OA
ATOM     16  C   UNL A   1      27.739  28.706  23.322  1.00  0.00     0.230 C 
ATOM     17  H   UNL A   1      29.684  28.074  23.270  1.00  0.00     0.163 HD
BRANCH  16  18
ATOM     18  C   UNL A   1      28.188  30.121  22.993  1.00  0.00     0.176 C 
BRANCH  18  19
ATOM     19  S   UNL A   1      29.616  30.124  21.860  1.00  0.00    -0.096 SA
BRANCH  19  20
ATOM     20  C   UNL A   1      30.825  29.358  22.922  1.00  0.00     0.097 A 
ATOM     21  C   UNL A   1      31.761  28.499  22.370  1.00  0.00     0.036 A 
ATOM     22  N   UNL A   1      30.800  29.682  24.232  1.00  0.00    -0.241 NA
ATOM     23  C   UNL A   1      32.718  27.936  23.206  1.00  0.00     0.013 A 
ATOM     24  C   UNL A   1      31.733  29.144  25.041  1.00  0.00     0.072 A 
ATOM     25  C   UNL A   1      32.724  28.257  24.566  1.00  0.00     0.000 A 
ATOM     26  C   UNL A   1      31.747  29.468  26.392  1.00  0.00     0.029 A 
ATOM     27  C   UNL A   1      33.687  27.727  25.442  1.00  0.00     0.010 A 
ATOM     28  C   UNL A   1      32.707  28.949  27.267  1.00  0.00     0.002 A 
ATOM     29  C   UNL A   1      33.680  28.077  26.791  1.00  0.00     0.001 A 
ENDBRANCH  19  20
ENDBRANCH  18  19
ENDBRANCH  16  18
ENDBRANCH  13  14
ENDBRANCH   8  13
ENDBRANCH   4   7
ENDBRANCH   2   3
ENDBRANCH   1   2
BRANCH   1  30
ATOM     30  C   UNL A   1      36.712  22.303  24.860  1.00  0.00     0.002 C 
BRANCH  30  31
ATOM     31  C   UNL A   1      36.421  20.799  24.926  1.00  0.00     0.002 C 
BRANCH  31  32
ATOM     32  C   UNL A   1      37.657  19.897  24.876  1.00  0.00     0.021 C 
BRANCH  32  33
ATOM     33  C   UNL A   1      38.834  20.394  25.711  1.00  0.00     0.116 C 
BRANCH  33  34
ATOM     34  N   UNL A   1      39.889  19.397  25.801  1.00  0.00    -0.352 N 
ATOM     35  C   UNL A   1      41.223  19.566  26.074  1.00  0.00     0.251 C 
ATOM     36  H   UNL A   1      39.606  18.468  25.642  1.00  0.00     0.163 HD
ATOM     37  O   UNL A   1      42.014  18.648  25.886  1.00  0.00    -0.269 OA
BRANCH  35  38
ATOM     38  C   UNL A   1      41.711  20.864  26.586  1.00  0.00     0.039 A 
ATOM     39  C   UNL A   1      42.168  21.822  25.677  1.00  0.00     0.014 A 
ATOM     40  C   UNL A   1      41.737  21.125  27.959  1.00  0.00     0.014 A 
ATOM     41  C   UNL A   1      42.600  23.065  26.143  1.00  0.00     0.010 A 
ATOM     42  C   UNL A   1      42.107  22.387  28.417  1.00  0.00     0.010 A 
ATOM     43  C   UNL A   1      42.546  23.368  27.513  1.00  0.00    -0.014 A 
BRANCH  43  44
ATOM     44  C   UNL A   1      42.942  24.704  28.022  1.00  0.00     0.031 A 
ATOM     45  C   UNL A   1      41.900  25.756  28.277  1.00  0.00     0.074 A 
ATOM     46  C   UNL A   1      44.247  24.990  28.191  1.00  0.00     0.049 A 
ATOM     47  N   UNL A   1      42.055  27.000  28.651  1.00  0.00    -0.248 NA
ATOM     48  C   UNL A   1      40.498  25.365  28.058  1.00  0.00     0.031 C 
ATOM     49  C   UNL A   1      45.356  24.068  27.937  1.00  0.00     0.029 A 
ATOM     50  N   UNL A   1      44.863  26.143  28.608  1.00  0.00    -0.354 N 
ATOM     51  C   UNL A   1      40.777  27.543  28.699  1.00  0.00     0.074 A 
ATOM     52  C   UNL A   1      39.863  26.507  28.267  1.00  0.00     0.031 C 
ATOM     53  C   UNL A   1      46.514  24.686  28.220  1.00  0.00     0.029 A 
ATOM     54  C   UNL A   1      46.233  26.055  28.642  1.00  0.00     0.049 A 
ATOM     55  H   UNL A   1      44.369  26.958  28.858  1.00  0.00     0.167 HD
ATOM     56  C   UNL A   1      40.399  28.784  29.087  1.00  0.00     0.037 A 
ATOM     57  C   UNL A   1      47.159  26.975  28.968  1.00  0.00     0.037 A 
ATOM     58  C   UNL A   1      41.309  29.804  29.537  1.00  0.00     0.049 A 
ATOM     59  C   UNL A   1      46.713  28.348  29.390  1.00  0.00     0.074 A 
ATOM     60  C   UNL A   1      41.018  31.072  30.009  1.00  0.00     0.029 A 
ATOM     61  N   UNL A   1      42.689  29.670  29.573  1.00  0.00    -0.354 N 
ATOM     62  N   UNL A   1      45.498  28.827  29.490  1.00  0.00    -0.248 NA
ATOM     63  C   UNL A   1      47.769  29.305  29.748  1.00  0.00     0.031 C 
ATOM     64  C   UNL A   1      42.226  31.721  30.290  1.00  0.00     0.029 A 
ATOM     65  C   UNL A   1      43.265  30.842  30.036  1.00  0.00     0.049 A 
ATOM     66  H   UNL A   1      43.185  28.863  29.307  1.00  0.00     0.167 HD
ATOM     67  C   UNL A   1      45.640  30.132  29.947  1.00  0.00     0.074 A 
ATOM     68  C   UNL A   1      47.059  30.363  30.117  1.00  0.00     0.031 C 
ATOM     69  C   UNL A   1      44.680  31.054  30.203  1.00  0.00     0.037 A 
BRANCH  56  70
ATOM     70  C   UNL A   1      38.933  29.105  29.042  1.00  0.00     0.057 A 
ATOM     71  C   UNL A   1      38.302  29.511  27.858  1.00  0.00     0.134 A 
ATOM     72  C   UNL A   1      38.136  28.976  30.187  1.00  0.00     0.134 A 
ATOM     73  F   UNL A   1      39.010  29.665  26.729  1.00  0.00    -0.206 F 
ATOM     74  C   UNL A   1      36.937  29.804  27.821  1.00  0.00     0.040 A 
ATOM     75  C   UNL A   1      36.766  29.241  30.156  1.00  0.00     0.040 A 
ATOM     76  F   UNL A   1      38.674  28.586  31.351  1.00  0.00    -0.206 F 
ATOM     77  C   UNL A   1      36.165  29.663  28.971  1.00  0.00     0.006 A 
ENDBRANCH  56  70
BRANCH  57  78
ATOM     78  C   UNL A   1      48.600  26.624  28.932  1.00  0.00     0.057 A 
ATOM     79  C   UNL A   1      49.361  26.829  27.775  1.00  0.00     0.134 A 
ATOM     80  C   UNL A   1      49.250  26.079  30.045  1.00  0.00     0.134 A 
ATOM     81  F   UNL A   1      48.790  27.333  26.671  1.00  0.00    -0.206 F 
ATOM     82  C   UNL A   1      50.713  26.486  27.720  1.00  0.00     0.040 A 
ATOM     83  C   UNL A   1      50.607  25.753  30.011  1.00  0.00     0.040 A 
ATOM     84  F   UNL A   1      48.577  25.866  31.185  1.00  0.00    -0.206 F 
ATOM     85  C   UNL A   1      51.341  25.951  28.842  1.00  0.00     0.006 A 
ENDBRANCH  57  78
BRANCH  69  86
ATOM     86  C   UNL A   1      45.133  32.387  30.720  1.00  0.00     0.057 A 
ATOM     87  C   UNL A   1      45.299  32.630  32.090  1.00  0.00     0.134 A 
ATOM     88  C   UNL A   1      45.440  33.428  29.836  1.00  0.00     0.134 A 
ATOM     89  F   UNL A   1      45.008  31.678  32.989  1.00  0.00    -0.206 F 
ATOM     90  C   UNL A   1      45.734  33.869  32.563  1.00  0.00     0.040 A 
ATOM     91  C   UNL A   1      45.900  34.663  30.295  1.00  0.00     0.040 A 
ATOM     92  F   UNL A   1      45.311  33.258  28.512  1.00  0.00    -0.206 F 
ATOM     93  C   UNL A   1      46.042  34.887  31.662  1.00  0.00     0.006 A 
ENDBRANCH  69  86
ENDBRANCH  43  44
ENDBRANCH  35  38
ENDBRANCH  33  34
ENDBRANCH  32  33
ENDBRANCH  31  32
ENDBRANCH  30  31
ENDBRANCH   1  30
TORSDOF 18
ENDMDL
