MODEL 1
REMARK VINA RESULT:     -10.6      0.000      0.000
REMARK SMILES C[C@H]1CN(C(=O)NCCOCC(=O)NCCCCCCNC(=O)c2ccc(-c3c4nc(c(-c5c(F)cccc5F)c5ccc([nH]5)c(-c5c(F)cccc5F)c5nc(c(-c6c(F)cccc6F)c6ccc3[nH]6)C=C5)C=C4)cc2)CC[N@@H+]1C
REMARK SMILES IDX 16 1 15 2 14 3 12 4 13 5 11 7 10 8 9 9 8 10 7 11 5 12 6 13
REMARK SMILES IDX 4 15 1 16 2 17 3 18 80 19 79 20 81 21 78 23 17 24 18 25
REMARK SMILES IDX 19 26 20 27 21 28 22 29 23 31 24 32 25 33 77 34 26 35 76 36
REMARK SMILES IDX 27 37 28 38 29 39 70 40 30 41 75 42 69 43 71 44 31 45 74 46
REMARK SMILES IDX 68 47 67 48 32 50 58 51 41 52 57 53 42 54 45 55 56 56 72 57
REMARK SMILES IDX 43 58 44 59 55 61 73 62 46 63 33 64 34 65 39 66 35 67 36 68
REMARK SMILES IDX 38 69 40 70 37 71 59 72 60 73 65 74 61 75 62 76 64 77 66 78
REMARK SMILES IDX 63 79 47 80 48 81 53 82 49 83 50 84 52 85 54 86 51 87
REMARK H PARENT 14 6 7 14 80 22 21 30 71 49 45 60
REMARK Flexibility Score: inf
ROOT
ATOM      1  C   UNL A   1      33.954  28.854  26.171  1.00  0.00     0.021 C 
ENDROOT
BRANCH   1   2
ATOM      2  C   UNL A   1      33.667  27.355  26.208  1.00  0.00     0.116 C 
BRANCH   2   3
ATOM      3  N   UNL A   1      33.984  26.723  24.945  1.00  0.00    -0.354 N 
ATOM      4  C   UNL A   1      33.125  26.376  23.943  1.00  0.00     0.245 C 
ATOM      5  O   UNL A   1      33.573  25.845  22.929  1.00  0.00    -0.272 OA
ATOM      6  H   UNL A   1      34.934  26.520  24.789  1.00  0.00     0.163 HD
BRANCH   4   7
ATOM      7  C   UNL A   1      31.637  26.690  24.114  1.00  0.00     0.260 C 
BRANCH   7   8
ATOM      8  O   UNL A   1      30.954  25.985  25.140  1.00  0.00    -0.370 OA
BRANCH   8   9
ATOM      9  C   UNL A   1      29.523  26.004  25.039  1.00  0.00     0.182 C 
BRANCH   9  10
ATOM     10  C   UNL A   1      29.036  26.308  23.616  1.00  0.00     0.146 C 
BRANCH  10  11
ATOM     11  N   UNL A   1      27.929  27.250  23.588  1.00  0.00    -0.336 N 
ATOM     12  C   UNL A   1      27.709  28.518  23.210  1.00  0.00     0.317 C 
ATOM     13  O   UNL A   1      26.549  28.905  23.388  1.00  0.00    -0.249 OA
ATOM     14  H   UNL A   1      27.109  26.841  23.946  1.00  0.00     0.165 HD
BRANCH  12  15
ATOM     15  N   UNL A   1      28.645  29.311  22.625  1.00  0.00    -0.313 N 
ATOM     16  C   UNL A   1      27.976  32.330  20.436  1.00  0.00     0.077 C 
ATOM     17  C   UNL A   1      28.177  31.544  21.733  1.00  0.00     0.200 C 
ATOM     18  C   UNL A   1      28.575  30.081  21.388  1.00  0.00     0.186 C 
ATOM     19  N   UNL A   1      29.216  32.151  22.620  1.00  0.00    -0.332 N 
ATOM     20  C   UNL A   1      29.427  31.302  23.828  1.00  0.00     0.284 C 
ATOM     21  C   UNL A   1      28.884  33.513  23.039  1.00  0.00     0.333 C 
ATOM     22  H   UNL A   1      30.073  32.200  22.068  1.00  0.00     0.348 HD
ATOM     23  C   UNL A   1      29.717  29.824  23.485  1.00  0.00     0.183 C 
ENDBRANCH  12  15
ENDBRANCH  10  11
ENDBRANCH   9  10
ENDBRANCH   8   9
ENDBRANCH   7   8
ENDBRANCH   4   7
ENDBRANCH   2   3
ENDBRANCH   1   2
BRANCH   1  24
ATOM     24  C   UNL A   1      33.155  29.674  27.190  1.00  0.00     0.002 C 
BRANCH  24  25
ATOM     25  C   UNL A   1      31.789  30.169  26.702  1.00  0.00     0.002 C 
BRANCH  25  26
ATOM     26  C   UNL A   1      31.562  31.677  26.832  1.00  0.00     0.021 C 
BRANCH  26  27
ATOM     27  C   UNL A   1      32.810  32.477  27.185  1.00  0.00     0.116 C 
BRANCH  27  28
ATOM     28  N   UNL A   1      32.502  33.862  27.501  1.00  0.00    -0.352 N 
ATOM     29  C   UNL A   1      33.066  34.690  28.440  1.00  0.00     0.251 C 
ATOM     30  H   UNL A   1      31.784  34.266  26.962  1.00  0.00     0.163 HD
ATOM     31  O   UNL A   1      32.544  35.767  28.706  1.00  0.00    -0.269 OA
BRANCH  29  32
ATOM     32  C   UNL A   1      34.291  34.268  29.151  1.00  0.00     0.039 A 
ATOM     33  C   UNL A   1      34.166  33.604  30.372  1.00  0.00     0.014 A 
ATOM     34  C   UNL A   1      35.557  34.520  28.613  1.00  0.00     0.014 A 
ATOM     35  C   UNL A   1      35.307  33.126  31.019  1.00  0.00     0.010 A 
ATOM     36  C   UNL A   1      36.687  33.980  29.222  1.00  0.00     0.010 A 
ATOM     37  C   UNL A   1      36.573  33.270  30.426  1.00  0.00    -0.014 A 
BRANCH  37  38
ATOM     38  C   UNL A   1      37.777  32.648  31.034  1.00  0.00     0.031 A 
ATOM     39  C   UNL A   1      38.399  31.425  30.420  1.00  0.00     0.074 A 
ATOM     40  C   UNL A   1      38.272  33.153  32.181  1.00  0.00     0.049 A 
ATOM     41  N   UNL A   1      39.414  30.714  30.844  1.00  0.00    -0.248 NA
ATOM     42  C   UNL A   1      37.788  30.919  29.181  1.00  0.00     0.031 C 
ATOM     43  C   UNL A   1      37.727  34.308  32.900  1.00  0.00     0.029 A 
ATOM     44  N   UNL A   1      39.335  32.755  32.952  1.00  0.00    -0.354 N 
ATOM     45  C   UNL A   1      39.559  29.678  29.932  1.00  0.00     0.074 A 
ATOM     46  C   UNL A   1      38.498  29.821  28.958  1.00  0.00     0.031 C 
ATOM     47  C   UNL A   1      38.472  34.537  33.993  1.00  0.00     0.029 A 
ATOM     48  C   UNL A   1      39.517  33.522  34.079  1.00  0.00     0.049 A 
ATOM     49  H   UNL A   1      39.912  31.993  32.720  1.00  0.00     0.167 HD
ATOM     50  C   UNL A   1      40.502  28.707  29.897  1.00  0.00     0.037 A 
ATOM     51  C   UNL A   1      40.414  33.412  35.076  1.00  0.00     0.037 A 
ATOM     52  C   UNL A   1      41.566  28.576  30.860  1.00  0.00     0.049 A 
ATOM     53  C   UNL A   1      41.435  32.308  35.026  1.00  0.00     0.074 A 
ATOM     54  C   UNL A   1      42.607  27.664  30.875  1.00  0.00     0.029 A 
ATOM     55  N   UNL A   1      41.719  29.375  31.984  1.00  0.00    -0.354 N 
ATOM     56  N   UNL A   1      41.608  31.383  34.113  1.00  0.00    -0.248 NA
ATOM     57  C   UNL A   1      42.388  32.236  36.142  1.00  0.00     0.031 C 
ATOM     58  C   UNL A   1      43.355  27.872  32.037  1.00  0.00     0.029 A 
ATOM     59  C   UNL A   1      42.818  28.953  32.717  1.00  0.00     0.049 A 
ATOM     60  H   UNL A   1      41.134  30.129  32.226  1.00  0.00     0.167 HD
ATOM     61  C   UNL A   1      42.701  30.636  34.532  1.00  0.00     0.074 A 
ATOM     62  C   UNL A   1      43.164  31.230  35.768  1.00  0.00     0.031 C 
ATOM     63  C   UNL A   1      43.268  29.554  33.946  1.00  0.00     0.037 A 
BRANCH  50  64
ATOM     64  C   UNL A   1      40.434  27.704  28.781  1.00  0.00     0.057 A 
ATOM     65  C   UNL A   1      39.640  26.553  28.867  1.00  0.00     0.134 A 
ATOM     66  C   UNL A   1      41.123  27.924  27.581  1.00  0.00     0.134 A 
ATOM     67  F   UNL A   1      38.962  26.278  29.992  1.00  0.00    -0.206 F 
ATOM     68  C   UNL A   1      39.551  25.646  27.810  1.00  0.00     0.040 A 
ATOM     69  C   UNL A   1      41.018  27.039  26.507  1.00  0.00     0.040 A 
ATOM     70  F   UNL A   1      41.895  29.010  27.426  1.00  0.00    -0.206 F 
ATOM     71  C   UNL A   1      40.234  25.893  26.621  1.00  0.00     0.006 A 
ENDBRANCH  50  64
BRANCH  51  72
ATOM     72  C   UNL A   1      40.391  34.370  36.212  1.00  0.00     0.057 A 
ATOM     73  C   UNL A   1      39.556  34.166  37.316  1.00  0.00     0.134 A 
ATOM     74  C   UNL A   1      41.187  35.522  36.211  1.00  0.00     0.134 A 
ATOM     75  F   UNL A   1      38.755  33.090  37.367  1.00  0.00    -0.206 F 
ATOM     76  C   UNL A   1      39.490  35.084  38.364  1.00  0.00     0.040 A 
ATOM     77  C   UNL A   1      41.155  36.434  37.267  1.00  0.00     0.040 A 
ATOM     78  F   UNL A   1      42.016  35.774  35.188  1.00  0.00    -0.206 F 
ATOM     79  C   UNL A   1      40.296  36.222  38.343  1.00  0.00     0.006 A 
ENDBRANCH  51  72
BRANCH  63  80
ATOM     80  C   UNL A   1      44.470  28.958  34.621  1.00  0.00     0.057 A 
ATOM     81  C   UNL A   1      44.357  27.918  35.554  1.00  0.00     0.134 A 
ATOM     82  C   UNL A   1      45.760  29.406  34.307  1.00  0.00     0.134 A 
ATOM     83  F   UNL A   1      43.150  27.452  35.909  1.00  0.00    -0.206 F 
ATOM     84  C   UNL A   1      45.482  27.365  36.169  1.00  0.00     0.040 A 
ATOM     85  C   UNL A   1      46.894  28.839  34.893  1.00  0.00     0.040 A 
ATOM     86  F   UNL A   1      45.942  30.391  33.415  1.00  0.00    -0.206 F 
ATOM     87  C   UNL A   1      46.755  27.821  35.833  1.00  0.00     0.006 A 
ENDBRANCH  63  80
ENDBRANCH  37  38
ENDBRANCH  29  32
ENDBRANCH  27  28
ENDBRANCH  26  27
ENDBRANCH  25  26
ENDBRANCH  24  25
ENDBRANCH   1  24
TORSDOF 18
ENDMDL
MODEL 2
REMARK VINA RESULT:     -10.6      4.340      8.971
REMARK SMILES C[C@H]1CN(C(=O)NCCOCC(=O)NCCCCCCNC(=O)c2ccc(-c3c4nc(c(-c5c(F)cccc5F)c5ccc([nH]5)c(-c5c(F)cccc5F)c5nc(c(-c6c(F)cccc6F)c6ccc3[nH]6)C=C5)C=C4)cc2)CC[N@@H+]1C
REMARK SMILES IDX 16 1 15 2 14 3 12 4 13 5 11 7 10 8 9 9 8 10 7 11 5 12 6 13
REMARK SMILES IDX 4 15 1 16 2 17 3 18 80 19 79 20 81 21 78 23 17 24 18 25
REMARK SMILES IDX 19 26 20 27 21 28 22 29 23 31 24 32 25 33 77 34 26 35 76 36
REMARK SMILES IDX 27 37 28 38 29 39 70 40 30 41 75 42 69 43 71 44 31 45 74 46
REMARK SMILES IDX 68 47 67 48 32 50 58 51 41 52 57 53 42 54 45 55 56 56 72 57
REMARK SMILES IDX 43 58 44 59 55 61 73 62 46 63 33 64 34 65 39 66 35 67 36 68
REMARK SMILES IDX 38 69 40 70 37 71 59 72 60 73 65 74 61 75 62 76 64 77 66 78
REMARK SMILES IDX 63 79 47 80 48 81 53 82 49 83 50 84 52 85 54 86 51 87
REMARK H PARENT 14 6 7 14 80 22 21 30 71 49 45 60
REMARK Flexibility Score: inf
ROOT
ATOM      1  C   UNL A   1      33.928  21.356  24.509  1.00  0.00     0.021 C 
ENDROOT
BRANCH   1   2
ATOM      2  C   UNL A   1      32.564  21.040  25.116  1.00  0.00     0.116 C 
BRANCH   2   3
ATOM      3  N   UNL A   1      32.329  21.809  26.320  1.00  0.00    -0.354 N 
ATOM      4  C   UNL A   1      31.554  22.923  26.463  1.00  0.00     0.245 C 
ATOM      5  O   UNL A   1      31.467  23.451  27.570  1.00  0.00    -0.272 OA
ATOM      6  H   UNL A   1      32.782  21.489  27.132  1.00  0.00     0.163 HD
BRANCH   4   7
ATOM      7  C   UNL A   1      30.802  23.455  25.241  1.00  0.00     0.260 C 
BRANCH   7   8
ATOM      8  O   UNL A   1      31.383  24.566  24.573  1.00  0.00    -0.370 OA
BRANCH   8   9
ATOM      9  C   UNL A   1      30.575  25.138  23.535  1.00  0.00     0.182 C 
BRANCH   9  10
ATOM     10  C   UNL A   1      29.724  26.314  24.030  1.00  0.00     0.146 C 
BRANCH  10  11
ATOM     11  N   UNL A   1      29.627  27.390  23.057  1.00  0.00    -0.336 N 
ATOM     12  C   UNL A   1      30.229  28.562  22.804  1.00  0.00     0.317 C 
ATOM     13  O   UNL A   1      29.782  29.158  21.819  1.00  0.00    -0.249 OA
ATOM     14  H   UNL A   1      28.922  27.206  22.397  1.00  0.00     0.165 HD
BRANCH  12  15
ATOM     15  N   UNL A   1      31.280  29.048  23.517  1.00  0.00    -0.313 N 
ATOM     16  C   UNL A   1      31.792  28.725  27.257  1.00  0.00     0.077 C 
ATOM     17  C   UNL A   1      31.845  28.313  25.784  1.00  0.00     0.200 C 
ATOM     18  C   UNL A   1      31.340  29.491  24.905  1.00  0.00     0.186 C 
ATOM     19  N   UNL A   1      33.217  27.913  25.346  1.00  0.00    -0.332 N 
ATOM     20  C   UNL A   1      33.226  27.600  23.888  1.00  0.00     0.284 C 
ATOM     21  C   UNL A   1      33.742  26.767  26.090  1.00  0.00     0.333 C 
ATOM     22  H   UNL A   1      33.825  28.709  25.541  1.00  0.00     0.348 HD
ATOM     23  C   UNL A   1      32.623  28.730  23.024  1.00  0.00     0.183 C 
ENDBRANCH  12  15
ENDBRANCH  10  11
ENDBRANCH   9  10
ENDBRANCH   8   9
ENDBRANCH   7   8
ENDBRANCH   4   7
ENDBRANCH   2   3
ENDBRANCH   1   2
BRANCH   1  24
ATOM     24  C   UNL A   1      35.059  20.436  24.985  1.00  0.00     0.002 C 
BRANCH  24  25
ATOM     25  C   UNL A   1      36.473  20.999  24.815  1.00  0.00     0.002 C 
BRANCH  25  26
ATOM     26  C   UNL A   1      37.599  19.968  24.931  1.00  0.00     0.021 C 
BRANCH  26  27
ATOM     27  C   UNL A   1      38.824  20.451  25.698  1.00  0.00     0.116 C 
BRANCH  27  28
ATOM     28  N   UNL A   1      39.866  19.439  25.761  1.00  0.00    -0.352 N 
ATOM     29  C   UNL A   1      41.198  19.574  26.066  1.00  0.00     0.251 C 
ATOM     30  H   UNL A   1      39.572  18.522  25.555  1.00  0.00     0.163 HD
ATOM     31  O   UNL A   1      41.972  18.644  25.874  1.00  0.00    -0.269 OA
BRANCH  29  32
ATOM     32  C   UNL A   1      41.702  20.856  26.602  1.00  0.00     0.039 A 
ATOM     33  C   UNL A   1      42.231  21.795  25.715  1.00  0.00     0.014 A 
ATOM     34  C   UNL A   1      41.649  21.133  27.972  1.00  0.00     0.014 A 
ATOM     35  C   UNL A   1      42.639  23.043  26.192  1.00  0.00     0.010 A 
ATOM     36  C   UNL A   1      41.987  22.402  28.434  1.00  0.00     0.010 A 
ATOM     37  C   UNL A   1      42.477  23.373  27.548  1.00  0.00    -0.014 A 
BRANCH  37  38
ATOM     38  C   UNL A   1      42.777  24.740  28.043  1.00  0.00     0.031 A 
ATOM     39  C   UNL A   1      44.174  25.120  28.444  1.00  0.00     0.074 A 
ATOM     40  C   UNL A   1      41.769  25.624  28.190  1.00  0.00     0.049 A 
ATOM     41  N   UNL A   1      44.610  26.246  28.951  1.00  0.00    -0.248 NA
ATOM     42  C   UNL A   1      45.216  24.095  28.276  1.00  0.00     0.031 C 
ATOM     43  C   UNL A   1      40.361  25.359  27.881  1.00  0.00     0.029 A 
ATOM     44  N   UNL A   1      41.769  26.917  28.648  1.00  0.00    -0.354 N 
ATOM     45  C   UNL A   1      45.969  26.063  29.168  1.00  0.00     0.074 A 
ATOM     46  C   UNL A   1      46.278  24.703  28.785  1.00  0.00     0.031 C 
ATOM     47  C   UNL A   1      39.640  26.461  28.137  1.00  0.00     0.029 A 
ATOM     48  C   UNL A   1      40.521  27.494  28.671  1.00  0.00     0.049 A 
ATOM     49  H   UNL A   1      42.585  27.387  28.933  1.00  0.00     0.167 HD
ATOM     50  C   UNL A   1      46.880  26.955  29.625  1.00  0.00     0.037 A 
ATOM     51  C   UNL A   1      40.129  28.712  29.088  1.00  0.00     0.037 A 
ATOM     52  C   UNL A   1      46.571  28.314  29.992  1.00  0.00     0.049 A 
ATOM     53  C   UNL A   1      41.157  29.674  29.616  1.00  0.00     0.074 A 
ATOM     54  C   UNL A   1      47.436  29.312  30.406  1.00  0.00     0.029 A 
ATOM     55  N   UNL A   1      45.297  28.862  29.997  1.00  0.00    -0.354 N 
ATOM     56  N   UNL A   1      42.452  29.512  29.740  1.00  0.00    -0.248 NA
ATOM     57  C   UNL A   1      40.670  30.988  30.058  1.00  0.00     0.031 C 
ATOM     58  C   UNL A   1      46.679  30.445  30.718  1.00  0.00     0.029 A 
ATOM     59  C   UNL A   1      45.350  30.174  30.441  1.00  0.00     0.049 A 
ATOM     60  H   UNL A   1      44.477  28.389  29.726  1.00  0.00     0.167 HD
ATOM     61  C   UNL A   1      42.937  30.709  30.250  1.00  0.00     0.074 A 
ATOM     62  C   UNL A   1      41.800  31.595  30.391  1.00  0.00     0.031 C 
ATOM     63  C   UNL A   1      44.209  31.045  30.576  1.00  0.00     0.037 A 
BRANCH  50  64
ATOM     64  C   UNL A   1      48.304  26.495  29.757  1.00  0.00     0.057 A 
ATOM     65  C   UNL A   1      49.251  26.720  28.749  1.00  0.00     0.134 A 
ATOM     66  C   UNL A   1      48.748  25.874  30.932  1.00  0.00     0.134 A 
ATOM     67  F   UNL A   1      48.890  27.301  27.595  1.00  0.00    -0.206 F 
ATOM     68  C   UNL A   1      50.582  26.325  28.896  1.00  0.00     0.040 A 
ATOM     69  C   UNL A   1      50.082  25.501  31.101  1.00  0.00     0.040 A 
ATOM     70  F   UNL A   1      47.896  25.635  31.941  1.00  0.00    -0.206 F 
ATOM     71  C   UNL A   1      51.002  25.721  30.079  1.00  0.00     0.006 A 
ENDBRANCH  50  64
BRANCH  51  72
ATOM     72  C   UNL A   1      38.694  29.097  29.027  1.00  0.00     0.057 A 
ATOM     73  C   UNL A   1      38.121  29.572  27.842  1.00  0.00     0.134 A 
ATOM     74  C   UNL A   1      37.870  29.022  30.156  1.00  0.00     0.134 A 
ATOM     75  F   UNL A   1      38.864  29.685  26.731  1.00  0.00    -0.206 F 
ATOM     76  C   UNL A   1      36.789  29.983  27.786  1.00  0.00     0.040 A 
ATOM     77  C   UNL A   1      36.527  29.401  30.108  1.00  0.00     0.040 A 
ATOM     78  F   UNL A   1      38.353  28.568  31.321  1.00  0.00    -0.206 F 
ATOM     79  C   UNL A   1      35.986  29.894  28.923  1.00  0.00     0.006 A 
ENDBRANCH  51  72
BRANCH  63  80
ATOM     80  C   UNL A   1      44.444  32.436  31.090  1.00  0.00     0.057 A 
ATOM     81  C   UNL A   1      44.690  33.513  30.228  1.00  0.00     0.134 A 
ATOM     82  C   UNL A   1      44.386  32.709  32.463  1.00  0.00     0.134 A 
ATOM     83  F   UNL A   1      44.772  33.318  28.903  1.00  0.00    -0.206 F 
ATOM     84  C   UNL A   1      44.897  34.805  30.715  1.00  0.00     0.040 A 
ATOM     85  C   UNL A   1      44.561  34.002  32.959  1.00  0.00     0.040 A 
ATOM     86  F   UNL A   1      44.143  31.727  33.344  1.00  0.00    -0.206 F 
ATOM     87  C   UNL A   1      44.826  35.053  32.084  1.00  0.00     0.006 A 
ENDBRANCH  63  80
ENDBRANCH  37  38
ENDBRANCH  29  32
ENDBRANCH  27  28
ENDBRANCH  26  27
ENDBRANCH  25  26
ENDBRANCH  24  25
ENDBRANCH   1  24
TORSDOF 18
ENDMDL
MODEL 3
REMARK VINA RESULT:     -10.6      4.466      9.101
REMARK SMILES C[C@H]1CN(C(=O)NCCOCC(=O)NCCCCCCNC(=O)c2ccc(-c3c4nc(c(-c5c(F)cccc5F)c5ccc([nH]5)c(-c5c(F)cccc5F)c5nc(c(-c6c(F)cccc6F)c6ccc3[nH]6)C=C5)C=C4)cc2)CC[N@@H+]1C
REMARK SMILES IDX 16 1 15 2 14 3 12 4 13 5 11 7 10 8 9 9 8 10 7 11 5 12 6 13
REMARK SMILES IDX 4 15 1 16 2 17 3 18 80 19 79 20 81 21 78 23 17 24 18 25
REMARK SMILES IDX 19 26 20 27 21 28 22 29 23 31 24 32 25 33 77 34 26 35 76 36
REMARK SMILES IDX 27 37 28 38 29 39 70 40 30 41 75 42 69 43 71 44 31 45 74 46
REMARK SMILES IDX 68 47 67 48 32 50 58 51 41 52 57 53 42 54 45 55 56 56 72 57
REMARK SMILES IDX 43 58 44 59 55 61 73 62 46 63 33 64 34 65 39 66 35 67 36 68
REMARK SMILES IDX 38 69 40 70 37 71 59 72 60 73 65 74 61 75 62 76 64 77 66 78
REMARK SMILES IDX 63 79 47 80 48 81 53 82 49 83 50 84 52 85 54 86 51 87
REMARK H PARENT 14 6 7 14 80 22 21 30 71 49 45 60
REMARK Flexibility Score: inf
ROOT
ATOM      1  C   UNL A   1      33.641  21.545  24.228  1.00  0.00     0.021 C 
ENDROOT
BRANCH   1   2
ATOM      2  C   UNL A   1      32.181  21.559  24.674  1.00  0.00     0.116 C 
BRANCH   2   3
ATOM      3  N   UNL A   1      32.040  22.113  26.004  1.00  0.00    -0.354 N 
ATOM      4  C   UNL A   1      31.420  23.273  26.366  1.00  0.00     0.245 C 
ATOM      5  O   UNL A   1      31.393  23.590  27.554  1.00  0.00    -0.272 OA
ATOM      6  H   UNL A   1      32.439  21.588  26.735  1.00  0.00     0.163 HD
BRANCH   4   7
ATOM      7  C   UNL A   1      30.758  24.120  25.277  1.00  0.00     0.260 C 
BRANCH   7   8
ATOM      8  O   UNL A   1      29.968  25.215  25.718  1.00  0.00    -0.370 OA
BRANCH   8   9
ATOM      9  C   UNL A   1      30.070  26.397  24.912  1.00  0.00     0.182 C 
BRANCH   9  10
ATOM     10  C   UNL A   1      29.292  26.283  23.595  1.00  0.00     0.146 C 
BRANCH  10  11
ATOM     11  N   UNL A   1      28.139  27.169  23.541  1.00  0.00    -0.336 N 
ATOM     12  C   UNL A   1      27.865  28.426  23.163  1.00  0.00     0.317 C 
ATOM     13  O   UNL A   1      26.684  28.753  23.312  1.00  0.00    -0.249 OA
ATOM     14  H   UNL A   1      27.332  26.718  23.877  1.00  0.00     0.165 HD
BRANCH  12  15
ATOM     15  N   UNL A   1      28.775  29.268  22.604  1.00  0.00    -0.313 N 
ATOM     16  C   UNL A   1      28.008  32.316  20.490  1.00  0.00     0.077 C 
ATOM     17  C   UNL A   1      28.230  31.504  21.768  1.00  0.00     0.200 C 
ATOM     18  C   UNL A   1      28.684  30.067  21.388  1.00  0.00     0.186 C 
ATOM     19  N   UNL A   1      29.241  32.125  22.677  1.00  0.00    -0.332 N 
ATOM     20  C   UNL A   1      29.476  31.254  23.864  1.00  0.00     0.284 C 
ATOM     21  C   UNL A   1      28.857  33.464  23.129  1.00  0.00     0.333 C 
ATOM     22  H   UNL A   1      30.099  32.220  22.133  1.00  0.00     0.348 HD
ATOM     23  C   UNL A   1      29.822  29.797  23.485  1.00  0.00     0.183 C 
ENDBRANCH  12  15
ENDBRANCH  10  11
ENDBRANCH   9  10
ENDBRANCH   8   9
ENDBRANCH   7   8
ENDBRANCH   4   7
ENDBRANCH   2   3
ENDBRANCH   1   2
BRANCH   1  24
ATOM     24  C   UNL A   1      34.544  20.619  25.052  1.00  0.00     0.002 C 
BRANCH  24  25
ATOM     25  C   UNL A   1      35.900  21.213  25.448  1.00  0.00     0.002 C 
BRANCH  25  26
ATOM     26  C   UNL A   1      37.118  20.402  24.999  1.00  0.00     0.021 C 
BRANCH  26  27
ATOM     27  C   UNL A   1      38.426  20.800  25.672  1.00  0.00     0.116 C 
BRANCH  27  28
ATOM     28  N   UNL A   1      39.374  19.699  25.720  1.00  0.00    -0.352 N 
ATOM     29  C   UNL A   1      40.714  19.712  26.017  1.00  0.00     0.251 C 
ATOM     30  H   UNL A   1      38.998  18.813  25.511  1.00  0.00     0.163 HD
ATOM     31  O   UNL A   1      41.401  18.718  25.814  1.00  0.00    -0.269 OA
BRANCH  29  32
ATOM     32  C   UNL A   1      41.335  20.939  26.559  1.00  0.00     0.039 A 
ATOM     33  C   UNL A   1      42.032  21.781  25.689  1.00  0.00     0.014 A 
ATOM     34  C   UNL A   1      41.225  21.264  27.914  1.00  0.00     0.014 A 
ATOM     35  C   UNL A   1      42.556  22.984  26.165  1.00  0.00     0.010 A 
ATOM     36  C   UNL A   1      41.684  22.496  28.370  1.00  0.00     0.010 A 
ATOM     37  C   UNL A   1      42.346  23.373  27.499  1.00  0.00    -0.014 A 
BRANCH  37  38
ATOM     38  C   UNL A   1      42.777  24.709  27.982  1.00  0.00     0.031 A 
ATOM     39  C   UNL A   1      41.765  25.783  28.270  1.00  0.00     0.074 A 
ATOM     40  C   UNL A   1      44.094  24.975  28.100  1.00  0.00     0.049 A 
ATOM     41  N   UNL A   1      41.960  27.023  28.642  1.00  0.00    -0.248 NA
ATOM     42  C   UNL A   1      40.348  25.425  28.096  1.00  0.00     0.031 C 
ATOM     43  C   UNL A   1      45.175  24.031  27.804  1.00  0.00     0.029 A 
ATOM     44  N   UNL A   1      44.748  26.116  28.487  1.00  0.00    -0.354 N 
ATOM     45  C   UNL A   1      40.698  27.593  28.739  1.00  0.00     0.074 A 
ATOM     46  C   UNL A   1      39.746  26.579  28.340  1.00  0.00     0.031 C 
ATOM     47  C   UNL A   1      46.355  24.626  28.042  1.00  0.00     0.029 A 
ATOM     48  C   UNL A   1      46.118  26.003  28.461  1.00  0.00     0.049 A 
ATOM     49  H   UNL A   1      44.281  26.939  28.758  1.00  0.00     0.167 HD
ATOM     50  C   UNL A   1      40.363  28.841  29.145  1.00  0.00     0.037 A 
ATOM     51  C   UNL A   1      47.075  26.910  28.729  1.00  0.00     0.037 A 
ATOM     52  C   UNL A   1      41.314  29.842  29.556  1.00  0.00     0.049 A 
ATOM     53  C   UNL A   1      46.675  28.297  29.152  1.00  0.00     0.074 A 
ATOM     54  C   UNL A   1      41.068  31.114  30.043  1.00  0.00     0.029 A 
ATOM     55  N   UNL A   1      42.692  29.688  29.519  1.00  0.00    -0.354 N 
ATOM     56  N   UNL A   1      45.474  28.796  29.317  1.00  0.00    -0.248 NA
ATOM     57  C   UNL A   1      47.763  29.244  29.431  1.00  0.00     0.031 C 
ATOM     58  C   UNL A   1      42.296  31.751  30.245  1.00  0.00     0.029 A 
ATOM     59  C   UNL A   1      43.308  30.855  29.942  1.00  0.00     0.049 A 
ATOM     60  H   UNL A   1      43.162  28.871  29.234  1.00  0.00     0.167 HD
ATOM     61  C   UNL A   1      45.662  30.105  29.740  1.00  0.00     0.074 A 
ATOM     62  C   UNL A   1      47.091  30.315  29.829  1.00  0.00     0.031 C 
ATOM     63  C   UNL A   1      44.733  31.050  30.027  1.00  0.00     0.037 A 
BRANCH  50  64
ATOM     64  C   UNL A   1      38.905  29.201  29.167  1.00  0.00     0.057 A 
ATOM     65  C   UNL A   1      38.219  29.582  28.007  1.00  0.00     0.134 A 
ATOM     66  C   UNL A   1      38.164  29.106  30.353  1.00  0.00     0.134 A 
ATOM     67  F   UNL A   1      38.870  29.702  26.841  1.00  0.00    -0.206 F 
ATOM     68  C   UNL A   1      36.854  29.877  28.028  1.00  0.00     0.040 A 
ATOM     69  C   UNL A   1      36.794  29.369  30.380  1.00  0.00     0.040 A 
ATOM     70  F   UNL A   1      38.756  28.738  31.499  1.00  0.00    -0.206 F 
ATOM     71  C   UNL A   1      36.136  29.762  29.217  1.00  0.00     0.006 A 
ENDBRANCH  50  64
BRANCH  51  72
ATOM     72  C   UNL A   1      48.510  26.542  28.607  1.00  0.00     0.057 A 
ATOM     73  C   UNL A   1      49.199  25.944  29.670  1.00  0.00     0.134 A 
ATOM     74  C   UNL A   1      49.232  26.798  27.436  1.00  0.00     0.134 A 
ATOM     75  F   UNL A   1      48.566  25.690  30.826  1.00  0.00    -0.206 F 
ATOM     76  C   UNL A   1      50.557  25.640  29.583  1.00  0.00     0.040 A 
ATOM     77  C   UNL A   1      50.585  26.471  27.323  1.00  0.00     0.040 A 
ATOM     78  F   UNL A   1      48.632  27.360  26.377  1.00  0.00    -0.206 F 
ATOM     79  C   UNL A   1      51.254  25.900  28.404  1.00  0.00     0.006 A 
ENDBRANCH  51  72
BRANCH  63  80
ATOM     80  C   UNL A   1      45.234  32.388  30.491  1.00  0.00     0.057 A 
ATOM     81  C   UNL A   1      45.534  33.420  29.591  1.00  0.00     0.134 A 
ATOM     82  C   UNL A   1      45.385  32.659  31.857  1.00  0.00     0.134 A 
ATOM     83  F   UNL A   1      45.424  33.222  28.269  1.00  0.00    -0.206 F 
ATOM     84  C   UNL A   1      45.990  34.663  30.033  1.00  0.00     0.040 A 
ATOM     85  C   UNL A   1      45.811  33.908  32.312  1.00  0.00     0.040 A 
ATOM     86  F   UNL A   1      45.106  31.720  32.774  1.00  0.00    -0.206 F 
ATOM     87  C   UNL A   1      46.123  34.912  31.397  1.00  0.00     0.006 A 
ENDBRANCH  63  80
ENDBRANCH  37  38
ENDBRANCH  29  32
ENDBRANCH  27  28
ENDBRANCH  26  27
ENDBRANCH  25  26
ENDBRANCH  24  25
ENDBRANCH   1  24
TORSDOF 18
ENDMDL
