MODEL 1
REMARK VINA RESULT:     -11.6      0.000      0.000
REMARK SMILES Cc1c(Cl)cc2c(c1C)O[C@H](C(F)(F)F)C(C(=O)NCCCCCCNC(=O)c1ccc(-c3c4nc(c(-c5c(F)cccc5F)c5ccc([nH]5)c(-c5c(F)cccc5F)c5nc(c(-c6c(F)cccc6F)c6ccc3[nH]6)C=C5)C=C4)cc1)=C2
REMARK SMILES IDX 23 1 22 2 21 3 20 4 19 5 17 6 18 7 16 9 1 10 2 11 3 12 8 13
REMARK SMILES IDX 4 14 5 15 7 16 9 17 6 18 10 19 83 20 11 21 12 22 13 23 14 24
REMARK SMILES IDX 15 25 24 26 25 27 26 28 27 29 28 31 29 32 30 33 82 34 31 35
REMARK SMILES IDX 81 36 32 37 33 38 34 39 75 40 35 41 80 42 74 43 76 44 36 45
REMARK SMILES IDX 79 46 73 47 72 48 37 50 63 51 46 52 62 53 47 54 50 55 61 56
REMARK SMILES IDX 77 57 48 58 49 59 60 61 78 62 51 63 38 64 39 65 44 66 40 67
REMARK SMILES IDX 41 68 43 69 45 70 42 71 64 72 65 73 70 74 66 75 67 76 69 77
REMARK SMILES IDX 71 78 68 79 52 80 53 81 58 82 54 83 55 84 57 85 59 86 56 87
REMARK H PARENT 19 8 26 30 76 49 50 60
REMARK Flexibility Score: inf
ROOT
ATOM      1  C   UNL A   1      33.118  29.338  24.901  1.00  0.00     0.002 C 
ENDROOT
BRANCH   1   2
ATOM      2  C   UNL A   1      32.932  28.851  23.457  1.00  0.00     0.002 C 
BRANCH   2   3
ATOM      3  C   UNL A   1      31.496  28.483  23.075  1.00  0.00     0.021 C 
BRANCH   3   4
ATOM      4  C   UNL A   1      31.165  27.012  23.301  1.00  0.00     0.116 C 
BRANCH   4   5
ATOM      5  N   UNL A   1      30.802  26.748  24.681  1.00  0.00    -0.352 N 
ATOM      6  C   UNL A   1      31.113  25.837  25.632  1.00  0.00     0.251 C 
ATOM      7  O   UNL A   1      30.566  26.010  26.726  1.00  0.00    -0.270 OA
ATOM      8  H   UNL A   1      30.155  27.410  25.015  1.00  0.00     0.163 HD
BRANCH   6   9
ATOM      9  C   UNL A   1      32.041  24.681  25.447  1.00  0.00     0.067 C 
ATOM     10  C   UNL A   1      37.088  20.535  25.104  1.00  0.00     0.046 C 
ATOM     11  C   UNL A   1      36.126  21.682  25.284  1.00  0.00    -0.026 A 
ATOM     12  C   UNL A   1      36.567  22.986  25.587  1.00  0.00     0.045 A 
ATOM     13  C   UNL A   1      34.737  21.457  25.133  1.00  0.00    -0.004 A 
ATOM     14  Cl  UNL A   1      38.241  23.375  25.786  1.00  0.00    -0.084 Cl
ATOM     15  C   UNL A   1      35.660  24.042  25.744  1.00  0.00     0.032 A 
ATOM     16  C   UNL A   1      33.847  22.537  25.290  1.00  0.00     0.131 A 
ATOM     17  C   UNL A   1      34.152  20.107  24.796  1.00  0.00     0.049 C 
ATOM     18  C   UNL A   1      34.293  23.821  25.595  1.00  0.00     0.019 A 
ATOM     19  O   UNL A   1      32.516  22.247  25.176  1.00  0.00    -0.475 OA
ATOM     20  C   UNL A   1      33.327  24.897  25.780  1.00  0.00     0.025 C 
ATOM     21  C   UNL A   1      31.624  23.351  24.892  1.00  0.00     0.314 C 
BRANCH  21  22
ATOM     22  C   UNL A   1      31.340  23.393  23.380  1.00  0.00     0.429 C 
ATOM     23  F   UNL A   1      32.234  24.199  22.753  1.00  0.00    -0.167 F 
ATOM     24  F   UNL A   1      31.449  22.178  22.794  1.00  0.00    -0.167 F 
ATOM     25  F   UNL A   1      30.104  23.858  23.094  1.00  0.00    -0.167 F 
ENDBRANCH  21  22
ENDBRANCH   6   9
ENDBRANCH   4   5
ENDBRANCH   3   4
ENDBRANCH   2   3
ENDBRANCH   1   2
BRANCH   1  26
ATOM     26  C   UNL A   1      34.047  28.480  25.765  1.00  0.00     0.021 C 
BRANCH  26  27
ATOM     27  C   UNL A   1      33.779  28.577  27.262  1.00  0.00     0.116 C 
BRANCH  27  28
ATOM     28  N   UNL A   1      33.693  29.957  27.707  1.00  0.00    -0.352 N 
ATOM     29  C   UNL A   1      34.617  30.705  28.390  1.00  0.00     0.251 C 
ATOM     30  H   UNL A   1      32.853  30.421  27.488  1.00  0.00     0.163 HD
ATOM     31  O   UNL A   1      34.306  31.787  28.877  1.00  0.00    -0.269 OA
BRANCH  29  32
ATOM     32  C   UNL A   1      35.991  30.190  28.548  1.00  0.00     0.039 A 
ATOM     33  C   UNL A   1      36.878  30.289  27.475  1.00  0.00     0.014 A 
ATOM     34  C   UNL A   1      36.397  29.612  29.755  1.00  0.00     0.014 A 
ATOM     35  C   UNL A   1      38.193  29.855  27.630  1.00  0.00     0.010 A 
ATOM     36  C   UNL A   1      37.727  29.247  29.931  1.00  0.00     0.010 A 
ATOM     37  C   UNL A   1      38.635  29.356  28.868  1.00  0.00    -0.014 A 
BRANCH  37  38
ATOM     38  C   UNL A   1      40.040  28.922  29.054  1.00  0.00     0.031 A 
ATOM     39  C   UNL A   1      41.028  29.843  29.711  1.00  0.00     0.074 A 
ATOM     40  C   UNL A   1      40.430  27.713  28.607  1.00  0.00     0.049 A 
ATOM     41  N   UNL A   1      42.301  29.654  29.948  1.00  0.00    -0.248 NA
ATOM     42  C   UNL A   1      40.528  31.160  30.142  1.00  0.00     0.031 C 
ATOM     43  C   UNL A   1      39.567  26.746  27.924  1.00  0.00     0.029 A 
ATOM     44  N   UNL A   1      41.649  27.087  28.665  1.00  0.00    -0.354 N 
ATOM     45  C   UNL A   1      42.748  30.819  30.557  1.00  0.00     0.074 A 
ATOM     46  C   UNL A   1      41.631  31.736  30.592  1.00  0.00     0.031 C 
ATOM     47  C   UNL A   1      40.273  25.634  27.665  1.00  0.00     0.029 A 
ATOM     48  C   UNL A   1      41.645  25.822  28.129  1.00  0.00     0.049 A 
ATOM     49  H   UNL A   1      42.450  27.505  29.055  1.00  0.00     0.167 HD
ATOM     50  C   UNL A   1      43.970  31.086  31.073  1.00  0.00     0.037 A 
ATOM     51  C   UNL A   1      42.636  24.915  28.028  1.00  0.00     0.037 A 
ATOM     52  C   UNL A   1      45.072  30.163  31.053  1.00  0.00     0.049 A 
ATOM     53  C   UNL A   1      43.996  25.254  28.572  1.00  0.00     0.074 A 
ATOM     54  C   UNL A   1      46.341  30.327  31.580  1.00  0.00     0.029 A 
ATOM     55  N   UNL A   1      45.034  28.902  30.479  1.00  0.00    -0.354 N 
ATOM     56  N   UNL A   1      44.391  26.340  29.191  1.00  0.00    -0.248 NA
ATOM     57  C   UNL A   1      45.050  24.242  28.404  1.00  0.00     0.031 C 
ATOM     58  C   UNL A   1      47.084  29.182  31.287  1.00  0.00     0.029 A 
ATOM     59  C   UNL A   1      46.266  28.285  30.621  1.00  0.00     0.049 A 
ATOM     60  H   UNL A   1      44.249  28.504  30.037  1.00  0.00     0.167 HD
ATOM     61  C   UNL A   1      45.727  26.133  29.508  1.00  0.00     0.074 A 
ATOM     62  C   UNL A   1      46.072  24.812  29.026  1.00  0.00     0.031 C 
ATOM     63  C   UNL A   1      46.589  26.965  30.142  1.00  0.00     0.037 A 
BRANCH  50  64
ATOM     64  C   UNL A   1      44.173  32.421  31.727  1.00  0.00     0.057 A 
ATOM     65  C   UNL A   1      44.601  33.536  30.994  1.00  0.00     0.134 A 
ATOM     66  C   UNL A   1      43.882  32.611  33.083  1.00  0.00     0.134 A 
ATOM     67  F   UNL A   1      44.908  33.417  29.693  1.00  0.00    -0.206 F 
ATOM     68  C   UNL A   1      44.746  34.789  31.589  1.00  0.00     0.040 A 
ATOM     69  C   UNL A   1      43.999  33.865  33.684  1.00  0.00     0.040 A 
ATOM     70  F   UNL A   1      43.464  31.587  33.841  1.00  0.00    -0.206 F 
ATOM     71  C   UNL A   1      44.436  34.958  32.937  1.00  0.00     0.006 A 
ENDBRANCH  50  64
BRANCH  51  72
ATOM     72  C   UNL A   1      42.365  23.586  27.424  1.00  0.00     0.057 A 
ATOM     73  C   UNL A   1      42.007  22.495  28.225  1.00  0.00     0.134 A 
ATOM     74  C   UNL A   1      42.445  23.373  26.043  1.00  0.00     0.134 A 
ATOM     75  F   UNL A   1      41.930  22.632  29.557  1.00  0.00    -0.206 F 
ATOM     76  C   UNL A   1      41.749  21.238  27.676  1.00  0.00     0.040 A 
ATOM     77  C   UNL A   1      42.166  22.128  25.478  1.00  0.00     0.040 A 
ATOM     78  F   UNL A   1      42.777  24.380  25.221  1.00  0.00    -0.206 F 
ATOM     79  C   UNL A   1      41.822  21.054  26.296  1.00  0.00     0.006 A 
ENDBRANCH  51  72
BRANCH  63  80
ATOM     80  C   UNL A   1      47.988  26.474  30.372  1.00  0.00     0.057 A 
ATOM     81  C   UNL A   1      49.009  26.709  29.444  1.00  0.00     0.134 A 
ATOM     82  C   UNL A   1      48.335  25.847  31.575  1.00  0.00     0.134 A 
ATOM     83  F   UNL A   1      48.739  27.298  28.269  1.00  0.00    -0.206 F 
ATOM     84  C   UNL A   1      50.327  26.330  29.703  1.00  0.00     0.040 A 
ATOM     85  C   UNL A   1      49.653  25.487  31.856  1.00  0.00     0.040 A 
ATOM     86  F   UNL A   1      47.404  25.604  32.511  1.00  0.00    -0.206 F 
ATOM     87  C   UNL A   1      50.654  25.728  30.916  1.00  0.00     0.006 A 
ENDBRANCH  63  80
ENDBRANCH  37  38
ENDBRANCH  29  32
ENDBRANCH  27  28
ENDBRANCH  26  27
ENDBRANCH   1  26
TORSDOF 14
ENDMDL
MODEL 2
REMARK VINA RESULT:     -11.6      3.347      4.521
REMARK SMILES Cc1c(Cl)cc2c(c1C)O[C@H](C(F)(F)F)C(C(=O)NCCCCCCNC(=O)c1ccc(-c3c4nc(c(-c5c(F)cccc5F)c5ccc([nH]5)c(-c5c(F)cccc5F)c5nc(c(-c6c(F)cccc6F)c6ccc3[nH]6)C=C5)C=C4)cc1)=C2
REMARK SMILES IDX 23 1 22 2 21 3 20 4 19 5 17 6 18 7 16 9 1 10 2 11 3 12 8 13
REMARK SMILES IDX 4 14 5 15 7 16 9 17 6 18 10 19 83 20 11 21 12 22 13 23 14 24
REMARK SMILES IDX 15 25 24 26 25 27 26 28 27 29 28 31 29 32 30 33 82 34 31 35
REMARK SMILES IDX 81 36 32 37 33 38 34 39 75 40 35 41 80 42 74 43 76 44 36 45
REMARK SMILES IDX 79 46 73 47 72 48 37 50 63 51 46 52 62 53 47 54 50 55 61 56
REMARK SMILES IDX 77 57 48 58 49 59 60 61 78 62 51 63 38 64 39 65 44 66 40 67
REMARK SMILES IDX 41 68 43 69 45 70 42 71 64 72 65 73 70 74 66 75 67 76 69 77
REMARK SMILES IDX 71 78 68 79 52 80 53 81 58 82 54 83 55 84 57 85 59 86 56 87
REMARK H PARENT 19 8 26 30 76 49 50 60
REMARK Flexibility Score: inf
ROOT
ATOM      1  C   UNL A   1      31.411  30.614  25.721  1.00  0.00     0.002 C 
ENDROOT
BRANCH   1   2
ATOM      2  C   UNL A   1      32.414  29.613  26.311  1.00  0.00     0.002 C 
BRANCH   2   3
ATOM      3  C   UNL A   1      33.123  28.724  25.286  1.00  0.00     0.021 C 
BRANCH   3   4
ATOM      4  C   UNL A   1      32.173  27.837  24.489  1.00  0.00     0.116 C 
BRANCH   4   5
ATOM      5  N   UNL A   1      31.208  27.174  25.347  1.00  0.00    -0.352 N 
ATOM      6  C   UNL A   1      31.019  25.936  25.857  1.00  0.00     0.251 C 
ATOM      7  O   UNL A   1      30.035  25.813  26.594  1.00  0.00    -0.270 OA
ATOM      8  H   UNL A   1      30.499  27.794  25.636  1.00  0.00     0.163 HD
BRANCH   6   9
ATOM      9  C   UNL A   1      31.893  24.753  25.594  1.00  0.00     0.067 C 
ATOM     10  C   UNL A   1      36.737  20.398  25.001  1.00  0.00     0.046 C 
ATOM     11  C   UNL A   1      35.828  21.573  25.258  1.00  0.00    -0.026 A 
ATOM     12  C   UNL A   1      36.326  22.825  25.676  1.00  0.00     0.045 A 
ATOM     13  C   UNL A   1      34.434  21.433  25.063  1.00  0.00    -0.004 A 
ATOM     14  Cl  UNL A   1      38.012  23.110  25.938  1.00  0.00    -0.084 Cl
ATOM     15  C   UNL A   1      35.468  23.908  25.904  1.00  0.00     0.032 A 
ATOM     16  C   UNL A   1      33.594  22.540  25.293  1.00  0.00     0.131 A 
ATOM     17  C   UNL A   1      33.791  20.146  24.605  1.00  0.00     0.049 C 
ATOM     18  C   UNL A   1      34.096  23.770  25.711  1.00  0.00     0.019 A 
ATOM     19  O   UNL A   1      32.254  22.329  25.131  1.00  0.00    -0.475 OA
ATOM     20  C   UNL A   1      33.180  24.876  25.967  1.00  0.00     0.025 C 
ATOM     21  C   UNL A   1      31.424  23.496  24.923  1.00  0.00     0.314 C 
BRANCH  21  22
ATOM     22  C   UNL A   1      31.176  23.676  23.415  1.00  0.00     0.429 C 
ATOM     23  F   UNL A   1      31.386  22.506  22.760  1.00  0.00    -0.167 F 
ATOM     24  F   UNL A   1      29.905  24.044  23.134  1.00  0.00    -0.167 F 
ATOM     25  F   UNL A   1      31.987  24.603  22.859  1.00  0.00    -0.167 F 
ENDBRANCH  21  22
ENDBRANCH   6   9
ENDBRANCH   4   5
ENDBRANCH   3   4
ENDBRANCH   2   3
ENDBRANCH   1   2
BRANCH   1  26
ATOM     26  C   UNL A   1      31.266  31.927  26.496  1.00  0.00     0.021 C 
BRANCH  26  27
ATOM     27  C   UNL A   1      32.559  32.430  27.126  1.00  0.00     0.116 C 
BRANCH  27  28
ATOM     28  N   UNL A   1      32.465  33.828  27.511  1.00  0.00    -0.352 N 
ATOM     29  C   UNL A   1      33.159  34.508  28.478  1.00  0.00     0.251 C 
ATOM     30  H   UNL A   1      31.810  34.363  27.007  1.00  0.00     0.163 HD
ATOM     31  O   UNL A   1      32.811  35.633  28.822  1.00  0.00    -0.269 OA
BRANCH  29  32
ATOM     32  C   UNL A   1      34.327  33.869  29.114  1.00  0.00     0.039 A 
ATOM     33  C   UNL A   1      34.116  32.905  30.102  1.00  0.00     0.014 A 
ATOM     34  C   UNL A   1      35.625  34.223  28.733  1.00  0.00     0.014 A 
ATOM     35  C   UNL A   1      35.211  32.257  30.672  1.00  0.00     0.010 A 
ATOM     36  C   UNL A   1      36.710  33.524  29.250  1.00  0.00     0.010 A 
ATOM     37  C   UNL A   1      36.514  32.542  30.231  1.00  0.00    -0.014 A 
BRANCH  37  38
ATOM     38  C   UNL A   1      37.683  31.834  30.806  1.00  0.00     0.031 A 
ATOM     39  C   UNL A   1      38.141  32.153  32.200  1.00  0.00     0.074 A 
ATOM     40  C   UNL A   1      38.344  30.926  30.063  1.00  0.00     0.049 A 
ATOM     41  N   UNL A   1      39.149  31.657  32.872  1.00  0.00    -0.248 NA
ATOM     42  C   UNL A   1      37.382  33.181  32.933  1.00  0.00     0.031 C 
ATOM     43  C   UNL A   1      38.011  30.557  28.685  1.00  0.00     0.029 A 
ATOM     44  N   UNL A   1      39.430  30.143  30.363  1.00  0.00    -0.354 N 
ATOM     45  C   UNL A   1      39.139  32.304  34.099  1.00  0.00     0.074 A 
ATOM     46  C   UNL A   1      38.071  33.278  34.059  1.00  0.00     0.031 C 
ATOM     47  C   UNL A   1      38.848  29.591  28.275  1.00  0.00     0.029 A 
ATOM     48  C   UNL A   1      39.798  29.298  29.345  1.00  0.00     0.049 A 
ATOM     49  H   UNL A   1      39.900  30.184  31.227  1.00  0.00     0.167 HD
ATOM     50  C   UNL A   1      39.926  32.081  35.176  1.00  0.00     0.037 A 
ATOM     51  C   UNL A   1      40.787  28.386  29.284  1.00  0.00     0.037 A 
ATOM     52  C   UNL A   1      40.974  31.098  35.219  1.00  0.00     0.049 A 
ATOM     53  C   UNL A   1      41.675  28.188  30.481  1.00  0.00     0.074 A 
ATOM     54  C   UNL A   1      41.806  30.773  36.276  1.00  0.00     0.029 A 
ATOM     55  N   UNL A   1      41.331  30.279  34.159  1.00  0.00    -0.354 N 
ATOM     56  N   UNL A   1      41.622  28.772  31.653  1.00  0.00    -0.248 NA
ATOM     57  C   UNL A   1      42.760  27.205  30.348  1.00  0.00     0.031 C 
ATOM     58  C   UNL A   1      42.695  29.786  35.842  1.00  0.00     0.029 A 
ATOM     59  C   UNL A   1      42.386  29.462  34.531  1.00  0.00     0.049 A 
ATOM     60  H   UNL A   1      40.898  30.277  33.274  1.00  0.00     0.167 HD
ATOM     61  C   UNL A   1      42.647  28.211  32.405  1.00  0.00     0.074 A 
ATOM     62  C   UNL A   1      43.297  27.231  31.560  1.00  0.00     0.031 C 
ATOM     63  C   UNL A   1      43.015  28.486  33.680  1.00  0.00     0.037 A 
BRANCH  50  64
ATOM     64  C   UNL A   1      39.668  32.898  36.409  1.00  0.00     0.057 A 
ATOM     65  C   UNL A   1      40.350  34.099  36.645  1.00  0.00     0.134 A 
ATOM     66  C   UNL A   1      38.691  32.516  37.335  1.00  0.00     0.134 A 
ATOM     67  F   UNL A   1      41.308  34.515  35.801  1.00  0.00    -0.206 F 
ATOM     68  C   UNL A   1      40.079  34.884  37.766  1.00  0.00     0.040 A 
ATOM     69  C   UNL A   1      38.393  33.306  38.447  1.00  0.00     0.040 A 
ATOM     70  F   UNL A   1      37.998  31.380  37.167  1.00  0.00    -0.206 F 
ATOM     71  C   UNL A   1      39.091  34.492  38.666  1.00  0.00     0.006 A 
ENDBRANCH  50  64
BRANCH  51  72
ATOM     72  C   UNL A   1      40.961  27.562  28.060  1.00  0.00     0.057 A 
ATOM     73  C   UNL A   1      40.326  26.321  27.935  1.00  0.00     0.134 A 
ATOM     74  C   UNL A   1      41.751  27.993  26.988  1.00  0.00     0.134 A 
ATOM     75  F   UNL A   1      39.570  25.847  28.936  1.00  0.00    -0.206 F 
ATOM     76  C   UNL A   1      40.478  25.533  26.793  1.00  0.00     0.040 A 
ATOM     77  C   UNL A   1      41.893  27.226  25.830  1.00  0.00     0.040 A 
ATOM     78  F   UNL A   1      42.381  29.175  27.043  1.00  0.00    -0.206 F 
ATOM     79  C   UNL A   1      41.259  25.989  25.733  1.00  0.00     0.006 A 
ENDBRANCH  51  72
BRANCH  63  80
ATOM     80  C   UNL A   1      44.161  27.709  34.256  1.00  0.00     0.057 A 
ATOM     81  C   UNL A   1      45.462  28.225  34.274  1.00  0.00     0.134 A 
ATOM     82  C   UNL A   1      43.943  26.476  34.884  1.00  0.00     0.134 A 
ATOM     83  F   UNL A   1      45.737  29.397  33.682  1.00  0.00    -0.206 F 
ATOM     84  C   UNL A   1      46.508  27.539  34.892  1.00  0.00     0.040 A 
ATOM     85  C   UNL A   1      44.976  25.792  35.526  1.00  0.00     0.040 A 
ATOM     86  F   UNL A   1      42.717  25.932  34.912  1.00  0.00    -0.206 F 
ATOM     87  C   UNL A   1      46.264  26.324  35.530  1.00  0.00     0.006 A 
ENDBRANCH  63  80
ENDBRANCH  37  38
ENDBRANCH  29  32
ENDBRANCH  27  28
ENDBRANCH  26  27
ENDBRANCH   1  26
TORSDOF 14
ENDMDL
MODEL 3
REMARK VINA RESULT:     -11.5      1.958      6.474
REMARK SMILES Cc1c(Cl)cc2c(c1C)O[C@H](C(F)(F)F)C(C(=O)NCCCCCCNC(=O)c1ccc(-c3c4nc(c(-c5c(F)cccc5F)c5ccc([nH]5)c(-c5c(F)cccc5F)c5nc(c(-c6c(F)cccc6F)c6ccc3[nH]6)C=C5)C=C4)cc1)=C2
REMARK SMILES IDX 23 1 22 2 21 3 20 4 19 5 17 6 18 7 16 9 1 10 2 11 3 12 8 13
REMARK SMILES IDX 4 14 5 15 7 16 9 17 6 18 10 19 83 20 11 21 12 22 13 23 14 24
REMARK SMILES IDX 15 25 24 26 25 27 26 28 27 29 28 31 29 32 30 33 82 34 31 35
REMARK SMILES IDX 81 36 32 37 33 38 34 39 75 40 35 41 80 42 74 43 76 44 36 45
REMARK SMILES IDX 79 46 73 47 72 48 37 50 63 51 46 52 62 53 47 54 50 55 61 56
REMARK SMILES IDX 77 57 48 58 49 59 60 61 78 62 51 63 38 64 39 65 44 66 40 67
REMARK SMILES IDX 41 68 43 69 45 70 42 71 64 72 65 73 70 74 66 75 67 76 69 77
REMARK SMILES IDX 71 78 68 79 52 80 53 81 58 82 54 83 55 84 57 85 59 86 56 87
REMARK H PARENT 19 8 26 30 76 49 50 60
REMARK Flexibility Score: inf
ROOT
ATOM      1  C   UNL A   1      32.508  29.648  27.000  1.00  0.00     0.002 C 
ENDROOT
BRANCH   1   2
ATOM      2  C   UNL A   1      31.781  29.665  25.648  1.00  0.00     0.002 C 
BRANCH   2   3
ATOM      3  C   UNL A   1      32.509  28.943  24.510  1.00  0.00     0.021 C 
BRANCH   3   4
ATOM      4  C   UNL A   1      31.761  27.722  23.987  1.00  0.00     0.116 C 
BRANCH   4   5
ATOM      5  N   UNL A   1      30.969  27.090  25.027  1.00  0.00    -0.352 N 
ATOM      6  C   UNL A   1      30.975  25.919  25.705  1.00  0.00     0.251 C 
ATOM      7  O   UNL A   1      30.091  25.801  26.560  1.00  0.00    -0.270 OA
ATOM      8  H   UNL A   1      30.227  27.669  25.315  1.00  0.00     0.163 HD
BRANCH   6   9
ATOM      9  C   UNL A   1      31.948  24.806  25.493  1.00  0.00     0.067 C 
ATOM     10  C   UNL A   1      37.142  20.851  25.103  1.00  0.00     0.046 C 
ATOM     11  C   UNL A   1      36.137  21.955  25.309  1.00  0.00    -0.026 A 
ATOM     12  C   UNL A   1      36.523  23.257  25.687  1.00  0.00     0.045 A 
ATOM     13  C   UNL A   1      34.761  21.692  25.105  1.00  0.00    -0.004 A 
ATOM     14  Cl  UNL A   1      38.177  23.690  25.955  1.00  0.00    -0.084 Cl
ATOM     15  C   UNL A   1      35.576  24.272  25.868  1.00  0.00     0.032 A 
ATOM     16  C   UNL A   1      33.830  22.732  25.287  1.00  0.00     0.131 A 
ATOM     17  C   UNL A   1      34.233  20.341  24.686  1.00  0.00     0.049 C 
ATOM     18  C   UNL A   1      34.223  24.014  25.667  1.00  0.00     0.019 A 
ATOM     19  O   UNL A   1      32.514  22.405  25.119  1.00  0.00    -0.475 OA
ATOM     20  C   UNL A   1      33.215  25.047  25.874  1.00  0.00     0.025 C 
ATOM     21  C   UNL A   1      31.593  23.491  24.862  1.00  0.00     0.314 C 
BRANCH  21  22
ATOM     22  C   UNL A   1      31.351  23.598  23.346  1.00  0.00     0.429 C 
ATOM     23  F   UNL A   1      31.608  22.409  22.742  1.00  0.00    -0.167 F 
ATOM     24  F   UNL A   1      30.069  23.907  23.042  1.00  0.00    -0.167 F 
ATOM     25  F   UNL A   1      32.132  24.530  22.757  1.00  0.00    -0.167 F 
ENDBRANCH  21  22
ENDBRANCH   6   9
ENDBRANCH   4   5
ENDBRANCH   3   4
ENDBRANCH   2   3
ENDBRANCH   1   2
BRANCH   1  26
ATOM     26  C   UNL A   1      33.627  28.611  27.127  1.00  0.00     0.021 C 
BRANCH  26  27
ATOM     27  C   UNL A   1      35.005  29.203  27.394  1.00  0.00     0.116 C 
BRANCH  27  28
ATOM     28  N   UNL A   1      34.989  30.123  28.519  1.00  0.00    -0.352 N 
ATOM     29  C   UNL A   1      35.980  30.400  29.425  1.00  0.00     0.251 C 
ATOM     30  H   UNL A   1      34.149  30.618  28.649  1.00  0.00     0.163 HD
ATOM     31  O   UNL A   1      35.736  31.043  30.441  1.00  0.00    -0.269 OA
BRANCH  29  32
ATOM     32  C   UNL A   1      37.348  29.904  29.175  1.00  0.00     0.039 A 
ATOM     33  C   UNL A   1      37.857  29.951  27.877  1.00  0.00     0.014 A 
ATOM     34  C   UNL A   1      38.120  29.395  30.224  1.00  0.00     0.014 A 
ATOM     35  C   UNL A   1      39.167  29.534  27.638  1.00  0.00     0.010 A 
ATOM     36  C   UNL A   1      39.448  29.049  29.997  1.00  0.00     0.010 A 
ATOM     37  C   UNL A   1      39.980  29.106  28.701  1.00  0.00    -0.014 A 
BRANCH  37  38
ATOM     38  C   UNL A   1      41.384  28.693  28.465  1.00  0.00     0.031 A 
ATOM     39  C   UNL A   1      41.700  27.261  28.141  1.00  0.00     0.074 A 
ATOM     40  C   UNL A   1      42.373  29.603  28.568  1.00  0.00     0.049 A 
ATOM     41  N   UNL A   1      42.863  26.703  27.919  1.00  0.00    -0.248 NA
ATOM     42  C   UNL A   1      40.565  26.326  28.078  1.00  0.00     0.031 C 
ATOM     43  C   UNL A   1      42.189  31.015  28.909  1.00  0.00     0.029 A 
ATOM     44  N   UNL A   1      43.727  29.477  28.391  1.00  0.00    -0.354 N 
ATOM     45  C   UNL A   1      42.598  25.361  27.686  1.00  0.00     0.074 A 
ATOM     46  C   UNL A   1      41.175  25.171  27.860  1.00  0.00     0.031 C 
ATOM     47  C   UNL A   1      43.381  31.632  28.875  1.00  0.00     0.029 A 
ATOM     48  C   UNL A   1      44.415  30.655  28.547  1.00  0.00     0.049 A 
ATOM     49  H   UNL A   1      44.164  28.622  28.173  1.00  0.00     0.167 HD
ATOM     50  C   UNL A   1      43.458  24.382  27.323  1.00  0.00     0.037 A 
ATOM     51  C   UNL A   1      45.731  30.918  28.432  1.00  0.00     0.037 A 
ATOM     52  C   UNL A   1      44.869  24.579  27.131  1.00  0.00     0.049 A 
ATOM     53  C   UNL A   1      46.671  29.802  28.069  1.00  0.00     0.074 A 
ATOM     54  C   UNL A   1      45.820  23.656  26.731  1.00  0.00     0.029 A 
ATOM     55  N   UNL A   1      45.530  25.782  27.322  1.00  0.00    -0.354 N 
ATOM     56  N   UNL A   1      46.400  28.548  27.802  1.00  0.00    -0.248 NA
ATOM     57  C   UNL A   1      48.101  30.137  27.992  1.00  0.00     0.031 C 
ATOM     58  C   UNL A   1      47.064  24.291  26.721  1.00  0.00     0.029 A 
ATOM     59  C   UNL A   1      46.882  25.620  27.068  1.00  0.00     0.049 A 
ATOM     60  H   UNL A   1      45.103  26.626  27.597  1.00  0.00     0.167 HD
ATOM     61  C   UNL A   1      47.616  27.950  27.500  1.00  0.00     0.074 A 
ATOM     62  C   UNL A   1      48.627  28.983  27.605  1.00  0.00     0.031 C 
ATOM     63  C   UNL A   1      47.872  26.662  27.168  1.00  0.00     0.037 A 
BRANCH  50  64
ATOM     64  C   UNL A   1      42.893  23.012  27.084  1.00  0.00     0.057 A 
ATOM     65  C   UNL A   1      42.586  22.152  28.147  1.00  0.00     0.134 A 
ATOM     66  C   UNL A   1      42.596  22.570  25.789  1.00  0.00     0.134 A 
ATOM     67  F   UNL A   1      42.858  22.511  29.412  1.00  0.00    -0.206 F 
ATOM     68  C   UNL A   1      42.019  20.896  27.930  1.00  0.00     0.040 A 
ATOM     69  C   UNL A   1      42.005  21.327  25.561  1.00  0.00     0.040 A 
ATOM     70  F   UNL A   1      42.861  23.345  24.727  1.00  0.00    -0.206 F 
ATOM     71  C   UNL A   1      41.718  20.485  26.634  1.00  0.00     0.006 A 
ENDBRANCH  50  64
BRANCH  51  72
ATOM     72  C   UNL A   1      46.229  32.304  28.621  1.00  0.00     0.057 A 
ATOM     73  C   UNL A   1      46.601  32.765  29.890  1.00  0.00     0.134 A 
ATOM     74  C   UNL A   1      46.356  33.195  27.549  1.00  0.00     0.134 A 
ATOM     75  F   UNL A   1      46.486  31.964  30.959  1.00  0.00    -0.206 F 
ATOM     76  C   UNL A   1      47.071  34.064  30.088  1.00  0.00     0.040 A 
ATOM     77  C   UNL A   1      46.847  34.489  27.729  1.00  0.00     0.040 A 
ATOM     78  F   UNL A   1      46.022  32.813  26.308  1.00  0.00    -0.206 F 
ATOM     79  C   UNL A   1      47.202  34.929  29.002  1.00  0.00     0.006 A 
ENDBRANCH  51  72
BRANCH  63  80
ATOM     80  C   UNL A   1      49.294  26.288  26.873  1.00  0.00     0.057 A 
ATOM     81  C   UNL A   1      50.135  25.763  27.861  1.00  0.00     0.134 A 
ATOM     82  C   UNL A   1      49.796  26.365  25.567  1.00  0.00     0.134 A 
ATOM     83  F   UNL A   1      49.716  25.671  29.133  1.00  0.00    -0.206 F 
ATOM     84  C   UNL A   1      51.428  25.332  27.562  1.00  0.00     0.040 A 
ATOM     85  C   UNL A   1      51.078  25.914  25.251  1.00  0.00     0.040 A 
ATOM     86  F   UNL A   1      49.036  26.848  24.572  1.00  0.00    -0.206 F 
ATOM     87  C   UNL A   1      51.898  25.396  26.252  1.00  0.00     0.006 A 
ENDBRANCH  63  80
ENDBRANCH  37  38
ENDBRANCH  29  32
ENDBRANCH  27  28
ENDBRANCH  26  27
ENDBRANCH   1  26
TORSDOF 14
ENDMDL
