MODEL 1
REMARK VINA RESULT:     -10.5      0.000      0.000
REMARK SMILES CCC(CC)[C@@H](C(=O)NCCCCCCNC(=O)c1ccc(-c2c3nc(c(-c4c(F)cccc4F)c4ccc([nH]4)c(-c4c(F)cccc4F)c4nc(c(-c5c(F)cccc5F)c5ccc2[nH]5)C=C4)C=C3)cc1)S(=O)(=O)c1cccc(OC)c1
REMARK SMILES IDX 12 1 11 2 10 3 9 4 7 5 8 6 6 8 3 9 2 10 1 11 4 12 5 13 73 14
REMARK SMILES IDX 74 15 75 16 76 17 77 18 83 19 78 20 80 21 79 22 81 23 82 24
REMARK SMILES IDX 13 25 14 26 15 27 16 28 17 29 18 31 19 32 20 33 72 34 21 35
REMARK SMILES IDX 71 36 22 37 23 38 24 39 65 40 25 41 70 42 64 43 66 44 26 45
REMARK SMILES IDX 69 46 63 47 62 48 27 50 53 51 36 52 52 53 37 54 40 55 51 56
REMARK SMILES IDX 67 57 38 58 39 59 50 61 68 62 41 63 28 64 29 65 34 66 30 67
REMARK SMILES IDX 31 68 33 69 35 70 32 71 54 72 55 73 60 74 56 75 57 76 59 77
REMARK SMILES IDX 61 78 58 79 42 80 43 81 48 82 44 83 45 84 47 85 49 86 46 87
REMARK H PARENT 9 7 16 30 66 49 40 60
REMARK Flexibility Score: inf
ROOT
ATOM      1  C   UNL A   1      32.309  29.776  27.155  1.00  0.00     0.002 C 
ENDROOT
BRANCH   1   2
ATOM      2  C   UNL A   1      33.614  29.207  26.581  1.00  0.00     0.021 C 
BRANCH   2   3
ATOM      3  C   UNL A   1      33.634  27.681  26.402  1.00  0.00     0.116 C 
BRANCH   3   4
ATOM      4  N   UNL A   1      32.309  27.151  26.605  1.00  0.00    -0.355 N 
ATOM      5  C   UNL A   1      31.590  26.109  26.128  1.00  0.00     0.239 C 
ATOM      6  O   UNL A   1      30.420  26.201  26.502  1.00  0.00    -0.274 OA
ATOM      7  H   UNL A   1      31.797  27.681  27.257  1.00  0.00     0.163 HD
BRANCH   5   8
ATOM      8  C   UNL A   1      32.139  24.928  25.299  1.00  0.00     0.205 C 
BRANCH   8   9
ATOM      9  C   UNL A   1      31.791  24.800  23.763  1.00  0.00     0.016 C 
BRANCH   9  10
ATOM     10  C   UNL A   1      30.842  25.890  23.245  1.00  0.00     0.002 C 
ATOM     11  C   UNL A   1      31.436  26.956  22.334  1.00  0.00     0.004 C 
ENDBRANCH   9  10
BRANCH   9  12
ATOM     12  C   UNL A   1      33.040  24.700  22.840  1.00  0.00     0.002 C 
ATOM     13  C   UNL A   1      33.278  23.340  22.196  1.00  0.00     0.004 C 
ENDBRANCH   9  12
ENDBRANCH   8   9
BRANCH   8  14
ATOM     14  S   UNL A   1      31.634  23.366  26.187  1.00  0.00     0.190 S 
ATOM     15  O   UNL A   1      31.942  23.532  27.599  1.00  0.00    -0.223 OA
ATOM     16  O   UNL A   1      30.276  22.984  25.844  1.00  0.00    -0.223 OA
BRANCH  14  17
ATOM     17  C   UNL A   1      32.729  22.072  25.586  1.00  0.00     0.071 A 
ATOM     18  C   UNL A   1      32.203  20.918  24.997  1.00  0.00     0.020 A 
ATOM     19  C   UNL A   1      34.111  22.201  25.735  1.00  0.00     0.066 A 
ATOM     20  C   UNL A   1      33.064  19.876  24.643  1.00  0.00     0.005 A 
ATOM     21  C   UNL A   1      34.958  21.124  25.491  1.00  0.00     0.120 A 
ATOM     22  C   UNL A   1      34.433  19.969  24.918  1.00  0.00     0.046 A 
BRANCH  21  23
ATOM     23  O   UNL A   1      36.298  21.109  25.767  1.00  0.00    -0.497 OA
ATOM     24  C   UNL A   1      37.161  21.083  24.627  1.00  0.00     0.278 C 
ENDBRANCH  21  23
ENDBRANCH  14  17
ENDBRANCH   8  14
ENDBRANCH   5   8
ENDBRANCH   3   4
ENDBRANCH   2   3
ENDBRANCH   1   2
BRANCH   1  25
ATOM     25  C   UNL A   1      31.527  30.681  26.205  1.00  0.00     0.002 C 
BRANCH  25  26
ATOM     26  C   UNL A   1      31.398  32.134  26.666  1.00  0.00     0.021 C 
BRANCH  26  27
ATOM     27  C   UNL A   1      32.721  32.831  26.972  1.00  0.00     0.116 C 
BRANCH  27  28
ATOM     28  N   UNL A   1      32.527  34.113  27.626  1.00  0.00    -0.352 N 
ATOM     29  C   UNL A   1      33.152  34.616  28.737  1.00  0.00     0.251 C 
ATOM     30  H   UNL A   1      31.854  34.701  27.214  1.00  0.00     0.163 HD
ATOM     31  O   UNL A   1      32.736  35.639  29.272  1.00  0.00    -0.269 OA
BRANCH  29  32
ATOM     32  C   UNL A   1      34.324  33.915  29.301  1.00  0.00     0.039 A 
ATOM     33  C   UNL A   1      34.119  32.948  30.287  1.00  0.00     0.014 A 
ATOM     34  C   UNL A   1      35.619  34.223  28.872  1.00  0.00     0.014 A 
ATOM     35  C   UNL A   1      35.212  32.264  30.821  1.00  0.00     0.010 A 
ATOM     36  C   UNL A   1      36.701  33.493  29.355  1.00  0.00     0.010 A 
ATOM     37  C   UNL A   1      36.510  32.518  30.346  1.00  0.00    -0.014 A 
BRANCH  37  38
ATOM     38  C   UNL A   1      37.678  31.795  30.904  1.00  0.00     0.031 A 
ATOM     39  C   UNL A   1      38.180  32.127  32.282  1.00  0.00     0.074 A 
ATOM     40  C   UNL A   1      38.314  30.872  30.158  1.00  0.00     0.049 A 
ATOM     41  N   UNL A   1      39.204  31.634  32.932  1.00  0.00    -0.248 NA
ATOM     42  C   UNL A   1      37.450  33.172  33.019  1.00  0.00     0.031 C 
ATOM     43  C   UNL A   1      37.953  30.496  28.790  1.00  0.00     0.029 A 
ATOM     44  N   UNL A   1      39.400  30.085  30.445  1.00  0.00    -0.354 N 
ATOM     45  C   UNL A   1      39.248  32.317  34.141  1.00  0.00     0.074 A 
ATOM     46  C   UNL A   1      38.182  33.294  34.115  1.00  0.00     0.031 C 
ATOM     47  C   UNL A   1      38.789  29.533  28.365  1.00  0.00     0.029 A 
ATOM     48  C   UNL A   1      39.757  29.244  29.419  1.00  0.00     0.049 A 
ATOM     49  H   UNL A   1      39.879  30.120  31.305  1.00  0.00     0.167 HD
ATOM     50  C   UNL A   1      40.084  32.128  35.189  1.00  0.00     0.037 A 
ATOM     51  C   UNL A   1      40.752  28.341  29.340  1.00  0.00     0.037 A 
ATOM     52  C   UNL A   1      41.123  31.133  35.227  1.00  0.00     0.049 A 
ATOM     53  C   UNL A   1      41.655  28.138  30.524  1.00  0.00     0.074 A 
ATOM     54  C   UNL A   1      41.986  30.825  36.264  1.00  0.00     0.029 A 
ATOM     55  N   UNL A   1      41.436  30.281  34.178  1.00  0.00    -0.354 N 
ATOM     56  N   UNL A   1      41.645  28.746  31.686  1.00  0.00    -0.248 NA
ATOM     57  C   UNL A   1      42.703  27.116  30.390  1.00  0.00     0.031 C 
ATOM     58  C   UNL A   1      42.844  29.808  35.829  1.00  0.00     0.029 A 
ATOM     59  C   UNL A   1      42.488  29.456  34.537  1.00  0.00     0.049 A 
ATOM     60  H   UNL A   1      40.977  30.266  33.307  1.00  0.00     0.167 HD
ATOM     61  C   UNL A   1      42.661  28.161  32.430  1.00  0.00     0.074 A 
ATOM     62  C   UNL A   1      43.260  27.141  31.592  1.00  0.00     0.031 C 
ATOM     63  C   UNL A   1      43.064  28.442  33.693  1.00  0.00     0.037 A 
BRANCH  50  64
ATOM     64  C   UNL A   1      39.901  33.015  36.386  1.00  0.00     0.057 A 
ATOM     65  C   UNL A   1      40.640  34.195  36.549  1.00  0.00     0.134 A 
ATOM     66  C   UNL A   1      38.958  32.703  37.373  1.00  0.00     0.134 A 
ATOM     67  F   UNL A   1      41.569  34.544  35.646  1.00  0.00    -0.206 F 
ATOM     68  C   UNL A   1      40.468  35.016  37.665  1.00  0.00     0.040 A 
ATOM     69  C   UNL A   1      38.759  33.530  38.479  1.00  0.00     0.040 A 
ATOM     70  F   UNL A   1      38.213  31.592  37.276  1.00  0.00    -0.206 F 
ATOM     71  C   UNL A   1      39.520  34.686  38.631  1.00  0.00     0.006 A 
ENDBRANCH  50  64
BRANCH  51  72
ATOM     72  C   UNL A   1      40.924  27.533  28.108  1.00  0.00     0.057 A 
ATOM     73  C   UNL A   1      41.738  27.979  27.061  1.00  0.00     0.134 A 
ATOM     74  C   UNL A   1      40.280  26.301  27.945  1.00  0.00     0.134 A 
ATOM     75  F   UNL A   1      42.368  29.160  27.153  1.00  0.00    -0.206 F 
ATOM     76  C   UNL A   1      41.890  27.241  25.886  1.00  0.00     0.040 A 
ATOM     77  C   UNL A   1      40.440  25.541  26.785  1.00  0.00     0.040 A 
ATOM     78  F   UNL A   1      39.493  25.814  28.916  1.00  0.00    -0.206 F 
ATOM     79  C   UNL A   1      41.242  26.015  25.749  1.00  0.00     0.006 A 
ENDBRANCH  51  72
BRANCH  63  80
ATOM     80  C   UNL A   1      44.178  27.611  34.257  1.00  0.00     0.057 A 
ATOM     81  C   UNL A   1      45.511  28.039  34.221  1.00  0.00     0.134 A 
ATOM     82  C   UNL A   1      43.908  26.381  34.872  1.00  0.00     0.134 A 
ATOM     83  F   UNL A   1      45.836  29.200  33.634  1.00  0.00    -0.206 F 
ATOM     84  C   UNL A   1      46.539  27.263  34.756  1.00  0.00     0.040 A 
ATOM     85  C   UNL A   1      44.926  25.608  35.432  1.00  0.00     0.040 A 
ATOM     86  F   UNL A   1      42.652  25.918  34.947  1.00  0.00    -0.206 F 
ATOM     87  C   UNL A   1      46.247  26.046  35.369  1.00  0.00     0.006 A 
ENDBRANCH  63  80
ENDBRANCH  37  38
ENDBRANCH  29  32
ENDBRANCH  27  28
ENDBRANCH  26  27
ENDBRANCH  25  26
ENDBRANCH   1  25
TORSDOF 19
ENDMDL
MODEL 2
REMARK VINA RESULT:     -10.5      4.425      9.540
REMARK SMILES CCC(CC)[C@@H](C(=O)NCCCCCCNC(=O)c1ccc(-c2c3nc(c(-c4c(F)cccc4F)c4ccc([nH]4)c(-c4c(F)cccc4F)c4nc(c(-c5c(F)cccc5F)c5ccc2[nH]5)C=C4)C=C3)cc1)S(=O)(=O)c1cccc(OC)c1
REMARK SMILES IDX 12 1 11 2 10 3 9 4 7 5 8 6 6 8 3 9 2 10 1 11 4 12 5 13 73 14
REMARK SMILES IDX 74 15 75 16 76 17 77 18 83 19 78 20 80 21 79 22 81 23 82 24
REMARK SMILES IDX 13 25 14 26 15 27 16 28 17 29 18 31 19 32 20 33 72 34 21 35
REMARK SMILES IDX 71 36 22 37 23 38 24 39 65 40 25 41 70 42 64 43 66 44 26 45
REMARK SMILES IDX 69 46 63 47 62 48 27 50 53 51 36 52 52 53 37 54 40 55 51 56
REMARK SMILES IDX 67 57 38 58 39 59 50 61 68 62 41 63 28 64 29 65 34 66 30 67
REMARK SMILES IDX 31 68 33 69 35 70 32 71 54 72 55 73 60 74 56 75 57 76 59 77
REMARK SMILES IDX 61 78 58 79 42 80 43 81 48 82 44 83 45 84 47 85 49 86 46 87
REMARK H PARENT 9 7 16 30 66 49 40 60
REMARK Flexibility Score: inf
ROOT
ATOM      1  C   UNL A   1      37.312  21.971  24.599  1.00  0.00     0.002 C 
ENDROOT
BRANCH   1   2
ATOM      2  C   UNL A   1      36.170  22.965  24.854  1.00  0.00     0.021 C 
BRANCH   2   3
ATOM      3  C   UNL A   1      34.768  22.447  24.499  1.00  0.00     0.116 C 
BRANCH   3   4
ATOM      4  N   UNL A   1      34.414  22.877  23.169  1.00  0.00    -0.355 N 
ATOM      5  C   UNL A   1      33.623  23.831  22.629  1.00  0.00     0.239 C 
ATOM      6  O   UNL A   1      33.533  23.663  21.412  1.00  0.00    -0.274 OA
ATOM      7  H   UNL A   1      34.862  22.339  22.478  1.00  0.00     0.163 HD
BRANCH   5   8
ATOM      8  C   UNL A   1      32.976  25.013  23.384  1.00  0.00     0.205 C 
BRANCH   8   9
ATOM      9  C   UNL A   1      31.677  24.788  24.256  1.00  0.00     0.016 C 
BRANCH   9  10
ATOM     10  C   UNL A   1      31.131  23.354  24.204  1.00  0.00     0.002 C 
ATOM     11  C   UNL A   1      30.869  22.659  25.533  1.00  0.00     0.004 C 
ENDBRANCH   9  10
BRANCH   9  12
ATOM     12  C   UNL A   1      31.822  25.248  25.736  1.00  0.00     0.002 C 
ATOM     13  C   UNL A   1      30.833  26.309  26.198  1.00  0.00     0.004 C 
ENDBRANCH   9  12
ENDBRANCH   8   9
BRANCH   8  14
ATOM     14  S   UNL A   1      32.660  26.351  22.124  1.00  0.00     0.190 S 
ATOM     15  O   UNL A   1      33.928  26.684  21.494  1.00  0.00    -0.223 OA
ATOM     16  O   UNL A   1      31.557  25.997  21.249  1.00  0.00    -0.223 OA
BRANCH  14  17
ATOM     17  C   UNL A   1      32.166  27.809  23.054  1.00  0.00     0.071 A 
ATOM     18  C   UNL A   1      33.003  28.335  24.042  1.00  0.00     0.020 A 
ATOM     19  C   UNL A   1      30.925  28.403  22.815  1.00  0.00     0.066 A 
ATOM     20  C   UNL A   1      32.552  29.396  24.831  1.00  0.00     0.005 A 
ATOM     21  C   UNL A   1      30.427  29.381  23.671  1.00  0.00     0.120 A 
ATOM     22  C   UNL A   1      31.255  29.895  24.664  1.00  0.00     0.046 A 
BRANCH  21  23
ATOM     23  O   UNL A   1      29.160  29.896  23.610  1.00  0.00    -0.497 OA
ATOM     24  C   UNL A   1      28.214  29.118  22.873  1.00  0.00     0.278 C 
ENDBRANCH  21  23
ENDBRANCH  14  17
ENDBRANCH   8  14
ENDBRANCH   5   8
ENDBRANCH   3   4
ENDBRANCH   2   3
ENDBRANCH   1   2
BRANCH   1  25
ATOM     25  C   UNL A   1      36.908  20.498  24.643  1.00  0.00     0.002 C 
BRANCH  25  26
ATOM     26  C   UNL A   1      38.068  19.522  24.840  1.00  0.00     0.021 C 
BRANCH  26  27
ATOM     27  C   UNL A   1      39.053  19.905  25.941  1.00  0.00     0.116 C 
BRANCH  27  28
ATOM     28  N   UNL A   1      40.264  19.107  25.897  1.00  0.00    -0.352 N 
ATOM     29  C   UNL A   1      41.565  19.503  26.070  1.00  0.00     0.251 C 
ATOM     30  H   UNL A   1      40.132  18.147  25.719  1.00  0.00     0.163 HD
ATOM     31  O   UNL A   1      42.486  18.735  25.812  1.00  0.00    -0.269 OA
BRANCH  29  32
ATOM     32  C   UNL A   1      41.857  20.868  26.554  1.00  0.00     0.039 A 
ATOM     33  C   UNL A   1      41.826  21.115  27.928  1.00  0.00     0.014 A 
ATOM     34  C   UNL A   1      42.141  21.902  25.656  1.00  0.00     0.014 A 
ATOM     35  C   UNL A   1      42.115  22.394  28.406  1.00  0.00     0.010 A 
ATOM     36  C   UNL A   1      42.495  23.159  26.137  1.00  0.00     0.010 A 
ATOM     37  C   UNL A   1      42.470  23.422  27.516  1.00  0.00    -0.014 A 
BRANCH  37  38
ATOM     38  C   UNL A   1      42.780  24.784  28.012  1.00  0.00     0.031 A 
ATOM     39  C   UNL A   1      44.204  25.175  28.298  1.00  0.00     0.074 A 
ATOM     40  C   UNL A   1      41.781  25.656  28.246  1.00  0.00     0.049 A 
ATOM     41  N   UNL A   1      44.675  26.302  28.767  1.00  0.00    -0.248 NA
ATOM     42  C   UNL A   1      45.233  24.153  28.047  1.00  0.00     0.031 C 
ATOM     43  C   UNL A   1      40.356  25.380  28.055  1.00  0.00     0.029 A 
ATOM     44  N   UNL A   1      41.812  26.950  28.701  1.00  0.00    -0.354 N 
ATOM     45  C   UNL A   1      46.048  26.119  28.881  1.00  0.00     0.074 A 
ATOM     46  C   UNL A   1      46.328  24.757  28.482  1.00  0.00     0.031 C 
ATOM     47  C   UNL A   1      39.650  26.480  28.366  1.00  0.00     0.029 A 
ATOM     48  C   UNL A   1      40.570  27.527  28.803  1.00  0.00     0.049 A 
ATOM     49  H   UNL A   1      42.646  27.420  28.931  1.00  0.00     0.167 HD
ATOM     50  C   UNL A   1      46.992  27.013  29.258  1.00  0.00     0.037 A 
ATOM     51  C   UNL A   1      40.214  28.762  29.203  1.00  0.00     0.037 A 
ATOM     52  C   UNL A   1      46.715  28.377  29.624  1.00  0.00     0.049 A 
ATOM     53  C   UNL A   1      41.283  29.742  29.600  1.00  0.00     0.074 A 
ATOM     54  C   UNL A   1      47.608  29.377  29.966  1.00  0.00     0.029 A 
ATOM     55  N   UNL A   1      45.446  28.933  29.688  1.00  0.00    -0.354 N 
ATOM     56  N   UNL A   1      42.584  29.576  29.641  1.00  0.00    -0.248 NA
ATOM     57  C   UNL A   1      40.836  31.085  29.996  1.00  0.00     0.031 C 
ATOM     58  C   UNL A   1      46.876  30.530  30.272  1.00  0.00     0.029 A 
ATOM     59  C   UNL A   1      45.530  30.259  30.080  1.00  0.00     0.049 A 
ATOM     60  H   UNL A   1      44.609  28.455  29.487  1.00  0.00     0.167 HD
ATOM     61  C   UNL A   1      43.111  30.798  30.038  1.00  0.00     0.074 A 
ATOM     62  C   UNL A   1      41.990  31.699  30.212  1.00  0.00     0.031 C 
ATOM     63  C   UNL A   1      44.405  31.143  30.240  1.00  0.00     0.037 A 
BRANCH  50  64
ATOM     64  C   UNL A   1      48.416  26.540  29.287  1.00  0.00     0.057 A 
ATOM     65  C   UNL A   1      49.231  26.584  28.148  1.00  0.00     0.134 A 
ATOM     66  C   UNL A   1      48.988  26.060  30.471  1.00  0.00     0.134 A 
ATOM     67  F   UNL A   1      48.740  27.020  26.978  1.00  0.00    -0.206 F 
ATOM     68  C   UNL A   1      50.555  26.141  28.179  1.00  0.00     0.040 A 
ATOM     69  C   UNL A   1      50.318  25.640  30.521  1.00  0.00     0.040 A 
ATOM     70  F   UNL A   1      48.266  25.997  31.600  1.00  0.00    -0.206 F 
ATOM     71  C   UNL A   1      51.103  25.672  29.370  1.00  0.00     0.006 A 
ENDBRANCH  50  64
BRANCH  51  72
ATOM     72  C   UNL A   1      38.784  29.156  29.212  1.00  0.00     0.057 A 
ATOM     73  C   UNL A   1      38.012  29.042  30.374  1.00  0.00     0.134 A 
ATOM     74  C   UNL A   1      38.154  29.652  28.065  1.00  0.00     0.134 A 
ATOM     75  F   UNL A   1      38.557  28.557  31.500  1.00  0.00    -0.206 F 
ATOM     76  C   UNL A   1      36.660  29.385  30.391  1.00  0.00     0.040 A 
ATOM     77  C   UNL A   1      36.808  30.021  28.072  1.00  0.00     0.040 A 
ATOM     78  F   UNL A   1      38.842  29.794  26.922  1.00  0.00    -0.206 F 
ATOM     79  C   UNL A   1      36.056  29.881  29.237  1.00  0.00     0.006 A 
ENDBRANCH  51  72
BRANCH  63  80
ATOM     80  C   UNL A   1      44.681  32.563  30.635  1.00  0.00     0.057 A 
ATOM     81  C   UNL A   1      44.875  33.571  29.682  1.00  0.00     0.134 A 
ATOM     82  C   UNL A   1      44.719  32.931  31.986  1.00  0.00     0.134 A 
ATOM     83  F   UNL A   1      44.863  33.280  28.374  1.00  0.00    -0.206 F 
ATOM     84  C   UNL A   1      45.121  34.891  30.061  1.00  0.00     0.040 A 
ATOM     85  C   UNL A   1      44.940  34.253  32.375  1.00  0.00     0.040 A 
ATOM     86  F   UNL A   1      44.532  32.015  32.948  1.00  0.00    -0.206 F 
ATOM     87  C   UNL A   1      45.149  35.236  31.410  1.00  0.00     0.006 A 
ENDBRANCH  63  80
ENDBRANCH  37  38
ENDBRANCH  29  32
ENDBRANCH  27  28
ENDBRANCH  26  27
ENDBRANCH  25  26
ENDBRANCH   1  25
TORSDOF 19
ENDMDL
MODEL 3
REMARK VINA RESULT:     -10.3      1.161      1.993
REMARK SMILES CCC(CC)[C@@H](C(=O)NCCCCCCNC(=O)c1ccc(-c2c3nc(c(-c4c(F)cccc4F)c4ccc([nH]4)c(-c4c(F)cccc4F)c4nc(c(-c5c(F)cccc5F)c5ccc2[nH]5)C=C4)C=C3)cc1)S(=O)(=O)c1cccc(OC)c1
REMARK SMILES IDX 12 1 11 2 10 3 9 4 7 5 8 6 6 8 3 9 2 10 1 11 4 12 5 13 73 14
REMARK SMILES IDX 74 15 75 16 76 17 77 18 83 19 78 20 80 21 79 22 81 23 82 24
REMARK SMILES IDX 13 25 14 26 15 27 16 28 17 29 18 31 19 32 20 33 72 34 21 35
REMARK SMILES IDX 71 36 22 37 23 38 24 39 65 40 25 41 70 42 64 43 66 44 26 45
REMARK SMILES IDX 69 46 63 47 62 48 27 50 53 51 36 52 52 53 37 54 40 55 51 56
REMARK SMILES IDX 67 57 38 58 39 59 50 61 68 62 41 63 28 64 29 65 34 66 30 67
REMARK SMILES IDX 31 68 33 69 35 70 32 71 54 72 55 73 60 74 56 75 57 76 59 77
REMARK SMILES IDX 61 78 58 79 42 80 43 81 48 82 44 83 45 84 47 85 49 86 46 87
REMARK H PARENT 9 7 16 30 66 49 40 60
REMARK Flexibility Score: inf
ROOT
ATOM      1  C   UNL A   1      32.639  30.041  27.161  1.00  0.00     0.002 C 
ENDROOT
BRANCH   1   2
ATOM      2  C   UNL A   1      32.780  28.527  26.952  1.00  0.00     0.021 C 
BRANCH   2   3
ATOM      3  C   UNL A   1      32.938  28.086  25.489  1.00  0.00     0.116 C 
BRANCH   3   4
ATOM      4  N   UNL A   1      33.870  26.989  25.409  1.00  0.00    -0.355 N 
ATOM      5  C   UNL A   1      33.789  25.647  25.257  1.00  0.00     0.239 C 
ATOM      6  O   UNL A   1      34.897  25.138  25.430  1.00  0.00    -0.274 OA
ATOM      7  H   UNL A   1      34.803  27.293  25.483  1.00  0.00     0.163 HD
BRANCH   5   8
ATOM      8  C   UNL A   1      32.529  24.851  24.854  1.00  0.00     0.205 C 
BRANCH   8   9
ATOM      9  C   UNL A   1      31.852  23.855  25.878  1.00  0.00     0.016 C 
BRANCH   9  10
ATOM     10  C   UNL A   1      32.632  23.683  27.190  1.00  0.00     0.002 C 
ATOM     11  C   UNL A   1      33.135  22.286  27.524  1.00  0.00     0.004 C 
ENDBRANCH   9  10
BRANCH   9  12
ATOM     12  C   UNL A   1      30.362  24.182  26.185  1.00  0.00     0.002 C 
ATOM     13  C   UNL A   1      29.900  25.581  25.801  1.00  0.00     0.004 C 
ENDBRANCH   9  12
ENDBRANCH   8   9
BRANCH   8  14
ATOM     14  S   UNL A   1      32.945  23.943  23.279  1.00  0.00     0.190 S 
ATOM     15  O   UNL A   1      31.718  23.778  22.517  1.00  0.00    -0.223 OA
ATOM     16  O   UNL A   1      34.071  24.559  22.601  1.00  0.00    -0.223 OA
BRANCH  14  17
ATOM     17  C   UNL A   1      33.452  22.289  23.774  1.00  0.00     0.071 A 
ATOM     18  C   UNL A   1      32.529  21.239  23.777  1.00  0.00     0.020 A 
ATOM     19  C   UNL A   1      34.764  22.055  24.190  1.00  0.00     0.066 A 
ATOM     20  C   UNL A   1      32.913  19.990  24.275  1.00  0.00     0.005 A 
ATOM     21  C   UNL A   1      35.116  20.850  24.792  1.00  0.00     0.120 A 
ATOM     22  C   UNL A   1      34.194  19.808  24.808  1.00  0.00     0.046 A 
BRANCH  21  23
ATOM     23  O   UNL A   1      36.328  20.597  25.375  1.00  0.00    -0.497 OA
ATOM     24  C   UNL A   1      37.380  21.501  25.027  1.00  0.00     0.278 C 
ENDBRANCH  21  23
ENDBRANCH  14  17
ENDBRANCH   8  14
ENDBRANCH   5   8
ENDBRANCH   3   4
ENDBRANCH   2   3
ENDBRANCH   1   2
BRANCH   1  25
ATOM     25  C   UNL A   1      31.405  30.670  26.517  1.00  0.00     0.002 C 
BRANCH  25  26
ATOM     26  C   UNL A   1      31.372  32.198  26.555  1.00  0.00     0.021 C 
BRANCH  26  27
ATOM     27  C   UNL A   1      32.705  32.863  26.887  1.00  0.00     0.116 C 
BRANCH  27  28
ATOM     28  N   UNL A   1      32.531  34.126  27.581  1.00  0.00    -0.352 N 
ATOM     29  C   UNL A   1      33.160  34.584  28.709  1.00  0.00     0.251 C 
ATOM     30  H   UNL A   1      31.869  34.738  27.185  1.00  0.00     0.163 HD
ATOM     31  O   UNL A   1      32.759  35.596  29.275  1.00  0.00    -0.269 OA
BRANCH  29  32
ATOM     32  C   UNL A   1      34.318  33.845  29.254  1.00  0.00     0.039 A 
ATOM     33  C   UNL A   1      35.605  34.281  28.932  1.00  0.00     0.014 A 
ATOM     34  C   UNL A   1      34.134  32.719  30.061  1.00  0.00     0.014 A 
ATOM     35  C   UNL A   1      36.711  33.605  29.450  1.00  0.00     0.010 A 
ATOM     36  C   UNL A   1      35.236  32.087  30.631  1.00  0.00     0.010 A 
ATOM     37  C   UNL A   1      36.536  32.515  30.318  1.00  0.00    -0.014 A 
BRANCH  37  38
ATOM     38  C   UNL A   1      37.703  31.791  30.875  1.00  0.00     0.031 A 
ATOM     39  C   UNL A   1      38.207  32.122  32.253  1.00  0.00     0.074 A 
ATOM     40  C   UNL A   1      38.338  30.867  30.128  1.00  0.00     0.049 A 
ATOM     41  N   UNL A   1      39.230  31.627  32.902  1.00  0.00    -0.248 NA
ATOM     42  C   UNL A   1      37.478  33.167  32.990  1.00  0.00     0.031 C 
ATOM     43  C   UNL A   1      37.976  30.491  28.760  1.00  0.00     0.029 A 
ATOM     44  N   UNL A   1      39.423  30.078  30.415  1.00  0.00    -0.354 N 
ATOM     45  C   UNL A   1      39.276  32.309  34.112  1.00  0.00     0.074 A 
ATOM     46  C   UNL A   1      38.212  33.288  34.086  1.00  0.00     0.031 C 
ATOM     47  C   UNL A   1      38.809  29.527  28.335  1.00  0.00     0.029 A 
ATOM     48  C   UNL A   1      39.778  29.237  29.389  1.00  0.00     0.049 A 
ATOM     49  H   UNL A   1      39.902  30.112  31.274  1.00  0.00     0.167 HD
ATOM     50  C   UNL A   1      40.112  32.119  35.159  1.00  0.00     0.037 A 
ATOM     51  C   UNL A   1      40.772  28.332  29.309  1.00  0.00     0.037 A 
ATOM     52  C   UNL A   1      41.150  31.123  35.195  1.00  0.00     0.049 A 
ATOM     53  C   UNL A   1      41.675  28.127  30.492  1.00  0.00     0.074 A 
ATOM     54  C   UNL A   1      42.013  30.813  36.232  1.00  0.00     0.029 A 
ATOM     55  N   UNL A   1      41.460  30.270  34.147  1.00  0.00    -0.354 N 
ATOM     56  N   UNL A   1      41.667  28.735  31.655  1.00  0.00    -0.248 NA
ATOM     57  C   UNL A   1      42.721  27.104  30.357  1.00  0.00     0.031 C 
ATOM     58  C   UNL A   1      42.869  29.795  35.797  1.00  0.00     0.029 A 
ATOM     59  C   UNL A   1      42.512  29.443  34.505  1.00  0.00     0.049 A 
ATOM     60  H   UNL A   1      41.002  30.256  33.276  1.00  0.00     0.167 HD
ATOM     61  C   UNL A   1      42.682  28.148  32.398  1.00  0.00     0.074 A 
ATOM     62  C   UNL A   1      43.279  27.128  31.559  1.00  0.00     0.031 C 
ATOM     63  C   UNL A   1      43.086  28.429  33.660  1.00  0.00     0.037 A 
BRANCH  50  64
ATOM     64  C   UNL A   1      39.931  33.006  36.356  1.00  0.00     0.057 A 
ATOM     65  C   UNL A   1      40.675  34.182  36.521  1.00  0.00     0.134 A 
ATOM     66  C   UNL A   1      38.986  32.697  37.341  1.00  0.00     0.134 A 
ATOM     67  F   UNL A   1      41.607  34.528  35.620  1.00  0.00    -0.206 F 
ATOM     68  C   UNL A   1      40.505  35.003  37.637  1.00  0.00     0.040 A 
ATOM     69  C   UNL A   1      38.788  33.525  38.448  1.00  0.00     0.040 A 
ATOM     70  F   UNL A   1      38.235  31.590  37.242  1.00  0.00    -0.206 F 
ATOM     71  C   UNL A   1      39.554  34.678  38.602  1.00  0.00     0.006 A 
ENDBRANCH  50  64
BRANCH  51  72
ATOM     72  C   UNL A   1      40.942  27.524  28.077  1.00  0.00     0.057 A 
ATOM     73  C   UNL A   1      40.292  26.293  27.927  1.00  0.00     0.134 A 
ATOM     74  C   UNL A   1      41.757  27.956  27.024  1.00  0.00     0.134 A 
ATOM     75  F   UNL A   1      39.512  25.819  28.910  1.00  0.00    -0.206 F 
ATOM     76  C   UNL A   1      40.463  25.510  26.784  1.00  0.00     0.040 A 
ATOM     77  C   UNL A   1      41.918  27.194  25.865  1.00  0.00     0.040 A 
ATOM     78  F   UNL A   1      42.399  29.130  27.103  1.00  0.00    -0.206 F 
ATOM     79  C   UNL A   1      41.275  25.963  25.747  1.00  0.00     0.006 A 
ENDBRANCH  51  72
BRANCH  63  80
ATOM     80  C   UNL A   1      44.199  27.596  34.223  1.00  0.00     0.057 A 
ATOM     81  C   UNL A   1      45.539  27.994  34.133  1.00  0.00     0.134 A 
ATOM     82  C   UNL A   1      43.923  26.396  34.892  1.00  0.00     0.134 A 
ATOM     83  F   UNL A   1      45.869  29.126  33.493  1.00  0.00    -0.206 F 
ATOM     84  C   UNL A   1      46.567  27.217  34.668  1.00  0.00     0.040 A 
ATOM     85  C   UNL A   1      44.941  25.623  35.452  1.00  0.00     0.040 A 
ATOM     86  F   UNL A   1      42.660  25.963  35.021  1.00  0.00    -0.206 F 
ATOM     87  C   UNL A   1      46.268  26.030  35.334  1.00  0.00     0.006 A 
ENDBRANCH  63  80
ENDBRANCH  37  38
ENDBRANCH  29  32
ENDBRANCH  27  28
ENDBRANCH  26  27
ENDBRANCH  25  26
ENDBRANCH   1  25
TORSDOF 19
ENDMDL
