MODEL 1
REMARK VINA RESULT:     -12.2      0.000      0.000
REMARK SMILES CC[C@@H]1C=CCN1S(=O)(=O)c1sc2c(c1C(=O)NCCCCCCNC(=O)c1ccc(-c3c4nc(c(-c5c(F)cccc5F)c5ccc([nH]5)c(-c5c(F)cccc5F)c5nc(c(-c6c(F)cccc6F)c6ccc3[nH]6)C=C5)C=C4)cc1)CC[NH2+]C2
REMARK SMILES IDX 21 1 20 2 19 3 18 4 16 5 17 6 15 8 11 9 12 10 13 11 14 12
REMARK SMILES IDX 85 13 82 14 84 15 83 16 8 19 9 20 10 21 7 22 3 23 4 24 5 25
REMARK SMILES IDX 6 26 2 27 1 28 22 29 23 30 24 31 25 32 26 33 27 35 28 36
REMARK SMILES IDX 29 37 81 38 30 39 80 40 31 41 32 42 33 43 74 44 34 45 79 46
REMARK SMILES IDX 73 47 75 48 35 49 78 50 72 51 71 52 36 54 62 55 45 56 61 57
REMARK SMILES IDX 46 58 49 59 60 60 76 61 47 62 48 63 59 65 77 66 50 67 37 68
REMARK SMILES IDX 38 69 43 70 39 71 40 72 42 73 44 74 41 75 63 76 64 77 69 78
REMARK SMILES IDX 65 79 66 80 68 81 70 82 67 83 51 84 52 85 57 86 53 87 54 88
REMARK SMILES IDX 56 89 58 90 55 91
REMARK H PARENT 18 7 84 17 84 18 25 34 75 53 49 64
REMARK Flexibility Score: inf
ROOT
ATOM      1  C   UNL A   1      39.301  21.790  26.007  1.00  0.00     0.002 C 
ENDROOT
BRANCH   1   2
ATOM      2  C   UNL A   1      38.633  23.049  26.557  1.00  0.00     0.021 C 
BRANCH   2   3
ATOM      3  C   UNL A   1      37.505  23.663  25.746  1.00  0.00     0.116 C 
BRANCH   3   4
ATOM      4  N   UNL A   1      37.400  23.276  24.379  1.00  0.00    -0.352 N 
ATOM      5  C   UNL A   1      36.310  23.198  23.552  1.00  0.00     0.253 C 
ATOM      6  O   UNL A   1      36.633  23.046  22.368  1.00  0.00    -0.269 OA
ATOM      7  H   UNL A   1      38.253  23.020  23.958  1.00  0.00     0.163 HD
BRANCH   5   8
ATOM      8  C   UNL A   1      34.867  23.168  23.939  1.00  0.00     0.074 A 
ATOM      9  C   UNL A   1      33.804  24.102  23.857  1.00  0.00     0.148 A 
ATOM     10  S   UNL A   1      32.329  23.424  24.486  1.00  0.00    -0.120 S 
ATOM     11  C   UNL A   1      33.010  21.952  24.861  1.00  0.00     0.064 A 
ATOM     12  C   UNL A   1      34.332  21.882  24.491  1.00  0.00    -0.009 A 
ATOM     13  C   UNL A   1      32.194  20.851  25.470  1.00  0.00     0.308 C 
ATOM     14  C   UNL A   1      35.063  20.572  24.721  1.00  0.00     0.099 C 
ATOM     15  N   UNL A   1      33.054  19.805  26.041  1.00  0.00    -0.342 N 
ATOM     16  C   UNL A   1      34.085  19.418  25.061  1.00  0.00     0.265 C 
ATOM     17  H   UNL A   1      33.504  20.160  26.885  1.00  0.00     0.346 HD
ATOM     18  H   UNL A   1      32.486  18.990  26.272  1.00  0.00     0.346 HD
BRANCH   9  19
ATOM     19  S   UNL A   1      33.414  25.805  23.286  1.00  0.00     0.254 S 
ATOM     20  O   UNL A   1      33.321  25.756  21.847  1.00  0.00    -0.206 OA
ATOM     21  O   UNL A   1      34.404  26.684  23.877  1.00  0.00    -0.206 OA
BRANCH  19  22
ATOM     22  N   UNL A   1      31.855  26.224  23.905  1.00  0.00    -0.186 NA
ATOM     23  C   UNL A   1      31.822  27.410  24.832  1.00  0.00     0.096 C 
ATOM     24  C   UNL A   1      30.956  28.400  24.126  1.00  0.00    -0.010 C 
ATOM     25  C   UNL A   1      30.382  27.863  23.050  1.00  0.00    -0.013 C 
ATOM     26  C   UNL A   1      30.828  26.462  22.837  1.00  0.00     0.130 C 
BRANCH  23  27
ATOM     27  C   UNL A   1      31.215  27.028  26.196  1.00  0.00     0.021 C 
ATOM     28  C   UNL A   1      31.444  28.010  27.347  1.00  0.00     0.006 C 
ENDBRANCH  23  27
ENDBRANCH  19  22
ENDBRANCH   9  19
ENDBRANCH   5   8
ENDBRANCH   3   4
ENDBRANCH   2   3
ENDBRANCH   1   2
BRANCH   1  29
ATOM     29  C   UNL A   1      40.624  21.317  26.636  1.00  0.00     0.002 C 
BRANCH  29  30
ATOM     30  C   UNL A   1      41.241  19.987  26.179  1.00  0.00     0.021 C 
BRANCH  30  31
ATOM     31  C   UNL A   1      42.616  19.670  26.743  1.00  0.00     0.116 C 
BRANCH  31  32
ATOM     32  N   UNL A   1      43.652  19.506  25.723  1.00  0.00    -0.352 N 
ATOM     33  C   UNL A   1      44.227  20.483  24.930  1.00  0.00     0.251 C 
ATOM     34  H   UNL A   1      43.981  18.588  25.586  1.00  0.00     0.163 HD
ATOM     35  O   UNL A   1      44.810  20.198  23.890  1.00  0.00    -0.269 OA
BRANCH  33  36
ATOM     36  C   UNL A   1      44.125  21.888  25.360  1.00  0.00     0.039 A 
ATOM     37  C   UNL A   1      43.274  22.796  24.726  1.00  0.00     0.014 A 
ATOM     38  C   UNL A   1      44.882  22.276  26.460  1.00  0.00     0.014 A 
ATOM     39  C   UNL A   1      43.129  24.071  25.271  1.00  0.00     0.010 A 
ATOM     40  C   UNL A   1      44.597  23.451  27.100  1.00  0.00     0.010 A 
ATOM     41  C   UNL A   1      43.777  24.383  26.477  1.00  0.00    -0.014 A 
BRANCH  41  42
ATOM     42  C   UNL A   1      43.549  25.653  27.154  1.00  0.00     0.031 A 
ATOM     43  C   UNL A   1      44.514  26.732  26.810  1.00  0.00     0.074 A 
ATOM     44  C   UNL A   1      42.433  25.914  27.870  1.00  0.00     0.049 A 
ATOM     45  N   UNL A   1      45.401  27.270  27.577  1.00  0.00    -0.248 NA
ATOM     46  C   UNL A   1      44.589  27.181  25.410  1.00  0.00     0.031 C 
ATOM     47  C   UNL A   1      41.233  25.085  28.047  1.00  0.00     0.029 A 
ATOM     48  N   UNL A   1      42.098  27.055  28.529  1.00  0.00    -0.354 N 
ATOM     49  C   UNL A   1      46.013  28.268  26.824  1.00  0.00     0.074 A 
ATOM     50  C   UNL A   1      45.599  28.052  25.462  1.00  0.00     0.031 C 
ATOM     51  C   UNL A   1      40.231  25.835  28.558  1.00  0.00     0.029 A 
ATOM     52  C   UNL A   1      40.767  27.132  28.919  1.00  0.00     0.049 A 
ATOM     53  H   UNL A   1      42.749  27.770  28.716  1.00  0.00     0.167 HD
ATOM     54  C   UNL A   1      46.624  29.328  27.423  1.00  0.00     0.037 A 
ATOM     55  C   UNL A   1      40.152  28.195  29.491  1.00  0.00     0.037 A 
ATOM     56  C   UNL A   1      46.866  29.063  28.820  1.00  0.00     0.049 A 
ATOM     57  C   UNL A   1      41.213  29.062  30.057  1.00  0.00     0.074 A 
ATOM     58  C   UNL A   1      47.574  28.104  29.519  1.00  0.00     0.029 A 
ATOM     59  N   UNL A   1      46.012  29.629  29.735  1.00  0.00    -0.354 N 
ATOM     60  N   UNL A   1      41.955  28.727  31.076  1.00  0.00    -0.248 NA
ATOM     61  C   UNL A   1      41.759  30.103  29.200  1.00  0.00     0.031 C 
ATOM     62  C   UNL A   1      46.760  27.800  30.652  1.00  0.00     0.029 A 
ATOM     63  C   UNL A   1      45.648  28.642  30.614  1.00  0.00     0.049 A 
ATOM     64  H   UNL A   1      45.717  30.568  29.757  1.00  0.00     0.167 HD
ATOM     65  C   UNL A   1      43.225  29.179  30.750  1.00  0.00     0.074 A 
ATOM     66  C   UNL A   1      43.025  30.095  29.627  1.00  0.00     0.031 C 
ATOM     67  C   UNL A   1      44.341  28.553  31.224  1.00  0.00     0.037 A 
BRANCH  54  68
ATOM     68  C   UNL A   1      46.660  30.730  26.864  1.00  0.00     0.057 A 
ATOM     69  C   UNL A   1      47.875  31.442  26.876  1.00  0.00     0.134 A 
ATOM     70  C   UNL A   1      45.516  31.511  26.601  1.00  0.00     0.134 A 
ATOM     71  F   UNL A   1      49.036  30.816  27.120  1.00  0.00    -0.206 F 
ATOM     72  C   UNL A   1      47.935  32.833  26.730  1.00  0.00     0.040 A 
ATOM     73  C   UNL A   1      45.570  32.894  26.402  1.00  0.00     0.040 A 
ATOM     74  F   UNL A   1      44.277  31.005  26.623  1.00  0.00    -0.206 F 
ATOM     75  C   UNL A   1      46.777  33.566  26.502  1.00  0.00     0.006 A 
ENDBRANCH  54  68
BRANCH  55  76
ATOM     76  C   UNL A   1      38.753  28.653  29.349  1.00  0.00     0.057 A 
ATOM     77  C   UNL A   1      37.895  28.711  30.456  1.00  0.00     0.134 A 
ATOM     78  C   UNL A   1      38.316  29.319  28.191  1.00  0.00     0.134 A 
ATOM     79  F   UNL A   1      38.242  28.134  31.616  1.00  0.00    -0.206 F 
ATOM     80  C   UNL A   1      36.689  29.422  30.428  1.00  0.00     0.040 A 
ATOM     81  C   UNL A   1      37.111  30.029  28.147  1.00  0.00     0.040 A 
ATOM     82  F   UNL A   1      39.088  29.382  27.096  1.00  0.00    -0.206 F 
ATOM     83  C   UNL A   1      36.300  30.097  29.274  1.00  0.00     0.006 A 
ENDBRANCH  55  76
BRANCH  67  84
ATOM     84  C   UNL A   1      44.165  27.515  32.300  1.00  0.00     0.057 A 
ATOM     85  C   UNL A   1      44.083  26.134  32.063  1.00  0.00     0.134 A 
ATOM     86  C   UNL A   1      44.235  27.919  33.638  1.00  0.00     0.134 A 
ATOM     87  F   UNL A   1      44.108  25.639  30.820  1.00  0.00    -0.206 F 
ATOM     88  C   UNL A   1      44.031  25.205  33.108  1.00  0.00     0.040 A 
ATOM     89  C   UNL A   1      44.218  27.001  34.690  1.00  0.00     0.040 A 
ATOM     90  F   UNL A   1      44.371  29.220  33.943  1.00  0.00    -0.206 F 
ATOM     91  C   UNL A   1      44.106  25.638  34.427  1.00  0.00     0.006 A 
ENDBRANCH  67  84
ENDBRANCH  41  42
ENDBRANCH  33  36
ENDBRANCH  31  32
ENDBRANCH  30  31
ENDBRANCH  29  30
ENDBRANCH   1  29
TORSDOF 16
ENDMDL
MODEL 2
REMARK VINA RESULT:     -11.1      2.897      8.380
REMARK SMILES CC[C@@H]1C=CCN1S(=O)(=O)c1sc2c(c1C(=O)NCCCCCCNC(=O)c1ccc(-c3c4nc(c(-c5c(F)cccc5F)c5ccc([nH]5)c(-c5c(F)cccc5F)c5nc(c(-c6c(F)cccc6F)c6ccc3[nH]6)C=C5)C=C4)cc1)CC[NH2+]C2
REMARK SMILES IDX 21 1 20 2 19 3 18 4 16 5 17 6 15 8 11 9 12 10 13 11 14 12
REMARK SMILES IDX 85 13 82 14 84 15 83 16 8 19 9 20 10 21 7 22 3 23 4 24 5 25
REMARK SMILES IDX 6 26 2 27 1 28 22 29 23 30 24 31 25 32 26 33 27 35 28 36
REMARK SMILES IDX 29 37 81 38 30 39 80 40 31 41 32 42 33 43 74 44 34 45 79 46
REMARK SMILES IDX 73 47 75 48 35 49 78 50 72 51 71 52 36 54 62 55 45 56 61 57
REMARK SMILES IDX 46 58 49 59 60 60 76 61 47 62 48 63 59 65 77 66 50 67 37 68
REMARK SMILES IDX 38 69 43 70 39 71 40 72 42 73 44 74 41 75 63 76 64 77 69 78
REMARK SMILES IDX 65 79 66 80 68 81 70 82 67 83 51 84 52 85 57 86 53 87 54 88
REMARK SMILES IDX 56 89 58 90 55 91
REMARK H PARENT 18 7 84 17 84 18 25 34 75 53 49 64
REMARK Flexibility Score: inf
ROOT
ATOM      1  C   UNL A   1      31.776  29.983  26.497  1.00  0.00     0.002 C 
ENDROOT
BRANCH   1   2
ATOM      2  C   UNL A   1      32.315  28.619  26.929  1.00  0.00     0.021 C 
BRANCH   2   3
ATOM      3  C   UNL A   1      33.273  27.907  25.989  1.00  0.00     0.116 C 
BRANCH   3   4
ATOM      4  N   UNL A   1      33.326  28.368  24.641  1.00  0.00    -0.352 N 
ATOM      5  C   UNL A   1      32.344  28.468  23.692  1.00  0.00     0.253 C 
ATOM      6  O   UNL A   1      32.708  29.127  22.711  1.00  0.00    -0.269 OA
ATOM      7  H   UNL A   1      34.217  28.663  24.343  1.00  0.00     0.163 HD
BRANCH   5   8
ATOM      8  C   UNL A   1      31.006  27.802  23.684  1.00  0.00     0.074 A 
ATOM      9  C   UNL A   1      30.561  26.479  23.931  1.00  0.00     0.148 A 
ATOM     10  S   UNL A   1      28.833  26.361  23.765  1.00  0.00    -0.120 S 
ATOM     11  C   UNL A   1      28.627  27.969  23.387  1.00  0.00     0.064 A 
ATOM     12  C   UNL A   1      29.811  28.665  23.420  1.00  0.00    -0.009 A 
ATOM     13  C   UNL A   1      27.264  28.536  23.120  1.00  0.00     0.308 C 
ATOM     14  C   UNL A   1      29.762  30.159  23.151  1.00  0.00     0.099 C 
ATOM     15  N   UNL A   1      27.354  29.848  22.464  1.00  0.00    -0.342 N 
ATOM     16  C   UNL A   1      28.311  30.703  23.189  1.00  0.00     0.265 C 
ATOM     17  H   UNL A   1      27.671  29.725  21.502  1.00  0.00     0.346 HD
ATOM     18  H   UNL A   1      26.436  30.291  22.468  1.00  0.00     0.346 HD
BRANCH   9  19
ATOM     19  S   UNL A   1      31.172  24.810  24.402  1.00  0.00     0.254 S 
ATOM     20  O   UNL A   1      30.464  23.855  23.584  1.00  0.00    -0.206 OA
ATOM     21  O   UNL A   1      31.043  24.706  25.842  1.00  0.00    -0.206 OA
BRANCH  19  22
ATOM     22  N   UNL A   1      32.848  24.726  23.985  1.00  0.00    -0.186 NA
ATOM     23  C   UNL A   1      33.673  23.764  24.798  1.00  0.00     0.096 C 
ATOM     24  C   UNL A   1      34.166  22.772  23.798  1.00  0.00    -0.010 C 
ATOM     25  C   UNL A   1      33.878  23.152  22.554  1.00  0.00    -0.013 C 
ATOM     26  C   UNL A   1      33.093  24.413  22.538  1.00  0.00     0.130 C 
BRANCH  23  27
ATOM     27  C   UNL A   1      34.852  24.486  25.479  1.00  0.00     0.021 C 
ATOM     28  C   UNL A   1      36.186  23.739  25.512  1.00  0.00     0.006 C 
ENDBRANCH  23  27
ENDBRANCH  19  22
ENDBRANCH   9  19
ENDBRANCH   5   8
ENDBRANCH   3   4
ENDBRANCH   2   3
ENDBRANCH   1   2
BRANCH   1  29
ATOM     29  C   UNL A   1      32.567  31.247  26.877  1.00  0.00     0.002 C 
BRANCH  29  30
ATOM     30  C   UNL A   1      33.890  31.103  27.643  1.00  0.00     0.021 C 
BRANCH  30  31
ATOM     31  C   UNL A   1      34.569  32.405  28.036  1.00  0.00     0.116 C 
BRANCH  31  32
ATOM     32  N   UNL A   1      34.472  32.717  29.462  1.00  0.00    -0.352 N 
ATOM     33  C   UNL A   1      35.188  32.158  30.506  1.00  0.00     0.251 C 
ATOM     34  H   UNL A   1      33.819  33.412  29.708  1.00  0.00     0.163 HD
ATOM     35  O   UNL A   1      34.790  32.232  31.662  1.00  0.00    -0.269 OA
BRANCH  33  36
ATOM     36  C   UNL A   1      36.451  31.464  30.201  1.00  0.00     0.039 A 
ATOM     37  C   UNL A   1      37.634  32.161  29.942  1.00  0.00     0.014 A 
ATOM     38  C   UNL A   1      36.437  30.075  30.222  1.00  0.00     0.014 A 
ATOM     39  C   UNL A   1      38.817  31.439  29.795  1.00  0.00     0.010 A 
ATOM     40  C   UNL A   1      37.618  29.385  30.269  1.00  0.00     0.010 A 
ATOM     41  C   UNL A   1      38.804  30.048  29.986  1.00  0.00    -0.014 A 
BRANCH  41  42
ATOM     42  C   UNL A   1      40.037  29.270  29.976  1.00  0.00     0.031 A 
ATOM     43  C   UNL A   1      40.646  29.041  31.314  1.00  0.00     0.074 A 
ATOM     44  C   UNL A   1      40.486  28.618  28.881  1.00  0.00     0.049 A 
ATOM     45  N   UNL A   1      41.760  29.513  31.764  1.00  0.00    -0.248 NA
ATOM     46  C   UNL A   1      39.867  28.300  32.319  1.00  0.00     0.031 C 
ATOM     47  C   UNL A   1      39.847  28.468  27.567  1.00  0.00     0.029 A 
ATOM     48  N   UNL A   1      41.603  27.853  28.751  1.00  0.00    -0.354 N 
ATOM     49  C   UNL A   1      41.928  28.970  33.035  1.00  0.00     0.074 A 
ATOM     50  C   UNL A   1      40.663  28.379  33.387  1.00  0.00     0.031 C 
ATOM     51  C   UNL A   1      40.460  27.486  26.870  1.00  0.00     0.029 A 
ATOM     52  C   UNL A   1      41.642  27.075  27.601  1.00  0.00     0.049 A 
ATOM     53  H   UNL A   1      42.326  27.852  29.419  1.00  0.00     0.167 HD
ATOM     54  C   UNL A   1      43.166  28.851  33.591  1.00  0.00     0.037 A 
ATOM     55  C   UNL A   1      42.581  26.152  27.281  1.00  0.00     0.037 A 
ATOM     56  C   UNL A   1      44.127  29.670  32.895  1.00  0.00     0.049 A 
ATOM     57  C   UNL A   1      43.780  26.443  28.104  1.00  0.00     0.074 A 
ATOM     58  C   UNL A   1      44.243  31.022  32.631  1.00  0.00     0.029 A 
ATOM     59  N   UNL A   1      44.972  29.049  32.008  1.00  0.00    -0.354 N 
ATOM     60  N   UNL A   1      44.524  27.502  27.949  1.00  0.00    -0.248 NA
ATOM     61  C   UNL A   1      43.879  25.792  29.400  1.00  0.00     0.031 C 
ATOM     62  C   UNL A   1      44.738  31.093  31.294  1.00  0.00     0.029 A 
ATOM     63  C   UNL A   1      44.963  29.788  30.853  1.00  0.00     0.049 A 
ATOM     64  H   UNL A   1      45.489  28.227  32.171  1.00  0.00     0.167 HD
ATOM     65  C   UNL A   1      44.839  27.903  29.239  1.00  0.00     0.074 A 
ATOM     66  C   UNL A   1      44.489  26.763  30.086  1.00  0.00     0.031 C 
ATOM     67  C   UNL A   1      45.077  29.215  29.532  1.00  0.00     0.037 A 
BRANCH  54  68
ATOM     68  C   UNL A   1      43.595  27.727  34.504  1.00  0.00     0.057 A 
ATOM     69  C   UNL A   1      43.644  26.414  33.996  1.00  0.00     0.134 A 
ATOM     70  C   UNL A   1      43.666  27.825  35.908  1.00  0.00     0.134 A 
ATOM     71  F   UNL A   1      43.579  26.184  32.676  1.00  0.00    -0.206 F 
ATOM     72  C   UNL A   1      43.668  25.287  34.826  1.00  0.00     0.040 A 
ATOM     73  C   UNL A   1      43.743  26.707  36.744  1.00  0.00     0.040 A 
ATOM     74  F   UNL A   1      43.563  28.992  36.555  1.00  0.00    -0.206 F 
ATOM     75  C   UNL A   1      43.706  25.431  36.207  1.00  0.00     0.006 A 
ENDBRANCH  54  68
BRANCH  55  76
ATOM     76  C   UNL A   1      42.430  24.887  26.531  1.00  0.00     0.057 A 
ATOM     77  C   UNL A   1      43.212  24.620  25.398  1.00  0.00     0.134 A 
ATOM     78  C   UNL A   1      41.732  23.793  27.072  1.00  0.00     0.134 A 
ATOM     79  F   UNL A   1      43.940  25.593  24.831  1.00  0.00    -0.206 F 
ATOM     80  C   UNL A   1      43.325  23.333  24.857  1.00  0.00     0.040 A 
ATOM     81  C   UNL A   1      41.832  22.504  26.539  1.00  0.00     0.040 A 
ATOM     82  F   UNL A   1      41.007  23.923  28.193  1.00  0.00    -0.206 F 
ATOM     83  C   UNL A   1      42.644  22.266  25.436  1.00  0.00     0.006 A 
ENDBRANCH  55  76
BRANCH  67  84
ATOM     84  C   UNL A   1      45.231  30.178  28.387  1.00  0.00     0.057 A 
ATOM     85  C   UNL A   1      44.171  30.885  27.798  1.00  0.00     0.134 A 
ATOM     86  C   UNL A   1      46.521  30.517  27.965  1.00  0.00     0.134 A 
ATOM     87  F   UNL A   1      42.907  30.705  28.200  1.00  0.00    -0.206 F 
ATOM     88  C   UNL A   1      44.384  31.852  26.809  1.00  0.00     0.040 A 
ATOM     89  C   UNL A   1      46.751  31.504  27.003  1.00  0.00     0.040 A 
ATOM     90  F   UNL A   1      47.590  29.923  28.521  1.00  0.00    -0.206 F 
ATOM     91  C   UNL A   1      45.679  32.168  26.414  1.00  0.00     0.006 A 
ENDBRANCH  67  84
ENDBRANCH  41  42
ENDBRANCH  33  36
ENDBRANCH  31  32
ENDBRANCH  30  31
ENDBRANCH  29  30
ENDBRANCH   1  29
TORSDOF 16
ENDMDL
MODEL 3
REMARK VINA RESULT:     -11.1      4.091      9.568
REMARK SMILES CC[C@@H]1C=CCN1S(=O)(=O)c1sc2c(c1C(=O)NCCCCCCNC(=O)c1ccc(-c3c4nc(c(-c5c(F)cccc5F)c5ccc([nH]5)c(-c5c(F)cccc5F)c5nc(c(-c6c(F)cccc6F)c6ccc3[nH]6)C=C5)C=C4)cc1)CC[NH2+]C2
REMARK SMILES IDX 21 1 20 2 19 3 18 4 16 5 17 6 15 8 11 9 12 10 13 11 14 12
REMARK SMILES IDX 85 13 82 14 84 15 83 16 8 19 9 20 10 21 7 22 3 23 4 24 5 25
REMARK SMILES IDX 6 26 2 27 1 28 22 29 23 30 24 31 25 32 26 33 27 35 28 36
REMARK SMILES IDX 29 37 81 38 30 39 80 40 31 41 32 42 33 43 74 44 34 45 79 46
REMARK SMILES IDX 73 47 75 48 35 49 78 50 72 51 71 52 36 54 62 55 45 56 61 57
REMARK SMILES IDX 46 58 49 59 60 60 76 61 47 62 48 63 59 65 77 66 50 67 37 68
REMARK SMILES IDX 38 69 43 70 39 71 40 72 42 73 44 74 41 75 63 76 64 77 69 78
REMARK SMILES IDX 65 79 66 80 68 81 70 82 67 83 51 84 52 85 57 86 53 87 54 88
REMARK SMILES IDX 56 89 58 90 55 91
REMARK H PARENT 18 7 84 17 84 18 25 34 75 53 49 64
REMARK Flexibility Score: inf
ROOT
ATOM      1  C   UNL A   1      34.197  31.756  27.684  1.00  0.00     0.002 C 
ENDROOT
BRANCH   1   2
ATOM      2  C   UNL A   1      32.787  31.351  27.255  1.00  0.00     0.021 C 
BRANCH   2   3
ATOM      3  C   UNL A   1      32.606  29.979  26.628  1.00  0.00     0.116 C 
BRANCH   3   4
ATOM      4  N   UNL A   1      33.185  29.770  25.342  1.00  0.00    -0.352 N 
ATOM      5  C   UNL A   1      32.686  29.152  24.226  1.00  0.00     0.253 C 
ATOM      6  O   UNL A   1      33.381  29.363  23.225  1.00  0.00    -0.269 OA
ATOM      7  H   UNL A   1      34.096  30.128  25.239  1.00  0.00     0.163 HD
BRANCH   5   8
ATOM      8  C   UNL A   1      31.523  28.217  24.140  1.00  0.00     0.074 A 
ATOM      9  C   UNL A   1      31.336  26.845  24.442  1.00  0.00     0.148 A 
ATOM     10  S   UNL A   1      29.698  26.353  24.120  1.00  0.00    -0.120 S 
ATOM     11  C   UNL A   1      29.208  27.858  23.603  1.00  0.00     0.064 A 
ATOM     12  C   UNL A   1      30.212  28.791  23.697  1.00  0.00    -0.009 A 
ATOM     13  C   UNL A   1      27.796  28.106  23.163  1.00  0.00     0.308 C 
ATOM     14  C   UNL A   1      29.886  30.223  23.312  1.00  0.00     0.099 C 
ATOM     15  N   UNL A   1      27.685  29.370  22.421  1.00  0.00    -0.342 N 
ATOM     16  C   UNL A   1      28.359  30.447  23.168  1.00  0.00     0.265 C 
ATOM     17  H   UNL A   1      28.125  29.266  21.506  1.00  0.00     0.346 HD
ATOM     18  H   UNL A   1      26.701  29.607  22.303  1.00  0.00     0.346 HD
BRANCH   9  19
ATOM     19  S   UNL A   1      32.222  25.373  25.095  1.00  0.00     0.254 S 
ATOM     20  O   UNL A   1      31.255  24.305  25.188  1.00  0.00    -0.206 OA
ATOM     21  O   UNL A   1      32.896  25.791  26.308  1.00  0.00    -0.206 OA
BRANCH  19  22
ATOM     22  N   UNL A   1      33.411  24.913  23.928  1.00  0.00    -0.186 NA
ATOM     23  C   UNL A   1      33.663  23.434  23.804  1.00  0.00     0.096 C 
ATOM     24  C   UNL A   1      33.275  23.115  22.398  1.00  0.00    -0.010 C 
ATOM     25  C   UNL A   1      33.021  24.221  21.701  1.00  0.00    -0.013 C 
ATOM     26  C   UNL A   1      33.133  25.436  22.549  1.00  0.00     0.130 C 
BRANCH  23  27
ATOM     27  C   UNL A   1      35.148  23.104  24.049  1.00  0.00     0.021 C 
ATOM     28  C   UNL A   1      35.898  24.009  25.029  1.00  0.00     0.006 C 
ENDBRANCH  23  27
ENDBRANCH  19  22
ENDBRANCH   9  19
ENDBRANCH   5   8
ENDBRANCH   3   4
ENDBRANCH   2   3
ENDBRANCH   1   2
BRANCH   1  29
ATOM     29  C   UNL A   1      34.438  33.195  28.173  1.00  0.00     0.002 C 
BRANCH  29  30
ATOM     30  C   UNL A   1      33.233  34.088  28.504  1.00  0.00     0.021 C 
BRANCH  30  31
ATOM     31  C   UNL A   1      33.558  35.415  29.170  1.00  0.00     0.116 C 
BRANCH  31  32
ATOM     32  N   UNL A   1      32.874  35.620  30.447  1.00  0.00    -0.352 N 
ATOM     33  C   UNL A   1      33.073  34.944  31.638  1.00  0.00     0.251 C 
ATOM     34  H   UNL A   1      32.189  36.327  30.461  1.00  0.00     0.163 HD
ATOM     35  O   UNL A   1      32.225  34.949  32.523  1.00  0.00    -0.269 OA
BRANCH  33  36
ATOM     36  C   UNL A   1      34.336  34.209  31.826  1.00  0.00     0.039 A 
ATOM     37  C   UNL A   1      34.394  32.814  31.776  1.00  0.00     0.014 A 
ATOM     38  C   UNL A   1      35.490  34.960  32.015  1.00  0.00     0.014 A 
ATOM     39  C   UNL A   1      35.642  32.194  31.829  1.00  0.00     0.010 A 
ATOM     40  C   UNL A   1      36.716  34.369  31.874  1.00  0.00     0.010 A 
ATOM     41  C   UNL A   1      36.803  32.983  31.852  1.00  0.00    -0.014 A 
BRANCH  41  42
ATOM     42  C   UNL A   1      38.129  32.383  31.770  1.00  0.00     0.031 A 
ATOM     43  C   UNL A   1      38.873  32.326  33.057  1.00  0.00     0.074 A 
ATOM     44  C   UNL A   1      38.574  31.731  30.674  1.00  0.00     0.049 A 
ATOM     45  N   UNL A   1      39.942  32.974  33.379  1.00  0.00    -0.248 NA
ATOM     46  C   UNL A   1      38.294  31.550  34.165  1.00  0.00     0.031 C 
ATOM     47  C   UNL A   1      37.856  31.411  29.433  1.00  0.00     0.029 A 
ATOM     48  N   UNL A   1      39.774  31.121  30.482  1.00  0.00    -0.354 N 
ATOM     49  C   UNL A   1      40.290  32.541  34.655  1.00  0.00     0.074 A 
ATOM     50  C   UNL A   1      39.157  31.805  35.151  1.00  0.00     0.031 C 
ATOM     51  C   UNL A   1      38.544  30.481  28.734  1.00  0.00     0.029 A 
ATOM     52  C   UNL A   1      39.829  30.284  29.374  1.00  0.00     0.049 A 
ATOM     53  H   UNL A   1      40.543  31.261  31.080  1.00  0.00     0.167 HD
ATOM     54  C   UNL A   1      41.574  32.630  35.102  1.00  0.00     0.037 A 
ATOM     55  C   UNL A   1      40.860  29.481  29.018  1.00  0.00     0.037 A 
ATOM     56  C   UNL A   1      42.348  33.528  34.280  1.00  0.00     0.049 A 
ATOM     57  C   UNL A   1      42.069  29.986  29.712  1.00  0.00     0.074 A 
ATOM     58  C   UNL A   1      42.247  34.863  33.938  1.00  0.00     0.029 A 
ATOM     59  N   UNL A   1      43.196  32.974  33.353  1.00  0.00    -0.354 N 
ATOM     60  N   UNL A   1      42.639  31.125  29.436  1.00  0.00    -0.248 NA
ATOM     61  C   UNL A   1      42.368  29.439  31.026  1.00  0.00     0.031 C 
ATOM     62  C   UNL A   1      42.614  34.916  32.560  1.00  0.00     0.029 A 
ATOM     63  C   UNL A   1      42.986  33.630  32.168  1.00  0.00     0.049 A 
ATOM     64  H   UNL A   1      43.837  32.243  33.510  1.00  0.00     0.167 HD
ATOM     65  C   UNL A   1      42.999  31.647  30.670  1.00  0.00     0.074 A 
ATOM     66  C   UNL A   1      42.887  30.526  31.603  1.00  0.00     0.031 C 
ATOM     67  C   UNL A   1      43.071  32.995  30.873  1.00  0.00     0.037 A 
BRANCH  54  68
ATOM     68  C   UNL A   1      42.234  31.636  36.028  1.00  0.00     0.057 A 
ATOM     69  C   UNL A   1      42.947  32.110  37.146  1.00  0.00     0.134 A 
ATOM     70  C   UNL A   1      42.454  30.280  35.713  1.00  0.00     0.134 A 
ATOM     71  F   UNL A   1      42.829  33.385  37.548  1.00  0.00    -0.206 F 
ATOM     72  C   UNL A   1      43.876  31.322  37.836  1.00  0.00     0.040 A 
ATOM     73  C   UNL A   1      43.341  29.469  36.428  1.00  0.00     0.040 A 
ATOM     74  F   UNL A   1      41.910  29.691  34.642  1.00  0.00    -0.206 F 
ATOM     75  C   UNL A   1      44.084  29.999  37.470  1.00  0.00     0.006 A 
ENDBRANCH  54  68
BRANCH  55  76
ATOM     76  C   UNL A   1      40.830  28.162  28.350  1.00  0.00     0.057 A 
ATOM     77  C   UNL A   1      40.110  27.090  28.898  1.00  0.00     0.134 A 
ATOM     78  C   UNL A   1      41.257  28.004  27.020  1.00  0.00     0.134 A 
ATOM     79  F   UNL A   1      39.632  27.162  30.149  1.00  0.00    -0.206 F 
ATOM     80  C   UNL A   1      39.799  25.944  28.156  1.00  0.00     0.040 A 
ATOM     81  C   UNL A   1      40.958  26.863  26.268  1.00  0.00     0.040 A 
ATOM     82  F   UNL A   1      41.896  28.993  26.378  1.00  0.00    -0.206 F 
ATOM     83  C   UNL A   1      40.211  25.834  26.831  1.00  0.00     0.006 A 
ENDBRANCH  55  76
BRANCH  67  84
ATOM     84  C   UNL A   1      42.990  33.896  29.670  1.00  0.00     0.057 A 
ATOM     85  C   UNL A   1      41.829  34.570  29.262  1.00  0.00     0.134 A 
ATOM     86  C   UNL A   1      44.171  34.212  28.990  1.00  0.00     0.134 A 
ATOM     87  F   UNL A   1      40.669  34.412  29.910  1.00  0.00    -0.206 F 
ATOM     88  C   UNL A   1      41.836  35.483  28.201  1.00  0.00     0.040 A 
ATOM     89  C   UNL A   1      44.200  35.145  27.951  1.00  0.00     0.040 A 
ATOM     90  F   UNL A   1      45.333  33.649  29.359  1.00  0.00    -0.206 F 
ATOM     91  C   UNL A   1      43.027  35.777  27.547  1.00  0.00     0.006 A 
ENDBRANCH  67  84
ENDBRANCH  41  42
ENDBRANCH  33  36
ENDBRANCH  31  32
ENDBRANCH  30  31
ENDBRANCH  29  30
ENDBRANCH   1  29
TORSDOF 16
ENDMDL
