MODEL 1
REMARK VINA RESULT:     -10.4      0.000      0.000
REMARK SMILES CCC[C@H]([NH2+]Cc1nc(C(C)(C)C)cs1)C(=O)NCCCCCCNC(=O)c1ccc(-c2c3nc(c(-c4c(F)cccc4F)c4ccc([nH]4)c(-c4c(F)cccc4F)c4nc(c(-c5c(F)cccc5F)c5ccc2[nH]5)C=C4)C=C3)cc1
REMARK SMILES IDX 20 1 19 2 18 3 16 4 17 5 4 7 3 8 2 9 1 10 5 11 6 14 7 15
REMARK SMILES IDX 8 16 15 17 9 18 14 19 10 20 11 21 12 22 13 23 21 24 22 25
REMARK SMILES IDX 23 26 24 27 25 28 26 29 27 31 28 32 29 33 81 34 30 35 80 36
REMARK SMILES IDX 31 37 32 38 33 39 74 40 34 41 79 42 73 43 75 44 35 45 78 46
REMARK SMILES IDX 72 47 71 48 36 50 62 51 45 52 61 53 46 54 49 55 60 56 76 57
REMARK SMILES IDX 47 58 48 59 59 61 77 62 50 63 37 64 38 65 43 66 39 67 40 68
REMARK SMILES IDX 42 69 44 70 41 71 63 72 64 73 69 74 65 75 66 76 68 77 70 78
REMARK SMILES IDX 67 79 51 80 52 81 57 82 53 83 54 84 56 85 58 86 55 87
REMARK H PARENT 18 6 5 12 5 13 25 30 75 49 49 60
REMARK Flexibility Score: inf
ROOT
ATOM      1  C   UNL A   1      33.389  28.609  27.067  1.00  0.00     0.021 C 
ENDROOT
BRANCH   1   2
ATOM      2  C   UNL A   1      32.980  27.486  26.121  1.00  0.00     0.116 C 
BRANCH   2   3
ATOM      3  N   UNL A   1      31.862  26.736  26.660  1.00  0.00    -0.351 N 
ATOM      4  C   UNL A   1      30.814  26.167  26.006  1.00  0.00     0.278 C 
ATOM      5  O   UNL A   1      29.881  25.723  26.681  1.00  0.00    -0.268 OA
ATOM      6  H   UNL A   1      31.861  26.623  27.638  1.00  0.00     0.163 HD
BRANCH   4   7
ATOM      7  C   UNL A   1      30.798  26.047  24.469  1.00  0.00     0.272 C 
BRANCH   7   8
ATOM      8  C   UNL A   1      29.807  27.043  23.819  1.00  0.00     0.075 C 
BRANCH   8   9
ATOM      9  C   UNL A   1      30.253  28.513  23.770  1.00  0.00     0.003 C 
ATOM     10  C   UNL A   1      31.390  28.787  22.801  1.00  0.00     0.004 C 
ENDBRANCH   8   9
ENDBRANCH   7   8
BRANCH   7  11
ATOM     11  N   UNL A   1      30.502  24.663  24.011  1.00  0.00    -0.330 N 
ATOM     12  H   UNL A   1      29.636  24.680  23.473  1.00  0.00     0.347 HD
ATOM     13  H   UNL A   1      30.427  24.079  24.844  1.00  0.00     0.347 HD
BRANCH  11  14
ATOM     14  C   UNL A   1      31.566  24.085  23.169  1.00  0.00     0.330 C 
BRANCH  14  15
ATOM     15  C   UNL A   1      32.621  23.371  23.991  1.00  0.00     0.147 A 
ATOM     16  N   UNL A   1      33.925  23.482  23.811  1.00  0.00    -0.240 NA
ATOM     17  S   UNL A   1      32.152  22.276  25.231  1.00  0.00    -0.121 S 
ATOM     18  C   UNL A   1      34.621  22.653  24.684  1.00  0.00     0.057 A 
ATOM     19  C   UNL A   1      33.800  21.917  25.521  1.00  0.00     0.091 A 
BRANCH  18  20
ATOM     20  C   UNL A   1      36.146  22.593  24.630  1.00  0.00     0.005 C 
ATOM     21  C   UNL A   1      36.648  22.824  23.189  1.00  0.00     0.017 C 
ATOM     22  C   UNL A   1      36.746  23.681  25.545  1.00  0.00     0.017 C 
ATOM     23  C   UNL A   1      36.687  21.225  25.099  1.00  0.00     0.017 C 
ENDBRANCH  18  20
ENDBRANCH  14  15
ENDBRANCH  11  14
ENDBRANCH   7  11
ENDBRANCH   4   7
ENDBRANCH   2   3
ENDBRANCH   1   2
BRANCH   1  24
ATOM     24  C   UNL A   1      33.176  30.014  26.496  1.00  0.00     0.002 C 
BRANCH  24  25
ATOM     25  C   UNL A   1      31.710  30.443  26.399  1.00  0.00     0.002 C 
BRANCH  25  26
ATOM     26  C   UNL A   1      31.458  31.920  26.708  1.00  0.00     0.021 C 
BRANCH  26  27
ATOM     27  C   UNL A   1      32.644  32.642  27.336  1.00  0.00     0.116 C 
BRANCH  27  28
ATOM     28  N   UNL A   1      32.367  34.055  27.551  1.00  0.00    -0.352 N 
ATOM     29  C   UNL A   1      32.940  34.920  28.446  1.00  0.00     0.251 C 
ATOM     30  H   UNL A   1      31.672  34.443  26.972  1.00  0.00     0.163 HD
ATOM     31  O   UNL A   1      32.451  36.028  28.648  1.00  0.00    -0.269 OA
BRANCH  29  32
ATOM     32  C   UNL A   1      34.142  34.496  29.189  1.00  0.00     0.039 A 
ATOM     33  C   UNL A   1      33.996  33.995  30.484  1.00  0.00     0.014 A 
ATOM     34  C   UNL A   1      35.405  34.564  28.592  1.00  0.00     0.014 A 
ATOM     35  C   UNL A   1      35.110  33.490  31.154  1.00  0.00     0.010 A 
ATOM     36  C   UNL A   1      36.500  33.993  29.232  1.00  0.00     0.010 A 
ATOM     37  C   UNL A   1      36.361  33.441  30.515  1.00  0.00    -0.014 A 
BRANCH  37  38
ATOM     38  C   UNL A   1      37.522  32.778  31.159  1.00  0.00     0.031 A 
ATOM     39  C   UNL A   1      38.152  31.567  30.531  1.00  0.00     0.074 A 
ATOM     40  C   UNL A   1      37.963  33.231  32.349  1.00  0.00     0.049 A 
ATOM     41  N   UNL A   1      39.126  30.819  30.979  1.00  0.00    -0.248 NA
ATOM     42  C   UNL A   1      37.599  31.127  29.241  1.00  0.00     0.031 C 
ATOM     43  C   UNL A   1      37.404  34.369  33.081  1.00  0.00     0.029 A 
ATOM     44  N   UNL A   1      38.975  32.781  33.159  1.00  0.00    -0.354 N 
ATOM     45  C   UNL A   1      39.301  29.818  30.032  1.00  0.00     0.074 A 
ATOM     46  C   UNL A   1      38.297  30.023  29.010  1.00  0.00     0.031 C 
ATOM     47  C   UNL A   1      38.093  34.541  34.220  1.00  0.00     0.029 A 
ATOM     48  C   UNL A   1      39.109  33.499  34.323  1.00  0.00     0.049 A 
ATOM     49  H   UNL A   1      39.551  32.016  32.929  1.00  0.00     0.167 HD
ATOM     50  C   UNL A   1      40.227  28.829  30.008  1.00  0.00     0.037 A 
ATOM     51  C   UNL A   1      39.946  33.329  35.364  1.00  0.00     0.037 A 
ATOM     52  C   UNL A   1      41.229  28.635  31.023  1.00  0.00     0.049 A 
ATOM     53  C   UNL A   1      40.941  32.202  35.327  1.00  0.00     0.074 A 
ATOM     54  C   UNL A   1      42.251  27.702  31.057  1.00  0.00     0.029 A 
ATOM     55  N   UNL A   1      41.333  29.382  32.188  1.00  0.00    -0.354 N 
ATOM     56  N   UNL A   1      41.146  31.310  34.389  1.00  0.00    -0.248 NA
ATOM     57  C   UNL A   1      41.821  32.057  36.496  1.00  0.00     0.031 C 
ATOM     58  C   UNL A   1      42.933  27.844  32.269  1.00  0.00     0.029 A 
ATOM     59  C   UNL A   1      42.376  28.905  32.964  1.00  0.00     0.049 A 
ATOM     60  H   UNL A   1      40.750  30.139  32.427  1.00  0.00     0.167 HD
ATOM     61  C   UNL A   1      42.190  30.515  34.841  1.00  0.00     0.074 A 
ATOM     62  C   UNL A   1      42.591  31.043  36.128  1.00  0.00     0.031 C 
ATOM     63  C   UNL A   1      42.763  29.441  34.246  1.00  0.00     0.037 A 
BRANCH  50  64
ATOM     64  C   UNL A   1      40.198  27.877  28.849  1.00  0.00     0.057 A 
ATOM     65  C   UNL A   1      40.896  28.135  27.661  1.00  0.00     0.134 A 
ATOM     66  C   UNL A   1      39.506  26.662  28.937  1.00  0.00     0.134 A 
ATOM     67  F   UNL A   1      41.572  29.284  27.506  1.00  0.00    -0.206 F 
ATOM     68  C   UNL A   1      40.888  27.232  26.597  1.00  0.00     0.040 A 
ATOM     69  C   UNL A   1      39.515  25.738  27.891  1.00  0.00     0.040 A 
ATOM     70  F   UNL A   1      38.822  26.347  30.048  1.00  0.00    -0.206 F 
ATOM     71  C   UNL A   1      40.203  26.025  26.714  1.00  0.00     0.006 A 
ENDBRANCH  50  64
BRANCH  51  72
ATOM     72  C   UNL A   1      39.882  34.247  36.530  1.00  0.00     0.057 A 
ATOM     73  C   UNL A   1      40.624  35.433  36.560  1.00  0.00     0.134 A 
ATOM     74  C   UNL A   1      39.092  33.953  37.649  1.00  0.00     0.134 A 
ATOM     75  F   UNL A   1      41.414  35.760  35.527  1.00  0.00    -0.206 F 
ATOM     76  C   UNL A   1      40.602  36.283  37.667  1.00  0.00     0.040 A 
ATOM     77  C   UNL A   1      39.038  34.808  38.751  1.00  0.00     0.040 A 
ATOM     78  F   UNL A   1      38.351  32.836  37.682  1.00  0.00    -0.206 F 
ATOM     79  C   UNL A   1      39.803  35.973  38.765  1.00  0.00     0.006 A 
ENDBRANCH  51  72
BRANCH  63  80
ATOM     80  C   UNL A   1      43.899  28.778  34.970  1.00  0.00     0.057 A 
ATOM     81  C   UNL A   1      43.687  27.738  35.884  1.00  0.00     0.134 A 
ATOM     82  C   UNL A   1      45.225  29.156  34.718  1.00  0.00     0.134 A 
ATOM     83  F   UNL A   1      42.441  27.337  36.180  1.00  0.00    -0.206 F 
ATOM     84  C   UNL A   1      44.750  27.115  36.538  1.00  0.00     0.040 A 
ATOM     85  C   UNL A   1      46.297  28.520  35.344  1.00  0.00     0.040 A 
ATOM     86  F   UNL A   1      45.500  30.139  33.847  1.00  0.00    -0.206 F 
ATOM     87  C   UNL A   1      46.060  27.500  36.263  1.00  0.00     0.006 A 
ENDBRANCH  63  80
ENDBRANCH  37  38
ENDBRANCH  29  32
ENDBRANCH  27  28
ENDBRANCH  26  27
ENDBRANCH  25  26
ENDBRANCH  24  25
ENDBRANCH   1  24
TORSDOF 19
ENDMDL
MODEL 2
REMARK VINA RESULT:     -10.2      0.715      1.900
REMARK SMILES CCC[C@H]([NH2+]Cc1nc(C(C)(C)C)cs1)C(=O)NCCCCCCNC(=O)c1ccc(-c2c3nc(c(-c4c(F)cccc4F)c4ccc([nH]4)c(-c4c(F)cccc4F)c4nc(c(-c5c(F)cccc5F)c5ccc2[nH]5)C=C4)C=C3)cc1
REMARK SMILES IDX 20 1 19 2 18 3 16 4 17 5 4 7 3 8 2 9 1 10 5 11 6 14 7 15
REMARK SMILES IDX 8 16 15 17 9 18 14 19 10 20 11 21 12 22 13 23 21 24 22 25
REMARK SMILES IDX 23 26 24 27 25 28 26 29 27 31 28 32 29 33 81 34 30 35 80 36
REMARK SMILES IDX 31 37 32 38 33 39 74 40 34 41 79 42 73 43 75 44 35 45 78 46
REMARK SMILES IDX 72 47 71 48 36 50 62 51 45 52 61 53 46 54 49 55 60 56 76 57
REMARK SMILES IDX 47 58 48 59 59 61 77 62 50 63 37 64 38 65 43 66 39 67 40 68
REMARK SMILES IDX 42 69 44 70 41 71 63 72 64 73 69 74 65 75 66 76 68 77 70 78
REMARK SMILES IDX 67 79 51 80 52 81 57 82 53 83 54 84 56 85 58 86 55 87
REMARK H PARENT 18 6 5 12 5 13 25 30 75 49 49 60
REMARK Flexibility Score: inf
ROOT
ATOM      1  C   UNL A   1      33.350  28.149  27.034  1.00  0.00     0.021 C 
ENDROOT
BRANCH   1   2
ATOM      2  C   UNL A   1      32.892  27.038  26.096  1.00  0.00     0.116 C 
BRANCH   2   3
ATOM      3  N   UNL A   1      31.752  26.332  26.648  1.00  0.00    -0.351 N 
ATOM      4  C   UNL A   1      30.618  25.911  26.026  1.00  0.00     0.278 C 
ATOM      5  O   UNL A   1      29.697  25.481  26.725  1.00  0.00    -0.268 OA
ATOM      6  H   UNL A   1      31.806  26.129  27.609  1.00  0.00     0.163 HD
BRANCH   4   7
ATOM      7  C   UNL A   1      30.491  25.937  24.489  1.00  0.00     0.272 C 
BRANCH   7   8
ATOM      8  C   UNL A   1      29.388  26.914  24.014  1.00  0.00     0.075 C 
BRANCH   8   9
ATOM      9  C   UNL A   1      29.853  28.098  23.151  1.00  0.00     0.003 C 
ATOM     10  C   UNL A   1      28.737  29.039  22.733  1.00  0.00     0.004 C 
ENDBRANCH   8   9
ENDBRANCH   7   8
BRANCH   7  11
ATOM     11  N   UNL A   1      30.252  24.584  23.918  1.00  0.00    -0.330 N 
ATOM     12  H   UNL A   1      29.325  24.571  23.496  1.00  0.00     0.347 HD
ATOM     13  H   UNL A   1      30.338  23.914  24.682  1.00  0.00     0.347 HD
BRANCH  11  14
ATOM     14  C   UNL A   1      31.240  24.200  22.891  1.00  0.00     0.330 C 
BRANCH  14  15
ATOM     15  C   UNL A   1      32.536  23.705  23.501  1.00  0.00     0.147 A 
ATOM     16  N   UNL A   1      32.666  22.597  24.208  1.00  0.00    -0.240 NA
ATOM     17  S   UNL A   1      33.972  24.638  23.347  1.00  0.00    -0.121 S 
ATOM     18  C   UNL A   1      33.966  22.456  24.680  1.00  0.00     0.057 A 
ATOM     19  C   UNL A   1      34.806  23.492  24.308  1.00  0.00     0.091 A 
BRANCH  18  20
ATOM     20  C   UNL A   1      34.338  21.258  25.553  1.00  0.00     0.005 C 
ATOM     21  C   UNL A   1      34.511  21.692  27.024  1.00  0.00     0.017 C 
ATOM     22  C   UNL A   1      33.228  20.190  25.477  1.00  0.00     0.017 C 
ATOM     23  C   UNL A   1      35.662  20.604  25.101  1.00  0.00     0.017 C 
ENDBRANCH  18  20
ENDBRANCH  14  15
ENDBRANCH  11  14
ENDBRANCH   7  11
ENDBRANCH   4   7
ENDBRANCH   2   3
ENDBRANCH   1   2
BRANCH   1  24
ATOM     24  C   UNL A   1      33.103  29.561  26.495  1.00  0.00     0.002 C 
BRANCH  24  25
ATOM     25  C   UNL A   1      31.743  30.154  26.871  1.00  0.00     0.002 C 
BRANCH  25  26
ATOM     26  C   UNL A   1      31.646  31.672  26.715  1.00  0.00     0.021 C 
BRANCH  26  27
ATOM     27  C   UNL A   1      32.829  32.440  27.293  1.00  0.00     0.116 C 
BRANCH  27  28
ATOM     28  N   UNL A   1      32.501  33.837  27.541  1.00  0.00    -0.352 N 
ATOM     29  C   UNL A   1      33.039  34.700  28.460  1.00  0.00     0.251 C 
ATOM     30  H   UNL A   1      31.796  34.214  26.967  1.00  0.00     0.163 HD
ATOM     31  O   UNL A   1      32.509  35.784  28.686  1.00  0.00    -0.269 OA
BRANCH  29  32
ATOM     32  C   UNL A   1      34.251  34.301  29.200  1.00  0.00     0.039 A 
ATOM     33  C   UNL A   1      34.113  33.723  30.463  1.00  0.00     0.014 A 
ATOM     34  C   UNL A   1      35.517  34.468  28.630  1.00  0.00     0.014 A 
ATOM     35  C   UNL A   1      35.242  33.241  31.125  1.00  0.00     0.010 A 
ATOM     36  C   UNL A   1      36.631  33.922  29.258  1.00  0.00     0.010 A 
ATOM     37  C   UNL A   1      36.503  33.295  30.507  1.00  0.00    -0.014 A 
BRANCH  37  38
ATOM     38  C   UNL A   1      37.689  32.660  31.134  1.00  0.00     0.031 A 
ATOM     39  C   UNL A   1      38.310  31.435  30.524  1.00  0.00     0.074 A 
ATOM     40  C   UNL A   1      38.163  33.152  32.296  1.00  0.00     0.049 A 
ATOM     41  N   UNL A   1      39.304  30.708  30.964  1.00  0.00    -0.248 NA
ATOM     42  C   UNL A   1      37.722  30.951  29.265  1.00  0.00     0.031 C 
ATOM     43  C   UNL A   1      37.617  34.308  33.009  1.00  0.00     0.029 A 
ATOM     44  N   UNL A   1      39.203  32.735  33.088  1.00  0.00    -0.354 N 
ATOM     45  C   UNL A   1      39.458  29.680  30.044  1.00  0.00     0.074 A 
ATOM     46  C   UNL A   1      38.421  29.846  29.048  1.00  0.00     0.031 C 
ATOM     47  C   UNL A   1      38.339  34.520  34.121  1.00  0.00     0.029 A 
ATOM     48  C   UNL A   1      39.367  33.490  34.224  1.00  0.00     0.049 A 
ATOM     49  H   UNL A   1      39.778  31.967  32.863  1.00  0.00     0.167 HD
ATOM     50  C   UNL A   1      40.390  28.698  30.021  1.00  0.00     0.037 A 
ATOM     51  C   UNL A   1      40.237  33.358  35.243  1.00  0.00     0.037 A 
ATOM     52  C   UNL A   1      41.426  28.543  31.010  1.00  0.00     0.049 A 
ATOM     53  C   UNL A   1      41.239  32.238  35.210  1.00  0.00     0.074 A 
ATOM     54  C   UNL A   1      42.455  27.618  31.041  1.00  0.00     0.029 A 
ATOM     55  N   UNL A   1      41.558  29.325  32.147  1.00  0.00    -0.354 N 
ATOM     56  N   UNL A   1      41.423  31.319  34.293  1.00  0.00    -0.248 NA
ATOM     57  C   UNL A   1      42.156  32.135  36.355  1.00  0.00     0.031 C 
ATOM     58  C   UNL A   1      43.173  27.803  32.226  1.00  0.00     0.029 A 
ATOM     59  C   UNL A   1      42.629  28.881  32.906  1.00  0.00     0.049 A 
ATOM     60  H   UNL A   1      40.977  30.085  32.381  1.00  0.00     0.167 HD
ATOM     61  C   UNL A   1      42.487  30.546  34.737  1.00  0.00     0.074 A 
ATOM     62  C   UNL A   1      42.922  31.116  35.995  1.00  0.00     0.031 C 
ATOM     63  C   UNL A   1      43.051  29.458  34.158  1.00  0.00     0.037 A 
BRANCH  50  64
ATOM     64  C   UNL A   1      40.335  27.710  28.893  1.00  0.00     0.057 A 
ATOM     65  C   UNL A   1      39.544  26.555  28.958  1.00  0.00     0.134 A 
ATOM     66  C   UNL A   1      41.041  27.940  27.705  1.00  0.00     0.134 A 
ATOM     67  F   UNL A   1      38.850  26.269  30.069  1.00  0.00    -0.206 F 
ATOM     68  C   UNL A   1      39.475  25.655  27.893  1.00  0.00     0.040 A 
ATOM     69  C   UNL A   1      40.957  27.063  26.623  1.00  0.00     0.040 A 
ATOM     70  F   UNL A   1      41.812  29.030  27.571  1.00  0.00    -0.206 F 
ATOM     71  C   UNL A   1      40.176  25.913  26.718  1.00  0.00     0.006 A 
ENDBRANCH  50  64
BRANCH  51  72
ATOM     72  C   UNL A   1      40.200  34.310  36.383  1.00  0.00     0.057 A 
ATOM     73  C   UNL A   1      39.451  34.035  37.532  1.00  0.00     0.134 A 
ATOM     74  C   UNL A   1      40.897  35.525  36.344  1.00  0.00     0.134 A 
ATOM     75  F   UNL A   1      38.746  32.898  37.622  1.00  0.00    -0.206 F 
ATOM     76  C   UNL A   1      39.377  34.940  38.592  1.00  0.00     0.040 A 
ATOM     77  C   UNL A   1      40.856  36.426  37.408  1.00  0.00     0.040 A 
ATOM     78  F   UNL A   1      41.640  35.846  35.275  1.00  0.00    -0.206 F 
ATOM     79  C   UNL A   1      40.085  36.138  38.534  1.00  0.00     0.006 A 
ENDBRANCH  51  72
BRANCH  63  80
ATOM     80  C   UNL A   1      44.214  28.826  34.866  1.00  0.00     0.057 A 
ATOM     81  C   UNL A   1      45.532  29.243  34.641  1.00  0.00     0.134 A 
ATOM     82  C   UNL A   1      44.009  27.815  35.815  1.00  0.00     0.134 A 
ATOM     83  F   UNL A   1      45.798  30.196  33.736  1.00  0.00    -0.206 F 
ATOM     84  C   UNL A   1      46.605  28.663  35.318  1.00  0.00     0.040 A 
ATOM     85  C   UNL A   1      45.071  27.249  36.519  1.00  0.00     0.040 A 
ATOM     86  F   UNL A   1      42.770  27.374  36.085  1.00  0.00    -0.206 F 
ATOM     87  C   UNL A   1      46.376  27.668  36.267  1.00  0.00     0.006 A 
ENDBRANCH  63  80
ENDBRANCH  37  38
ENDBRANCH  29  32
ENDBRANCH  27  28
ENDBRANCH  26  27
ENDBRANCH  25  26
ENDBRANCH  24  25
ENDBRANCH   1  24
TORSDOF 19
ENDMDL
MODEL 3
REMARK VINA RESULT:     -10.2      0.784      6.150
REMARK SMILES CCC[C@H]([NH2+]Cc1nc(C(C)(C)C)cs1)C(=O)NCCCCCCNC(=O)c1ccc(-c2c3nc(c(-c4c(F)cccc4F)c4ccc([nH]4)c(-c4c(F)cccc4F)c4nc(c(-c5c(F)cccc5F)c5ccc2[nH]5)C=C4)C=C3)cc1
REMARK SMILES IDX 20 1 19 2 18 3 16 4 17 5 4 7 3 8 2 9 1 10 5 11 6 14 7 15
REMARK SMILES IDX 8 16 15 17 9 18 14 19 10 20 11 21 12 22 13 23 21 24 22 25
REMARK SMILES IDX 23 26 24 27 25 28 26 29 27 31 28 32 29 33 81 34 30 35 80 36
REMARK SMILES IDX 31 37 32 38 33 39 74 40 34 41 79 42 73 43 75 44 35 45 78 46
REMARK SMILES IDX 72 47 71 48 36 50 62 51 45 52 61 53 46 54 49 55 60 56 76 57
REMARK SMILES IDX 47 58 48 59 59 61 77 62 50 63 37 64 38 65 43 66 39 67 40 68
REMARK SMILES IDX 42 69 44 70 41 71 63 72 64 73 69 74 65 75 66 76 68 77 70 78
REMARK SMILES IDX 67 79 51 80 52 81 57 82 53 83 54 84 56 85 58 86 55 87
REMARK H PARENT 18 6 5 12 5 13 25 30 75 49 49 60
REMARK Flexibility Score: inf
ROOT
ATOM      1  C   UNL A   1      33.354  29.300  24.933  1.00  0.00     0.021 C 
ENDROOT
BRANCH   1   2
ATOM      2  C   UNL A   1      33.612  27.808  25.114  1.00  0.00     0.116 C 
BRANCH   2   3
ATOM      3  N   UNL A   1      32.434  27.137  25.628  1.00  0.00    -0.351 N 
ATOM      4  C   UNL A   1      31.251  26.881  25.007  1.00  0.00     0.278 C 
ATOM      5  O   UNL A   1      30.318  26.450  25.690  1.00  0.00    -0.268 OA
ATOM      6  H   UNL A   1      32.499  26.822  26.558  1.00  0.00     0.163 HD
BRANCH   4   7
ATOM      7  C   UNL A   1      31.081  27.093  23.489  1.00  0.00     0.272 C 
BRANCH   7   8
ATOM      8  C   UNL A   1      29.823  27.931  23.157  1.00  0.00     0.075 C 
BRANCH   8   9
ATOM      9  C   UNL A   1      30.042  29.440  22.966  1.00  0.00     0.003 C 
ATOM     10  C   UNL A   1      29.144  30.072  21.916  1.00  0.00     0.004 C 
ENDBRANCH   8   9
ENDBRANCH   7   8
BRANCH   7  11
ATOM     11  N   UNL A   1      31.050  25.809  22.739  1.00  0.00    -0.330 N 
ATOM     12  H   UNL A   1      30.449  25.926  21.924  1.00  0.00     0.347 HD
ATOM     13  H   UNL A   1      30.698  25.095  23.377  1.00  0.00     0.347 HD
BRANCH  11  14
ATOM     14  C   UNL A   1      32.380  25.366  22.280  1.00  0.00     0.330 C 
BRANCH  14  15
ATOM     15  C   UNL A   1      32.958  24.282  23.168  1.00  0.00     0.147 A 
ATOM     16  N   UNL A   1      34.248  24.070  23.363  1.00  0.00    -0.240 NA
ATOM     17  S   UNL A   1      31.914  23.173  23.966  1.00  0.00    -0.121 S 
ATOM     18  C   UNL A   1      34.453  22.963  24.180  1.00  0.00     0.057 A 
ATOM     19  C   UNL A   1      33.281  22.351  24.589  1.00  0.00     0.091 A 
BRANCH  18  20
ATOM     20  C   UNL A   1      35.874  22.511  24.513  1.00  0.00     0.005 C 
ATOM     21  C   UNL A   1      36.813  22.738  23.310  1.00  0.00     0.017 C 
ATOM     22  C   UNL A   1      36.409  23.312  25.718  1.00  0.00     0.017 C 
ATOM     23  C   UNL A   1      35.932  21.011  24.874  1.00  0.00     0.017 C 
ENDBRANCH  18  20
ENDBRANCH  14  15
ENDBRANCH  11  14
ENDBRANCH   7  11
ENDBRANCH   4   7
ENDBRANCH   2   3
ENDBRANCH   1   2
BRANCH   1  24
ATOM     24  C   UNL A   1      32.825  29.998  26.190  1.00  0.00     0.002 C 
BRANCH  24  25
ATOM     25  C   UNL A   1      31.553  30.818  25.971  1.00  0.00     0.002 C 
BRANCH  25  26
ATOM     26  C   UNL A   1      31.375  31.988  26.940  1.00  0.00     0.021 C 
BRANCH  26  27
ATOM     27  C   UNL A   1      32.661  32.742  27.257  1.00  0.00     0.116 C 
BRANCH  27  28
ATOM     28  N   UNL A   1      32.408  34.142  27.565  1.00  0.00    -0.352 N 
ATOM     29  C   UNL A   1      32.993  34.936  28.517  1.00  0.00     0.251 C 
ATOM     30  H   UNL A   1      31.721  34.580  27.013  1.00  0.00     0.163 HD
ATOM     31  O   UNL A   1      32.522  36.036  28.792  1.00  0.00    -0.269 OA
BRANCH  29  32
ATOM     32  C   UNL A   1      34.186  34.443  29.232  1.00  0.00     0.039 A 
ATOM     33  C   UNL A   1      34.024  33.836  30.479  1.00  0.00     0.014 A 
ATOM     34  C   UNL A   1      35.454  34.551  28.654  1.00  0.00     0.014 A 
ATOM     35  C   UNL A   1      35.129  33.269  31.114  1.00  0.00     0.010 A 
ATOM     36  C   UNL A   1      36.539  33.921  29.253  1.00  0.00     0.010 A 
ATOM     37  C   UNL A   1      36.385  33.265  30.485  1.00  0.00    -0.014 A 
BRANCH  37  38
ATOM     38  C   UNL A   1      37.536  32.542  31.080  1.00  0.00     0.031 A 
ATOM     39  C   UNL A   1      38.166  33.029  32.354  1.00  0.00     0.074 A 
ATOM     40  C   UNL A   1      38.057  31.483  30.428  1.00  0.00     0.049 A 
ATOM     41  N   UNL A   1      39.215  32.568  32.984  1.00  0.00    -0.248 NA
ATOM     42  C   UNL A   1      37.549  34.202  32.992  1.00  0.00     0.031 C 
ATOM     43  C   UNL A   1      37.563  30.944  29.160  1.00  0.00     0.029 A 
ATOM     44  N   UNL A   1      39.125  30.679  30.736  1.00  0.00    -0.354 N 
ATOM     45  C   UNL A   1      39.388  33.394  34.087  1.00  0.00     0.074 A 
ATOM     46  C   UNL A   1      38.368  34.417  34.012  1.00  0.00     0.031 C 
ATOM     47  C   UNL A   1      38.311  29.886  28.810  1.00  0.00     0.029 A 
ATOM     48  C   UNL A   1      39.366  29.702  29.801  1.00  0.00     0.049 A 
ATOM     49  H   UNL A   1      39.668  30.791  31.551  1.00  0.00     0.167 HD
ATOM     50  C   UNL A   1      40.303  33.296  35.081  1.00  0.00     0.037 A 
ATOM     51  C   UNL A   1      40.337  28.770  29.740  1.00  0.00     0.037 A 
ATOM     52  C   UNL A   1      41.310  32.270  35.155  1.00  0.00     0.049 A 
ATOM     53  C   UNL A   1      41.361  28.706  30.839  1.00  0.00     0.074 A 
ATOM     54  C   UNL A   1      42.242  32.049  36.154  1.00  0.00     0.029 A 
ATOM     55  N   UNL A   1      41.524  31.299  34.188  1.00  0.00    -0.354 N 
ATOM     56  N   UNL A   1      41.465  29.446  31.917  1.00  0.00    -0.248 NA
ATOM     57  C   UNL A   1      42.403  27.678  30.714  1.00  0.00     0.031 C 
ATOM     58  C   UNL A   1      43.058  30.983  35.764  1.00  0.00     0.029 A 
ATOM     59  C   UNL A   1      42.598  30.500  34.549  1.00  0.00     0.049 A 
ATOM     60  H   UNL A   1      40.992  31.193  33.366  1.00  0.00     0.167 HD
ATOM     61  C   UNL A   1      42.566  28.959  32.608  1.00  0.00     0.074 A 
ATOM     62  C   UNL A   1      43.084  27.847  31.838  1.00  0.00     0.031 C 
ATOM     63  C   UNL A   1      43.104  29.397  33.772  1.00  0.00     0.037 A 
BRANCH  50  64
ATOM     64  C   UNL A   1      40.260  34.328  36.170  1.00  0.00     0.057 A 
ATOM     65  C   UNL A   1      41.003  35.513  36.097  1.00  0.00     0.134 A 
ATOM     66  C   UNL A   1      39.428  34.157  37.284  1.00  0.00     0.134 A 
ATOM     67  F   UNL A   1      41.827  35.736  35.062  1.00  0.00    -0.206 F 
ATOM     68  C   UNL A   1      40.937  36.481  37.101  1.00  0.00     0.040 A 
ATOM     69  C   UNL A   1      39.331  35.131  38.280  1.00  0.00     0.040 A 
ATOM     70  F   UNL A   1      38.683  33.049  37.416  1.00  0.00    -0.206 F 
ATOM     71  C   UNL A   1      40.092  36.295  38.192  1.00  0.00     0.006 A 
ENDBRANCH  50  64
BRANCH  51  72
ATOM     72  C   UNL A   1      40.390  27.822  28.598  1.00  0.00     0.057 A 
ATOM     73  C   UNL A   1      41.095  28.136  27.430  1.00  0.00     0.134 A 
ATOM     74  C   UNL A   1      39.724  26.591  28.637  1.00  0.00     0.134 A 
ATOM     75  F   UNL A   1      41.737  29.308  27.323  1.00  0.00    -0.206 F 
ATOM     76  C   UNL A   1      41.118  27.270  26.335  1.00  0.00     0.040 A 
ATOM     77  C   UNL A   1      39.763  25.703  27.561  1.00  0.00     0.040 A 
ATOM     78  F   UNL A   1      39.036  26.227  29.729  1.00  0.00    -0.206 F 
ATOM     79  C   UNL A   1      40.455  26.047  26.401  1.00  0.00     0.006 A 
ENDBRANCH  51  72
BRANCH  63  80
ATOM     80  C   UNL A   1      44.301  28.658  34.298  1.00  0.00     0.057 A 
ATOM     81  C   UNL A   1      44.173  27.520  35.104  1.00  0.00     0.134 A 
ATOM     82  C   UNL A   1      45.598  29.067  33.959  1.00  0.00     0.134 A 
ATOM     83  F   UNL A   1      42.959  27.083  35.475  1.00  0.00    -0.206 F 
ATOM     84  C   UNL A   1      45.290  26.829  35.572  1.00  0.00     0.040 A 
ATOM     85  C   UNL A   1      46.722  28.367  34.397  1.00  0.00     0.040 A 
ATOM     86  F   UNL A   1      45.792  30.145  33.183  1.00  0.00    -0.206 F 
ATOM     87  C   UNL A   1      46.570  27.247  35.212  1.00  0.00     0.006 A 
ENDBRANCH  63  80
ENDBRANCH  37  38
ENDBRANCH  29  32
ENDBRANCH  27  28
ENDBRANCH  26  27
ENDBRANCH  25  26
ENDBRANCH  24  25
ENDBRANCH   1  24
TORSDOF 19
ENDMDL
