MODEL 1
REMARK VINA RESULT:     -11.5      0.000      0.000
REMARK SMILES O=C(CC/C(=N\NC(=O)c1ccccc1Br)c1ccccc1)NCCCCCCNC(=O)c1ccc(-c2c3nc(c(-c4c(F)cccc4F)c4ccc([nH]4)c(-c4c(F)cccc4F)c4nc(c(-c5c(F)cccc5F)c5ccc2[nH]5)C=C4)C=C3)cc1
REMARK SMILES IDX 25 1 24 2 23 3 1 4 2 5 3 7 4 8 5 9 6 10 17 11 18 12 22 13
REMARK SMILES IDX 19 14 21 15 20 16 7 17 8 18 9 20 10 21 11 22 15 23 12 24
REMARK SMILES IDX 14 25 16 26 13 27 26 28 27 29 28 30 29 31 30 32 31 33 32 35
REMARK SMILES IDX 33 36 34 37 86 38 35 39 85 40 36 41 37 42 38 43 79 44 39 45
REMARK SMILES IDX 84 46 78 47 80 48 40 49 83 50 77 51 76 52 41 54 67 55 50 56
REMARK SMILES IDX 66 57 51 58 54 59 65 60 81 61 52 62 53 63 64 65 82 66 55 67
REMARK SMILES IDX 42 68 43 69 48 70 44 71 45 72 47 73 49 74 46 75 68 76 69 77
REMARK SMILES IDX 74 78 70 79 71 80 73 81 75 82 72 83 56 84 57 85 62 86 58 87
REMARK SMILES IDX 59 88 61 89 63 90 60 91
REMARK H PARENT 23 6 7 19 30 34 80 53 54 64
REMARK Flexibility Score: inf
ROOT
ATOM      1  C   UNL A   1      30.859  26.998  24.150  1.00  0.00     0.021 C 
ENDROOT
BRANCH   1   2
ATOM      2  C   UNL A   1      30.210  25.928  25.026  1.00  0.00     0.116 C 
BRANCH   2   3
ATOM      3  N   UNL A   1      30.910  24.675  24.901  1.00  0.00    -0.356 N 
ATOM      4  O   UNL A   1      31.153  24.208  27.121  1.00  0.00    -0.275 OA
ATOM      5  C   UNL A   1      31.033  23.827  25.970  1.00  0.00     0.220 C 
ATOM      6  H   UNL A   1      31.304  24.424  24.034  1.00  0.00     0.163 HD
BRANCH   5   7
ATOM      7  C   UNL A   1      30.903  22.379  25.544  1.00  0.00     0.106 C 
BRANCH   7   8
ATOM      8  C   UNL A   1      32.237  21.654  25.567  1.00  0.00     0.068 C 
BRANCH   8   9
ATOM      9  C   UNL A   1      32.675  20.864  24.327  1.00  0.00     0.069 C 
ATOM     10  N   UNL A   1      32.973  21.408  23.179  1.00  0.00    -0.177 NA
BRANCH   9  11
ATOM     11  C   UNL A   1      32.831  19.355  24.386  1.00  0.00    -0.002 A 
ATOM     12  C   UNL A   1      32.630  18.702  25.617  1.00  0.00     0.010 A 
ATOM     13  C   UNL A   1      33.083  18.563  23.266  1.00  0.00     0.010 A 
ATOM     14  C   UNL A   1      32.723  17.310  25.726  1.00  0.00     0.001 A 
ATOM     15  C   UNL A   1      33.212  17.172  23.378  1.00  0.00     0.001 A 
ATOM     16  C   UNL A   1      33.033  16.545  24.608  1.00  0.00     0.000 A 
ENDBRANCH   9  11
BRANCH  10  17
ATOM     17  N   UNL A   1      33.055  22.743  22.941  1.00  0.00    -0.243 N 
ATOM     18  C   UNL A   1      34.134  23.602  23.103  1.00  0.00     0.272 C 
ATOM     19  H   UNL A   1      32.229  23.162  22.605  1.00  0.00     0.194 HD
ATOM     20  O   UNL A   1      34.124  24.711  22.568  1.00  0.00    -0.267 OA
BRANCH  18  21
ATOM     21  C   UNL A   1      35.238  23.289  24.028  1.00  0.00     0.055 A 
ATOM     22  C   UNL A   1      36.066  22.222  23.624  1.00  0.00     0.015 A 
ATOM     23  C   UNL A   1      35.553  24.017  25.176  1.00  0.00     0.030 A 
ATOM     24  C   UNL A   1      37.262  21.966  24.290  1.00  0.00     0.001 A 
ATOM     25  C   UNL A   1      36.755  23.752  25.844  1.00  0.00     0.016 A 
ATOM     26  Br  UNL A   1      34.411  25.342  25.906  1.00  0.00    -0.050 Br
ATOM     27  C   UNL A   1      37.616  22.748  25.387  1.00  0.00     0.001 A 
ENDBRANCH  18  21
ENDBRANCH  10  17
ENDBRANCH   8   9
ENDBRANCH   7   8
ENDBRANCH   5   7
ENDBRANCH   2   3
ENDBRANCH   1   2
BRANCH   1  28
ATOM     28  C   UNL A   1      31.840  27.952  24.861  1.00  0.00     0.002 C 
BRANCH  28  29
ATOM     29  C   UNL A   1      31.458  28.432  26.261  1.00  0.00     0.002 C 
BRANCH  29  30
ATOM     30  C   UNL A   1      32.439  28.086  27.379  1.00  0.00     0.021 C 
BRANCH  30  31
ATOM     31  C   UNL A   1      33.781  28.802  27.299  1.00  0.00     0.116 C 
BRANCH  31  32
ATOM     32  N   UNL A   1      33.738  30.159  27.819  1.00  0.00    -0.352 N 
ATOM     33  C   UNL A   1      34.732  30.849  28.474  1.00  0.00     0.251 C 
ATOM     34  H   UNL A   1      32.893  30.646  27.685  1.00  0.00     0.163 HD
ATOM     35  O   UNL A   1      34.509  31.949  28.968  1.00  0.00    -0.269 OA
BRANCH  33  36
ATOM     36  C   UNL A   1      36.072  30.234  28.615  1.00  0.00     0.039 A 
ATOM     37  C   UNL A   1      36.960  30.291  27.538  1.00  0.00     0.014 A 
ATOM     38  C   UNL A   1      36.458  29.631  29.815  1.00  0.00     0.014 A 
ATOM     39  C   UNL A   1      38.262  29.806  27.688  1.00  0.00     0.010 A 
ATOM     40  C   UNL A   1      37.774  29.211  29.986  1.00  0.00     0.010 A 
ATOM     41  C   UNL A   1      38.688  29.296  28.925  1.00  0.00    -0.014 A 
BRANCH  41  42
ATOM     42  C   UNL A   1      40.085  28.843  29.137  1.00  0.00     0.031 A 
ATOM     43  C   UNL A   1      41.109  29.795  29.687  1.00  0.00     0.074 A 
ATOM     44  C   UNL A   1      40.452  27.607  28.749  1.00  0.00     0.049 A 
ATOM     45  N   UNL A   1      42.397  29.628  29.843  1.00  0.00    -0.248 NA
ATOM     46  C   UNL A   1      40.623  31.126  30.085  1.00  0.00     0.031 C 
ATOM     47  C   UNL A   1      39.566  26.611  28.147  1.00  0.00     0.029 A 
ATOM     48  N   UNL A   1      41.676  26.985  28.784  1.00  0.00    -0.354 N 
ATOM     49  C   UNL A   1      42.878  30.834  30.335  1.00  0.00     0.074 A 
ATOM     50  C   UNL A   1      41.752  31.741  30.404  1.00  0.00     0.031 C 
ATOM     51  C   UNL A   1      40.271  25.501  27.876  1.00  0.00     0.029 A 
ATOM     52  C   UNL A   1      41.664  25.718  28.254  1.00  0.00     0.049 A 
ATOM     53  H   UNL A   1      42.485  27.407  29.153  1.00  0.00     0.167 HD
ATOM     54  C   UNL A   1      44.138  31.152  30.716  1.00  0.00     0.037 A 
ATOM     55  C   UNL A   1      42.666  24.835  28.083  1.00  0.00     0.037 A 
ATOM     56  C   UNL A   1      45.249  30.238  30.674  1.00  0.00     0.049 A 
ATOM     57  C   UNL A   1      44.052  25.200  28.530  1.00  0.00     0.074 A 
ATOM     58  C   UNL A   1      46.548  30.437  31.106  1.00  0.00     0.029 A 
ATOM     59  N   UNL A   1      45.188  28.948  30.169  1.00  0.00    -0.354 N 
ATOM     60  N   UNL A   1      44.480  26.322  29.059  1.00  0.00    -0.248 NA
ATOM     61  C   UNL A   1      45.096  24.179  28.361  1.00  0.00     0.031 C 
ATOM     62  C   UNL A   1      47.283  29.280  30.830  1.00  0.00     0.029 A 
ATOM     63  C   UNL A   1      46.432  28.345  30.259  1.00  0.00     0.049 A 
ATOM     64  H   UNL A   1      44.380  28.522  29.801  1.00  0.00     0.167 HD
ATOM     65  C   UNL A   1      45.834  26.136  29.302  1.00  0.00     0.074 A 
ATOM     66  C   UNL A   1      46.154  24.788  28.877  1.00  0.00     0.031 C 
ATOM     67  C   UNL A   1      46.732  27.004  29.827  1.00  0.00     0.037 A 
BRANCH  54  68
ATOM     68  C   UNL A   1      44.374  32.547  31.212  1.00  0.00     0.057 A 
ATOM     69  C   UNL A   1      44.753  33.585  30.349  1.00  0.00     0.134 A 
ATOM     70  C   UNL A   1      44.211  32.864  32.568  1.00  0.00     0.134 A 
ATOM     71  F   UNL A   1      44.938  33.346  29.041  1.00  0.00    -0.206 F 
ATOM     72  C   UNL A   1      44.994  34.876  30.819  1.00  0.00     0.040 A 
ATOM     73  C   UNL A   1      44.424  34.158  33.046  1.00  0.00     0.040 A 
ATOM     74  F   UNL A   1      43.845  31.920  33.448  1.00  0.00    -0.206 F 
ATOM     75  C   UNL A   1      44.824  35.167  32.172  1.00  0.00     0.006 A 
ENDBRANCH  54  68
BRANCH  55  76
ATOM     76  C   UNL A   1      42.384  23.512  27.474  1.00  0.00     0.057 A 
ATOM     77  C   UNL A   1      42.073  22.403  28.269  1.00  0.00     0.134 A 
ATOM     78  C   UNL A   1      42.401  23.329  26.085  1.00  0.00     0.134 A 
ATOM     79  F   UNL A   1      42.059  22.514  29.604  1.00  0.00    -0.206 F 
ATOM     80  C   UNL A   1      41.797  21.155  27.706  1.00  0.00     0.040 A 
ATOM     81  C   UNL A   1      42.107  22.092  25.510  1.00  0.00     0.040 A 
ATOM     82  F   UNL A   1      42.683  24.355  25.271  1.00  0.00    -0.206 F 
ATOM     83  C   UNL A   1      41.809  21.000  26.321  1.00  0.00     0.006 A 
ENDBRANCH  55  76
BRANCH  67  84
ATOM     84  C   UNL A   1      48.142  26.518  29.986  1.00  0.00     0.057 A 
ATOM     85  C   UNL A   1      48.565  25.860  31.148  1.00  0.00     0.134 A 
ATOM     86  C   UNL A   1      49.072  26.671  28.950  1.00  0.00     0.134 A 
ATOM     87  F   UNL A   1      47.724  25.695  32.179  1.00  0.00    -0.206 F 
ATOM     88  C   UNL A   1      49.870  25.384  31.278  1.00  0.00     0.040 A 
ATOM     89  C   UNL A   1      50.373  26.180  29.062  1.00  0.00     0.040 A 
ATOM     90  F   UNL A   1      48.726  27.287  27.809  1.00  0.00    -0.206 F 
ATOM     91  C   UNL A   1      50.775  25.538  30.230  1.00  0.00     0.006 A 
ENDBRANCH  67  84
ENDBRANCH  41  42
ENDBRANCH  33  36
ENDBRANCH  31  32
ENDBRANCH  30  31
ENDBRANCH  29  30
ENDBRANCH  28  29
ENDBRANCH   1  28
TORSDOF 18
ENDMDL
MODEL 2
REMARK VINA RESULT:     -11.4      4.568      7.150
REMARK SMILES O=C(CC/C(=N\NC(=O)c1ccccc1Br)c1ccccc1)NCCCCCCNC(=O)c1ccc(-c2c3nc(c(-c4c(F)cccc4F)c4ccc([nH]4)c(-c4c(F)cccc4F)c4nc(c(-c5c(F)cccc5F)c5ccc2[nH]5)C=C4)C=C3)cc1
REMARK SMILES IDX 25 1 24 2 23 3 1 4 2 5 3 7 4 8 5 9 6 10 17 11 18 12 22 13
REMARK SMILES IDX 19 14 21 15 20 16 7 17 8 18 9 20 10 21 11 22 15 23 12 24
REMARK SMILES IDX 14 25 16 26 13 27 26 28 27 29 28 30 29 31 30 32 31 33 32 35
REMARK SMILES IDX 33 36 34 37 86 38 35 39 85 40 36 41 37 42 38 43 79 44 39 45
REMARK SMILES IDX 84 46 78 47 80 48 40 49 83 50 77 51 76 52 41 54 67 55 50 56
REMARK SMILES IDX 66 57 51 58 54 59 65 60 81 61 52 62 53 63 64 65 82 66 55 67
REMARK SMILES IDX 42 68 43 69 48 70 44 71 45 72 47 73 49 74 46 75 68 76 69 77
REMARK SMILES IDX 74 78 70 79 71 80 73 81 75 82 72 83 56 84 57 85 62 86 58 87
REMARK SMILES IDX 59 88 61 89 63 90 60 91
REMARK H PARENT 23 6 7 19 30 34 80 53 54 64
REMARK Flexibility Score: inf
ROOT
ATOM      1  C   UNL A   1      34.952  31.447  28.412  1.00  0.00     0.021 C 
ENDROOT
BRANCH   1   2
ATOM      2  C   UNL A   1      34.264  30.594  27.349  1.00  0.00     0.116 C 
BRANCH   2   3
ATOM      3  N   UNL A   1      33.101  29.943  27.894  1.00  0.00    -0.356 N 
ATOM      4  O   UNL A   1      31.704  30.209  26.109  1.00  0.00    -0.275 OA
ATOM      5  C   UNL A   1      32.056  29.573  27.086  1.00  0.00     0.220 C 
ATOM      6  H   UNL A   1      33.055  29.759  28.860  1.00  0.00     0.163 HD
BRANCH   5   7
ATOM      7  C   UNL A   1      31.476  28.240  27.511  1.00  0.00     0.106 C 
BRANCH   7   8
ATOM      8  C   UNL A   1      32.113  27.076  26.772  1.00  0.00     0.068 C 
BRANCH   8   9
ATOM      9  C   UNL A   1      31.359  26.438  25.599  1.00  0.00     0.069 C 
ATOM     10  N   UNL A   1      31.052  25.172  25.527  1.00  0.00    -0.177 NA
BRANCH   9  11
ATOM     11  C   UNL A   1      30.876  27.287  24.437  1.00  0.00    -0.002 A 
ATOM     12  C   UNL A   1      31.831  27.920  23.619  1.00  0.00     0.010 A 
ATOM     13  C   UNL A   1      29.533  27.410  24.081  1.00  0.00     0.010 A 
ATOM     14  C   UNL A   1      31.447  28.684  22.511  1.00  0.00     0.001 A 
ATOM     15  C   UNL A   1      29.143  28.204  22.993  1.00  0.00     0.001 A 
ATOM     16  C   UNL A   1      30.100  28.842  22.209  1.00  0.00     0.000 A 
ENDBRANCH   9  11
BRANCH  10  17
ATOM     17  N   UNL A   1      31.245  24.260  26.516  1.00  0.00    -0.243 N 
ATOM     18  C   UNL A   1      32.389  23.544  26.841  1.00  0.00     0.272 C 
ATOM     19  H   UNL A   1      30.460  24.082  27.083  1.00  0.00     0.194 HD
ATOM     20  O   UNL A   1      32.475  22.985  27.936  1.00  0.00    -0.267 OA
BRANCH  18  21
ATOM     21  C   UNL A   1      33.454  23.298  25.853  1.00  0.00     0.055 A 
ATOM     22  C   UNL A   1      34.461  24.281  25.809  1.00  0.00     0.015 A 
ATOM     23  C   UNL A   1      33.566  22.150  25.064  1.00  0.00     0.030 A 
ATOM     24  C   UNL A   1      35.628  24.064  25.080  1.00  0.00     0.001 A 
ATOM     25  C   UNL A   1      34.740  21.941  24.330  1.00  0.00     0.016 A 
ATOM     26  Br  UNL A   1      32.185  20.862  24.909  1.00  0.00    -0.050 Br
ATOM     27  C   UNL A   1      35.776  22.882  24.359  1.00  0.00     0.001 A 
ENDBRANCH  18  21
ENDBRANCH  10  17
ENDBRANCH   8   9
ENDBRANCH   7   8
ENDBRANCH   5   7
ENDBRANCH   2   3
ENDBRANCH   1   2
BRANCH   1  28
ATOM     28  C   UNL A   1      35.268  32.903  28.014  1.00  0.00     0.002 C 
BRANCH  28  29
ATOM     29  C   UNL A   1      35.036  33.983  29.070  1.00  0.00     0.002 C 
BRANCH  29  30
ATOM     30  C   UNL A   1      33.634  34.588  29.113  1.00  0.00     0.021 C 
BRANCH  30  31
ATOM     31  C   UNL A   1      33.577  36.042  29.563  1.00  0.00     0.116 C 
BRANCH  31  32
ATOM     32  N   UNL A   1      32.575  36.287  30.586  1.00  0.00    -0.352 N 
ATOM     33  C   UNL A   1      32.567  35.848  31.890  1.00  0.00     0.251 C 
ATOM     34  H   UNL A   1      31.805  36.837  30.313  1.00  0.00     0.163 HD
ATOM     35  O   UNL A   1      31.588  36.030  32.606  1.00  0.00    -0.269 OA
BRANCH  33  36
ATOM     36  C   UNL A   1      33.741  35.115  32.417  1.00  0.00     0.039 A 
ATOM     37  C   UNL A   1      33.578  33.797  32.851  1.00  0.00     0.014 A 
ATOM     38  C   UNL A   1      35.002  35.717  32.454  1.00  0.00     0.014 A 
ATOM     39  C   UNL A   1      34.693  33.059  33.255  1.00  0.00     0.010 A 
ATOM     40  C   UNL A   1      36.120  34.960  32.791  1.00  0.00     0.010 A 
ATOM     41  C   UNL A   1      35.976  33.624  33.194  1.00  0.00    -0.014 A 
BRANCH  41  42
ATOM     42  C   UNL A   1      37.187  32.841  33.545  1.00  0.00     0.031 A 
ATOM     43  C   UNL A   1      37.935  33.141  34.813  1.00  0.00     0.074 A 
ATOM     44  C   UNL A   1      37.663  31.925  32.680  1.00  0.00     0.049 A 
ATOM     45  N   UNL A   1      39.068  32.648  35.243  1.00  0.00    -0.248 NA
ATOM     46  C   UNL A   1      37.346  34.156  35.700  1.00  0.00     0.031 C 
ATOM     47  C   UNL A   1      37.061  31.585  31.391  1.00  0.00     0.029 A 
ATOM     48  N   UNL A   1      38.778  31.127  32.748  1.00  0.00    -0.354 N 
ATOM     49  C   UNL A   1      39.337  33.306  36.435  1.00  0.00     0.074 A 
ATOM     50  C   UNL A   1      38.276  34.269  36.637  1.00  0.00     0.031 C 
ATOM     51  C   UNL A   1      37.808  30.643  30.792  1.00  0.00     0.029 A 
ATOM     52  C   UNL A   1      38.957  30.337  31.638  1.00  0.00     0.049 A 
ATOM     53  H   UNL A   1      39.392  31.121  33.517  1.00  0.00     0.167 HD
ATOM     54  C   UNL A   1      40.364  33.111  37.297  1.00  0.00     0.037 A 
ATOM     55  C   UNL A   1      39.942  29.472  31.333  1.00  0.00     0.037 A 
ATOM     56  C   UNL A   1      41.401  32.132  37.110  1.00  0.00     0.049 A 
ATOM     57  C   UNL A   1      41.061  29.257  32.311  1.00  0.00     0.074 A 
ATOM     58  C   UNL A   1      42.443  31.804  37.959  1.00  0.00     0.029 A 
ATOM     59  N   UNL A   1      41.525  31.321  35.992  1.00  0.00    -0.354 N 
ATOM     60  N   UNL A   1      41.267  29.837  33.470  1.00  0.00    -0.248 NA
ATOM     61  C   UNL A   1      42.083  28.266  31.945  1.00  0.00     0.031 C 
ATOM     62  C   UNL A   1      43.219  30.819  37.338  1.00  0.00     0.029 A 
ATOM     63  C   UNL A   1      42.639  30.507  36.119  1.00  0.00     0.049 A 
ATOM     64  H   UNL A   1      40.912  31.323  35.221  1.00  0.00     0.167 HD
ATOM     65  C   UNL A   1      42.428  29.271  33.978  1.00  0.00     0.074 A 
ATOM     66  C   UNL A   1      42.874  28.290  33.009  1.00  0.00     0.031 C 
ATOM     67  C   UNL A   1      43.069  29.540  35.141  1.00  0.00     0.037 A 
BRANCH  54  68
ATOM     68  C   UNL A   1      40.406  33.978  38.522  1.00  0.00     0.057 A 
ATOM     69  C   UNL A   1      41.135  35.174  38.555  1.00  0.00     0.134 A 
ATOM     70  C   UNL A   1      39.702  33.619  39.679  1.00  0.00     0.134 A 
ATOM     71  F   UNL A   1      41.842  35.568  37.484  1.00  0.00    -0.206 F 
ATOM     72  C   UNL A   1      41.191  35.964  39.704  1.00  0.00     0.040 A 
ATOM     73  C   UNL A   1      39.728  34.415  40.825  1.00  0.00     0.040 A 
ATOM     74  F   UNL A   1      38.979  32.489  39.713  1.00  0.00    -0.206 F 
ATOM     75  C   UNL A   1      40.481  35.588  40.842  1.00  0.00     0.006 A 
ENDBRANCH  54  68
BRANCH  55  76
ATOM     76  C   UNL A   1      39.900  28.734  30.047  1.00  0.00     0.057 A 
ATOM     77  C   UNL A   1      40.534  29.236  28.905  1.00  0.00     0.134 A 
ATOM     78  C   UNL A   1      39.243  27.502  29.933  1.00  0.00     0.134 A 
ATOM     79  F   UNL A   1      41.164  30.418  28.950  1.00  0.00    -0.206 F 
ATOM     80  C   UNL A   1      40.508  28.546  27.692  1.00  0.00     0.040 A 
ATOM     81  C   UNL A   1      39.227  26.792  28.732  1.00  0.00     0.040 A 
ATOM     82  F   UNL A   1      38.624  26.965  30.994  1.00  0.00    -0.206 F 
ATOM     83  C   UNL A   1      39.857  27.317  27.605  1.00  0.00     0.006 A 
ENDBRANCH  55  76
BRANCH  67  84
ATOM     84  C   UNL A   1      44.311  28.754  35.436  1.00  0.00     0.057 A 
ATOM     85  C   UNL A   1      44.262  27.541  36.136  1.00  0.00     0.134 A 
ATOM     86  C   UNL A   1      45.560  29.191  34.979  1.00  0.00     0.134 A 
ATOM     87  F   UNL A   1      43.098  27.076  36.611  1.00  0.00    -0.206 F 
ATOM     88  C   UNL A   1      45.418  26.798  36.382  1.00  0.00     0.040 A 
ATOM     89  C   UNL A   1      46.718  28.446  35.202  1.00  0.00     0.040 A 
ATOM     90  F   UNL A   1      45.671  30.342  34.298  1.00  0.00    -0.206 F 
ATOM     91  C   UNL A   1      46.649  27.248  35.909  1.00  0.00     0.006 A 
ENDBRANCH  67  84
ENDBRANCH  41  42
ENDBRANCH  33  36
ENDBRANCH  31  32
ENDBRANCH  30  31
ENDBRANCH  29  30
ENDBRANCH  28  29
ENDBRANCH   1  28
TORSDOF 18
ENDMDL
MODEL 3
REMARK VINA RESULT:     -11.4      2.818      7.976
REMARK SMILES O=C(CC/C(=N\NC(=O)c1ccccc1Br)c1ccccc1)NCCCCCCNC(=O)c1ccc(-c2c3nc(c(-c4c(F)cccc4F)c4ccc([nH]4)c(-c4c(F)cccc4F)c4nc(c(-c5c(F)cccc5F)c5ccc2[nH]5)C=C4)C=C3)cc1
REMARK SMILES IDX 25 1 24 2 23 3 1 4 2 5 3 7 4 8 5 9 6 10 17 11 18 12 22 13
REMARK SMILES IDX 19 14 21 15 20 16 7 17 8 18 9 20 10 21 11 22 15 23 12 24
REMARK SMILES IDX 14 25 16 26 13 27 26 28 27 29 28 30 29 31 30 32 31 33 32 35
REMARK SMILES IDX 33 36 34 37 86 38 35 39 85 40 36 41 37 42 38 43 79 44 39 45
REMARK SMILES IDX 84 46 78 47 80 48 40 49 83 50 77 51 76 52 41 54 67 55 50 56
REMARK SMILES IDX 66 57 51 58 54 59 65 60 81 61 52 62 53 63 64 65 82 66 55 67
REMARK SMILES IDX 42 68 43 69 48 70 44 71 45 72 47 73 49 74 46 75 68 76 69 77
REMARK SMILES IDX 74 78 70 79 71 80 73 81 75 82 72 83 56 84 57 85 62 86 58 87
REMARK SMILES IDX 59 88 61 89 63 90 60 91
REMARK H PARENT 23 6 7 19 30 34 80 53 54 64
REMARK Flexibility Score: inf
ROOT
ATOM      1  C   UNL A   1      35.797  23.169  24.075  1.00  0.00     0.021 C 
ENDROOT
BRANCH   1   2
ATOM      2  C   UNL A   1      34.489  22.626  24.645  1.00  0.00     0.116 C 
BRANCH   2   3
ATOM      3  N   UNL A   1      33.512  23.677  24.768  1.00  0.00    -0.356 N 
ATOM      4  O   UNL A   1      33.005  23.404  26.976  1.00  0.00    -0.275 OA
ATOM      5  C   UNL A   1      33.108  24.124  25.998  1.00  0.00     0.220 C 
ATOM      6  H   UNL A   1      33.129  24.080  23.955  1.00  0.00     0.163 HD
BRANCH   5   7
ATOM      7  C   UNL A   1      32.906  25.625  26.000  1.00  0.00     0.106 C 
BRANCH   7   8
ATOM      8  C   UNL A   1      34.072  26.361  25.363  1.00  0.00     0.068 C 
BRANCH   8   9
ATOM      9  C   UNL A   1      33.846  27.772  24.806  1.00  0.00     0.069 C 
ATOM     10  N   UNL A   1      33.823  28.064  23.535  1.00  0.00    -0.177 NA
BRANCH   9  11
ATOM     11  C   UNL A   1      33.587  28.940  25.741  1.00  0.00    -0.002 A 
ATOM     12  C   UNL A   1      32.412  29.696  25.570  1.00  0.00     0.010 A 
ATOM     13  C   UNL A   1      34.413  29.259  26.820  1.00  0.00     0.010 A 
ATOM     14  C   UNL A   1      32.101  30.760  26.425  1.00  0.00     0.001 A 
ATOM     15  C   UNL A   1      34.121  30.346  27.656  1.00  0.00     0.001 A 
ATOM     16  C   UNL A   1      32.967  31.097  27.457  1.00  0.00     0.000 A 
ENDBRANCH   9  11
BRANCH  10  17
ATOM     17  N   UNL A   1      33.876  27.160  22.521  1.00  0.00    -0.243 N 
ATOM     18  C   UNL A   1      32.838  26.526  21.853  1.00  0.00     0.272 C 
ATOM     19  H   UNL A   1      34.781  26.920  22.218  1.00  0.00     0.194 HD
ATOM     20  O   UNL A   1      33.049  25.966  20.777  1.00  0.00    -0.267 OA
BRANCH  18  21
ATOM     21  C   UNL A   1      31.507  26.367  22.466  1.00  0.00     0.055 A 
ATOM     22  C   UNL A   1      31.196  25.056  22.877  1.00  0.00     0.015 A 
ATOM     23  C   UNL A   1      30.619  27.411  22.738  1.00  0.00     0.030 A 
ATOM     24  C   UNL A   1      30.070  24.811  23.660  1.00  0.00     0.001 A 
ATOM     25  C   UNL A   1      29.487  27.156  23.522  1.00  0.00     0.016 A 
ATOM     26  Br  UNL A   1      30.854  29.168  22.069  1.00  0.00    -0.050 Br
ATOM     27  C   UNL A   1      29.229  25.867  24.001  1.00  0.00     0.001 A 
ENDBRANCH  18  21
ENDBRANCH  10  17
ENDBRANCH   8   9
ENDBRANCH   7   8
ENDBRANCH   5   7
ENDBRANCH   2   3
ENDBRANCH   1   2
BRANCH   1  28
ATOM     28  C   UNL A   1      37.039  22.272  24.252  1.00  0.00     0.002 C 
BRANCH  28  29
ATOM     29  C   UNL A   1      36.866  20.992  25.070  1.00  0.00     0.002 C 
BRANCH  29  30
ATOM     30  C   UNL A   1      37.982  19.958  24.940  1.00  0.00     0.021 C 
BRANCH  30  31
ATOM     31  C   UNL A   1      39.235  20.263  25.749  1.00  0.00     0.116 C 
BRANCH  31  32
ATOM     32  N   UNL A   1      40.153  19.139  25.829  1.00  0.00    -0.352 N 
ATOM     33  C   UNL A   1      41.502  19.161  26.098  1.00  0.00     0.251 C 
ATOM     34  H   UNL A   1      39.761  18.249  25.672  1.00  0.00     0.163 HD
ATOM     35  O   UNL A   1      42.175  18.140  26.009  1.00  0.00    -0.269 OA
BRANCH  33  36
ATOM     36  C   UNL A   1      42.150  20.443  26.460  1.00  0.00     0.039 A 
ATOM     37  C   UNL A   1      42.687  21.240  25.447  1.00  0.00     0.014 A 
ATOM     38  C   UNL A   1      42.199  20.868  27.791  1.00  0.00     0.014 A 
ATOM     39  C   UNL A   1      43.211  22.497  25.760  1.00  0.00     0.010 A 
ATOM     40  C   UNL A   1      42.657  22.146  28.092  1.00  0.00     0.010 A 
ATOM     41  C   UNL A   1      43.166  22.974  27.079  1.00  0.00    -0.014 A 
BRANCH  41  42
ATOM     42  C   UNL A   1      43.645  24.333  27.430  1.00  0.00     0.031 A 
ATOM     43  C   UNL A   1      42.668  25.384  27.875  1.00  0.00     0.074 A 
ATOM     44  C   UNL A   1      44.944  24.648  27.260  1.00  0.00     0.049 A 
ATOM     45  N   UNL A   1      42.870  26.654  28.119  1.00  0.00    -0.248 NA
ATOM     46  C   UNL A   1      41.269  24.956  28.033  1.00  0.00     0.031 C 
ATOM     47  C   UNL A   1      45.980  23.734  26.778  1.00  0.00     0.029 A 
ATOM     48  N   UNL A   1      45.610  25.833  27.453  1.00  0.00    -0.354 N 
ATOM     49  C   UNL A   1      41.625  27.179  28.439  1.00  0.00     0.074 A 
ATOM     50  C   UNL A   1      40.665  26.103  28.309  1.00  0.00     0.031 C 
ATOM     51  C   UNL A   1      47.151  24.388  26.720  1.00  0.00     0.029 A 
ATOM     52  C   UNL A   1      46.943  25.773  27.129  1.00  0.00     0.049 A 
ATOM     53  H   UNL A   1      45.173  26.647  27.792  1.00  0.00     0.167 HD
ATOM     54  C   UNL A   1      41.311  28.437  28.828  1.00  0.00     0.037 A 
ATOM     55  C   UNL A   1      47.889  26.731  27.149  1.00  0.00     0.037 A 
ATOM     56  C   UNL A   1      42.271  29.497  28.986  1.00  0.00     0.049 A 
ATOM     57  C   UNL A   1      47.524  28.116  27.602  1.00  0.00     0.074 A 
ATOM     58  C   UNL A   1      42.068  30.786  29.446  1.00  0.00     0.029 A 
ATOM     59  N   UNL A   1      43.621  29.387  28.687  1.00  0.00    -0.354 N 
ATOM     60  N   UNL A   1      46.353  28.582  27.969  1.00  0.00    -0.248 NA
ATOM     61  C   UNL A   1      48.607  29.108  27.649  1.00  0.00     0.031 C 
ATOM     62  C   UNL A   1      43.289  31.467  29.392  1.00  0.00     0.029 A 
ATOM     63  C   UNL A   1      44.260  30.591  28.934  1.00  0.00     0.049 A 
ATOM     64  H   UNL A   1      44.061  28.572  28.350  1.00  0.00     0.167 HD
ATOM     65  C   UNL A   1      46.563  29.912  28.306  1.00  0.00     0.074 A 
ATOM     66  C   UNL A   1      47.975  30.175  28.115  1.00  0.00     0.031 C 
ATOM     67  C   UNL A   1      45.666  30.834  28.733  1.00  0.00     0.037 A 
BRANCH  54  68
ATOM     68  C   UNL A   1      39.867  28.729  29.111  1.00  0.00     0.057 A 
ATOM     69  C   UNL A   1      39.321  28.583  30.393  1.00  0.00     0.134 A 
ATOM     70  C   UNL A   1      39.011  29.170  28.092  1.00  0.00     0.134 A 
ATOM     71  F   UNL A   1      40.083  28.152  31.410  1.00  0.00    -0.206 F 
ATOM     72  C   UNL A   1      37.971  28.832  30.646  1.00  0.00     0.040 A 
ATOM     73  C   UNL A   1      37.666  29.448  28.339  1.00  0.00     0.040 A 
ATOM     74  F   UNL A   1      39.470  29.336  26.842  1.00  0.00    -0.206 F 
ATOM     75  C   UNL A   1      37.140  29.271  29.618  1.00  0.00     0.006 A 
ENDBRANCH  54  68
BRANCH  55  76
ATOM     76  C   UNL A   1      49.277  26.403  26.742  1.00  0.00     0.057 A 
ATOM     77  C   UNL A   1      49.735  26.682  25.450  1.00  0.00     0.134 A 
ATOM     78  C   UNL A   1      50.183  25.820  27.638  1.00  0.00     0.134 A 
ATOM     79  F   UNL A   1      48.908  27.223  24.544  1.00  0.00    -0.206 F 
ATOM     80  C   UNL A   1      51.042  26.385  25.058  1.00  0.00     0.040 A 
ATOM     81  C   UNL A   1      51.497  25.537  27.265  1.00  0.00     0.040 A 
ATOM     82  F   UNL A   1      49.805  25.537  28.892  1.00  0.00    -0.206 F 
ATOM     83  C   UNL A   1      51.928  25.815  25.970  1.00  0.00     0.006 A 
ENDBRANCH  55  76
BRANCH  67  84
ATOM     84  C   UNL A   1      46.187  32.207  29.036  1.00  0.00     0.057 A 
ATOM     85  C   UNL A   1      46.676  32.542  30.305  1.00  0.00     0.134 A 
ATOM     86  C   UNL A   1      46.241  33.188  28.039  1.00  0.00     0.134 A 
ATOM     87  F   UNL A   1      46.639  31.650  31.306  1.00  0.00    -0.206 F 
ATOM     88  C   UNL A   1      47.187  33.813  30.575  1.00  0.00     0.040 A 
ATOM     89  C   UNL A   1      46.769  34.455  28.291  1.00  0.00     0.040 A 
ATOM     90  F   UNL A   1      45.794  32.926  26.801  1.00  0.00    -0.206 F 
ATOM     91  C   UNL A   1      47.240  34.770  29.563  1.00  0.00     0.006 A 
ENDBRANCH  67  84
ENDBRANCH  41  42
ENDBRANCH  33  36
ENDBRANCH  31  32
ENDBRANCH  30  31
ENDBRANCH  29  30
ENDBRANCH  28  29
ENDBRANCH   1  28
TORSDOF 18
ENDMDL
