MODEL 1
REMARK VINA RESULT:     -11.2      0.000      0.000
REMARK SMILES O=C(NCCCCCCNC(=O)[C@H]1CC[C@@H](CN2CC(=O)N3CCCC[C@H]3C2=O)O1)c1ccc(-c2c3nc(c(-c4c(F)cccc4F)c4ccc([nH]4)c(-c4c(F)cccc4F)c4nc(c(-c5c(F)cccc5F)c5ccc2[nH]5)C=C4)C=C3)cc1
REMARK SMILES IDX 6 1 5 2 4 3 3 4 1 5 2 6 31 8 32 9 84 10 33 11 83 12 34 13
REMARK SMILES IDX 35 14 36 15 77 16 37 17 82 18 76 19 78 20 38 21 81 22 75 23
REMARK SMILES IDX 74 24 39 26 65 27 48 28 64 29 49 30 52 31 63 32 79 33 50 34
REMARK SMILES IDX 51 35 62 37 80 38 53 39 40 40 41 41 46 42 42 43 43 44 45 45
REMARK SMILES IDX 47 46 44 47 66 48 67 49 72 50 68 51 69 52 71 53 73 54 70 55
REMARK SMILES IDX 54 56 55 57 60 58 56 59 57 60 59 61 61 62 58 63 7 64 8 65
REMARK SMILES IDX 9 66 10 67 11 68 12 70 13 71 14 72 30 73 15 74 16 75 17 76
REMARK SMILES IDX 18 77 19 78 28 79 20 80 27 81 29 82 21 83 22 84 26 85 23 86
REMARK SMILES IDX 25 87 24 88
REMARK H PARENT 3 7 78 25 52 36 10 69
REMARK Flexibility Score: inf
ROOT
ATOM      1  C   UNL A   1      37.499  21.852  24.501  1.00  0.00     0.002 C 
ENDROOT
BRANCH   1   2
ATOM      2  C   UNL A   1      37.961  20.466  24.932  1.00  0.00     0.021 C 
BRANCH   2   3
ATOM      3  C   UNL A   1      38.978  20.458  26.065  1.00  0.00     0.116 C 
BRANCH   3   4
ATOM      4  N   UNL A   1      40.015  19.452  25.888  1.00  0.00    -0.352 N 
ATOM      5  O   UNL A   1      42.146  18.702  25.702  1.00  0.00    -0.269 OA
ATOM      6  C   UNL A   1      41.378  19.594  26.022  1.00  0.00     0.251 C 
ATOM      7  H   UNL A   1      39.700  18.552  25.640  1.00  0.00     0.163 HD
BRANCH   6   8
ATOM      8  C   UNL A   1      41.899  20.877  26.538  1.00  0.00     0.039 A 
ATOM      9  C   UNL A   1      41.919  21.117  27.914  1.00  0.00     0.014 A 
ATOM     10  C   UNL A   1      42.296  21.865  25.636  1.00  0.00     0.014 A 
ATOM     11  C   UNL A   1      42.180  22.399  28.378  1.00  0.00     0.010 A 
ATOM     12  C   UNL A   1      42.647  23.130  26.114  1.00  0.00     0.010 A 
ATOM     13  C   UNL A   1      42.552  23.418  27.485  1.00  0.00    -0.014 A 
BRANCH  13  14
ATOM     14  C   UNL A   1      42.875  24.764  28.018  1.00  0.00     0.031 A 
ATOM     15  C   UNL A   1      41.799  25.781  28.278  1.00  0.00     0.074 A 
ATOM     16  C   UNL A   1      44.159  25.052  28.298  1.00  0.00     0.049 A 
ATOM     17  N   UNL A   1      41.911  26.995  28.757  1.00  0.00    -0.248 NA
ATOM     18  C   UNL A   1      40.418  25.392  27.950  1.00  0.00     0.031 C 
ATOM     19  C   UNL A   1      45.290  24.145  28.085  1.00  0.00     0.029 A 
ATOM     20  N   UNL A   1      44.730  26.173  28.842  1.00  0.00    -0.354 N 
ATOM     21  C   UNL A   1      40.627  27.525  28.761  1.00  0.00     0.074 A 
ATOM     22  C   UNL A   1      39.751  26.506  28.220  1.00  0.00     0.031 C 
ATOM     23  C   UNL A   1      46.409  24.722  28.544  1.00  0.00     0.029 A 
ATOM     24  C   UNL A   1      46.086  26.061  29.024  1.00  0.00     0.049 A 
ATOM     25  H   UNL A   1      44.218  26.979  29.079  1.00  0.00     0.167 HD
ATOM     26  C   UNL A   1      40.219  28.747  29.181  1.00  0.00     0.037 A 
ATOM     27  C   UNL A   1      46.976  26.942  29.512  1.00  0.00     0.037 A 
ATOM     28  C   UNL A   1      41.093  29.748  29.739  1.00  0.00     0.049 A 
ATOM     29  C   UNL A   1      46.499  28.290  29.957  1.00  0.00     0.074 A 
ATOM     30  C   UNL A   1      40.768  31.001  30.230  1.00  0.00     0.029 A 
ATOM     31  N   UNL A   1      42.466  29.610  29.875  1.00  0.00    -0.354 N 
ATOM     32  N   UNL A   1      45.279  28.767  29.979  1.00  0.00    -0.248 NA
ATOM     33  C   UNL A   1      47.524  29.226  30.439  1.00  0.00     0.031 C 
ATOM     34  C   UNL A   1      41.951  31.637  30.627  1.00  0.00     0.029 A 
ATOM     35  C   UNL A   1      43.006  30.762  30.424  1.00  0.00     0.049 A 
ATOM     36  H   UNL A   1      42.981  28.811  29.620  1.00  0.00     0.167 HD
ATOM     37  C   UNL A   1      45.383  30.051  30.495  1.00  0.00     0.074 A 
ATOM     38  C   UNL A   1      46.787  30.271  30.785  1.00  0.00     0.031 C 
ATOM     39  C   UNL A   1      44.405  30.965  30.709  1.00  0.00     0.037 A 
BRANCH  26  40
ATOM     40  C   UNL A   1      38.762  29.082  29.025  1.00  0.00     0.057 A 
ATOM     41  C   UNL A   1      37.861  29.005  30.095  1.00  0.00     0.134 A 
ATOM     42  C   UNL A   1      38.260  29.516  27.791  1.00  0.00     0.134 A 
ATOM     43  F   UNL A   1      38.272  28.587  31.302  1.00  0.00    -0.206 F 
ATOM     44  C   UNL A   1      36.510  29.322  29.937  1.00  0.00     0.040 A 
ATOM     45  C   UNL A   1      36.917  29.858  27.626  1.00  0.00     0.040 A 
ATOM     46  F   UNL A   1      39.068  29.621  26.726  1.00  0.00    -0.206 F 
ATOM     47  C   UNL A   1      36.035  29.755  28.700  1.00  0.00     0.006 A 
ENDBRANCH  26  40
BRANCH  27  48
ATOM     48  C   UNL A   1      48.405  26.558  29.613  1.00  0.00     0.057 A 
ATOM     49  C   UNL A   1      49.307  26.870  28.590  1.00  0.00     0.134 A 
ATOM     50  C   UNL A   1      48.907  25.907  30.746  1.00  0.00     0.134 A 
ATOM     51  F   UNL A   1      48.881  27.482  27.477  1.00  0.00    -0.206 F 
ATOM     52  C   UNL A   1      50.660  26.543  28.688  1.00  0.00     0.040 A 
ATOM     53  C   UNL A   1      50.262  25.595  30.867  1.00  0.00     0.040 A 
ATOM     54  F   UNL A   1      48.092  25.592  31.763  1.00  0.00    -0.206 F 
ATOM     55  C   UNL A   1      51.142  25.911  29.834  1.00  0.00     0.006 A 
ENDBRANCH  27  48
BRANCH  39  56
ATOM     56  C   UNL A   1      44.821  32.270  31.318  1.00  0.00     0.057 A 
ATOM     57  C   UNL A   1      45.178  33.372  30.533  1.00  0.00     0.134 A 
ATOM     58  C   UNL A   1      44.848  32.428  32.710  1.00  0.00     0.134 A 
ATOM     59  F   UNL A   1      45.186  33.279  29.194  1.00  0.00    -0.206 F 
ATOM     60  C   UNL A   1      45.573  34.580  31.110  1.00  0.00     0.040 A 
ATOM     61  C   UNL A   1      45.218  33.637  33.297  1.00  0.00     0.040 A 
ATOM     62  F   UNL A   1      44.512  31.411  33.518  1.00  0.00    -0.206 F 
ATOM     63  C   UNL A   1      45.589  34.717  32.496  1.00  0.00     0.006 A 
ENDBRANCH  39  56
ENDBRANCH  13  14
ENDBRANCH   6   8
ENDBRANCH   3   4
ENDBRANCH   2   3
ENDBRANCH   1   2
BRANCH   1  64
ATOM     64  C   UNL A   1      38.179  23.011  25.227  1.00  0.00     0.002 C 
BRANCH  64  65
ATOM     65  C   UNL A   1      37.329  23.725  26.288  1.00  0.00     0.021 C 
BRANCH  65  66
ATOM     66  C   UNL A   1      35.839  23.852  25.959  1.00  0.00     0.116 C 
BRANCH  66  67
ATOM     67  N   UNL A   1      34.999  23.020  26.803  1.00  0.00    -0.354 N 
ATOM     68  C   UNL A   1      34.319  21.870  26.518  1.00  0.00     0.249 C 
ATOM     69  H   UNL A   1      34.904  23.337  27.731  1.00  0.00     0.163 HD
ATOM     70  O   UNL A   1      33.716  21.314  27.437  1.00  0.00    -0.272 OA
BRANCH  68  71
ATOM     71  C   UNL A   1      34.335  21.308  25.083  1.00  0.00     0.207 C 
ATOM     72  C   UNL A   1      33.495  20.043  24.947  1.00  0.00     0.045 C 
ATOM     73  O   UNL A   1      33.781  22.255  24.150  1.00  0.00    -0.363 OA
ATOM     74  C   UNL A   1      32.136  20.590  24.575  1.00  0.00     0.037 C 
ATOM     75  C   UNL A   1      32.508  21.760  23.682  1.00  0.00     0.139 C 
BRANCH  75  76
ATOM     76  C   UNL A   1      31.449  22.876  23.586  1.00  0.00     0.152 C 
BRANCH  76  77
ATOM     77  N   UNL A   1      31.802  24.112  24.291  1.00  0.00    -0.329 N 
ATOM     78  C   UNL A   1      32.098  25.296  23.504  1.00  0.00     0.219 C 
ATOM     79  C   UNL A   1      31.585  24.261  25.654  1.00  0.00     0.245 C 
ATOM     80  C   UNL A   1      33.164  26.196  24.121  1.00  0.00     0.242 C 
ATOM     81  C   UNL A   1      32.099  25.588  26.258  1.00  0.00     0.174 C 
ATOM     82  O   UNL A   1      30.961  23.444  26.328  1.00  0.00    -0.272 OA
ATOM     83  O   UNL A   1      33.781  27.023  23.454  1.00  0.00    -0.273 OA
ATOM     84  N   UNL A   1      33.211  26.175  25.509  1.00  0.00    -0.329 N 
ATOM     85  C   UNL A   1      31.017  26.659  26.420  1.00  0.00     0.035 C 
ATOM     86  C   UNL A   1      33.898  27.262  26.180  1.00  0.00     0.120 C 
ATOM     87  C   UNL A   1      31.611  27.938  27.044  1.00  0.00     0.004 C 
ATOM     88  C   UNL A   1      32.900  28.412  26.350  1.00  0.00     0.022 C 
ENDBRANCH  76  77
ENDBRANCH  75  76
ENDBRANCH  68  71
ENDBRANCH  66  67
ENDBRANCH  65  66
ENDBRANCH  64  65
ENDBRANCH   1  64
TORSDOF 15
ENDMDL
MODEL 2
REMARK VINA RESULT:     -11.0      4.956     10.103
REMARK SMILES O=C(NCCCCCCNC(=O)[C@H]1CC[C@@H](CN2CC(=O)N3CCCC[C@H]3C2=O)O1)c1ccc(-c2c3nc(c(-c4c(F)cccc4F)c4ccc([nH]4)c(-c4c(F)cccc4F)c4nc(c(-c5c(F)cccc5F)c5ccc2[nH]5)C=C4)C=C3)cc1
REMARK SMILES IDX 6 1 5 2 4 3 3 4 1 5 2 6 31 8 32 9 84 10 33 11 83 12 34 13
REMARK SMILES IDX 35 14 36 15 77 16 37 17 82 18 76 19 78 20 38 21 81 22 75 23
REMARK SMILES IDX 74 24 39 26 65 27 48 28 64 29 49 30 52 31 63 32 79 33 50 34
REMARK SMILES IDX 51 35 62 37 80 38 53 39 40 40 41 41 46 42 42 43 43 44 45 45
REMARK SMILES IDX 47 46 44 47 66 48 67 49 72 50 68 51 69 52 71 53 73 54 70 55
REMARK SMILES IDX 54 56 55 57 60 58 56 59 57 60 59 61 61 62 58 63 7 64 8 65
REMARK SMILES IDX 9 66 10 67 11 68 12 70 13 71 14 72 30 73 15 74 16 75 17 76
REMARK SMILES IDX 18 77 19 78 28 79 20 80 27 81 29 82 21 83 22 84 26 85 23 86
REMARK SMILES IDX 25 87 24 88
REMARK H PARENT 3 7 78 25 52 36 10 69
REMARK Flexibility Score: inf
ROOT
ATOM      1  C   UNL A   1      35.079  34.742  28.138  1.00  0.00     0.002 C 
ENDROOT
BRANCH   1   2
ATOM      2  C   UNL A   1      33.960  35.547  28.786  1.00  0.00     0.021 C 
BRANCH   2   3
ATOM      3  C   UNL A   1      33.073  34.753  29.737  1.00  0.00     0.116 C 
BRANCH   3   4
ATOM      4  N   UNL A   1      32.418  35.589  30.732  1.00  0.00    -0.352 N 
ATOM      5  O   UNL A   1      31.999  36.356  32.823  1.00  0.00    -0.269 OA
ATOM      6  C   UNL A   1      32.722  35.729  32.067  1.00  0.00     0.251 C 
ATOM      7  H   UNL A   1      31.657  36.124  30.407  1.00  0.00     0.163 HD
BRANCH   6   8
ATOM      8  C   UNL A   1      33.942  35.070  32.578  1.00  0.00     0.039 A 
ATOM      9  C   UNL A   1      35.186  35.685  32.415  1.00  0.00     0.014 A 
ATOM     10  C   UNL A   1      33.844  33.801  33.151  1.00  0.00     0.014 A 
ATOM     11  C   UNL A   1      36.343  34.963  32.676  1.00  0.00     0.010 A 
ATOM     12  C   UNL A   1      35.009  33.113  33.499  1.00  0.00     0.010 A 
ATOM     13  C   UNL A   1      36.268  33.672  33.226  1.00  0.00    -0.014 A 
BRANCH  13  14
ATOM     14  C   UNL A   1      37.522  32.946  33.542  1.00  0.00     0.031 A 
ATOM     15  C   UNL A   1      38.265  33.189  34.825  1.00  0.00     0.074 A 
ATOM     16  C   UNL A   1      37.971  32.030  32.663  1.00  0.00     0.049 A 
ATOM     17  N   UNL A   1      39.365  32.626  35.260  1.00  0.00    -0.248 NA
ATOM     18  C   UNL A   1      37.710  34.202  35.737  1.00  0.00     0.031 C 
ATOM     19  C   UNL A   1      37.335  31.710  31.383  1.00  0.00     0.029 A 
ATOM     20  N   UNL A   1      39.049  31.186  32.720  1.00  0.00    -0.354 N 
ATOM     21  C   UNL A   1      39.651  33.233  36.477  1.00  0.00     0.074 A 
ATOM     22  C   UNL A   1      38.617  34.221  36.705  1.00  0.00     0.031 C 
ATOM     23  C   UNL A   1      38.000  30.702  30.801  1.00  0.00     0.029 A 
ATOM     24  C   UNL A   1      39.144  30.350  31.634  1.00  0.00     0.049 A 
ATOM     25  H   UNL A   1      39.692  31.179  33.464  1.00  0.00     0.167 HD
ATOM     26  C   UNL A   1      40.679  32.984  37.324  1.00  0.00     0.037 A 
ATOM     27  C   UNL A   1      40.057  29.410  31.334  1.00  0.00     0.037 A 
ATOM     28  C   UNL A   1      41.691  31.983  37.101  1.00  0.00     0.049 A 
ATOM     29  C   UNL A   1      41.190  29.165  32.284  1.00  0.00     0.074 A 
ATOM     30  C   UNL A   1      42.749  31.628  37.920  1.00  0.00     0.029 A 
ATOM     31  N   UNL A   1      41.773  31.180  35.973  1.00  0.00    -0.354 N 
ATOM     32  N   UNL A   1      41.432  29.728  33.441  1.00  0.00    -0.248 NA
ATOM     33  C   UNL A   1      42.180  28.158  31.881  1.00  0.00     0.031 C 
ATOM     34  C   UNL A   1      43.495  30.637  37.269  1.00  0.00     0.029 A 
ATOM     35  C   UNL A   1      42.874  30.344  36.065  1.00  0.00     0.049 A 
ATOM     36  H   UNL A   1      41.140  31.200  35.219  1.00  0.00     0.167 HD
ATOM     37  C   UNL A   1      42.591  29.132  33.918  1.00  0.00     0.074 A 
ATOM     38  C   UNL A   1      42.994  28.153  32.927  1.00  0.00     0.031 C 
ATOM     39  C   UNL A   1      43.261  29.373  35.072  1.00  0.00     0.037 A 
BRANCH  26  40
ATOM     40  C   UNL A   1      40.776  33.831  38.562  1.00  0.00     0.057 A 
ATOM     41  C   UNL A   1      40.069  33.527  39.731  1.00  0.00     0.134 A 
ATOM     42  C   UNL A   1      41.615  34.953  38.590  1.00  0.00     0.134 A 
ATOM     43  F   UNL A   1      39.240  32.472  39.769  1.00  0.00    -0.206 F 
ATOM     44  C   UNL A   1      40.170  34.321  40.876  1.00  0.00     0.040 A 
ATOM     45  C   UNL A   1      41.744  35.742  39.735  1.00  0.00     0.040 A 
ATOM     46  F   UNL A   1      42.328  35.299  37.508  1.00  0.00    -0.206 F 
ATOM     47  C   UNL A   1      41.014  35.430  40.881  1.00  0.00     0.006 A 
ENDBRANCH  26  40
BRANCH  27  48
ATOM     48  C   UNL A   1      39.917  28.628  30.082  1.00  0.00     0.057 A 
ATOM     49  C   UNL A   1      40.523  29.057  28.896  1.00  0.00     0.134 A 
ATOM     50  C   UNL A   1      39.212  27.419  30.051  1.00  0.00     0.134 A 
ATOM     51  F   UNL A   1      41.201  30.212  28.863  1.00  0.00    -0.206 F 
ATOM     52  C   UNL A   1      40.426  28.313  27.720  1.00  0.00     0.040 A 
ATOM     53  C   UNL A   1      39.127  26.654  28.888  1.00  0.00     0.040 A 
ATOM     54  F   UNL A   1      38.620  26.952  31.161  1.00  0.00    -0.206 F 
ATOM     55  C   UNL A   1      39.733  27.103  27.717  1.00  0.00     0.006 A 
ENDBRANCH  27  48
BRANCH  39  56
ATOM     56  C   UNL A   1      44.477  28.537  35.335  1.00  0.00     0.057 A 
ATOM     57  C   UNL A   1      44.399  27.310  36.004  1.00  0.00     0.134 A 
ATOM     58  C   UNL A   1      45.739  28.961  34.899  1.00  0.00     0.134 A 
ATOM     59  F   UNL A   1      43.221  26.857  36.461  1.00  0.00    -0.206 F 
ATOM     60  C   UNL A   1      45.539  26.544  36.254  1.00  0.00     0.040 A 
ATOM     61  C   UNL A   1      46.881  28.192  35.121  1.00  0.00     0.040 A 
ATOM     62  F   UNL A   1      45.879  30.125  34.247  1.00  0.00    -0.206 F 
ATOM     63  C   UNL A   1      46.784  26.982  35.806  1.00  0.00     0.006 A 
ENDBRANCH  39  56
ENDBRANCH  13  14
ENDBRANCH   6   8
ENDBRANCH   3   4
ENDBRANCH   2   3
ENDBRANCH   1   2
BRANCH   1  64
ATOM     64  C   UNL A   1      35.471  33.470  28.885  1.00  0.00     0.002 C 
BRANCH  64  65
ATOM     65  C   UNL A   1      35.535  32.190  28.039  1.00  0.00     0.021 C 
BRANCH  65  66
ATOM     66  C   UNL A   1      34.276  31.318  28.071  1.00  0.00     0.116 C 
BRANCH  66  67
ATOM     67  N   UNL A   1      33.784  30.982  26.746  1.00  0.00    -0.354 N 
ATOM     68  C   UNL A   1      33.294  29.806  26.254  1.00  0.00     0.249 C 
ATOM     69  H   UNL A   1      33.808  31.723  26.098  1.00  0.00     0.163 HD
ATOM     70  O   UNL A   1      32.880  29.794  25.094  1.00  0.00    -0.272 OA
BRANCH  68  71
ATOM     71  C   UNL A   1      33.267  28.553  27.153  1.00  0.00     0.207 C 
ATOM     72  C   UNL A   1      31.852  28.171  27.569  1.00  0.00     0.045 C 
ATOM     73  O   UNL A   1      33.801  27.409  26.459  1.00  0.00    -0.363 OA
ATOM     74  C   UNL A   1      31.429  27.227  26.468  1.00  0.00     0.037 C 
ATOM     75  C   UNL A   1      32.724  26.489  26.180  1.00  0.00     0.139 C 
BRANCH  75  76
ATOM     76  C   UNL A   1      32.832  25.878  24.768  1.00  0.00     0.152 C 
BRANCH  76  77
ATOM     77  N   UNL A   1      33.069  24.431  24.748  1.00  0.00    -0.329 N 
ATOM     78  C   UNL A   1      32.983  23.700  26.001  1.00  0.00     0.219 C 
ATOM     79  C   UNL A   1      33.083  23.710  23.562  1.00  0.00     0.245 C 
ATOM     80  C   UNL A   1      33.954  22.528  26.098  1.00  0.00     0.242 C 
ATOM     81  C   UNL A   1      33.439  22.214  23.709  1.00  0.00     0.174 C 
ATOM     82  O   UNL A   1      32.761  24.194  22.479  1.00  0.00    -0.272 OA
ATOM     83  O   UNL A   1      34.269  22.032  27.177  1.00  0.00    -0.273 OA
ATOM     84  N   UNL A   1      34.260  21.924  24.884  1.00  0.00    -0.329 N 
ATOM     85  C   UNL A   1      32.222  21.285  23.739  1.00  0.00     0.035 C 
ATOM     86  C   UNL A   1      34.840  20.595  24.916  1.00  0.00     0.120 C 
ATOM     87  C   UNL A   1      32.667  19.814  23.868  1.00  0.00     0.004 C 
ATOM     88  C   UNL A   1      33.691  19.585  24.993  1.00  0.00     0.022 C 
ENDBRANCH  76  77
ENDBRANCH  75  76
ENDBRANCH  68  71
ENDBRANCH  66  67
ENDBRANCH  65  66
ENDBRANCH  64  65
ENDBRANCH   1  64
TORSDOF 15
ENDMDL
MODEL 3
REMARK VINA RESULT:     -11.0      1.401      6.321
REMARK SMILES O=C(NCCCCCCNC(=O)[C@H]1CC[C@@H](CN2CC(=O)N3CCCC[C@H]3C2=O)O1)c1ccc(-c2c3nc(c(-c4c(F)cccc4F)c4ccc([nH]4)c(-c4c(F)cccc4F)c4nc(c(-c5c(F)cccc5F)c5ccc2[nH]5)C=C4)C=C3)cc1
REMARK SMILES IDX 6 1 5 2 4 3 3 4 1 5 2 6 31 8 32 9 84 10 33 11 83 12 34 13
REMARK SMILES IDX 35 14 36 15 77 16 37 17 82 18 76 19 78 20 38 21 81 22 75 23
REMARK SMILES IDX 74 24 39 26 65 27 48 28 64 29 49 30 52 31 63 32 79 33 50 34
REMARK SMILES IDX 51 35 62 37 80 38 53 39 40 40 41 41 46 42 42 43 43 44 45 45
REMARK SMILES IDX 47 46 44 47 66 48 67 49 72 50 68 51 69 52 71 53 73 54 70 55
REMARK SMILES IDX 54 56 55 57 60 58 56 59 57 60 59 61 61 62 58 63 7 64 8 65
REMARK SMILES IDX 9 66 10 67 11 68 12 70 13 71 14 72 30 73 15 74 16 75 17 76
REMARK SMILES IDX 18 77 19 78 28 79 20 80 27 81 29 82 21 83 22 84 26 85 23 86
REMARK SMILES IDX 25 87 24 88
REMARK H PARENT 3 7 78 25 52 36 10 69
REMARK Flexibility Score: inf
ROOT
ATOM      1  C   UNL A   1      36.851  20.913  24.996  1.00  0.00     0.002 C 
ENDROOT
BRANCH   1   2
ATOM      2  C   UNL A   1      37.925  19.832  24.997  1.00  0.00     0.021 C 
BRANCH   2   3
ATOM      3  C   UNL A   1      39.193  20.195  25.758  1.00  0.00     0.116 C 
BRANCH   3   4
ATOM      4  N   UNL A   1      40.166  19.113  25.785  1.00  0.00    -0.352 N 
ATOM      5  O   UNL A   1      42.246  18.216  25.843  1.00  0.00    -0.269 OA
ATOM      6  C   UNL A   1      41.526  19.188  25.990  1.00  0.00     0.251 C 
ATOM      7  H   UNL A   1      39.804  18.208  25.638  1.00  0.00     0.163 HD
BRANCH   6   8
ATOM      8  C   UNL A   1      42.104  20.495  26.365  1.00  0.00     0.039 A 
ATOM      9  C   UNL A   1      42.178  20.863  27.710  1.00  0.00     0.014 A 
ATOM     10  C   UNL A   1      42.500  21.380  25.361  1.00  0.00     0.014 A 
ATOM     11  C   UNL A   1      42.495  22.174  28.042  1.00  0.00     0.010 A 
ATOM     12  C   UNL A   1      42.906  22.672  25.705  1.00  0.00     0.010 A 
ATOM     13  C   UNL A   1      42.868  23.091  27.044  1.00  0.00    -0.014 A 
BRANCH  13  14
ATOM     14  C   UNL A   1      43.250  24.470  27.435  1.00  0.00     0.031 A 
ATOM     15  C   UNL A   1      44.679  24.933  27.371  1.00  0.00     0.074 A 
ATOM     16  C   UNL A   1      42.280  25.319  27.821  1.00  0.00     0.049 A 
ATOM     17  N   UNL A   1      45.176  26.110  27.661  1.00  0.00    -0.248 NA
ATOM     18  C   UNL A   1      45.682  23.950  26.935  1.00  0.00     0.031 C 
ATOM     19  C   UNL A   1      40.858  24.980  27.925  1.00  0.00     0.029 A 
ATOM     20  N   UNL A   1      42.334  26.641  28.175  1.00  0.00    -0.354 N 
ATOM     21  C   UNL A   1      46.549  26.002  27.473  1.00  0.00     0.074 A 
ATOM     22  C   UNL A   1      46.809  24.638  27.060  1.00  0.00     0.031 C 
ATOM     23  C   UNL A   1      40.168  26.079  28.261  1.00  0.00     0.029 A 
ATOM     24  C   UNL A   1      41.103  27.180  28.459  1.00  0.00     0.049 A 
ATOM     25  H   UNL A   1      43.172  27.155  28.222  1.00  0.00     0.167 HD
ATOM     26  C   UNL A   1      47.500  26.954  27.628  1.00  0.00     0.037 A 
ATOM     27  C   UNL A   1      40.763  28.421  28.848  1.00  0.00     0.037 A 
ATOM     28  C   UNL A   1      47.231  28.315  28.017  1.00  0.00     0.049 A 
ATOM     29  C   UNL A   1      41.838  29.451  29.023  1.00  0.00     0.074 A 
ATOM     30  C   UNL A   1      48.123  29.364  28.161  1.00  0.00     0.029 A 
ATOM     31  N   UNL A   1      45.975  28.814  28.329  1.00  0.00    -0.354 N 
ATOM     32  N   UNL A   1      43.126  29.340  28.817  1.00  0.00    -0.248 NA
ATOM     33  C   UNL A   1      41.410  30.775  29.492  1.00  0.00     0.031 C 
ATOM     34  C   UNL A   1      47.412  30.487  28.600  1.00  0.00     0.029 A 
ATOM     35  C   UNL A   1      46.071  30.150  28.685  1.00  0.00     0.049 A 
ATOM     36  H   UNL A   1      45.139  28.295  28.301  1.00  0.00     0.167 HD
ATOM     37  C   UNL A   1      43.665  30.585  29.110  1.00  0.00     0.074 A 
ATOM     38  C   UNL A   1      42.558  31.438  29.497  1.00  0.00     0.031 C 
ATOM     39  C   UNL A   1      44.959  30.985  29.064  1.00  0.00     0.037 A 
BRANCH  26  40
ATOM     40  C   UNL A   1      48.930  26.547  27.402  1.00  0.00     0.057 A 
ATOM     41  C   UNL A   1      49.518  26.566  26.132  1.00  0.00     0.134 A 
ATOM     42  C   UNL A   1      49.736  26.159  28.480  1.00  0.00     0.134 A 
ATOM     43  F   UNL A   1      48.800  26.917  25.054  1.00  0.00    -0.206 F 
ATOM     44  C   UNL A   1      50.849  26.188  25.936  1.00  0.00     0.040 A 
ATOM     45  C   UNL A   1      51.074  25.802  28.302  1.00  0.00     0.040 A 
ATOM     46  F   UNL A   1      49.240  26.126  29.726  1.00  0.00    -0.206 F 
ATOM     47  C   UNL A   1      51.632  25.809  27.025  1.00  0.00     0.006 A 
ENDBRANCH  26  40
BRANCH  27  48
ATOM     48  C   UNL A   1      39.336  28.749  29.080  1.00  0.00     0.057 A 
ATOM     49  C   UNL A   1      38.760  28.597  30.347  1.00  0.00     0.134 A 
ATOM     50  C   UNL A   1      38.527  29.257  28.057  1.00  0.00     0.134 A 
ATOM     51  F   UNL A   1      39.483  28.104  31.362  1.00  0.00    -0.206 F 
ATOM     52  C   UNL A   1      37.428  28.933  30.585  1.00  0.00     0.040 A 
ATOM     53  C   UNL A   1      37.200  29.620  28.287  1.00  0.00     0.040 A 
ATOM     54  F   UNL A   1      39.026  29.435  26.825  1.00  0.00    -0.206 F 
ATOM     55  C   UNL A   1      36.646  29.454  29.555  1.00  0.00     0.006 A 
ENDBRANCH  27  48
BRANCH  39  56
ATOM     56  C   UNL A   1      45.236  32.418  29.407  1.00  0.00     0.057 A 
ATOM     57  C   UNL A   1      45.562  32.817  30.709  1.00  0.00     0.134 A 
ATOM     58  C   UNL A   1      45.191  33.408  28.417  1.00  0.00     0.134 A 
ATOM     59  F   UNL A   1      45.606  31.919  31.705  1.00  0.00    -0.206 F 
ATOM     60  C   UNL A   1      45.808  34.156  31.020  1.00  0.00     0.040 A 
ATOM     61  C   UNL A   1      45.459  34.744  28.711  1.00  0.00     0.040 A 
ATOM     62  F   UNL A   1      44.890  33.089  27.149  1.00  0.00    -0.206 F 
ATOM     63  C   UNL A   1      45.763  35.123  30.018  1.00  0.00     0.006 A 
ENDBRANCH  39  56
ENDBRANCH  13  14
ENDBRANCH   6   8
ENDBRANCH   3   4
ENDBRANCH   2   3
ENDBRANCH   1   2
BRANCH   1  64
ATOM     64  C   UNL A   1      37.353  22.317  24.667  1.00  0.00     0.002 C 
BRANCH  64  65
ATOM     65  C   UNL A   1      37.186  23.364  25.777  1.00  0.00     0.021 C 
BRANCH  65  66
ATOM     66  C   UNL A   1      35.918  24.220  25.686  1.00  0.00     0.116 C 
BRANCH  66  67
ATOM     67  N   UNL A   1      34.734  23.533  26.169  1.00  0.00    -0.354 N 
ATOM     68  C   UNL A   1      33.759  22.861  25.487  1.00  0.00     0.249 C 
ATOM     69  H   UNL A   1      34.614  23.555  27.146  1.00  0.00     0.163 HD
ATOM     70  O   UNL A   1      32.875  22.306  26.142  1.00  0.00    -0.272 OA
BRANCH  68  71
ATOM     71  C   UNL A   1      33.798  22.812  23.947  1.00  0.00     0.207 C 
ATOM     72  C   UNL A   1      32.846  21.768  23.377  1.00  0.00     0.045 C 
ATOM     73  O   UNL A   1      33.392  24.072  23.379  1.00  0.00    -0.363 OA
ATOM     74  C   UNL A   1      31.570  22.555  23.186  1.00  0.00     0.037 C 
ATOM     75  C   UNL A   1      32.104  23.906  22.747  1.00  0.00     0.139 C 
BRANCH  75  76
ATOM     76  C   UNL A   1      31.168  25.102  23.014  1.00  0.00     0.152 C 
BRANCH  76  77
ATOM     77  N   UNL A   1      31.732  26.133  23.889  1.00  0.00    -0.329 N 
ATOM     78  C   UNL A   1      32.131  27.398  23.298  1.00  0.00     0.219 C 
ATOM     79  C   UNL A   1      31.631  26.052  25.271  1.00  0.00     0.245 C 
ATOM     80  C   UNL A   1      33.348  28.033  23.962  1.00  0.00     0.242 C 
ATOM     81  C   UNL A   1      32.361  27.171  26.048  1.00  0.00     0.174 C 
ATOM     82  O   UNL A   1      30.950  25.206  25.846  1.00  0.00    -0.272 OA
ATOM     83  O   UNL A   1      34.025  28.889  23.397  1.00  0.00    -0.273 OA
ATOM     84  N   UNL A   1      33.487  27.749  25.315  1.00  0.00    -0.329 N 
ATOM     85  C   UNL A   1      31.447  28.317  26.495  1.00  0.00     0.035 C 
ATOM     86  C   UNL A   1      34.359  28.602  26.101  1.00  0.00     0.120 C 
ATOM     87  C   UNL A   1      32.250  29.376  27.276  1.00  0.00     0.004 C 
ATOM     88  C   UNL A   1      33.540  29.812  26.560  1.00  0.00     0.022 C 
ENDBRANCH  76  77
ENDBRANCH  75  76
ENDBRANCH  68  71
ENDBRANCH  66  67
ENDBRANCH  65  66
ENDBRANCH  64  65
ENDBRANCH   1  64
TORSDOF 15
ENDMDL
