MODEL 1
REMARK VINA RESULT:     -10.8      0.000      0.000
REMARK SMILES O=C(NCCCCCCNC(=O)c1ccc(-c2ccn(C(F)F)c(=O)c2)cc1O)c1ccc(-c2c3nc(c(-c4c(F)cccc4F)c4ccc([nH]4)c(-c4c(F)cccc4F)c4nc(c(-c5c(F)cccc5F)c5ccc2[nH]5)C=C4)C=C3)cc1
REMARK SMILES IDX 6 1 5 2 4 3 3 4 1 5 2 6 30 8 31 9 83 10 32 11 82 12 33 13
REMARK SMILES IDX 34 14 35 15 76 16 36 17 81 18 75 19 77 20 37 21 80 22 74 23
REMARK SMILES IDX 73 24 38 26 64 27 47 28 63 29 48 30 51 31 62 32 78 33 49 34
REMARK SMILES IDX 50 35 61 37 79 38 52 39 39 40 40 41 45 42 41 43 42 44 44 45
REMARK SMILES IDX 46 46 43 47 65 48 66 49 71 50 67 51 68 52 70 53 72 54 69 55
REMARK SMILES IDX 53 56 54 57 59 58 55 59 56 60 58 61 60 62 57 63 7 64 8 65
REMARK SMILES IDX 9 66 10 67 11 68 12 70 13 71 14 72 28 73 15 74 27 75 16 76
REMARK SMILES IDX 29 77 17 79 18 80 26 81 19 82 24 83 20 84 25 85 21 86 22 87
REMARK SMILES IDX 23 88
REMARK H PARENT 3 7 77 25 51 36 10 69 29 78
REMARK Flexibility Score: inf
ROOT
ATOM      1  C   UNL A   1      34.505  34.458  28.083  1.00  0.00     0.002 C 
ENDROOT
BRANCH   1   2
ATOM      2  C   UNL A   1      35.577  33.720  28.890  1.00  0.00     0.021 C 
BRANCH   2   3
ATOM      3  C   UNL A   1      35.086  32.509  29.678  1.00  0.00     0.116 C 
BRANCH   3   4
ATOM      4  N   UNL A   1      34.327  31.583  28.856  1.00  0.00    -0.352 N 
ATOM      5  O   UNL A   1      33.977  29.910  27.393  1.00  0.00    -0.269 OA
ATOM      6  C   UNL A   1      34.750  30.481  28.162  1.00  0.00     0.251 C 
ATOM      7  H   UNL A   1      33.365  31.776  28.788  1.00  0.00     0.163 HD
BRANCH   6   8
ATOM      8  C   UNL A   1      36.129  29.968  28.317  1.00  0.00     0.039 A 
ATOM      9  C   UNL A   1      36.486  29.370  29.530  1.00  0.00     0.014 A 
ATOM     10  C   UNL A   1      37.088  30.138  27.313  1.00  0.00     0.014 A 
ATOM     11  C   UNL A   1      37.795  28.926  29.732  1.00  0.00     0.010 A 
ATOM     12  C   UNL A   1      38.379  29.644  27.494  1.00  0.00     0.010 A 
ATOM     13  C   UNL A   1      38.750  29.057  28.713  1.00  0.00    -0.014 A 
BRANCH  13  14
ATOM     14  C   UNL A   1      40.162  28.656  28.935  1.00  0.00     0.031 A 
ATOM     15  C   UNL A   1      41.122  29.629  29.559  1.00  0.00     0.074 A 
ATOM     16  C   UNL A   1      40.590  27.443  28.543  1.00  0.00     0.049 A 
ATOM     17  N   UNL A   1      42.407  29.503  29.777  1.00  0.00    -0.248 NA
ATOM     18  C   UNL A   1      40.567  30.926  29.974  1.00  0.00     0.031 C 
ATOM     19  C   UNL A   1      39.764  26.418  27.904  1.00  0.00     0.029 A 
ATOM     20  N   UNL A   1      41.835  26.872  28.617  1.00  0.00    -0.354 N 
ATOM     21  C   UNL A   1      42.814  30.707  30.334  1.00  0.00     0.074 A 
ATOM     22  C   UNL A   1      41.652  31.568  30.377  1.00  0.00     0.031 C 
ATOM     23  C   UNL A   1      40.524  25.339  27.654  1.00  0.00     0.029 A 
ATOM     24  C   UNL A   1      41.893  25.608  28.086  1.00  0.00     0.049 A 
ATOM     25  H   UNL A   1      42.614  27.326  29.015  1.00  0.00     0.167 HD
ATOM     26  C   UNL A   1      44.040  31.060  30.790  1.00  0.00     0.037 A 
ATOM     27  C   UNL A   1      42.935  24.766  27.953  1.00  0.00     0.037 A 
ATOM     28  C   UNL A   1      45.191  30.197  30.771  1.00  0.00     0.049 A 
ATOM     29  C   UNL A   1      44.291  25.184  28.446  1.00  0.00     0.074 A 
ATOM     30  C   UNL A   1      46.459  30.434  31.271  1.00  0.00     0.029 A 
ATOM     31  N   UNL A   1      45.212  28.927  30.214  1.00  0.00    -0.354 N 
ATOM     32  N   UNL A   1      44.651  26.306  29.021  1.00  0.00    -0.248 NA
ATOM     33  C   UNL A   1      45.385  24.219  28.269  1.00  0.00     0.031 C 
ATOM     34  C   UNL A   1      47.259  29.322  30.981  1.00  0.00     0.029 A 
ATOM     35  C   UNL A   1      46.479  28.378  30.331  1.00  0.00     0.049 A 
ATOM     36  H   UNL A   1      44.440  28.481  29.795  1.00  0.00     0.167 HD
ATOM     37  C   UNL A   1      46.010  26.181  29.281  1.00  0.00     0.074 A 
ATOM     38  C   UNL A   1      46.404  24.864  28.821  1.00  0.00     0.031 C 
ATOM     39  C   UNL A   1      46.857  27.076  29.846  1.00  0.00     0.037 A 
BRANCH  26  40
ATOM     40  C   UNL A   1      44.187  32.449  31.341  1.00  0.00     0.057 A 
ATOM     41  C   UNL A   1      43.932  32.712  32.693  1.00  0.00     0.134 A 
ATOM     42  C   UNL A   1      44.597  33.522  30.539  1.00  0.00     0.134 A 
ATOM     43  F   UNL A   1      43.532  31.731  33.515  1.00  0.00    -0.206 F 
ATOM     44  C   UNL A   1      44.094  33.991  33.230  1.00  0.00     0.040 A 
ATOM     45  C   UNL A   1      44.788  34.800  31.070  1.00  0.00     0.040 A 
ATOM     46  F   UNL A   1      44.872  33.335  29.240  1.00  0.00    -0.206 F 
ATOM     47  C   UNL A   1      44.534  35.036  32.420  1.00  0.00     0.006 A 
ENDBRANCH  26  40
BRANCH  27  48
ATOM     48  C   UNL A   1      42.730  23.436  27.329  1.00  0.00     0.057 A 
ATOM     49  C   UNL A   1      42.946  23.231  25.962  1.00  0.00     0.134 A 
ATOM     50  C   UNL A   1      42.305  22.342  28.091  1.00  0.00     0.134 A 
ATOM     51  F   UNL A   1      43.350  24.244  25.181  1.00  0.00    -0.206 F 
ATOM     52  C   UNL A   1      42.734  21.986  25.370  1.00  0.00     0.040 A 
ATOM     53  C   UNL A   1      42.109  21.086  27.514  1.00  0.00     0.040 A 
ATOM     54  F   UNL A   1      42.104  22.474  29.409  1.00  0.00    -0.206 F 
ATOM     55  C   UNL A   1      42.318  20.907  26.148  1.00  0.00     0.006 A 
ENDBRANCH  27  48
BRANCH  39  56
ATOM     56  C   UNL A   1      48.290  26.657  29.987  1.00  0.00     0.057 A 
ATOM     57  C   UNL A   1      49.232  26.973  29.001  1.00  0.00     0.134 A 
ATOM     58  C   UNL A   1      48.732  25.923  31.095  1.00  0.00     0.134 A 
ATOM     59  F   UNL A   1      48.871  27.670  27.912  1.00  0.00    -0.206 F 
ATOM     60  C   UNL A   1      50.565  26.574  29.111  1.00  0.00     0.040 A 
ATOM     61  C   UNL A   1      50.068  25.537  31.228  1.00  0.00     0.040 A 
ATOM     62  F   UNL A   1      47.882  25.603  32.082  1.00  0.00    -0.206 F 
ATOM     63  C   UNL A   1      50.987  25.859  30.231  1.00  0.00     0.006 A 
ENDBRANCH  39  56
ENDBRANCH  13  14
ENDBRANCH   6   8
ENDBRANCH   3   4
ENDBRANCH   2   3
ENDBRANCH   1   2
BRANCH   1  64
ATOM     64  C   UNL A   1      34.412  35.967  28.325  1.00  0.00     0.002 C 
BRANCH  64  65
ATOM     65  C   UNL A   1      33.184  36.440  29.109  1.00  0.00     0.021 C 
BRANCH  65  66
ATOM     66  C   UNL A   1      32.857  35.629  30.361  1.00  0.00     0.116 C 
BRANCH  66  67
ATOM     67  N   UNL A   1      32.874  36.439  31.564  1.00  0.00    -0.352 N 
ATOM     68  C   UNL A   1      33.629  36.262  32.696  1.00  0.00     0.255 C 
ATOM     69  H   UNL A   1      32.266  37.214  31.569  1.00  0.00     0.163 HD
ATOM     70  O   UNL A   1      33.483  37.005  33.665  1.00  0.00    -0.269 OA
BRANCH  68  71
ATOM     71  C   UNL A   1      34.566  35.125  32.787  1.00  0.00     0.081 A 
ATOM     72  C   UNL A   1      35.916  35.379  32.523  1.00  0.00     0.018 A 
ATOM     73  C   UNL A   1      34.148  33.830  33.105  1.00  0.00     0.128 A 
ATOM     74  C   UNL A   1      36.856  34.351  32.631  1.00  0.00     0.010 A 
ATOM     75  C   UNL A   1      35.086  32.804  33.219  1.00  0.00     0.055 A 
ATOM     76  C   UNL A   1      36.448  33.061  32.996  1.00  0.00    -0.014 A 
BRANCH  73  77
ATOM     77  O   UNL A   1      32.825  33.558  33.317  1.00  0.00    -0.507 OA
ATOM     78  H   UNL A   1      32.531  33.299  34.168  1.00  0.00     0.293 HD
ENDBRANCH  73  77
BRANCH  76  79
ATOM     79  C   UNL A   1      37.420  31.963  33.155  1.00  0.00    -0.011 A 
ATOM     80  C   UNL A   1      38.845  32.195  33.289  1.00  0.00     0.027 A 
ATOM     81  C   UNL A   1      36.967  30.697  33.106  1.00  0.00     0.080 A 
ATOM     82  C   UNL A   1      39.702  31.168  33.322  1.00  0.00     0.095 A 
ATOM     83  C   UNL A   1      37.908  29.543  33.163  1.00  0.00     0.255 A 
ATOM     84  N   UNL A   1      39.252  29.863  33.251  1.00  0.00    -0.258 N 
ATOM     85  O   UNL A   1      37.444  28.408  33.113  1.00  0.00    -0.269 OA
BRANCH  84  86
ATOM     86  C   UNL A   1      40.186  28.766  33.251  1.00  0.00     0.451 C 
ATOM     87  F   UNL A   1      40.018  27.978  32.162  1.00  0.00    -0.185 F 
ATOM     88  F   UNL A   1      41.464  29.219  33.251  1.00  0.00    -0.185 F 
ENDBRANCH  84  86
ENDBRANCH  76  79
ENDBRANCH  68  71
ENDBRANCH  66  67
ENDBRANCH  65  66
ENDBRANCH  64  65
ENDBRANCH   1  64
TORSDOF 16
ENDMDL
MODEL 2
REMARK VINA RESULT:     -10.4      5.381     10.285
REMARK SMILES O=C(NCCCCCCNC(=O)c1ccc(-c2ccn(C(F)F)c(=O)c2)cc1O)c1ccc(-c2c3nc(c(-c4c(F)cccc4F)c4ccc([nH]4)c(-c4c(F)cccc4F)c4nc(c(-c5c(F)cccc5F)c5ccc2[nH]5)C=C4)C=C3)cc1
REMARK SMILES IDX 6 1 5 2 4 3 3 4 1 5 2 6 30 8 31 9 83 10 32 11 82 12 33 13
REMARK SMILES IDX 34 14 35 15 76 16 36 17 81 18 75 19 77 20 37 21 80 22 74 23
REMARK SMILES IDX 73 24 38 26 64 27 47 28 63 29 48 30 51 31 62 32 78 33 49 34
REMARK SMILES IDX 50 35 61 37 79 38 52 39 39 40 40 41 45 42 41 43 42 44 44 45
REMARK SMILES IDX 46 46 43 47 65 48 66 49 71 50 67 51 68 52 70 53 72 54 69 55
REMARK SMILES IDX 53 56 54 57 59 58 55 59 56 60 58 61 60 62 57 63 7 64 8 65
REMARK SMILES IDX 9 66 10 67 11 68 12 70 13 71 14 72 28 73 15 74 27 75 16 76
REMARK SMILES IDX 29 77 17 79 18 80 26 81 19 82 24 83 20 84 25 85 21 86 22 87
REMARK SMILES IDX 23 88
REMARK H PARENT 3 7 77 25 51 36 10 69 29 78
REMARK Flexibility Score: inf
ROOT
ATOM      1  C   UNL A   1      37.112  21.251  24.642  1.00  0.00     0.002 C 
ENDROOT
BRANCH   1   2
ATOM      2  C   UNL A   1      37.959  20.017  24.968  1.00  0.00     0.021 C 
BRANCH   2   3
ATOM      3  C   UNL A   1      39.009  20.212  26.057  1.00  0.00     0.116 C 
BRANCH   3   4
ATOM      4  N   UNL A   1      40.059  19.211  26.003  1.00  0.00    -0.352 N 
ATOM      5  O   UNL A   1      42.152  18.401  25.852  1.00  0.00    -0.269 OA
ATOM      6  C   UNL A   1      41.418  19.363  26.075  1.00  0.00     0.251 C 
ATOM      7  H   UNL A   1      39.747  18.283  25.898  1.00  0.00     0.163 HD
BRANCH   6   8
ATOM      8  C   UNL A   1      42.018  20.672  26.411  1.00  0.00     0.039 A 
ATOM      9  C   UNL A   1      42.192  21.000  27.760  1.00  0.00     0.014 A 
ATOM     10  C   UNL A   1      42.340  21.605  25.419  1.00  0.00     0.014 A 
ATOM     11  C   UNL A   1      42.704  22.251  28.115  1.00  0.00     0.010 A 
ATOM     12  C   UNL A   1      42.903  22.830  25.772  1.00  0.00     0.010 A 
ATOM     13  C   UNL A   1      43.066  23.173  27.123  1.00  0.00    -0.014 A 
BRANCH  13  14
ATOM     14  C   UNL A   1      43.544  24.531  27.483  1.00  0.00     0.031 A 
ATOM     15  C   UNL A   1      42.556  25.578  27.913  1.00  0.00     0.074 A 
ATOM     16  C   UNL A   1      44.850  24.837  27.386  1.00  0.00     0.049 A 
ATOM     17  N   UNL A   1      42.756  26.840  28.203  1.00  0.00    -0.248 NA
ATOM     18  C   UNL A   1      41.150  25.155  28.009  1.00  0.00     0.031 C 
ATOM     19  C   UNL A   1      45.906  23.918  26.958  1.00  0.00     0.029 A 
ATOM     20  N   UNL A   1      45.509  26.014  27.633  1.00  0.00    -0.354 N 
ATOM     21  C   UNL A   1      41.503  27.362  28.495  1.00  0.00     0.074 A 
ATOM     22  C   UNL A   1      40.544  26.295  28.302  1.00  0.00     0.031 C 
ATOM     23  C   UNL A   1      47.083  24.564  26.983  1.00  0.00     0.029 A 
ATOM     24  C   UNL A   1      46.860  25.947  27.397  1.00  0.00     0.049 A 
ATOM     25  H   UNL A   1      45.057  26.829  27.950  1.00  0.00     0.167 HD
ATOM     26  C   UNL A   1      41.179  28.610  28.909  1.00  0.00     0.037 A 
ATOM     27  C   UNL A   1      47.809  26.897  27.495  1.00  0.00     0.037 A 
ATOM     28  C   UNL A   1      42.134  29.665  29.126  1.00  0.00     0.049 A 
ATOM     29  C   UNL A   1      47.426  28.282  27.935  1.00  0.00     0.074 A 
ATOM     30  C   UNL A   1      41.916  30.943  29.610  1.00  0.00     0.029 A 
ATOM     31  N   UNL A   1      43.492  29.561  28.865  1.00  0.00    -0.354 N 
ATOM     32  N   UNL A   1      46.245  28.749  28.261  1.00  0.00    -0.248 NA
ATOM     33  C   UNL A   1      48.509  29.272  28.019  1.00  0.00     0.031 C 
ATOM     34  C   UNL A   1      43.139  31.627  29.604  1.00  0.00     0.029 A 
ATOM     35  C   UNL A   1      44.122  30.762  29.149  1.00  0.00     0.049 A 
ATOM     36  H   UNL A   1      43.942  28.754  28.526  1.00  0.00     0.167 HD
ATOM     37  C   UNL A   1      46.442  30.082  28.594  1.00  0.00     0.074 A 
ATOM     38  C   UNL A   1      47.861  30.343  28.453  1.00  0.00     0.031 C 
ATOM     39  C   UNL A   1      45.531  31.009  28.980  1.00  0.00     0.037 A 
BRANCH  26  40
ATOM     40  C   UNL A   1      39.723  28.893  29.144  1.00  0.00     0.057 A 
ATOM     41  C   UNL A   1      38.885  29.251  28.080  1.00  0.00     0.134 A 
ATOM     42  C   UNL A   1      39.147  28.793  30.416  1.00  0.00     0.134 A 
ATOM     43  F   UNL A   1      39.373  29.368  26.836  1.00  0.00    -0.206 F 
ATOM     44  C   UNL A   1      37.522  29.485  28.273  1.00  0.00     0.040 A 
ATOM     45  C   UNL A   1      37.780  28.998  30.618  1.00  0.00     0.040 A 
ATOM     46  F   UNL A   1      39.891  28.438  31.475  1.00  0.00    -0.206 F 
ATOM     47  C   UNL A   1      36.964  29.348  29.543  1.00  0.00     0.006 A 
ENDBRANCH  26  40
BRANCH  27  48
ATOM     48  C   UNL A   1      49.218  26.565  27.173  1.00  0.00     0.057 A 
ATOM     49  C   UNL A   1      49.709  26.658  25.866  1.00  0.00     0.134 A 
ATOM     50  C   UNL A   1      50.102  26.138  28.170  1.00  0.00     0.134 A 
ATOM     51  F   UNL A   1      48.907  27.057  24.868  1.00  0.00    -0.206 F 
ATOM     52  C   UNL A   1      51.029  26.325  25.558  1.00  0.00     0.040 A 
ATOM     53  C   UNL A   1      51.430  25.821  27.879  1.00  0.00     0.040 A 
ATOM     54  F   UNL A   1      49.692  26.051  29.444  1.00  0.00    -0.206 F 
ATOM     55  C   UNL A   1      51.895  25.909  26.568  1.00  0.00     0.006 A 
ENDBRANCH  27  48
BRANCH  39  56
ATOM     56  C   UNL A   1      46.047  32.388  29.266  1.00  0.00     0.057 A 
ATOM     57  C   UNL A   1      46.100  33.359  28.258  1.00  0.00     0.134 A 
ATOM     58  C   UNL A   1      46.508  32.748  30.539  1.00  0.00     0.134 A 
ATOM     59  F   UNL A   1      45.677  33.076  27.016  1.00  0.00    -0.206 F 
ATOM     60  C   UNL A   1      46.594  34.641  28.506  1.00  0.00     0.040 A 
ATOM     61  C   UNL A   1      46.984  34.034  30.804  1.00  0.00     0.040 A 
ATOM     62  F   UNL A   1      46.468  31.868  31.550  1.00  0.00    -0.206 F 
ATOM     63  C   UNL A   1      47.032  34.982  29.784  1.00  0.00     0.006 A 
ENDBRANCH  39  56
ENDBRANCH  13  14
ENDBRANCH   6   8
ENDBRANCH   3   4
ENDBRANCH   2   3
ENDBRANCH   1   2
BRANCH   1  64
ATOM     64  C   UNL A   1      35.918  21.501  25.569  1.00  0.00     0.002 C 
BRANCH  64  65
ATOM     65  C   UNL A   1      35.603  22.969  25.865  1.00  0.00     0.021 C 
BRANCH  65  66
ATOM     66  C   UNL A   1      34.171  23.251  26.313  1.00  0.00     0.116 C 
BRANCH  66  67
ATOM     67  N   UNL A   1      33.287  22.124  26.082  1.00  0.00    -0.352 N 
ATOM     68  C   UNL A   1      32.045  22.124  25.499  1.00  0.00     0.255 C 
ATOM     69  H   UNL A   1      33.621  21.248  26.383  1.00  0.00     0.163 HD
ATOM     70  O   UNL A   1      31.388  21.087  25.431  1.00  0.00    -0.269 OA
BRANCH  68  71
ATOM     71  C   UNL A   1      31.455  23.390  25.022  1.00  0.00     0.081 A 
ATOM     72  C   UNL A   1      31.492  23.641  23.645  1.00  0.00     0.018 A 
ATOM     73  C   UNL A   1      30.890  24.331  25.887  1.00  0.00     0.128 A 
ATOM     74  C   UNL A   1      30.915  24.804  23.130  1.00  0.00     0.010 A 
ATOM     75  C   UNL A   1      30.308  25.490  25.374  1.00  0.00     0.055 A 
ATOM     76  C   UNL A   1      30.306  25.728  23.990  1.00  0.00    -0.014 A 
BRANCH  73  77
ATOM     77  O   UNL A   1      30.890  24.121  27.239  1.00  0.00    -0.507 OA
ATOM     78  H   UNL A   1      31.164  23.295  27.585  1.00  0.00     0.293 HD
ENDBRANCH  73  77
BRANCH  76  79
ATOM     79  C   UNL A   1      29.655  26.947  23.474  1.00  0.00    -0.011 A 
ATOM     80  C   UNL A   1      30.393  28.007  22.814  1.00  0.00     0.027 A 
ATOM     81  C   UNL A   1      28.336  27.106  23.686  1.00  0.00     0.080 A 
ATOM     82  C   UNL A   1      29.783  29.142  22.458  1.00  0.00     0.095 A 
ATOM     83  C   UNL A   1      27.639  28.357  23.277  1.00  0.00     0.255 A 
ATOM     84  N   UNL A   1      28.434  29.328  22.691  1.00  0.00    -0.258 N 
ATOM     85  O   UNL A   1      26.434  28.453  23.496  1.00  0.00    -0.269 OA
BRANCH  84  86
ATOM     86  C   UNL A   1      27.793  30.569  22.336  1.00  0.00     0.451 C 
ATOM     87  F   UNL A   1      27.688  31.391  23.408  1.00  0.00    -0.185 F 
ATOM     88  F   UNL A   1      28.495  31.217  21.374  1.00  0.00    -0.185 F 
ENDBRANCH  84  86
ENDBRANCH  76  79
ENDBRANCH  68  71
ENDBRANCH  66  67
ENDBRANCH  65  66
ENDBRANCH  64  65
ENDBRANCH   1  64
TORSDOF 16
ENDMDL
MODEL 3
REMARK VINA RESULT:     -10.4      5.181     10.494
REMARK SMILES O=C(NCCCCCCNC(=O)c1ccc(-c2ccn(C(F)F)c(=O)c2)cc1O)c1ccc(-c2c3nc(c(-c4c(F)cccc4F)c4ccc([nH]4)c(-c4c(F)cccc4F)c4nc(c(-c5c(F)cccc5F)c5ccc2[nH]5)C=C4)C=C3)cc1
REMARK SMILES IDX 6 1 5 2 4 3 3 4 1 5 2 6 30 8 31 9 83 10 32 11 82 12 33 13
REMARK SMILES IDX 34 14 35 15 76 16 36 17 81 18 75 19 77 20 37 21 80 22 74 23
REMARK SMILES IDX 73 24 38 26 64 27 47 28 63 29 48 30 51 31 62 32 78 33 49 34
REMARK SMILES IDX 50 35 61 37 79 38 52 39 39 40 40 41 45 42 41 43 42 44 44 45
REMARK SMILES IDX 46 46 43 47 65 48 66 49 71 50 67 51 68 52 70 53 72 54 69 55
REMARK SMILES IDX 53 56 54 57 59 58 55 59 56 60 58 61 60 62 57 63 7 64 8 65
REMARK SMILES IDX 9 66 10 67 11 68 12 70 13 71 14 72 28 73 15 74 27 75 16 76
REMARK SMILES IDX 29 77 17 79 18 80 26 81 19 82 24 83 20 84 25 85 21 86 22 87
REMARK SMILES IDX 23 88
REMARK H PARENT 3 7 77 25 51 36 10 69 29 78
REMARK Flexibility Score: inf
ROOT
ATOM      1  C   UNL A   1      36.437  20.246  24.971  1.00  0.00     0.002 C 
ENDROOT
BRANCH   1   2
ATOM      2  C   UNL A   1      37.816  19.609  24.774  1.00  0.00     0.021 C 
BRANCH   2   3
ATOM      3  C   UNL A   1      38.922  20.147  25.677  1.00  0.00     0.116 C 
BRANCH   3   4
ATOM      4  N   UNL A   1      40.059  19.249  25.759  1.00  0.00    -0.352 N 
ATOM      5  O   UNL A   1      42.217  18.640  25.938  1.00  0.00    -0.269 OA
ATOM      6  C   UNL A   1      41.364  19.516  26.076  1.00  0.00     0.251 C 
ATOM      7  H   UNL A   1      39.862  18.306  25.556  1.00  0.00     0.163 HD
BRANCH   6   8
ATOM      8  C   UNL A   1      41.766  20.849  26.575  1.00  0.00     0.039 A 
ATOM      9  C   UNL A   1      41.641  21.114  27.943  1.00  0.00     0.014 A 
ATOM     10  C   UNL A   1      42.192  21.858  25.705  1.00  0.00     0.014 A 
ATOM     11  C   UNL A   1      41.958  22.381  28.442  1.00  0.00     0.010 A 
ATOM     12  C   UNL A   1      42.561  23.103  26.210  1.00  0.00     0.010 A 
ATOM     13  C   UNL A   1      42.424  23.383  27.578  1.00  0.00    -0.014 A 
BRANCH  13  14
ATOM     14  C   UNL A   1      42.698  24.753  28.078  1.00  0.00     0.031 A 
ATOM     15  C   UNL A   1      44.097  25.137  28.471  1.00  0.00     0.074 A 
ATOM     16  C   UNL A   1      41.693  25.636  28.217  1.00  0.00     0.049 A 
ATOM     17  N   UNL A   1      44.536  26.254  28.993  1.00  0.00    -0.248 NA
ATOM     18  C   UNL A   1      45.138  24.118  28.270  1.00  0.00     0.031 C 
ATOM     19  C   UNL A   1      40.289  25.380  27.895  1.00  0.00     0.029 A 
ATOM     20  N   UNL A   1      41.701  26.928  28.678  1.00  0.00    -0.354 N 
ATOM     21  C   UNL A   1      45.896  26.065  29.199  1.00  0.00     0.074 A 
ATOM     22  C   UNL A   1      46.201  24.710  28.791  1.00  0.00     0.031 C 
ATOM     23  C   UNL A   1      39.572  26.484  28.158  1.00  0.00     0.029 A 
ATOM     24  C   UNL A   1      40.459  27.512  28.696  1.00  0.00     0.049 A 
ATOM     25  H   UNL A   1      42.519  27.392  28.969  1.00  0.00     0.167 HD
ATOM     26  C   UNL A   1      46.814  26.945  29.665  1.00  0.00     0.037 A 
ATOM     27  C   UNL A   1      40.078  28.736  29.109  1.00  0.00     0.037 A 
ATOM     28  C   UNL A   1      46.517  28.300  30.048  1.00  0.00     0.049 A 
ATOM     29  C   UNL A   1      41.110  29.690  29.643  1.00  0.00     0.074 A 
ATOM     30  C   UNL A   1      47.387  29.291  30.466  1.00  0.00     0.029 A 
ATOM     31  N   UNL A   1      45.245  28.851  30.062  1.00  0.00    -0.354 N 
ATOM     32  N   UNL A   1      42.402  29.517  29.782  1.00  0.00    -0.248 NA
ATOM     33  C   UNL A   1      40.627  31.008  30.079  1.00  0.00     0.031 C 
ATOM     34  C   UNL A   1      46.635  30.432  30.772  1.00  0.00     0.029 A 
ATOM     35  C   UNL A   1      45.301  30.161  30.511  1.00  0.00     0.049 A 
ATOM     36  H   UNL A   1      44.422  28.381  29.794  1.00  0.00     0.167 HD
ATOM     37  C   UNL A   1      42.889  30.704  30.315  1.00  0.00     0.074 A 
ATOM     38  C   UNL A   1      41.755  31.597  30.451  1.00  0.00     0.031 C 
ATOM     39  C   UNL A   1      44.159  31.026  30.662  1.00  0.00     0.037 A 
BRANCH  26  40
ATOM     40  C   UNL A   1      48.226  26.451  29.790  1.00  0.00     0.057 A 
ATOM     41  C   UNL A   1      49.131  26.599  28.730  1.00  0.00     0.134 A 
ATOM     42  C   UNL A   1      48.697  25.845  30.962  1.00  0.00     0.134 A 
ATOM     43  F   UNL A   1      48.745  27.166  27.578  1.00  0.00    -0.206 F 
ATOM     44  C   UNL A   1      50.457  26.175  28.840  1.00  0.00     0.040 A 
ATOM     45  C   UNL A   1      50.028  25.442  31.093  1.00  0.00     0.040 A 
ATOM     46  F   UNL A   1      47.886  25.688  32.020  1.00  0.00    -0.206 F 
ATOM     47  C   UNL A   1      50.911  25.605  30.028  1.00  0.00     0.006 A 
ENDBRANCH  26  40
BRANCH  27  48
ATOM     48  C   UNL A   1      38.651  29.128  29.027  1.00  0.00     0.057 A 
ATOM     49  C   UNL A   1      38.093  29.604  27.835  1.00  0.00     0.134 A 
ATOM     50  C   UNL A   1      37.815  29.041  30.146  1.00  0.00     0.134 A 
ATOM     51  F   UNL A   1      38.845  29.713  26.731  1.00  0.00    -0.206 F 
ATOM     52  C   UNL A   1      36.754  29.993  27.762  1.00  0.00     0.040 A 
ATOM     53  C   UNL A   1      36.470  29.408  30.081  1.00  0.00     0.040 A 
ATOM     54  F   UNL A   1      38.290  28.571  31.308  1.00  0.00    -0.206 F 
ATOM     55  C   UNL A   1      35.938  29.891  28.887  1.00  0.00     0.006 A 
ENDBRANCH  27  48
BRANCH  39  56
ATOM     56  C   UNL A   1      44.380  32.396  31.229  1.00  0.00     0.057 A 
ATOM     57  C   UNL A   1      44.646  33.487  30.391  1.00  0.00     0.134 A 
ATOM     58  C   UNL A   1      44.345  32.632  32.609  1.00  0.00     0.134 A 
ATOM     59  F   UNL A   1      44.697  33.327  29.059  1.00  0.00    -0.206 F 
ATOM     60  C   UNL A   1      44.870  34.764  30.907  1.00  0.00     0.040 A 
ATOM     61  C   UNL A   1      44.545  33.910  33.135  1.00  0.00     0.040 A 
ATOM     62  F   UNL A   1      44.079  31.632  33.462  1.00  0.00    -0.206 F 
ATOM     63  C   UNL A   1      44.814  34.979  32.283  1.00  0.00     0.006 A 
ENDBRANCH  39  56
ENDBRANCH  13  14
ENDBRANCH   6   8
ENDBRANCH   3   4
ENDBRANCH   2   3
ENDBRANCH   1   2
BRANCH   1  64
ATOM     64  C   UNL A   1      36.436  21.654  25.573  1.00  0.00     0.002 C 
BRANCH  64  65
ATOM     65  C   UNL A   1      35.697  22.722  24.763  1.00  0.00     0.021 C 
BRANCH  65  66
ATOM     66  C   UNL A   1      34.397  23.228  25.384  1.00  0.00     0.116 C 
BRANCH  66  67
ATOM     67  N   UNL A   1      33.402  22.181  25.514  1.00  0.00    -0.352 N 
ATOM     68  C   UNL A   1      32.050  22.261  25.292  1.00  0.00     0.255 C 
ATOM     69  H   UNL A   1      33.739  21.300  25.798  1.00  0.00     0.163 HD
ATOM     70  O   UNL A   1      31.324  21.292  25.507  1.00  0.00    -0.269 OA
BRANCH  68  71
ATOM     71  C   UNL A   1      31.448  23.540  24.868  1.00  0.00     0.081 A 
ATOM     72  C   UNL A   1      31.508  23.863  23.508  1.00  0.00     0.018 A 
ATOM     73  C   UNL A   1      30.849  24.425  25.770  1.00  0.00     0.128 A 
ATOM     74  C   UNL A   1      30.922  25.042  23.042  1.00  0.00     0.010 A 
ATOM     75  C   UNL A   1      30.257  25.599  25.306  1.00  0.00     0.055 A 
ATOM     76  C   UNL A   1      30.278  25.909  23.936  1.00  0.00    -0.014 A 
BRANCH  73  77
ATOM     77  O   UNL A   1      30.826  24.144  27.108  1.00  0.00    -0.507 OA
ATOM     78  H   UNL A   1      31.623  23.954  27.561  1.00  0.00     0.293 HD
ENDBRANCH  73  77
BRANCH  76  79
ATOM     79  C   UNL A   1      29.617  27.143  23.471  1.00  0.00    -0.011 A 
ATOM     80  C   UNL A   1      30.353  28.263  22.916  1.00  0.00     0.027 A 
ATOM     81  C   UNL A   1      28.286  27.254  23.631  1.00  0.00     0.080 A 
ATOM     82  C   UNL A   1      29.727  29.404  22.607  1.00  0.00     0.095 A 
ATOM     83  C   UNL A   1      27.572  28.511  23.272  1.00  0.00     0.255 A 
ATOM     84  N   UNL A   1      28.364  29.538  22.788  1.00  0.00    -0.258 N 
ATOM     85  O   UNL A   1      26.357  28.561  23.440  1.00  0.00    -0.269 OA
BRANCH  84  86
ATOM     86  C   UNL A   1      27.705  30.784  22.486  1.00  0.00     0.451 C 
ATOM     87  F   UNL A   1      27.322  31.424  23.616  1.00  0.00    -0.185 F 
ATOM     88  F   UNL A   1      28.526  31.608  21.790  1.00  0.00    -0.185 F 
ENDBRANCH  84  86
ENDBRANCH  76  79
ENDBRANCH  68  71
ENDBRANCH  66  67
ENDBRANCH  65  66
ENDBRANCH  64  65
ENDBRANCH   1  64
TORSDOF 16
ENDMDL
