MODEL 1
REMARK VINA RESULT:      -8.2      0.000      0.000
REMARK SMILES Cn1ccnc1NCCOCC(=O)NCCCCCCNC(=O)c1ccc(-c2c3nc(c(-c4c(F)cccc4F)c4ccc([nH]4)c(-c4c(F)cccc4F)c4nc(c(-c5c(F)cccc5F)c5ccc2[nH]5)C=C4)C=C3)cc1
REMARK SMILES IDX 16 1 15 2 14 3 12 4 13 5 11 7 10 8 9 9 8 10 7 11 6 13 1 14
REMARK SMILES IDX 2 15 3 16 4 17 5 18 17 19 18 20 19 21 20 22 21 23 22 24
REMARK SMILES IDX 23 26 24 27 25 28 77 29 26 30 76 31 27 32 28 33 29 34 70 35
REMARK SMILES IDX 30 36 75 37 69 38 71 39 31 40 74 41 68 42 67 43 32 45 58 46
REMARK SMILES IDX 41 47 57 48 42 49 45 50 56 51 72 52 43 53 44 54 55 56 73 57
REMARK SMILES IDX 46 58 33 59 34 60 39 61 35 62 36 63 38 64 40 65 37 66 59 67
REMARK SMILES IDX 60 68 65 69 61 70 62 71 64 72 66 73 63 74 47 75 48 76 53 77
REMARK SMILES IDX 49 78 50 79 52 80 54 81 51 82
REMARK H PARENT 14 6 7 12 21 25 71 44 45 55
REMARK Flexibility Score: inf
ROOT
ATOM      1  C   UNL A   1      34.372  34.161  33.467  1.00  0.00     0.021 C 
ENDROOT
BRANCH   1   2
ATOM      2  C   UNL A   1      35.578  33.379  33.976  1.00  0.00     0.116 C 
BRANCH   2   3
ATOM      3  N   UNL A   1      36.726  34.231  34.213  1.00  0.00    -0.354 N 
ATOM      4  C   UNL A   1      37.551  34.235  35.301  1.00  0.00     0.245 C 
ATOM      5  O   UNL A   1      38.557  34.945  35.292  1.00  0.00    -0.272 OA
ATOM      6  H   UNL A   1      36.935  34.884  33.506  1.00  0.00     0.163 HD
BRANCH   4   7
ATOM      7  C   UNL A   1      37.213  33.316  36.482  1.00  0.00     0.260 C 
BRANCH   7   8
ATOM      8  O   UNL A   1      38.190  32.373  36.894  1.00  0.00    -0.370 OA
BRANCH   8   9
ATOM      9  C   UNL A   1      38.238  31.168  36.115  1.00  0.00     0.182 C 
BRANCH   9  10
ATOM     10  C   UNL A   1      39.622  30.874  35.513  1.00  0.00     0.144 C 
BRANCH  10  11
ATOM     11  N   UNL A   1      39.586  30.864  34.062  1.00  0.00    -0.353 N 
ATOM     12  H   UNL A   1      39.715  31.706  33.567  1.00  0.00     0.163 HD
BRANCH  11  13
ATOM     13  C   UNL A   1      39.378  29.724  33.379  1.00  0.00     0.202 A 
ATOM     14  C   UNL A   1      36.949  30.193  32.829  1.00  0.00     0.153 C 
ATOM     15  N   UNL A   1      38.140  29.383  32.884  1.00  0.00    -0.321 N 
ATOM     16  C   UNL A   1      38.233  28.122  32.355  1.00  0.00     0.109 A 
ATOM     17  C   UNL A   1      39.553  27.776  32.500  1.00  0.00     0.133 A 
ATOM     18  N   UNL A   1      40.257  28.786  33.103  1.00  0.00    -0.222 NA
ENDBRANCH  11  13
ENDBRANCH  10  11
ENDBRANCH   9  10
ENDBRANCH   8   9
ENDBRANCH   7   8
ENDBRANCH   4   7
ENDBRANCH   2   3
ENDBRANCH   1   2
BRANCH   1  19
ATOM     19  C   UNL A   1      34.456  35.679  33.667  1.00  0.00     0.002 C 
BRANCH  19  20
ATOM     20  C   UNL A   1      34.168  36.526  32.424  1.00  0.00     0.002 C 
BRANCH  20  21
ATOM     21  C   UNL A   1      33.122  35.953  31.466  1.00  0.00     0.021 C 
BRANCH  21  22
ATOM     22  C   UNL A   1      33.260  36.410  30.019  1.00  0.00     0.116 C 
BRANCH  22  23
ATOM     23  N   UNL A   1      32.633  35.490  29.085  1.00  0.00    -0.352 N 
ATOM     24  C   UNL A   1      33.148  34.365  28.492  1.00  0.00     0.251 C 
ATOM     25  H   UNL A   1      31.701  35.704  28.845  1.00  0.00     0.163 HD
ATOM     26  O   UNL A   1      32.532  33.805  27.590  1.00  0.00    -0.269 OA
BRANCH  24  27
ATOM     27  C   UNL A   1      34.459  33.837  28.924  1.00  0.00     0.039 A 
ATOM     28  C   UNL A   1      34.507  32.946  29.999  1.00  0.00     0.014 A 
ATOM     29  C   UNL A   1      35.638  34.221  28.279  1.00  0.00     0.014 A 
ATOM     30  C   UNL A   1      35.730  32.397  30.391  1.00  0.00     0.010 A 
ATOM     31  C   UNL A   1      36.845  33.618  28.621  1.00  0.00     0.010 A 
ATOM     32  C   UNL A   1      36.904  32.703  29.684  1.00  0.00    -0.014 A 
BRANCH  32  33
ATOM     33  C   UNL A   1      38.203  32.081  30.045  1.00  0.00     0.031 A 
ATOM     34  C   UNL A   1      39.174  32.816  30.927  1.00  0.00     0.074 A 
ATOM     35  C   UNL A   1      38.535  30.882  29.528  1.00  0.00     0.049 A 
ATOM     36  N   UNL A   1      40.382  32.469  31.297  1.00  0.00    -0.248 NA
ATOM     37  C   UNL A   1      38.742  34.124  31.442  1.00  0.00     0.031 C 
ATOM     38  C   UNL A   1      37.700  30.088  28.625  1.00  0.00     0.029 A 
ATOM     39  N   UNL A   1      39.671  30.126  29.681  1.00  0.00    -0.354 N 
ATOM     40  C   UNL A   1      40.855  33.519  32.073  1.00  0.00     0.074 A 
ATOM     41  C   UNL A   1      39.828  34.539  32.076  1.00  0.00     0.031 C 
ATOM     42  C   UNL A   1      38.341  28.948  28.322  1.00  0.00     0.029 A 
ATOM     43  C   UNL A   1      39.646  28.947  28.975  1.00  0.00     0.049 A 
ATOM     44  H   UNL A   1      40.431  30.401  30.242  1.00  0.00     0.167 HD
ATOM     45  C   UNL A   1      42.028  33.617  32.741  1.00  0.00     0.037 A 
ATOM     46  C   UNL A   1      40.575  27.978  28.860  1.00  0.00     0.037 A 
ATOM     47  C   UNL A   1      43.040  32.593  32.754  1.00  0.00     0.049 A 
ATOM     48  C   UNL A   1      41.876  28.117  29.600  1.00  0.00     0.074 A 
ATOM     49  C   UNL A   1      44.238  32.573  33.448  1.00  0.00     0.029 A 
ATOM     50  N   UNL A   1      42.974  31.409  32.035  1.00  0.00    -0.354 N 
ATOM     51  N   UNL A   1      42.283  29.087  30.385  1.00  0.00    -0.248 NA
ATOM     52  C   UNL A   1      42.848  27.026  29.442  1.00  0.00     0.031 C 
ATOM     53  C   UNL A   1      44.918  31.397  33.111  1.00  0.00     0.029 A 
ATOM     54  C   UNL A   1      44.121  30.662  32.248  1.00  0.00     0.049 A 
ATOM     55  H   UNL A   1      42.223  31.139  31.458  1.00  0.00     0.167 HD
ATOM     56  C   UNL A   1      43.542  28.709  30.835  1.00  0.00     0.074 A 
ATOM     57  C   UNL A   1      43.826  27.416  30.247  1.00  0.00     0.031 C 
ATOM     58  C   UNL A   1      44.387  29.373  31.660  1.00  0.00     0.037 A 
BRANCH  45  59
ATOM     59  C   UNL A   1      42.281  34.878  33.518  1.00  0.00     0.057 A 
ATOM     60  C   UNL A   1      41.994  34.973  34.886  1.00  0.00     0.134 A 
ATOM     61  C   UNL A   1      42.846  35.999  32.898  1.00  0.00     0.134 A 
ATOM     62  F   UNL A   1      41.440  33.938  35.539  1.00  0.00    -0.206 F 
ATOM     63  C   UNL A   1      42.233  36.146  35.604  1.00  0.00     0.040 A 
ATOM     64  C   UNL A   1      43.117  37.168  33.612  1.00  0.00     0.040 A 
ATOM     65  F   UNL A   1      43.153  35.975  31.593  1.00  0.00    -0.206 F 
ATOM     66  C   UNL A   1      42.803  37.246  34.967  1.00  0.00     0.006 A 
ENDBRANCH  45  59
BRANCH  46  67
ATOM     67  C   UNL A   1      40.303  26.781  28.025  1.00  0.00     0.057 A 
ATOM     68  C   UNL A   1      40.835  26.665  26.736  1.00  0.00     0.134 A 
ATOM     69  C   UNL A   1      39.499  25.733  28.487  1.00  0.00     0.134 A 
ATOM     70  F   UNL A   1      41.597  27.645  26.230  1.00  0.00    -0.206 F 
ATOM     71  C   UNL A   1      40.561  25.560  25.928  1.00  0.00     0.040 A 
ATOM     72  C   UNL A   1      39.237  24.610  27.702  1.00  0.00     0.040 A 
ATOM     73  F   UNL A   1      38.966  25.780  29.718  1.00  0.00    -0.206 F 
ATOM     74  C   UNL A   1      39.763  24.526  26.413  1.00  0.00     0.006 A 
ENDBRANCH  46  67
BRANCH  58  75
ATOM     75  C   UNL A   1      45.684  28.699  32.003  1.00  0.00     0.057 A 
ATOM     76  C   UNL A   1      45.796  27.824  33.091  1.00  0.00     0.134 A 
ATOM     77  C   UNL A   1      46.823  28.901  31.214  1.00  0.00     0.134 A 
ATOM     78  F   UNL A   1      44.747  27.598  33.895  1.00  0.00    -0.206 F 
ATOM     79  C   UNL A   1      47.004  27.191  33.395  1.00  0.00     0.040 A 
ATOM     80  C   UNL A   1      48.027  28.252  31.490  1.00  0.00     0.040 A 
ATOM     81  F   UNL A   1      46.780  29.720  30.152  1.00  0.00    -0.206 F 
ATOM     82  C   UNL A   1      48.120  27.399  32.588  1.00  0.00     0.006 A 
ENDBRANCH  58  75
ENDBRANCH  32  33
ENDBRANCH  24  27
ENDBRANCH  22  23
ENDBRANCH  21  22
ENDBRANCH  20  21
ENDBRANCH  19  20
ENDBRANCH   1  19
TORSDOF 18
ENDMDL
MODEL 2
REMARK VINA RESULT:      -8.0      0.277      6.464
REMARK SMILES Cn1ccnc1NCCOCC(=O)NCCCCCCNC(=O)c1ccc(-c2c3nc(c(-c4c(F)cccc4F)c4ccc([nH]4)c(-c4c(F)cccc4F)c4nc(c(-c5c(F)cccc5F)c5ccc2[nH]5)C=C4)C=C3)cc1
REMARK SMILES IDX 16 1 15 2 14 3 12 4 13 5 11 7 10 8 9 9 8 10 7 11 6 13 1 14
REMARK SMILES IDX 2 15 3 16 4 17 5 18 17 19 18 20 19 21 20 22 21 23 22 24
REMARK SMILES IDX 23 26 24 27 25 28 77 29 26 30 76 31 27 32 28 33 29 34 70 35
REMARK SMILES IDX 30 36 75 37 69 38 71 39 31 40 74 41 68 42 67 43 32 45 58 46
REMARK SMILES IDX 41 47 57 48 42 49 45 50 56 51 72 52 43 53 44 54 55 56 73 57
REMARK SMILES IDX 46 58 33 59 34 60 39 61 35 62 36 63 38 64 40 65 37 66 59 67
REMARK SMILES IDX 60 68 65 69 61 70 62 71 64 72 66 73 63 74 47 75 48 76 53 77
REMARK SMILES IDX 49 78 50 79 52 80 54 81 51 82
REMARK H PARENT 14 6 7 12 21 25 71 44 45 55
REMARK Flexibility Score: inf
ROOT
ATOM      1  C   UNL A   1      34.344  34.104  33.437  1.00  0.00     0.021 C 
ENDROOT
BRANCH   1   2
ATOM      2  C   UNL A   1      35.558  33.330  33.942  1.00  0.00     0.116 C 
BRANCH   2   3
ATOM      3  N   UNL A   1      36.681  34.198  34.231  1.00  0.00    -0.354 N 
ATOM      4  C   UNL A   1      37.475  34.191  35.342  1.00  0.00     0.245 C 
ATOM      5  O   UNL A   1      38.467  34.921  35.379  1.00  0.00    -0.272 OA
ATOM      6  H   UNL A   1      36.898  34.871  33.546  1.00  0.00     0.163 HD
BRANCH   4   7
ATOM      7  C   UNL A   1      37.121  33.240  36.492  1.00  0.00     0.260 C 
BRANCH   7   8
ATOM      8  O   UNL A   1      38.102  32.303  36.907  1.00  0.00    -0.370 OA
BRANCH   8   9
ATOM      9  C   UNL A   1      38.188  31.115  36.105  1.00  0.00     0.182 C 
BRANCH   9  10
ATOM     10  C   UNL A   1      39.598  30.838  35.558  1.00  0.00     0.144 C 
BRANCH  10  11
ATOM     11  N   UNL A   1      39.623  30.846  34.106  1.00  0.00    -0.353 N 
ATOM     12  H   UNL A   1      39.767  31.695  33.628  1.00  0.00     0.163 HD
BRANCH  11  13
ATOM     13  C   UNL A   1      39.450  29.714  33.401  1.00  0.00     0.202 A 
ATOM     14  C   UNL A   1      37.033  30.160  32.784  1.00  0.00     0.153 C 
ATOM     15  N   UNL A   1      38.233  29.365  32.863  1.00  0.00    -0.321 N 
ATOM     16  C   UNL A   1      38.358  28.113  32.320  1.00  0.00     0.109 A 
ATOM     17  C   UNL A   1      39.678  27.781  32.499  1.00  0.00     0.133 A 
ATOM     18  N   UNL A   1      40.350  28.791  33.137  1.00  0.00    -0.222 NA
ENDBRANCH  11  13
ENDBRANCH  10  11
ENDBRANCH   9  10
ENDBRANCH   8   9
ENDBRANCH   7   8
ENDBRANCH   4   7
ENDBRANCH   2   3
ENDBRANCH   1   2
BRANCH   1  19
ATOM     19  C   UNL A   1      34.433  35.625  33.605  1.00  0.00     0.002 C 
BRANCH  19  20
ATOM     20  C   UNL A   1      34.095  36.449  32.359  1.00  0.00     0.002 C 
BRANCH  20  21
ATOM     21  C   UNL A   1      33.054  35.830  31.424  1.00  0.00     0.021 C 
BRANCH  21  22
ATOM     22  C   UNL A   1      33.144  36.286  29.973  1.00  0.00     0.116 C 
BRANCH  22  23
ATOM     23  N   UNL A   1      32.568  35.321  29.053  1.00  0.00    -0.352 N 
ATOM     24  C   UNL A   1      33.146  34.219  28.471  1.00  0.00     0.251 C 
ATOM     25  H   UNL A   1      31.626  35.479  28.812  1.00  0.00     0.163 HD
ATOM     26  O   UNL A   1      32.561  33.615  27.578  1.00  0.00    -0.269 OA
BRANCH  24  27
ATOM     27  C   UNL A   1      34.486  33.772  28.906  1.00  0.00     0.039 A 
ATOM     28  C   UNL A   1      34.586  32.888  29.983  1.00  0.00     0.014 A 
ATOM     29  C   UNL A   1      35.641  34.226  28.262  1.00  0.00     0.014 A 
ATOM     30  C   UNL A   1      35.839  32.416  30.378  1.00  0.00     0.010 A 
ATOM     31  C   UNL A   1      36.882  33.697  28.607  1.00  0.00     0.010 A 
ATOM     32  C   UNL A   1      36.994  32.790  29.672  1.00  0.00    -0.014 A 
BRANCH  32  33
ATOM     33  C   UNL A   1      38.328  32.248  30.036  1.00  0.00     0.031 A 
ATOM     34  C   UNL A   1      38.769  30.910  29.512  1.00  0.00     0.074 A 
ATOM     35  C   UNL A   1      39.116  32.933  30.888  1.00  0.00     0.049 A 
ATOM     36  N   UNL A   1      39.865  30.241  29.770  1.00  0.00    -0.248 NA
ATOM     37  C   UNL A   1      37.848  30.222  28.595  1.00  0.00     0.031 C 
ATOM     38  C   UNL A   1      38.783  34.220  31.500  1.00  0.00     0.029 A 
ATOM     39  N   UNL A   1      40.356  32.634  31.395  1.00  0.00    -0.354 N 
ATOM     40  C   UNL A   1      39.757  29.051  29.061  1.00  0.00     0.074 A 
ATOM     41  C   UNL A   1      38.466  29.066  28.406  1.00  0.00     0.031 C 
ATOM     42  C   UNL A   1      39.803  34.611  32.283  1.00  0.00     0.029 A 
ATOM     43  C   UNL A   1      40.841  33.587  32.259  1.00  0.00     0.049 A 
ATOM     44  H   UNL A   1      40.850  31.816  31.163  1.00  0.00     0.167 HD
ATOM     45  C   UNL A   1      40.659  28.048  28.947  1.00  0.00     0.037 A 
ATOM     46  C   UNL A   1      41.991  33.624  32.960  1.00  0.00     0.037 A 
ATOM     47  C   UNL A   1      41.950  28.045  29.583  1.00  0.00     0.049 A 
ATOM     48  C   UNL A   1      42.969  32.491  32.828  1.00  0.00     0.074 A 
ATOM     49  C   UNL A   1      42.959  27.102  29.482  1.00  0.00     0.029 A 
ATOM     50  N   UNL A   1      42.409  29.032  30.442  1.00  0.00    -0.354 N 
ATOM     51  N   UNL A   1      42.882  31.403  32.101  1.00  0.00    -0.248 NA
ATOM     52  C   UNL A   1      44.209  32.591  33.611  1.00  0.00     0.031 C 
ATOM     53  C   UNL A   1      44.010  27.496  30.318  1.00  0.00     0.029 A 
ATOM     54  C   UNL A   1      43.677  28.709  30.899  1.00  0.00     0.049 A 
ATOM     55  H   UNL A   1      41.909  29.843  30.691  1.00  0.00     0.167 HD
ATOM     56  C   UNL A   1      44.064  30.705  32.317  1.00  0.00     0.074 A 
ATOM     57  C   UNL A   1      44.858  31.500  33.232  1.00  0.00     0.031 C 
ATOM     58  C   UNL A   1      44.457  29.513  31.806  1.00  0.00     0.037 A 
BRANCH  45  59
ATOM     59  C   UNL A   1      40.279  26.868  28.100  1.00  0.00     0.057 A 
ATOM     60  C   UNL A   1      40.774  26.701  26.800  1.00  0.00     0.134 A 
ATOM     61  C   UNL A   1      39.434  25.869  28.600  1.00  0.00     0.134 A 
ATOM     62  F   UNL A   1      41.580  27.627  26.255  1.00  0.00    -0.206 F 
ATOM     63  C   UNL A   1      40.420  25.601  26.017  1.00  0.00     0.040 A 
ATOM     64  C   UNL A   1      39.096  24.749  27.838  1.00  0.00     0.040 A 
ATOM     65  F   UNL A   1      38.929  25.961  29.840  1.00  0.00    -0.206 F 
ATOM     66  C   UNL A   1      39.583  24.617  26.540  1.00  0.00     0.006 A 
ENDBRANCH  45  59
BRANCH  46  67
ATOM     67  C   UNL A   1      42.290  34.784  33.837  1.00  0.00     0.057 A 
ATOM     68  C   UNL A   1      41.974  34.759  35.200  1.00  0.00     0.134 A 
ATOM     69  C   UNL A   1      42.885  35.947  33.336  1.00  0.00     0.134 A 
ATOM     70  F   UNL A   1      41.384  33.680  35.735  1.00  0.00    -0.206 F 
ATOM     71  C   UNL A   1      42.220  35.855  36.029  1.00  0.00     0.040 A 
ATOM     72  C   UNL A   1      43.161  37.041  34.157  1.00  0.00     0.040 A 
ATOM     73  F   UNL A   1      43.220  36.032  32.039  1.00  0.00    -0.206 F 
ATOM     74  C   UNL A   1      42.820  36.999  35.508  1.00  0.00     0.006 A 
ENDBRANCH  46  67
BRANCH  58  75
ATOM     75  C   UNL A   1      45.817  29.012  32.195  1.00  0.00     0.057 A 
ATOM     76  C   UNL A   1      46.966  29.353  31.469  1.00  0.00     0.134 A 
ATOM     77  C   UNL A   1      45.983  28.211  33.331  1.00  0.00     0.134 A 
ATOM     78  F   UNL A   1      46.874  30.107  30.364  1.00  0.00    -0.206 F 
ATOM     79  C   UNL A   1      48.229  28.893  31.847  1.00  0.00     0.040 A 
ATOM     80  C   UNL A   1      47.244  27.768  33.735  1.00  0.00     0.040 A 
ATOM     81  F   UNL A   1      44.925  27.855  34.075  1.00  0.00    -0.206 F 
ATOM     82  C   UNL A   1      48.371  28.105  32.988  1.00  0.00     0.006 A 
ENDBRANCH  58  75
ENDBRANCH  32  33
ENDBRANCH  24  27
ENDBRANCH  22  23
ENDBRANCH  21  22
ENDBRANCH  20  21
ENDBRANCH  19  20
ENDBRANCH   1  19
TORSDOF 18
ENDMDL
MODEL 3
REMARK VINA RESULT:      -7.7      4.535      9.098
REMARK SMILES Cn1ccnc1NCCOCC(=O)NCCCCCCNC(=O)c1ccc(-c2c3nc(c(-c4c(F)cccc4F)c4ccc([nH]4)c(-c4c(F)cccc4F)c4nc(c(-c5c(F)cccc5F)c5ccc2[nH]5)C=C4)C=C3)cc1
REMARK SMILES IDX 16 1 15 2 14 3 12 4 13 5 11 7 10 8 9 9 8 10 7 11 6 13 1 14
REMARK SMILES IDX 2 15 3 16 4 17 5 18 17 19 18 20 19 21 20 22 21 23 22 24
REMARK SMILES IDX 23 26 24 27 25 28 77 29 26 30 76 31 27 32 28 33 29 34 70 35
REMARK SMILES IDX 30 36 75 37 69 38 71 39 31 40 74 41 68 42 67 43 32 45 58 46
REMARK SMILES IDX 41 47 57 48 42 49 45 50 56 51 72 52 43 53 44 54 55 56 73 57
REMARK SMILES IDX 46 58 33 59 34 60 39 61 35 62 36 63 38 64 40 65 37 66 59 67
REMARK SMILES IDX 60 68 65 69 61 70 62 71 64 72 66 73 63 74 47 75 48 76 53 77
REMARK SMILES IDX 49 78 50 79 52 80 54 81 51 82
REMARK H PARENT 14 6 7 12 21 25 71 44 45 55
REMARK Flexibility Score: inf
ROOT
ATOM      1  C   UNL A   1      31.658  28.348  27.425  1.00  0.00     0.021 C 
ENDROOT
BRANCH   1   2
ATOM      2  C   UNL A   1      31.486  27.282  26.348  1.00  0.00     0.116 C 
BRANCH   2   3
ATOM      3  N   UNL A   1      31.129  25.992  26.903  1.00  0.00    -0.354 N 
ATOM      4  C   UNL A   1      31.650  24.772  26.580  1.00  0.00     0.245 C 
ATOM      5  O   UNL A   1      31.318  23.783  27.234  1.00  0.00    -0.272 OA
ATOM      6  H   UNL A   1      30.427  25.996  27.593  1.00  0.00     0.163 HD
BRANCH   4   7
ATOM      7  C   UNL A   1      32.668  24.688  25.436  1.00  0.00     0.260 C 
BRANCH   7   8
ATOM      8  O   UNL A   1      32.665  23.522  24.626  1.00  0.00    -0.370 OA
BRANCH   8   9
ATOM      9  C   UNL A   1      32.917  23.750  23.231  1.00  0.00     0.182 C 
BRANCH   9  10
ATOM     10  C   UNL A   1      31.700  24.290  22.461  1.00  0.00     0.144 C 
BRANCH  10  11
ATOM     11  N   UNL A   1      32.072  25.348  21.540  1.00  0.00    -0.353 N 
ATOM     12  H   UNL A   1      31.998  25.195  20.569  1.00  0.00     0.163 HD
BRANCH  11  13
ATOM     13  C   UNL A   1      32.519  26.535  21.988  1.00  0.00     0.202 A 
ATOM     14  C   UNL A   1      30.301  27.298  22.948  1.00  0.00     0.153 C 
ATOM     15  N   UNL A   1      31.680  27.462  22.563  1.00  0.00    -0.321 N 
ATOM     16  C   UNL A   1      32.410  28.599  22.796  1.00  0.00     0.109 A 
ATOM     17  C   UNL A   1      33.687  28.284  22.405  1.00  0.00     0.133 A 
ATOM     18  N   UNL A   1      33.749  26.997  21.939  1.00  0.00    -0.222 NA
ENDBRANCH  11  13
ENDBRANCH  10  11
ENDBRANCH   9  10
ENDBRANCH   8   9
ENDBRANCH   7   8
ENDBRANCH   4   7
ENDBRANCH   2   3
ENDBRANCH   1   2
BRANCH   1  19
ATOM     19  C   UNL A   1      32.408  29.607  26.972  1.00  0.00     0.002 C 
BRANCH  19  20
ATOM     20  C   UNL A   1      31.619  30.555  26.064  1.00  0.00     0.002 C 
BRANCH  20  21
ATOM     21  C   UNL A   1      31.445  31.980  26.594  1.00  0.00     0.021 C 
BRANCH  21  22
ATOM     22  C   UNL A   1      32.712  32.613  27.156  1.00  0.00     0.116 C 
BRANCH  22  23
ATOM     23  N   UNL A   1      32.505  33.991  27.569  1.00  0.00    -0.352 N 
ATOM     24  C   UNL A   1      33.125  34.705  28.564  1.00  0.00     0.251 C 
ATOM     25  H   UNL A   1      31.821  34.485  27.060  1.00  0.00     0.163 HD
ATOM     26  O   UNL A   1      32.699  35.808  28.890  1.00  0.00    -0.269 OA
BRANCH  24  27
ATOM     27  C   UNL A   1      34.298  34.135  29.260  1.00  0.00     0.039 A 
ATOM     28  C   UNL A   1      34.088  33.264  30.332  1.00  0.00     0.014 A 
ATOM     29  C   UNL A   1      35.599  34.462  28.866  1.00  0.00     0.014 A 
ATOM     30  C   UNL A   1      35.182  32.676  30.972  1.00  0.00     0.010 A 
ATOM     31  C   UNL A   1      36.684  33.818  29.455  1.00  0.00     0.010 A 
ATOM     32  C   UNL A   1      36.487  32.922  30.516  1.00  0.00    -0.014 A 
BRANCH  32  33
ATOM     33  C   UNL A   1      37.658  32.258  31.142  1.00  0.00     0.031 A 
ATOM     34  C   UNL A   1      38.386  31.163  30.412  1.00  0.00     0.074 A 
ATOM     35  C   UNL A   1      38.028  32.596  32.393  1.00  0.00     0.049 A 
ATOM     36  N   UNL A   1      39.385  30.420  30.818  1.00  0.00    -0.248 NA
ATOM     37  C   UNL A   1      37.915  30.846  29.055  1.00  0.00     0.031 C 
ATOM     38  C   UNL A   1      37.376  33.610  33.223  1.00  0.00     0.029 A 
ATOM     39  N   UNL A   1      39.038  32.114  33.188  1.00  0.00    -0.354 N 
ATOM     40  C   UNL A   1      39.650  29.541  29.775  1.00  0.00     0.074 A 
ATOM     41  C   UNL A   1      38.673  29.807  28.740  1.00  0.00     0.031 C 
ATOM     42  C   UNL A   1      38.015  33.689  34.402  1.00  0.00     0.029 A 
ATOM     43  C   UNL A   1      39.094  32.708  34.426  1.00  0.00     0.049 A 
ATOM     44  H   UNL A   1      39.661  31.410  32.900  1.00  0.00     0.167 HD
ATOM     45  C   UNL A   1      40.630  28.613  29.678  1.00  0.00     0.037 A 
ATOM     46  C   UNL A   1      39.918  32.479  35.467  1.00  0.00     0.037 A 
ATOM     47  C   UNL A   1      41.614  28.365  30.700  1.00  0.00     0.049 A 
ATOM     48  C   UNL A   1      40.990  31.433  35.340  1.00  0.00     0.074 A 
ATOM     49  C   UNL A   1      42.684  27.487  30.672  1.00  0.00     0.029 A 
ATOM     50  N   UNL A   1      41.644  28.994  31.935  1.00  0.00    -0.354 N 
ATOM     51  N   UNL A   1      41.271  30.656  34.321  1.00  0.00    -0.248 NA
ATOM     52  C   UNL A   1      41.863  31.234  36.505  1.00  0.00     0.031 C 
ATOM     53  C   UNL A   1      43.333  27.551  31.910  1.00  0.00     0.029 A 
ATOM     54  C   UNL A   1      42.700  28.505  32.689  1.00  0.00     0.049 A 
ATOM     55  H   UNL A   1      41.010  29.686  32.234  1.00  0.00     0.167 HD
ATOM     56  C   UNL A   1      42.367  29.898  34.712  1.00  0.00     0.074 A 
ATOM     57  C   UNL A   1      42.709  30.319  36.056  1.00  0.00     0.031 C 
ATOM     58  C   UNL A   1      43.031  28.938  34.023  1.00  0.00     0.037 A 
BRANCH  45  59
ATOM     59  C   UNL A   1      40.689  27.797  28.419  1.00  0.00     0.057 A 
ATOM     60  C   UNL A   1      41.399  28.228  27.290  1.00  0.00     0.134 A 
ATOM     61  C   UNL A   1      40.057  26.549  28.344  1.00  0.00     0.134 A 
ATOM     62  F   UNL A   1      42.019  29.419  27.291  1.00  0.00    -0.206 F 
ATOM     63  C   UNL A   1      41.453  27.464  26.124  1.00  0.00     0.040 A 
ATOM     64  C   UNL A   1      40.128  25.762  27.193  1.00  0.00     0.040 A 
ATOM     65  F   UNL A   1      39.366  26.071  29.390  1.00  0.00    -0.206 F 
ATOM     66  C   UNL A   1      40.821  26.223  26.076  1.00  0.00     0.006 A 
ENDBRANCH  45  59
BRANCH  46  67
ATOM     67  C   UNL A   1      39.775  33.269  36.716  1.00  0.00     0.057 A 
ATOM     68  C   UNL A   1      40.536  34.424  36.930  1.00  0.00     0.134 A 
ATOM     69  C   UNL A   1      38.887  32.886  37.728  1.00  0.00     0.134 A 
ATOM     70  F   UNL A   1      41.419  34.831  36.006  1.00  0.00    -0.206 F 
ATOM     71  C   UNL A   1      40.436  35.158  38.114  1.00  0.00     0.040 A 
ATOM     72  C   UNL A   1      38.757  33.624  38.905  1.00  0.00     0.040 A 
ATOM     73  F   UNL A   1      38.123  31.793  37.581  1.00  0.00    -0.206 F 
ATOM     74  C   UNL A   1      39.540  34.760  39.104  1.00  0.00     0.006 A 
ENDBRANCH  46  67
BRANCH  58  75
ATOM     75  C   UNL A   1      44.214  28.302  34.694  1.00  0.00     0.057 A 
ATOM     76  C   UNL A   1      44.095  27.121  35.436  1.00  0.00     0.134 A 
ATOM     77  C   UNL A   1      45.491  28.860  34.563  1.00  0.00     0.134 A 
ATOM     78  F   UNL A   1      42.898  26.543  35.610  1.00  0.00    -0.206 F 
ATOM     79  C   UNL A   1      45.204  26.530  36.045  1.00  0.00     0.040 A 
ATOM     80  C   UNL A   1      46.612  28.263  35.144  1.00  0.00     0.040 A 
ATOM     81  F   UNL A   1      45.675  29.987  33.858  1.00  0.00    -0.206 F 
ATOM     82  C   UNL A   1      46.468  27.097  35.892  1.00  0.00     0.006 A 
ENDBRANCH  58  75
ENDBRANCH  32  33
ENDBRANCH  24  27
ENDBRANCH  22  23
ENDBRANCH  21  22
ENDBRANCH  20  21
ENDBRANCH  19  20
ENDBRANCH   1  19
TORSDOF 18
ENDMDL
