MODEL 1
REMARK VINA RESULT:     -11.5      0.000      0.000
REMARK SMILES C[C@@H](Oc1ccc(I)cc1)C(=O)NCc1ccc(C(=O)NCCCCCCNC(=O)c2ccc(-c3c4nc(c(-c5c(F)cccc5F)c5ccc([nH]5)c(-c5c(F)cccc5F)c5nc(c(-c6c(F)cccc6F)c6ccc3[nH]6)C=C5)C=C4)cc2)cc1
REMARK SMILES IDX 23 1 22 2 21 3 19 4 20 5 18 7 15 8 16 9 86 10 17 11 85 12
REMARK SMILES IDX 14 13 13 14 11 15 12 16 2 18 1 19 3 20 4 21 5 22 10 23 6 24
REMARK SMILES IDX 9 25 7 26 8 27 24 28 25 29 26 30 27 31 28 32 29 33 30 35
REMARK SMILES IDX 31 36 32 37 84 38 33 39 83 40 34 41 35 42 36 43 77 44 37 45
REMARK SMILES IDX 82 46 76 47 78 48 38 49 81 50 75 51 74 52 39 54 65 55 48 56
REMARK SMILES IDX 64 57 49 58 52 59 63 60 79 61 50 62 51 63 62 65 80 66 53 67
REMARK SMILES IDX 40 68 41 69 46 70 42 71 43 72 45 73 47 74 44 75 66 76 67 77
REMARK SMILES IDX 72 78 68 79 69 80 71 81 73 82 70 83 54 84 55 85 60 86 56 87
REMARK SMILES IDX 57 88 59 89 61 90 58 91
REMARK H PARENT 21 6 13 17 28 34 78 53 52 64
REMARK Flexibility Score: inf
ROOT
ATOM      1  C   UNL A   1      34.450  32.536  29.304  1.00  0.00     0.021 C 
ENDROOT
BRANCH   1   2
ATOM      2  C   UNL A   1      34.231  31.773  27.997  1.00  0.00     0.116 C 
BRANCH   2   3
ATOM      3  N   UNL A   1      32.977  32.175  27.386  1.00  0.00    -0.352 N 
ATOM      4  C   UNL A   1      32.049  31.469  26.668  1.00  0.00     0.251 C 
ATOM      5  O   UNL A   1      31.036  32.051  26.282  1.00  0.00    -0.269 OA
ATOM      6  H   UNL A   1      32.754  33.126  27.510  1.00  0.00     0.163 HD
BRANCH   4   7
ATOM      7  C   UNL A   1      32.197  30.017  26.396  1.00  0.00     0.039 A 
ATOM      8  C   UNL A   1      32.511  27.299  25.709  1.00  0.00    -0.029 A 
ATOM      9  C   UNL A   1      33.042  28.303  24.892  1.00  0.00     0.006 A 
ATOM     10  C   UNL A   1      31.867  27.674  26.900  1.00  0.00     0.006 A 
ATOM     11  C   UNL A   1      32.886  29.650  25.233  1.00  0.00     0.014 A 
ATOM     12  C   UNL A   1      31.731  29.019  27.252  1.00  0.00     0.014 A 
BRANCH   8  13
ATOM     13  C   UNL A   1      32.656  25.825  25.417  1.00  0.00     0.151 C 
BRANCH  13  14
ATOM     14  N   UNL A   1      31.843  24.957  26.245  1.00  0.00    -0.349 N 
ATOM     15  C   UNL A   1      32.169  23.798  26.891  1.00  0.00     0.261 C 
ATOM     16  O   UNL A   1      31.310  23.292  27.620  1.00  0.00    -0.271 OA
ATOM     17  H   UNL A   1      30.910  25.247  26.361  1.00  0.00     0.163 HD
BRANCH  15  18
ATOM     18  C   UNL A   1      33.511  23.083  26.644  1.00  0.00     0.258 C 
ATOM     19  C   UNL A   1      33.640  21.965  27.677  1.00  0.00     0.064 C 
BRANCH  18  20
ATOM     20  O   UNL A   1      33.566  22.637  25.288  1.00  0.00    -0.481 OA
BRANCH  20  21
ATOM     21  C   UNL A   1      33.618  21.287  25.110  1.00  0.00     0.120 A 
ATOM     22  C   UNL A   1      32.457  20.547  24.888  1.00  0.00     0.047 A 
ATOM     23  C   UNL A   1      34.868  20.692  24.958  1.00  0.00     0.047 A 
ATOM     24  C   UNL A   1      32.543  19.191  24.572  1.00  0.00     0.018 A 
ATOM     25  C   UNL A   1      34.959  19.339  24.626  1.00  0.00     0.018 A 
ATOM     26  C   UNL A   1      33.794  18.591  24.439  1.00  0.00     0.013 A 
ATOM     27  I   UNL A   1      33.922  16.584  23.918  1.00  0.00    -0.044 I 
ENDBRANCH  20  21
ENDBRANCH  18  20
ENDBRANCH  15  18
ENDBRANCH  13  14
ENDBRANCH   8  13
ENDBRANCH   4   7
ENDBRANCH   2   3
ENDBRANCH   1   2
BRANCH   1  28
ATOM     28  C   UNL A   1      35.245  33.835  29.123  1.00  0.00     0.002 C 
BRANCH  28  29
ATOM     29  C   UNL A   1      34.515  34.934  28.343  1.00  0.00     0.002 C 
BRANCH  29  30
ATOM     30  C   UNL A   1      33.181  35.383  28.949  1.00  0.00     0.021 C 
BRANCH  30  31
ATOM     31  C   UNL A   1      33.280  36.590  29.877  1.00  0.00     0.116 C 
BRANCH  31  32
ATOM     32  N   UNL A   1      32.385  36.467  31.016  1.00  0.00    -0.352 N 
ATOM     33  C   UNL A   1      32.487  35.664  32.123  1.00  0.00     0.251 C 
ATOM     34  H   UNL A   1      31.589  37.044  30.989  1.00  0.00     0.163 HD
ATOM     35  O   UNL A   1      31.524  35.529  32.871  1.00  0.00    -0.269 OA
BRANCH  33  36
ATOM     36  C   UNL A   1      33.751  34.954  32.419  1.00  0.00     0.039 A 
ATOM     37  C   UNL A   1      33.689  33.622  32.836  1.00  0.00     0.014 A 
ATOM     38  C   UNL A   1      34.984  35.609  32.345  1.00  0.00     0.014 A 
ATOM     39  C   UNL A   1      34.864  32.938  33.149  1.00  0.00     0.010 A 
ATOM     40  C   UNL A   1      36.160  34.908  32.596  1.00  0.00     0.010 A 
ATOM     41  C   UNL A   1      36.112  33.571  33.018  1.00  0.00    -0.014 A 
BRANCH  41  42
ATOM     42  C   UNL A   1      37.364  32.851  33.352  1.00  0.00     0.031 A 
ATOM     43  C   UNL A   1      38.096  33.152  34.630  1.00  0.00     0.074 A 
ATOM     44  C   UNL A   1      37.861  31.945  32.488  1.00  0.00     0.049 A 
ATOM     45  N   UNL A   1      39.204  32.632  35.092  1.00  0.00    -0.248 NA
ATOM     46  C   UNL A   1      37.518  34.195  35.494  1.00  0.00     0.031 C 
ATOM     47  C   UNL A   1      37.274  31.603  31.192  1.00  0.00     0.029 A 
ATOM     48  N   UNL A   1      38.974  31.149  32.571  1.00  0.00    -0.354 N 
ATOM     49  C   UNL A   1      39.462  33.288  36.288  1.00  0.00     0.074 A 
ATOM     50  C   UNL A   1      38.424  34.282  36.457  1.00  0.00     0.031 C 
ATOM     51  C   UNL A   1      38.017  30.646  30.613  1.00  0.00     0.029 A 
ATOM     52  C   UNL A   1      39.143  30.325  31.485  1.00  0.00     0.049 A 
ATOM     53  H   UNL A   1      39.593  31.166  33.336  1.00  0.00     0.167 HD
ATOM     54  C   UNL A   1      40.458  33.069  37.179  1.00  0.00     0.037 A 
ATOM     55  C   UNL A   1      40.094  29.408  31.228  1.00  0.00     0.037 A 
ATOM     56  C   UNL A   1      41.474  32.060  37.026  1.00  0.00     0.049 A 
ATOM     57  C   UNL A   1      41.174  29.164  32.245  1.00  0.00     0.074 A 
ATOM     58  C   UNL A   1      42.492  31.719  37.899  1.00  0.00     0.029 A 
ATOM     59  N   UNL A   1      41.597  31.228  35.923  1.00  0.00    -0.354 N 
ATOM     60  N   UNL A   1      41.367  29.746  33.403  1.00  0.00    -0.248 NA
ATOM     61  C   UNL A   1      42.162  28.124  31.922  1.00  0.00     0.031 C 
ATOM     62  C   UNL A   1      43.252  30.702  37.310  1.00  0.00     0.029 A 
ATOM     63  C   UNL A   1      42.683  30.384  36.087  1.00  0.00     0.049 A 
ATOM     64  H   UNL A   1      41.002  31.237  35.140  1.00  0.00     0.167 HD
ATOM     65  C   UNL A   1      42.481  29.131  33.957  1.00  0.00     0.074 A 
ATOM     66  C   UNL A   1      42.909  28.116  33.016  1.00  0.00     0.031 C 
ATOM     67  C   UNL A   1      43.096  29.382  35.139  1.00  0.00     0.037 A 
BRANCH  54  68
ATOM     68  C   UNL A   1      40.489  33.934  38.406  1.00  0.00     0.057 A 
ATOM     69  C   UNL A   1      41.253  35.107  38.461  1.00  0.00     0.134 A 
ATOM     70  C   UNL A   1      39.731  33.603  39.536  1.00  0.00     0.134 A 
ATOM     71  F   UNL A   1      42.012  35.473  37.417  1.00  0.00    -0.206 F 
ATOM     72  C   UNL A   1      41.284  35.906  39.605  1.00  0.00     0.040 A 
ATOM     73  C   UNL A   1      39.734  34.408  40.677  1.00  0.00     0.040 A 
ATOM     74  F   UNL A   1      38.973  32.496  39.549  1.00  0.00    -0.206 F 
ATOM     75  C   UNL A   1      40.517  35.560  40.716  1.00  0.00     0.006 A 
ENDBRANCH  54  68
BRANCH  55  76
ATOM     76  C   UNL A   1      40.045  28.623  29.971  1.00  0.00     0.057 A 
ATOM     77  C   UNL A   1      39.314  27.432  29.894  1.00  0.00     0.134 A 
ATOM     78  C   UNL A   1      40.728  29.038  28.822  1.00  0.00     0.134 A 
ATOM     79  F   UNL A   1      38.654  26.975  30.968  1.00  0.00    -0.206 F 
ATOM     80  C   UNL A   1      39.278  26.671  28.725  1.00  0.00     0.040 A 
ATOM     81  C   UNL A   1      40.682  28.299  27.639  1.00  0.00     0.040 A 
ATOM     82  F   UNL A   1      41.439  30.176  28.831  1.00  0.00    -0.206 F 
ATOM     83  C   UNL A   1      39.961  27.107  27.591  1.00  0.00     0.006 A 
ENDBRANCH  55  76
BRANCH  67  84
ATOM     84  C   UNL A   1      44.281  28.530  35.482  1.00  0.00     0.057 A 
ATOM     85  C   UNL A   1      44.146  27.333  36.198  1.00  0.00     0.134 A 
ATOM     86  C   UNL A   1      45.570  28.903  35.083  1.00  0.00     0.134 A 
ATOM     87  F   UNL A   1      42.939  26.927  36.622  1.00  0.00    -0.206 F 
ATOM     88  C   UNL A   1      45.255  26.553  36.528  1.00  0.00     0.040 A 
ATOM     89  C   UNL A   1      46.683  28.120  35.386  1.00  0.00     0.040 A 
ATOM     90  F   UNL A   1      45.767  30.034  34.388  1.00  0.00    -0.206 F 
ATOM     91  C   UNL A   1      46.528  26.944  36.117  1.00  0.00     0.006 A 
ENDBRANCH  67  84
ENDBRANCH  41  42
ENDBRANCH  33  36
ENDBRANCH  31  32
ENDBRANCH  30  31
ENDBRANCH  29  30
ENDBRANCH  28  29
ENDBRANCH   1  28
TORSDOF 18
ENDMDL
MODEL 2
REMARK VINA RESULT:     -11.5      1.824      2.938
REMARK SMILES C[C@@H](Oc1ccc(I)cc1)C(=O)NCc1ccc(C(=O)NCCCCCCNC(=O)c2ccc(-c3c4nc(c(-c5c(F)cccc5F)c5ccc([nH]5)c(-c5c(F)cccc5F)c5nc(c(-c6c(F)cccc6F)c6ccc3[nH]6)C=C5)C=C4)cc2)cc1
REMARK SMILES IDX 23 1 22 2 21 3 19 4 20 5 18 7 15 8 16 9 86 10 17 11 85 12
REMARK SMILES IDX 14 13 13 14 11 15 12 16 2 18 1 19 3 20 4 21 5 22 10 23 6 24
REMARK SMILES IDX 9 25 7 26 8 27 24 28 25 29 26 30 27 31 28 32 29 33 30 35
REMARK SMILES IDX 31 36 32 37 84 38 33 39 83 40 34 41 35 42 36 43 77 44 37 45
REMARK SMILES IDX 82 46 76 47 78 48 38 49 81 50 75 51 74 52 39 54 65 55 48 56
REMARK SMILES IDX 64 57 49 58 52 59 63 60 79 61 50 62 51 63 62 65 80 66 53 67
REMARK SMILES IDX 40 68 41 69 46 70 42 71 43 72 45 73 47 74 44 75 66 76 67 77
REMARK SMILES IDX 72 78 68 79 69 80 71 81 73 82 70 83 54 84 55 85 60 86 56 87
REMARK SMILES IDX 57 88 59 89 61 90 58 91
REMARK H PARENT 21 6 13 17 28 34 78 53 52 64
REMARK Flexibility Score: inf
ROOT
ATOM      1  C   UNL A   1      34.525  32.382  29.033  1.00  0.00     0.021 C 
ENDROOT
BRANCH   1   2
ATOM      2  C   UNL A   1      34.322  31.301  27.970  1.00  0.00     0.116 C 
BRANCH   2   3
ATOM      3  N   UNL A   1      33.094  31.545  27.237  1.00  0.00    -0.352 N 
ATOM      4  C   UNL A   1      32.306  30.715  26.483  1.00  0.00     0.251 C 
ATOM      5  O   UNL A   1      31.279  31.172  25.984  1.00  0.00    -0.269 OA
ATOM      6  H   UNL A   1      32.768  32.473  27.290  1.00  0.00     0.163 HD
BRANCH   4   7
ATOM      7  C   UNL A   1      32.620  29.276  26.303  1.00  0.00     0.039 A 
ATOM      8  C   UNL A   1      33.168  26.514  26.129  1.00  0.00    -0.029 A 
ATOM      9  C   UNL A   1      32.321  27.008  27.127  1.00  0.00     0.006 A 
ATOM     10  C   UNL A   1      33.694  27.416  25.189  1.00  0.00     0.006 A 
ATOM     11  C   UNL A   1      32.050  28.377  27.212  1.00  0.00     0.014 A 
ATOM     12  C   UNL A   1      33.405  28.781  25.261  1.00  0.00     0.014 A 
BRANCH   8  13
ATOM     13  C   UNL A   1      33.492  25.049  25.962  1.00  0.00     0.151 C 
BRANCH  13  14
ATOM     14  N   UNL A   1      32.411  24.144  26.294  1.00  0.00    -0.349 N 
ATOM     15  C   UNL A   1      31.821  23.165  25.545  1.00  0.00     0.261 C 
ATOM     16  O   UNL A   1      30.971  22.459  26.099  1.00  0.00    -0.271 OA
ATOM     17  H   UNL A   1      32.042  24.251  27.200  1.00  0.00     0.163 HD
BRANCH  15  18
ATOM     18  C   UNL A   1      32.116  23.005  24.042  1.00  0.00     0.258 C 
ATOM     19  C   UNL A   1      32.635  21.586  23.817  1.00  0.00     0.064 C 
BRANCH  18  20
ATOM     20  O   UNL A   1      30.941  23.326  23.294  1.00  0.00    -0.481 OA
BRANCH  20  21
ATOM     21  C   UNL A   1      30.706  24.654  23.102  1.00  0.00     0.120 A 
ATOM     22  C   UNL A   1      29.751  25.330  23.860  1.00  0.00     0.047 A 
ATOM     23  C   UNL A   1      31.575  25.363  22.276  1.00  0.00     0.047 A 
ATOM     24  C   UNL A   1      29.621  26.714  23.746  1.00  0.00     0.018 A 
ATOM     25  C   UNL A   1      31.459  26.750  22.171  1.00  0.00     0.018 A 
ATOM     26  C   UNL A   1      30.478  27.421  22.904  1.00  0.00     0.013 A 
ATOM     27  I   UNL A   1      30.317  29.489  22.774  1.00  0.00    -0.044 I 
ENDBRANCH  20  21
ENDBRANCH  18  20
ENDBRANCH  15  18
ENDBRANCH  13  14
ENDBRANCH   8  13
ENDBRANCH   4   7
ENDBRANCH   2   3
ENDBRANCH   1   2
BRANCH   1  28
ATOM     28  C   UNL A   1      35.371  33.565  28.544  1.00  0.00     0.002 C 
BRANCH  28  29
ATOM     29  C   UNL A   1      34.581  34.846  28.255  1.00  0.00     0.002 C 
BRANCH  29  30
ATOM     30  C   UNL A   1      33.350  35.063  29.141  1.00  0.00     0.021 C 
BRANCH  30  31
ATOM     31  C   UNL A   1      33.302  36.420  29.838  1.00  0.00     0.116 C 
BRANCH  31  32
ATOM     32  N   UNL A   1      32.404  36.405  30.981  1.00  0.00    -0.352 N 
ATOM     33  C   UNL A   1      32.479  35.677  32.140  1.00  0.00     0.251 C 
ATOM     34  H   UNL A   1      31.627  37.006  30.913  1.00  0.00     0.163 HD
ATOM     35  O   UNL A   1      31.512  35.626  32.894  1.00  0.00    -0.269 OA
BRANCH  33  36
ATOM     36  C   UNL A   1      33.719  34.947  32.487  1.00  0.00     0.039 A 
ATOM     37  C   UNL A   1      34.932  35.639  32.461  1.00  0.00     0.014 A 
ATOM     38  C   UNL A   1      33.698  33.580  32.779  1.00  0.00     0.014 A 
ATOM     39  C   UNL A   1      36.120  34.969  32.756  1.00  0.00     0.010 A 
ATOM     40  C   UNL A   1      34.875  32.927  33.136  1.00  0.00     0.010 A 
ATOM     41  C   UNL A   1      36.099  33.610  33.110  1.00  0.00    -0.014 A 
BRANCH  41  42
ATOM     42  C   UNL A   1      37.358  32.891  33.423  1.00  0.00     0.031 A 
ATOM     43  C   UNL A   1      38.110  33.193  34.690  1.00  0.00     0.074 A 
ATOM     44  C   UNL A   1      37.841  31.984  32.552  1.00  0.00     0.049 A 
ATOM     45  N   UNL A   1      39.226  32.674  35.134  1.00  0.00    -0.248 NA
ATOM     46  C   UNL A   1      37.546  34.236  35.562  1.00  0.00     0.031 C 
ATOM     47  C   UNL A   1      37.233  31.641  31.266  1.00  0.00     0.029 A 
ATOM     48  N   UNL A   1      38.956  31.189  32.617  1.00  0.00    -0.354 N 
ATOM     49  C   UNL A   1      39.503  33.331  36.325  1.00  0.00     0.074 A 
ATOM     50  C   UNL A   1      38.467  34.324  36.510  1.00  0.00     0.031 C 
ATOM     51  C   UNL A   1      37.967  30.684  30.676  1.00  0.00     0.029 A 
ATOM     52  C   UNL A   1      39.108  30.365  31.529  1.00  0.00     0.049 A 
ATOM     53  H   UNL A   1      39.588  31.207  33.372  1.00  0.00     0.167 HD
ATOM     54  C   UNL A   1      40.514  33.113  37.200  1.00  0.00     0.037 A 
ATOM     55  C   UNL A   1      40.054  29.448  31.257  1.00  0.00     0.037 A 
ATOM     56  C   UNL A   1      41.528  32.105  37.030  1.00  0.00     0.049 A 
ATOM     57  C   UNL A   1      41.151  29.205  32.256  1.00  0.00     0.074 A 
ATOM     58  C   UNL A   1      42.560  31.765  37.886  1.00  0.00     0.029 A 
ATOM     59  N   UNL A   1      41.633  31.272  35.926  1.00  0.00    -0.354 N 
ATOM     60  N   UNL A   1      41.362  29.788  33.410  1.00  0.00    -0.248 NA
ATOM     61  C   UNL A   1      42.134  28.166  31.918  1.00  0.00     0.031 C 
ATOM     62  C   UNL A   1      43.311  30.748  37.285  1.00  0.00     0.029 A 
ATOM     63  C   UNL A   1      42.723  30.428  36.072  1.00  0.00     0.049 A 
ATOM     64  H   UNL A   1      41.025  31.280  35.152  1.00  0.00     0.167 HD
ATOM     65  C   UNL A   1      42.486  29.174  33.947  1.00  0.00     0.074 A 
ATOM     66  C   UNL A   1      42.900  28.159  32.999  1.00  0.00     0.031 C 
ATOM     67  C   UNL A   1      43.120  29.426  35.118  1.00  0.00     0.037 A 
BRANCH  54  68
ATOM     68  C   UNL A   1      40.565  33.979  38.425  1.00  0.00     0.057 A 
ATOM     69  C   UNL A   1      41.300  35.171  38.455  1.00  0.00     0.134 A 
ATOM     70  C   UNL A   1      39.855  33.629  39.580  1.00  0.00     0.134 A 
ATOM     71  F   UNL A   1      42.014  35.556  37.386  1.00  0.00    -0.206 F 
ATOM     72  C   UNL A   1      41.349  35.970  39.598  1.00  0.00     0.040 A 
ATOM     73  C   UNL A   1      39.876  34.434  40.721  1.00  0.00     0.040 A 
ATOM     74  F   UNL A   1      39.126  32.503  39.618  1.00  0.00    -0.206 F 
ATOM     75  C   UNL A   1      40.630  35.605  40.734  1.00  0.00     0.006 A 
ENDBRANCH  54  68
BRANCH  55  76
ATOM     76  C   UNL A   1      39.986  28.662  30.002  1.00  0.00     0.057 A 
ATOM     77  C   UNL A   1      40.613  29.113  28.834  1.00  0.00     0.134 A 
ATOM     78  C   UNL A   1      39.292  27.448  29.935  1.00  0.00     0.134 A 
ATOM     79  F   UNL A   1      41.278  30.278  28.833  1.00  0.00    -0.206 F 
ATOM     80  C   UNL A   1      40.538  28.396  27.640  1.00  0.00     0.040 A 
ATOM     81  C   UNL A   1      39.228  26.709  28.753  1.00  0.00     0.040 A 
ATOM     82  F   UNL A   1      38.678  26.959  31.023  1.00  0.00    -0.206 F 
ATOM     83  C   UNL A   1      39.846  27.186  27.599  1.00  0.00     0.006 A 
ENDBRANCH  55  76
BRANCH  67  84
ATOM     84  C   UNL A   1      44.311  28.575  35.443  1.00  0.00     0.057 A 
ATOM     85  C   UNL A   1      45.606  28.941  35.055  1.00  0.00     0.134 A 
ATOM     86  C   UNL A   1      44.163  27.383  36.162  1.00  0.00     0.134 A 
ATOM     87  F   UNL A   1      45.814  30.064  34.351  1.00  0.00    -0.206 F 
ATOM     88  C   UNL A   1      46.709  28.136  35.347  1.00  0.00     0.040 A 
ATOM     89  C   UNL A   1      45.260  26.583  36.482  1.00  0.00     0.040 A 
ATOM     90  F   UNL A   1      42.950  26.980  36.570  1.00  0.00    -0.206 F 
ATOM     91  C   UNL A   1      46.537  26.955  36.067  1.00  0.00     0.006 A 
ENDBRANCH  67  84
ENDBRANCH  41  42
ENDBRANCH  33  36
ENDBRANCH  31  32
ENDBRANCH  30  31
ENDBRANCH  29  30
ENDBRANCH  28  29
ENDBRANCH   1  28
TORSDOF 18
ENDMDL
MODEL 3
REMARK VINA RESULT:     -11.3      5.643      8.281
REMARK SMILES C[C@@H](Oc1ccc(I)cc1)C(=O)NCc1ccc(C(=O)NCCCCCCNC(=O)c2ccc(-c3c4nc(c(-c5c(F)cccc5F)c5ccc([nH]5)c(-c5c(F)cccc5F)c5nc(c(-c6c(F)cccc6F)c6ccc3[nH]6)C=C5)C=C4)cc2)cc1
REMARK SMILES IDX 23 1 22 2 21 3 19 4 20 5 18 7 15 8 16 9 86 10 17 11 85 12
REMARK SMILES IDX 14 13 13 14 11 15 12 16 2 18 1 19 3 20 4 21 5 22 10 23 6 24
REMARK SMILES IDX 9 25 7 26 8 27 24 28 25 29 26 30 27 31 28 32 29 33 30 35
REMARK SMILES IDX 31 36 32 37 84 38 33 39 83 40 34 41 35 42 36 43 77 44 37 45
REMARK SMILES IDX 82 46 76 47 78 48 38 49 81 50 75 51 74 52 39 54 65 55 48 56
REMARK SMILES IDX 64 57 49 58 52 59 63 60 79 61 50 62 51 63 62 65 80 66 53 67
REMARK SMILES IDX 40 68 41 69 46 70 42 71 43 72 45 73 47 74 44 75 66 76 67 77
REMARK SMILES IDX 72 78 68 79 69 80 71 81 73 82 70 83 54 84 55 85 60 86 56 87
REMARK SMILES IDX 57 88 59 89 61 90 58 91
REMARK H PARENT 21 6 13 17 28 34 78 53 52 64
REMARK Flexibility Score: inf
ROOT
ATOM      1  C   UNL A   1      34.603  32.162  28.601  1.00  0.00     0.021 C 
ENDROOT
BRANCH   1   2
ATOM      2  C   UNL A   1      34.315  30.990  27.662  1.00  0.00     0.116 C 
BRANCH   2   3
ATOM      3  N   UNL A   1      33.032  31.174  27.010  1.00  0.00    -0.352 N 
ATOM      4  C   UNL A   1      32.316  30.364  26.168  1.00  0.00     0.251 C 
ATOM      5  O   UNL A   1      31.218  30.750  25.773  1.00  0.00    -0.269 OA
ATOM      6  H   UNL A   1      32.599  32.036  27.207  1.00  0.00     0.163 HD
BRANCH   4   7
ATOM      7  C   UNL A   1      32.795  29.015  25.772  1.00  0.00     0.039 A 
ATOM      8  C   UNL A   1      33.670  26.398  25.185  1.00  0.00    -0.029 A 
ATOM      9  C   UNL A   1      32.831  26.638  26.279  1.00  0.00     0.006 A 
ATOM     10  C   UNL A   1      34.022  27.480  24.361  1.00  0.00     0.006 A 
ATOM     11  C   UNL A   1      32.398  27.935  26.570  1.00  0.00     0.014 A 
ATOM     12  C   UNL A   1      33.570  28.773  24.638  1.00  0.00     0.014 A 
BRANCH   8  13
ATOM     13  C   UNL A   1      34.163  25.025  24.799  1.00  0.00     0.151 C 
BRANCH  13  14
ATOM     14  N   UNL A   1      33.490  23.927  25.463  1.00  0.00    -0.349 N 
ATOM     15  C   UNL A   1      32.653  22.972  24.958  1.00  0.00     0.261 C 
ATOM     16  O   UNL A   1      32.282  22.077  25.725  1.00  0.00    -0.271 OA
ATOM     17  H   UNL A   1      33.662  23.858  26.430  1.00  0.00     0.163 HD
BRANCH  15  18
ATOM     18  C   UNL A   1      32.101  23.055  23.523  1.00  0.00     0.258 C 
ATOM     19  C   UNL A   1      32.153  21.652  22.922  1.00  0.00     0.064 C 
BRANCH  18  20
ATOM     20  O   UNL A   1      30.794  23.633  23.553  1.00  0.00    -0.481 OA
BRANCH  20  21
ATOM     21  C   UNL A   1      30.739  24.981  23.364  1.00  0.00     0.120 A 
ATOM     22  C   UNL A   1      31.403  25.584  22.297  1.00  0.00     0.047 A 
ATOM     23  C   UNL A   1      29.846  25.717  24.139  1.00  0.00     0.047 A 
ATOM     24  C   UNL A   1      31.223  26.943  22.040  1.00  0.00     0.018 A 
ATOM     25  C   UNL A   1      29.650  27.074  23.876  1.00  0.00     0.018 A 
ATOM     26  C   UNL A   1      30.344  27.684  22.829  1.00  0.00     0.013 A 
ATOM     27  I   UNL A   1      30.037  29.697  22.414  1.00  0.00    -0.044 I 
ENDBRANCH  20  21
ENDBRANCH  18  20
ENDBRANCH  15  18
ENDBRANCH  13  14
ENDBRANCH   8  13
ENDBRANCH   4   7
ENDBRANCH   2   3
ENDBRANCH   1   2
BRANCH   1  28
ATOM     28  C   UNL A   1      35.558  33.202  28.001  1.00  0.00     0.002 C 
BRANCH  28  29
ATOM     29  C   UNL A   1      36.877  33.379  28.761  1.00  0.00     0.002 C 
BRANCH  29  30
ATOM     30  C   UNL A   1      36.735  33.893  30.197  1.00  0.00     0.021 C 
BRANCH  30  31
ATOM     31  C   UNL A   1      37.405  33.020  31.254  1.00  0.00     0.116 C 
BRANCH  31  32
ATOM     32  N   UNL A   1      36.605  31.847  31.567  1.00  0.00    -0.352 N 
ATOM     33  C   UNL A   1      36.800  30.537  31.212  1.00  0.00     0.251 C 
ATOM     34  H   UNL A   1      35.805  32.018  32.114  1.00  0.00     0.163 HD
ATOM     35  O   UNL A   1      35.901  29.718  31.376  1.00  0.00    -0.269 OA
BRANCH  33  36
ATOM     36  C   UNL A   1      38.089  30.104  30.628  1.00  0.00     0.039 A 
ATOM     37  C   UNL A   1      39.117  29.715  31.489  1.00  0.00     0.014 A 
ATOM     38  C   UNL A   1      38.305  30.135  29.247  1.00  0.00     0.014 A 
ATOM     39  C   UNL A   1      40.352  29.329  30.967  1.00  0.00     0.010 A 
ATOM     40  C   UNL A   1      39.516  29.689  28.722  1.00  0.00     0.010 A 
ATOM     41  C   UNL A   1      40.557  29.299  29.577  1.00  0.00    -0.014 A 
BRANCH  41  42
ATOM     42  C   UNL A   1      41.867  28.892  29.014  1.00  0.00     0.031 A 
ATOM     43  C   UNL A   1      42.993  29.884  28.917  1.00  0.00     0.074 A 
ATOM     44  C   UNL A   1      42.036  27.634  28.562  1.00  0.00     0.049 A 
ATOM     45  N   UNL A   1      44.205  29.718  28.452  1.00  0.00    -0.248 NA
ATOM     46  C   UNL A   1      42.711  31.252  29.380  1.00  0.00     0.031 C 
ATOM     47  C   UNL A   1      41.006  26.595  28.553  1.00  0.00     0.029 A 
ATOM     48  N   UNL A   1      43.136  27.019  28.023  1.00  0.00    -0.354 N 
ATOM     49  C   UNL A   1      44.824  30.956  28.556  1.00  0.00     0.074 A 
ATOM     50  C   UNL A   1      43.839  31.879  29.078  1.00  0.00     0.031 C 
ATOM     51  C   UNL A   1      41.531  25.462  28.059  1.00  0.00     0.029 A 
ATOM     52  C   UNL A   1      42.925  25.702  27.696  1.00  0.00     0.049 A 
ATOM     53  H   UNL A   1      43.995  27.478  27.883  1.00  0.00     0.167 HD
ATOM     54  C   UNL A   1      46.104  31.292  28.266  1.00  0.00     0.037 A 
ATOM     55  C   UNL A   1      43.763  24.790  27.173  1.00  0.00     0.037 A 
ATOM     56  C   UNL A   1      47.092  30.368  27.775  1.00  0.00     0.049 A 
ATOM     57  C   UNL A   1      45.186  25.180  26.884  1.00  0.00     0.074 A 
ATOM     58  C   UNL A   1      48.430  30.595  27.506  1.00  0.00     0.029 A 
ATOM     59  N   UNL A   1      46.846  29.035  27.479  1.00  0.00    -0.354 N 
ATOM     60  N   UNL A   1      45.777  26.338  27.051  1.00  0.00    -0.248 NA
ATOM     61  C   UNL A   1      46.063  24.129  26.348  1.00  0.00     0.031 C 
ATOM     62  C   UNL A   1      48.987  29.408  27.016  1.00  0.00     0.029 A 
ATOM     63  C   UNL A   1      48.004  28.431  27.017  1.00  0.00     0.049 A 
ATOM     64  H   UNL A   1      45.977  28.585  27.582  1.00  0.00     0.167 HD
ATOM     65  C   UNL A   1      47.096  26.152  26.661  1.00  0.00     0.074 A 
ATOM     66  C   UNL A   1      47.224  24.763  26.269  1.00  0.00     0.031 C 
ATOM     67  C   UNL A   1      48.112  27.049  26.630  1.00  0.00     0.037 A 
BRANCH  54  68
ATOM     68  C   UNL A   1      46.508  32.722  28.484  1.00  0.00     0.057 A 
ATOM     69  C   UNL A   1      47.006  33.168  29.714  1.00  0.00     0.134 A 
ATOM     70  C   UNL A   1      46.418  33.658  27.446  1.00  0.00     0.134 A 
ATOM     71  F   UNL A   1      47.104  32.325  30.754  1.00  0.00    -0.206 F 
ATOM     72  C   UNL A   1      47.375  34.499  29.914  1.00  0.00     0.040 A 
ATOM     73  C   UNL A   1      46.808  34.986  27.626  1.00  0.00     0.040 A 
ATOM     74  F   UNL A   1      45.954  33.296  26.240  1.00  0.00    -0.206 F 
ATOM     75  C   UNL A   1      47.281  35.412  28.865  1.00  0.00     0.006 A 
ENDBRANCH  54  68
BRANCH  55  76
ATOM     76  C   UNL A   1      43.292  23.406  26.924  1.00  0.00     0.057 A 
ATOM     77  C   UNL A   1      43.020  22.961  25.624  1.00  0.00     0.134 A 
ATOM     78  C   UNL A   1      43.099  22.499  27.971  1.00  0.00     0.134 A 
ATOM     79  F   UNL A   1      43.170  23.791  24.582  1.00  0.00    -0.206 F 
ATOM     80  C   UNL A   1      42.554  21.669  25.377  1.00  0.00     0.040 A 
ATOM     81  C   UNL A   1      42.655  21.197  27.737  1.00  0.00     0.040 A 
ATOM     82  F   UNL A   1      43.351  22.864  29.238  1.00  0.00    -0.206 F 
ATOM     83  C   UNL A   1      42.374  20.781  26.436  1.00  0.00     0.006 A 
ENDBRANCH  55  76
BRANCH  67  84
ATOM     84  C   UNL A   1      49.450  26.545  26.177  1.00  0.00     0.057 A 
ATOM     85  C   UNL A   1      49.912  26.753  24.871  1.00  0.00     0.134 A 
ATOM     86  C   UNL A   1      50.290  25.856  27.059  1.00  0.00     0.134 A 
ATOM     87  F   UNL A   1      49.148  27.394  23.973  1.00  0.00    -0.206 F 
ATOM     88  C   UNL A   1      51.152  26.267  24.451  1.00  0.00     0.040 A 
ATOM     89  C   UNL A   1      51.541  25.387  26.659  1.00  0.00     0.040 A 
ATOM     90  F   UNL A   1      49.910  25.630  28.326  1.00  0.00    -0.206 F 
ATOM     91  C   UNL A   1      51.972  25.586  25.348  1.00  0.00     0.006 A 
ENDBRANCH  67  84
ENDBRANCH  41  42
ENDBRANCH  33  36
ENDBRANCH  31  32
ENDBRANCH  30  31
ENDBRANCH  29  30
ENDBRANCH  28  29
ENDBRANCH   1  28
TORSDOF 18
ENDMDL
