MODEL 1
REMARK VINA RESULT:     -10.9      0.000      0.000
REMARK SMILES CC(C)(C[NH+]1CCC(C(N)=S)CC1)C(=O)NCCCCCCNC(=O)c1ccc(-c2c3nc(c(-c4c(F)cccc4F)c4ccc([nH]4)c(-c4c(F)cccc4F)c4nc(c(-c5c(F)cccc5F)c5ccc2[nH]5)C=C4)C=C3)cc1
REMARK SMILES IDX 18 1 17 2 16 3 14 4 15 5 2 7 1 8 3 9 4 10 5 11 6 12 13 13
REMARK SMILES IDX 7 15 12 16 8 17 9 18 11 19 10 20 19 23 20 24 21 25 22 26
REMARK SMILES IDX 23 27 24 28 25 30 26 31 27 32 79 33 28 34 78 35 29 36 30 37
REMARK SMILES IDX 31 38 72 39 32 40 77 41 71 42 73 43 33 44 76 45 70 46 69 47
REMARK SMILES IDX 34 49 60 50 43 51 59 52 44 53 47 54 58 55 74 56 45 57 46 58
REMARK SMILES IDX 57 60 75 61 48 62 35 63 36 64 41 65 37 66 38 67 40 68 42 69
REMARK SMILES IDX 39 70 61 71 62 72 67 73 63 74 64 75 66 76 68 77 65 78 49 79
REMARK SMILES IDX 50 80 55 81 51 82 52 83 54 84 56 85 53 86
REMARK H PARENT 16 6 5 14 10 21 10 22 23 29 73 48 47 59
REMARK Flexibility Score: inf
ROOT
ATOM      1  C   UNL A   1      33.551  28.864  26.718  1.00  0.00     0.021 C 
ENDROOT
BRANCH   1   2
ATOM      2  C   UNL A   1      33.360  27.373  26.451  1.00  0.00     0.116 C 
BRANCH   2   3
ATOM      3  N   UNL A   1      31.983  26.946  26.605  1.00  0.00    -0.355 N 
ATOM      4  C   UNL A   1      31.149  26.204  25.828  1.00  0.00     0.231 C 
ATOM      5  O   UNL A   1      30.048  25.949  26.329  1.00  0.00    -0.274 OA
ATOM      6  H   UNL A   1      31.568  27.257  27.442  1.00  0.00     0.163 HD
BRANCH   4   7
ATOM      7  C   UNL A   1      31.538  25.685  24.432  1.00  0.00     0.092 C 
ATOM      8  C   UNL A   1      31.784  26.887  23.487  1.00  0.00     0.027 C 
ATOM      9  C   UNL A   1      30.313  24.940  23.853  1.00  0.00     0.027 C 
BRANCH   7  10
ATOM     10  C   UNL A   1      32.808  24.779  24.426  1.00  0.00     0.278 C 
BRANCH  10  11
ATOM     11  N   UNL A   1      32.621  23.321  24.622  1.00  0.00    -0.334 N 
ATOM     12  C   UNL A   1      33.029  22.506  23.470  1.00  0.00     0.262 C 
ATOM     13  C   UNL A   1      33.321  22.868  25.836  1.00  0.00     0.262 C 
ATOM     14  H   UNL A   1      31.616  23.183  24.727  1.00  0.00     0.348 HD
ATOM     15  C   UNL A   1      32.700  21.031  23.676  1.00  0.00     0.072 C 
ATOM     16  C   UNL A   1      33.001  21.402  26.145  1.00  0.00     0.072 C 
ATOM     17  C   UNL A   1      33.335  20.492  24.959  1.00  0.00     0.058 C 
BRANCH  17  18
ATOM     18  C   UNL A   1      32.951  19.031  25.173  1.00  0.00     0.076 C 
ATOM     19  S   UNL A   1      32.627  17.925  23.965  1.00  0.00    -0.066 S 
BRANCH  18  20
ATOM     20  N   UNL A   1      32.935  18.607  26.471  1.00  0.00    -0.393 N 
ATOM     21  H   UNL A   1      33.649  18.887  27.088  1.00  0.00     0.157 HD
ATOM     22  H   UNL A   1      32.210  18.022  26.789  1.00  0.00     0.157 HD
ENDBRANCH  18  20
ENDBRANCH  17  18
ENDBRANCH  10  11
ENDBRANCH   7  10
ENDBRANCH   4   7
ENDBRANCH   2   3
ENDBRANCH   1   2
BRANCH   1  23
ATOM     23  C   UNL A   1      32.273  29.611  27.109  1.00  0.00     0.002 C 
BRANCH  23  24
ATOM     24  C   UNL A   1      31.793  30.635  26.077  1.00  0.00     0.002 C 
BRANCH  24  25
ATOM     25  C   UNL A   1      31.456  32.012  26.650  1.00  0.00     0.021 C 
BRANCH  25  26
ATOM     26  C   UNL A   1      32.632  32.716  27.314  1.00  0.00     0.116 C 
BRANCH  26  27
ATOM     27  N   UNL A   1      32.354  34.121  27.563  1.00  0.00    -0.352 N 
ATOM     28  C   UNL A   1      32.929  34.949  28.494  1.00  0.00     0.251 C 
ATOM     29  H   UNL A   1      31.665  34.531  26.991  1.00  0.00     0.163 HD
ATOM     30  O   UNL A   1      32.455  36.056  28.731  1.00  0.00    -0.269 OA
BRANCH  28  31
ATOM     31  C   UNL A   1      34.125  34.482  29.222  1.00  0.00     0.039 A 
ATOM     32  C   UNL A   1      33.974  33.876  30.471  1.00  0.00     0.014 A 
ATOM     33  C   UNL A   1      35.391  34.613  28.644  1.00  0.00     0.014 A 
ATOM     34  C   UNL A   1      35.093  33.350  31.120  1.00  0.00     0.010 A 
ATOM     35  C   UNL A   1      36.490  34.022  29.255  1.00  0.00     0.010 A 
ATOM     36  C   UNL A   1      36.354  33.394  30.503  1.00  0.00    -0.014 A 
BRANCH  36  37
ATOM     37  C   UNL A   1      37.562  32.820  31.148  1.00  0.00     0.031 A 
ATOM     38  C   UNL A   1      38.229  31.623  30.531  1.00  0.00     0.074 A 
ATOM     39  C   UNL A   1      38.004  33.315  32.320  1.00  0.00     0.049 A 
ATOM     40  N   UNL A   1      39.198  30.879  31.001  1.00  0.00    -0.248 NA
ATOM     41  C   UNL A   1      37.715  31.184  29.224  1.00  0.00     0.031 C 
ATOM     42  C   UNL A   1      37.428  34.456  33.033  1.00  0.00     0.029 A 
ATOM     43  N   UNL A   1      39.033  32.902  33.131  1.00  0.00    -0.354 N 
ATOM     44  C   UNL A   1      39.391  29.876  30.060  1.00  0.00     0.074 A 
ATOM     45  C   UNL A   1      38.404  30.071  29.022  1.00  0.00     0.031 C 
ATOM     46  C   UNL A   1      38.118  34.660  34.165  1.00  0.00     0.029 A 
ATOM     47  C   UNL A   1      39.154  33.638  34.284  1.00  0.00     0.049 A 
ATOM     48  H   UNL A   1      39.626  32.149  32.907  1.00  0.00     0.167 HD
ATOM     49  C   UNL A   1      40.322  28.893  30.051  1.00  0.00     0.037 A 
ATOM     50  C   UNL A   1      39.994  33.493  35.326  1.00  0.00     0.037 A 
ATOM     51  C   UNL A   1      41.317  28.717  31.075  1.00  0.00     0.049 A 
ATOM     52  C   UNL A   1      41.003  32.375  35.307  1.00  0.00     0.074 A 
ATOM     53  C   UNL A   1      42.334  27.780  31.137  1.00  0.00     0.029 A 
ATOM     54  N   UNL A   1      41.420  29.497  32.216  1.00  0.00    -0.354 N 
ATOM     55  N   UNL A   1      41.206  31.460  34.390  1.00  0.00    -0.248 NA
ATOM     56  C   UNL A   1      41.900  32.271  36.467  1.00  0.00     0.031 C 
ATOM     57  C   UNL A   1      43.022  27.964  32.341  1.00  0.00     0.029 A 
ATOM     58  C   UNL A   1      42.472  29.051  32.999  1.00  0.00     0.049 A 
ATOM     59  H   UNL A   1      40.833  30.256  32.439  1.00  0.00     0.167 HD
ATOM     60  C   UNL A   1      42.280  30.702  34.841  1.00  0.00     0.074 A 
ATOM     61  C   UNL A   1      42.684  31.263  36.112  1.00  0.00     0.031 C 
ATOM     62  C   UNL A   1      42.878  29.637  34.251  1.00  0.00     0.037 A 
BRANCH  49  63
ATOM     63  C   UNL A   1      40.302  27.930  28.898  1.00  0.00     0.057 A 
ATOM     64  C   UNL A   1      41.047  28.153  27.734  1.00  0.00     0.134 A 
ATOM     65  C   UNL A   1      39.546  26.752  28.964  1.00  0.00     0.134 A 
ATOM     66  F   UNL A   1      41.783  29.268  27.600  1.00  0.00    -0.206 F 
ATOM     67  C   UNL A   1      41.018  27.258  26.663  1.00  0.00     0.040 A 
ATOM     68  C   UNL A   1      39.533  25.833  27.912  1.00  0.00     0.040 A 
ATOM     69  F   UNL A   1      38.813  26.472  30.051  1.00  0.00    -0.206 F 
ATOM     70  C   UNL A   1      40.264  26.090  26.755  1.00  0.00     0.006 A 
ENDBRANCH  49  63
BRANCH  50  71
ATOM     71  C   UNL A   1      39.934  34.437  36.472  1.00  0.00     0.057 A 
ATOM     72  C   UNL A   1      40.648  35.642  36.452  1.00  0.00     0.134 A 
ATOM     73  C   UNL A   1      39.180  34.156  37.617  1.00  0.00     0.134 A 
ATOM     74  F   UNL A   1      41.404  35.959  35.390  1.00  0.00    -0.206 F 
ATOM     75  C   UNL A   1      40.633  36.521  37.535  1.00  0.00     0.040 A 
ATOM     76  C   UNL A   1      39.133  35.039  38.697  1.00  0.00     0.040 A 
ATOM     77  F   UNL A   1      38.466  33.023  37.698  1.00  0.00    -0.206 F 
ATOM     78  C   UNL A   1      39.870  36.221  38.662  1.00  0.00     0.006 A 
ENDBRANCH  50  71
BRANCH  62  79
ATOM     79  C   UNL A   1      44.076  29.047  34.937  1.00  0.00     0.057 A 
ATOM     80  C   UNL A   1      43.966  28.006  35.866  1.00  0.00     0.134 A 
ATOM     81  C   UNL A   1      45.365  29.487  34.606  1.00  0.00     0.134 A 
ATOM     82  F   UNL A   1      42.761  27.547  36.234  1.00  0.00    -0.206 F 
ATOM     83  C   UNL A   1      45.095  27.435  36.457  1.00  0.00     0.040 A 
ATOM     84  C   UNL A   1      46.502  28.905  35.168  1.00  0.00     0.040 A 
ATOM     85  F   UNL A   1      45.542  30.474  33.715  1.00  0.00    -0.206 F 
ATOM     86  C   UNL A   1      46.368  27.878  36.099  1.00  0.00     0.006 A 
ENDBRANCH  62  79
ENDBRANCH  36  37
ENDBRANCH  28  31
ENDBRANCH  26  27
ENDBRANCH  25  26
ENDBRANCH  24  25
ENDBRANCH  23  24
ENDBRANCH   1  23
TORSDOF 17
ENDMDL
MODEL 2
REMARK VINA RESULT:     -10.8      1.573      2.158
REMARK SMILES CC(C)(C[NH+]1CCC(C(N)=S)CC1)C(=O)NCCCCCCNC(=O)c1ccc(-c2c3nc(c(-c4c(F)cccc4F)c4ccc([nH]4)c(-c4c(F)cccc4F)c4nc(c(-c5c(F)cccc5F)c5ccc2[nH]5)C=C4)C=C3)cc1
REMARK SMILES IDX 18 1 17 2 16 3 14 4 15 5 2 7 1 8 3 9 4 10 5 11 6 12 13 13
REMARK SMILES IDX 7 15 12 16 8 17 9 18 11 19 10 20 19 23 20 24 21 25 22 26
REMARK SMILES IDX 23 27 24 28 25 30 26 31 27 32 79 33 28 34 78 35 29 36 30 37
REMARK SMILES IDX 31 38 72 39 32 40 77 41 71 42 73 43 33 44 76 45 70 46 69 47
REMARK SMILES IDX 34 49 60 50 43 51 59 52 44 53 47 54 58 55 74 56 45 57 46 58
REMARK SMILES IDX 57 60 75 61 48 62 35 63 36 64 41 65 37 66 38 67 40 68 42 69
REMARK SMILES IDX 39 70 61 71 62 72 67 73 63 74 64 75 66 76 68 77 65 78 49 79
REMARK SMILES IDX 50 80 55 81 51 82 52 83 54 84 56 85 53 86
REMARK H PARENT 16 6 5 14 10 21 10 22 23 29 73 48 47 59
REMARK Flexibility Score: inf
ROOT
ATOM      1  C   UNL A   1      32.656  28.199  26.590  1.00  0.00     0.021 C 
ENDROOT
BRANCH   1   2
ATOM      2  C   UNL A   1      31.867  27.183  25.766  1.00  0.00     0.116 C 
BRANCH   2   3
ATOM      3  N   UNL A   1      31.442  26.037  26.545  1.00  0.00    -0.355 N 
ATOM      4  C   UNL A   1      31.370  24.706  26.274  1.00  0.00     0.231 C 
ATOM      5  O   UNL A   1      31.048  23.989  27.228  1.00  0.00    -0.274 OA
ATOM      6  H   UNL A   1      31.146  26.269  27.454  1.00  0.00     0.163 HD
BRANCH   4   7
ATOM      7  C   UNL A   1      31.690  24.111  24.891  1.00  0.00     0.092 C 
ATOM      8  C   UNL A   1      30.615  24.566  23.873  1.00  0.00     0.027 C 
ATOM      9  C   UNL A   1      31.542  22.575  24.999  1.00  0.00     0.027 C 
BRANCH   7  10
ATOM     10  C   UNL A   1      33.095  24.507  24.341  1.00  0.00     0.278 C 
BRANCH  10  11
ATOM     11  N   UNL A   1      34.248  23.645  24.697  1.00  0.00    -0.334 N 
ATOM     12  C   UNL A   1      34.958  23.088  23.539  1.00  0.00     0.262 C 
ATOM     13  C   UNL A   1      35.189  24.372  25.566  1.00  0.00     0.262 C 
ATOM     14  H   UNL A   1      33.854  22.851  25.200  1.00  0.00     0.348 HD
ATOM     15  C   UNL A   1      36.052  22.113  23.962  1.00  0.00     0.072 C 
ATOM     16  C   UNL A   1      36.297  23.448  26.079  1.00  0.00     0.072 C 
ATOM     17  C   UNL A   1      37.042  22.769  24.924  1.00  0.00     0.058 C 
BRANCH  17  18
ATOM     18  C   UNL A   1      38.098  21.764  25.375  1.00  0.00     0.076 C 
ATOM     19  S   UNL A   1      39.405  22.102  26.357  1.00  0.00    -0.066 S 
BRANCH  18  20
ATOM     20  N   UNL A   1      37.898  20.475  24.972  1.00  0.00    -0.393 N 
ATOM     21  H   UNL A   1      37.767  19.765  25.641  1.00  0.00     0.157 HD
ATOM     22  H   UNL A   1      37.885  20.256  24.012  1.00  0.00     0.157 HD
ENDBRANCH  18  20
ENDBRANCH  17  18
ENDBRANCH  10  11
ENDBRANCH   7  10
ENDBRANCH   4   7
ENDBRANCH   2   3
ENDBRANCH   1   2
BRANCH   1  23
ATOM     23  C   UNL A   1      31.838  29.395  27.082  1.00  0.00     0.002 C 
BRANCH  23  24
ATOM     24  C   UNL A   1      31.786  30.575  26.108  1.00  0.00     0.002 C 
BRANCH  24  25
ATOM     25  C   UNL A   1      31.456  31.923  26.752  1.00  0.00     0.021 C 
BRANCH  25  26
ATOM     26  C   UNL A   1      32.653  32.624  27.380  1.00  0.00     0.116 C 
BRANCH  26  27
ATOM     27  N   UNL A   1      32.385  34.029  27.639  1.00  0.00    -0.352 N 
ATOM     28  C   UNL A   1      32.993  34.857  28.549  1.00  0.00     0.251 C 
ATOM     29  H   UNL A   1      31.676  34.439  27.092  1.00  0.00     0.163 HD
ATOM     30  O   UNL A   1      32.529  35.963  28.803  1.00  0.00    -0.269 OA
BRANCH  28  31
ATOM     31  C   UNL A   1      34.214  34.388  29.235  1.00  0.00     0.039 A 
ATOM     32  C   UNL A   1      34.101  33.728  30.460  1.00  0.00     0.014 A 
ATOM     33  C   UNL A   1      35.464  34.573  28.639  1.00  0.00     0.014 A 
ATOM     34  C   UNL A   1      35.244  33.203  31.066  1.00  0.00     0.010 A 
ATOM     35  C   UNL A   1      36.588  33.983  29.204  1.00  0.00     0.010 A 
ATOM     36  C   UNL A   1      36.492  33.301  30.427  1.00  0.00    -0.014 A 
BRANCH  36  37
ATOM     37  C   UNL A   1      37.725  32.730  31.025  1.00  0.00     0.031 A 
ATOM     38  C   UNL A   1      38.356  31.519  30.398  1.00  0.00     0.074 A 
ATOM     39  C   UNL A   1      38.223  33.241  32.167  1.00  0.00     0.049 A 
ATOM     40  N   UNL A   1      39.341  30.776  30.835  1.00  0.00    -0.248 NA
ATOM     41  C   UNL A   1      37.778  31.062  29.124  1.00  0.00     0.031 C 
ATOM     42  C   UNL A   1      37.688  34.397  32.887  1.00  0.00     0.029 A 
ATOM     43  N   UNL A   1      39.286  32.835  32.936  1.00  0.00    -0.354 N 
ATOM     44  C   UNL A   1      39.484  29.757  29.903  1.00  0.00     0.074 A 
ATOM     45  C   UNL A   1      38.451  29.942  28.908  1.00  0.00     0.031 C 
ATOM     46  C   UNL A   1      38.431  34.616  33.982  1.00  0.00     0.029 A 
ATOM     47  C   UNL A   1      39.465  33.589  34.070  1.00  0.00     0.049 A 
ATOM     48  H   UNL A   1      39.864  32.074  32.697  1.00  0.00     0.167 HD
ATOM     49  C   UNL A   1      40.408  28.767  29.867  1.00  0.00     0.037 A 
ATOM     50  C   UNL A   1      40.352  33.456  35.075  1.00  0.00     0.037 A 
ATOM     51  C   UNL A   1      41.449  28.602  30.847  1.00  0.00     0.049 A 
ATOM     52  C   UNL A   1      41.352  32.331  35.028  1.00  0.00     0.074 A 
ATOM     53  C   UNL A   1      42.461  27.660  30.877  1.00  0.00     0.029 A 
ATOM     54  N   UNL A   1      41.609  29.400  31.969  1.00  0.00    -0.354 N 
ATOM     55  N   UNL A   1      41.507  31.400  34.117  1.00  0.00    -0.248 NA
ATOM     56  C   UNL A   1      42.301  32.240  36.146  1.00  0.00     0.031 C 
ATOM     57  C   UNL A   1      43.206  27.858  32.045  1.00  0.00     0.029 A 
ATOM     58  C   UNL A   1      42.693  28.960  32.709  1.00  0.00     0.049 A 
ATOM     59  H   UNL A   1      41.037  30.166  32.206  1.00  0.00     0.167 HD
ATOM     60  C   UNL A   1      42.596  30.641  34.531  1.00  0.00     0.074 A 
ATOM     61  C   UNL A   1      43.062  31.221  35.772  1.00  0.00     0.031 C 
ATOM     62  C   UNL A   1      43.160  29.564  33.931  1.00  0.00     0.037 A 
BRANCH  49  63
ATOM     63  C   UNL A   1      40.329  27.786  28.733  1.00  0.00     0.057 A 
ATOM     64  C   UNL A   1      41.018  27.987  27.530  1.00  0.00     0.134 A 
ATOM     65  C   UNL A   1      39.574  26.613  28.854  1.00  0.00     0.134 A 
ATOM     66  F   UNL A   1      41.750  29.097  27.343  1.00  0.00    -0.206 F 
ATOM     67  C   UNL A   1      40.934  27.075  26.477  1.00  0.00     0.040 A 
ATOM     68  C   UNL A   1      39.507  25.677  27.820  1.00  0.00     0.040 A 
ATOM     69  F   UNL A   1      38.892  26.353  29.980  1.00  0.00    -0.206 F 
ATOM     70  C   UNL A   1      40.182  25.912  26.624  1.00  0.00     0.006 A 
ENDBRANCH  49  63
BRANCH  50  71
ATOM     71  C   UNL A   1      40.351  34.418  36.206  1.00  0.00     0.057 A 
ATOM     72  C   UNL A   1      39.572  34.191  37.347  1.00  0.00     0.134 A 
ATOM     73  C   UNL A   1      41.111  35.594  36.171  1.00  0.00     0.134 A 
ATOM     74  F   UNL A   1      38.807  33.091  37.431  1.00  0.00    -0.206 F 
ATOM     75  C   UNL A   1      39.530  35.104  38.400  1.00  0.00     0.040 A 
ATOM     76  C   UNL A   1      41.101  36.503  37.230  1.00  0.00     0.040 A 
ATOM     77  F   UNL A   1      41.886  35.869  35.111  1.00  0.00    -0.206 F 
ATOM     78  C   UNL A   1      40.300  36.264  38.345  1.00  0.00     0.006 A 
ENDBRANCH  50  71
BRANCH  62  79
ATOM     79  C   UNL A   1      44.385  28.977  34.571  1.00  0.00     0.057 A 
ATOM     80  C   UNL A   1      45.676  29.421  34.258  1.00  0.00     0.134 A 
ATOM     81  C   UNL A   1      44.261  27.998  35.566  1.00  0.00     0.134 A 
ATOM     82  F   UNL A   1      45.865  30.348  33.307  1.00  0.00    -0.206 F 
ATOM     83  C   UNL A   1      46.801  28.899  34.900  1.00  0.00     0.040 A 
ATOM     84  C   UNL A   1      45.375  27.489  36.234  1.00  0.00     0.040 A 
ATOM     85  F   UNL A   1      43.052  27.536  35.920  1.00  0.00    -0.206 F 
ATOM     86  C   UNL A   1      46.650  27.938  35.899  1.00  0.00     0.006 A 
ENDBRANCH  62  79
ENDBRANCH  36  37
ENDBRANCH  28  31
ENDBRANCH  26  27
ENDBRANCH  25  26
ENDBRANCH  24  25
ENDBRANCH  23  24
ENDBRANCH   1  23
TORSDOF 17
ENDMDL
MODEL 3
REMARK VINA RESULT:     -10.8      5.324     10.340
REMARK SMILES CC(C)(C[NH+]1CCC(C(N)=S)CC1)C(=O)NCCCCCCNC(=O)c1ccc(-c2c3nc(c(-c4c(F)cccc4F)c4ccc([nH]4)c(-c4c(F)cccc4F)c4nc(c(-c5c(F)cccc5F)c5ccc2[nH]5)C=C4)C=C3)cc1
REMARK SMILES IDX 18 1 17 2 16 3 14 4 15 5 2 7 1 8 3 9 4 10 5 11 6 12 13 13
REMARK SMILES IDX 7 15 12 16 8 17 9 18 11 19 10 20 19 23 20 24 21 25 22 26
REMARK SMILES IDX 23 27 24 28 25 30 26 31 27 32 79 33 28 34 78 35 29 36 30 37
REMARK SMILES IDX 31 38 72 39 32 40 77 41 71 42 73 43 33 44 76 45 70 46 69 47
REMARK SMILES IDX 34 49 60 50 43 51 59 52 44 53 47 54 58 55 74 56 45 57 46 58
REMARK SMILES IDX 57 60 75 61 48 62 35 63 36 64 41 65 37 66 38 67 40 68 42 69
REMARK SMILES IDX 39 70 61 71 62 72 67 73 63 74 64 75 66 76 68 77 65 78 49 79
REMARK SMILES IDX 50 80 55 81 51 82 52 83 54 84 56 85 53 86
REMARK H PARENT 16 6 5 14 10 21 10 22 23 29 73 48 47 59
REMARK Flexibility Score: inf
ROOT
ATOM      1  C   UNL A   1      34.064  21.319  24.779  1.00  0.00     0.021 C 
ENDROOT
BRANCH   1   2
ATOM      2  C   UNL A   1      34.246  22.675  25.458  1.00  0.00     0.116 C 
BRANCH   2   3
ATOM      3  N   UNL A   1      33.137  23.023  26.323  1.00  0.00    -0.355 N 
ATOM      4  C   UNL A   1      32.434  24.171  26.515  1.00  0.00     0.231 C 
ATOM      5  O   UNL A   1      31.467  24.078  27.278  1.00  0.00    -0.274 OA
ATOM      6  H   UNL A   1      32.832  22.277  26.888  1.00  0.00     0.163 HD
BRANCH   4   7
ATOM      7  C   UNL A   1      32.784  25.498  25.817  1.00  0.00     0.092 C 
ATOM      8  C   UNL A   1      34.323  25.632  25.708  1.00  0.00     0.027 C 
ATOM      9  C   UNL A   1      32.327  26.648  26.745  1.00  0.00     0.027 C 
BRANCH   7  10
ATOM     10  C   UNL A   1      32.170  25.644  24.389  1.00  0.00     0.278 C 
BRANCH  10  11
ATOM     11  N   UNL A   1      31.030  26.577  24.217  1.00  0.00    -0.334 N 
ATOM     12  C   UNL A   1      31.258  27.616  23.205  1.00  0.00     0.262 C 
ATOM     13  C   UNL A   1      29.795  25.834  23.911  1.00  0.00     0.262 C 
ATOM     14  H   UNL A   1      30.933  27.062  25.108  1.00  0.00     0.348 HD
ATOM     15  C   UNL A   1      30.110  28.619  23.157  1.00  0.00     0.072 C 
ATOM     16  C   UNL A   1      28.579  26.765  23.895  1.00  0.00     0.072 C 
ATOM     17  C   UNL A   1      28.771  27.923  22.910  1.00  0.00     0.058 C 
BRANCH  17  18
ATOM     18  C   UNL A   1      27.630  28.937  22.917  1.00  0.00     0.076 C 
ATOM     19  S   UNL A   1      27.778  30.567  22.590  1.00  0.00    -0.066 S 
BRANCH  18  20
ATOM     20  N   UNL A   1      26.387  28.427  23.158  1.00  0.00    -0.393 N 
ATOM     21  H   UNL A   1      25.731  28.953  23.670  1.00  0.00     0.157 HD
ATOM     22  H   UNL A   1      26.146  27.534  22.819  1.00  0.00     0.157 HD
ENDBRANCH  18  20
ENDBRANCH  17  18
ENDBRANCH  10  11
ENDBRANCH   7  10
ENDBRANCH   4   7
ENDBRANCH   2   3
ENDBRANCH   1   2
BRANCH   1  23
ATOM     23  C   UNL A   1      35.232  20.348  24.969  1.00  0.00     0.002 C 
BRANCH  23  24
ATOM     24  C   UNL A   1      36.613  21.010  24.984  1.00  0.00     0.002 C 
BRANCH  24  25
ATOM     25  C   UNL A   1      37.789  20.039  24.865  1.00  0.00     0.021 C 
BRANCH  25  26
ATOM     26  C   UNL A   1      38.985  20.397  25.737  1.00  0.00     0.116 C 
BRANCH  26  27
ATOM     27  N   UNL A   1      39.925  19.294  25.849  1.00  0.00    -0.352 N 
ATOM     28  C   UNL A   1      41.277  19.349  26.078  1.00  0.00     0.251 C 
ATOM     29  H   UNL A   1      39.543  18.392  25.748  1.00  0.00     0.163 HD
ATOM     30  O   UNL A   1      41.980  18.352  25.946  1.00  0.00    -0.269 OA
BRANCH  28  31
ATOM     31  C   UNL A   1      41.881  20.637  26.473  1.00  0.00     0.039 A 
ATOM     32  C   UNL A   1      42.257  21.549  25.485  1.00  0.00     0.014 A 
ATOM     33  C   UNL A   1      42.038  20.949  27.826  1.00  0.00     0.014 A 
ATOM     34  C   UNL A   1      42.744  22.804  25.857  1.00  0.00     0.010 A 
ATOM     35  C   UNL A   1      42.449  22.224  28.194  1.00  0.00     0.010 A 
ATOM     36  C   UNL A   1      42.815  23.161  27.214  1.00  0.00    -0.014 A 
BRANCH  36  37
ATOM     37  C   UNL A   1      43.299  24.495  27.649  1.00  0.00     0.031 A 
ATOM     38  C   UNL A   1      42.302  25.549  28.042  1.00  0.00     0.074 A 
ATOM     39  C   UNL A   1      44.613  24.785  27.608  1.00  0.00     0.049 A 
ATOM     40  N   UNL A   1      42.495  26.815  28.310  1.00  0.00    -0.248 NA
ATOM     41  C   UNL A   1      40.893  25.129  28.110  1.00  0.00     0.031 C 
ATOM     42  C   UNL A   1      45.677  23.859  27.221  1.00  0.00     0.029 A 
ATOM     43  N   UNL A   1      45.276  25.958  27.879  1.00  0.00    -0.354 N 
ATOM     44  C   UNL A   1      41.234  27.343  28.555  1.00  0.00     0.074 A 
ATOM     45  C   UNL A   1      40.280  26.277  28.350  1.00  0.00     0.031 C 
ATOM     46  C   UNL A   1      46.859  24.492  27.291  1.00  0.00     0.029 A 
ATOM     47  C   UNL A   1      46.634  25.881  27.682  1.00  0.00     0.049 A 
ATOM     48  H   UNL A   1      44.821  26.776  28.184  1.00  0.00     0.167 HD
ATOM     49  C   UNL A   1      40.904  28.599  28.939  1.00  0.00     0.037 A 
ATOM     50  C   UNL A   1      47.585  26.828  27.787  1.00  0.00     0.037 A 
ATOM     51  C   UNL A   1      41.860  29.650  29.166  1.00  0.00     0.049 A 
ATOM     52  C   UNL A   1      47.190  28.224  28.189  1.00  0.00     0.074 A 
ATOM     53  C   UNL A   1      41.632  30.944  29.600  1.00  0.00     0.029 A 
ATOM     54  N   UNL A   1      43.228  29.526  28.976  1.00  0.00    -0.354 N 
ATOM     55  N   UNL A   1      45.999  28.700  28.463  1.00  0.00    -0.248 NA
ATOM     56  C   UNL A   1      48.271  29.214  28.297  1.00  0.00     0.031 C 
ATOM     57  C   UNL A   1      42.858  31.617  29.626  1.00  0.00     0.029 A 
ATOM     58  C   UNL A   1      43.855  30.725  29.266  1.00  0.00     0.049 A 
ATOM     59  H   UNL A   1      43.686  28.706  28.679  1.00  0.00     0.167 HD
ATOM     60  C   UNL A   1      46.194  30.030  28.818  1.00  0.00     0.074 A 
ATOM     61  C   UNL A   1      47.616  30.284  28.724  1.00  0.00     0.031 C 
ATOM     62  C   UNL A   1      45.275  30.955  29.192  1.00  0.00     0.037 A 
BRANCH  49  63
ATOM     63  C   UNL A   1      39.446  28.903  29.134  1.00  0.00     0.057 A 
ATOM     64  C   UNL A   1      38.628  29.320  28.076  1.00  0.00     0.134 A 
ATOM     65  C   UNL A   1      38.846  28.751  30.391  1.00  0.00     0.134 A 
ATOM     66  F   UNL A   1      39.142  29.497  26.848  1.00  0.00    -0.206 F 
ATOM     67  C   UNL A   1      37.275  29.607  28.265  1.00  0.00     0.040 A 
ATOM     68  C   UNL A   1      37.486  29.005  30.586  1.00  0.00     0.040 A 
ATOM     69  F   UNL A   1      39.567  28.350  31.448  1.00  0.00    -0.206 F 
ATOM     70  C   UNL A   1      36.700  29.442  29.523  1.00  0.00     0.006 A 
ENDBRANCH  49  63
BRANCH  50  71
ATOM     71  C   UNL A   1      49.007  26.490  27.526  1.00  0.00     0.057 A 
ATOM     72  C   UNL A   1      49.525  26.504  26.225  1.00  0.00     0.134 A 
ATOM     73  C   UNL A   1      49.880  26.132  28.562  1.00  0.00     0.134 A 
ATOM     74  F   UNL A   1      48.734  26.821  25.189  1.00  0.00    -0.206 F 
ATOM     75  C   UNL A   1      50.849  26.152  25.959  1.00  0.00     0.040 A 
ATOM     76  C   UNL A   1      51.214  25.805  28.313  1.00  0.00     0.040 A 
ATOM     77  F   UNL A   1      49.450  26.108  29.831  1.00  0.00    -0.206 F 
ATOM     78  C   UNL A   1      51.699  25.805  27.007  1.00  0.00     0.006 A 
ENDBRANCH  50  71
BRANCH  62  79
ATOM     79  C   UNL A   1      45.780  32.311  29.593  1.00  0.00     0.057 A 
ATOM     80  C   UNL A   1      46.348  32.554  30.849  1.00  0.00     0.134 A 
ATOM     81  C   UNL A   1      45.757  33.371  28.676  1.00  0.00     0.134 A 
ATOM     82  F   UNL A   1      46.391  31.586  31.776  1.00  0.00    -0.206 F 
ATOM     83  C   UNL A   1      46.859  33.809  31.186  1.00  0.00     0.040 A 
ATOM     84  C   UNL A   1      46.290  34.621  28.991  1.00  0.00     0.040 A 
ATOM     85  F   UNL A   1      45.236  33.202  27.451  1.00  0.00    -0.206 F 
ATOM     86  C   UNL A   1      46.840  34.844  30.251  1.00  0.00     0.006 A 
ENDBRANCH  62  79
ENDBRANCH  36  37
ENDBRANCH  28  31
ENDBRANCH  26  27
ENDBRANCH  25  26
ENDBRANCH  24  25
ENDBRANCH  23  24
ENDBRANCH   1  23
TORSDOF 17
ENDMDL
