MODEL 1
REMARK VINA RESULT:     -11.4      0.000      0.000
REMARK SMILES CC(C)C[C@H](CNC(=O)c1ccc(O)cc1O)C(=O)NCCCCCCNC(=O)c1ccc(-c2c3nc(c(-c4c(F)cccc4F)c4ccc([nH]4)c(-c4c(F)cccc4F)c4nc(c(-c5c(F)cccc5F)c5ccc2[nH]5)C=C4)C=C3)cc1
REMARK SMILES IDX 22 1 21 2 20 3 18 4 19 5 5 7 4 8 2 9 1 10 3 11 6 12 7 13
REMARK SMILES IDX 8 14 9 16 10 17 11 18 16 19 12 20 15 21 13 22 17 23 14 25
REMARK SMILES IDX 23 27 24 28 25 29 26 30 27 31 28 32 29 34 30 35 31 36 83 37
REMARK SMILES IDX 32 38 82 39 33 40 34 41 35 42 76 43 36 44 81 45 75 46 77 47
REMARK SMILES IDX 37 48 80 49 74 50 73 51 38 53 64 54 47 55 63 56 48 57 51 58
REMARK SMILES IDX 62 59 78 60 49 61 50 62 61 64 79 65 52 66 39 67 40 68 45 69
REMARK SMILES IDX 41 70 42 71 44 72 46 73 43 74 65 75 66 76 71 77 67 78 68 79
REMARK SMILES IDX 70 80 72 81 69 82 53 83 54 84 59 85 55 86 56 87 58 88 60 89
REMARK SMILES IDX 57 90
REMARK H PARENT 20 6 7 15 17 24 14 26 27 33 77 52 51 63
REMARK Flexibility Score: inf
ROOT
ATOM      1  C   UNL A   1      31.735  28.410  27.352  1.00  0.00     0.021 C 
ENDROOT
BRANCH   1   2
ATOM      2  C   UNL A   1      32.215  27.285  26.437  1.00  0.00     0.116 C 
BRANCH   2   3
ATOM      3  N   UNL A   1      31.445  26.074  26.644  1.00  0.00    -0.356 N 
ATOM      4  C   UNL A   1      30.695  25.340  25.779  1.00  0.00     0.224 C 
ATOM      5  O   UNL A   1      30.060  24.388  26.236  1.00  0.00    -0.275 OA
ATOM      6  H   UNL A   1      31.469  25.725  27.564  1.00  0.00     0.163 HD
BRANCH   4   7
ATOM      7  C   UNL A   1      30.650  25.660  24.291  1.00  0.00     0.098 C 
BRANCH   7   8
ATOM      8  C   UNL A   1      29.524  26.654  23.935  1.00  0.00     0.018 C 
BRANCH   8   9
ATOM      9  C   UNL A   1      30.005  28.083  23.599  1.00  0.00    -0.017 C 
ATOM     10  C   UNL A   1      31.338  28.085  22.848  1.00  0.00     0.007 C 
ATOM     11  C   UNL A   1      28.942  28.805  22.768  1.00  0.00     0.007 C 
ENDBRANCH   8   9
ENDBRANCH   7   8
BRANCH   7  12
ATOM     12  C   UNL A   1      30.716  24.356  23.467  1.00  0.00     0.129 C 
BRANCH  12  13
ATOM     13  N   UNL A   1      31.895  24.228  22.619  1.00  0.00    -0.351 N 
ATOM     14  C   UNL A   1      32.964  23.380  22.742  1.00  0.00     0.255 C 
ATOM     15  H   UNL A   1      31.927  24.838  21.847  1.00  0.00     0.163 HD
ATOM     16  O   UNL A   1      34.003  23.605  22.126  1.00  0.00    -0.269 OA
BRANCH  14  17
ATOM     17  C   UNL A   1      32.914  22.222  23.653  1.00  0.00     0.081 A 
ATOM     18  C   UNL A   1      33.389  22.321  24.968  1.00  0.00     0.021 A 
ATOM     19  C   UNL A   1      32.345  21.024  23.207  1.00  0.00     0.132 A 
ATOM     20  C   UNL A   1      33.367  21.203  25.803  1.00  0.00     0.047 A 
ATOM     21  C   UNL A   1      32.332  19.905  24.033  1.00  0.00     0.093 A 
ATOM     22  C   UNL A   1      32.851  20.001  25.321  1.00  0.00     0.119 A 
BRANCH  19  23
ATOM     23  O   UNL A   1      31.781  20.892  21.965  1.00  0.00    -0.507 OA
ATOM     24  H   UNL A   1      32.328  20.815  21.208  1.00  0.00     0.293 HD
ENDBRANCH  19  23
BRANCH  22  25
ATOM     25  O   UNL A   1      32.827  18.882  26.100  1.00  0.00    -0.508 OA
ATOM     26  H   UNL A   1      33.629  18.480  26.368  1.00  0.00     0.293 HD
ENDBRANCH  22  25
ENDBRANCH  14  17
ENDBRANCH  12  13
ENDBRANCH   7  12
ENDBRANCH   4   7
ENDBRANCH   2   3
ENDBRANCH   1   2
BRANCH   1  27
ATOM     27  C   UNL A   1      32.325  29.785  27.025  1.00  0.00     0.002 C 
BRANCH  27  28
ATOM     28  C   UNL A   1      31.485  30.647  26.078  1.00  0.00     0.002 C 
BRANCH  28  29
ATOM     29  C   UNL A   1      31.319  32.110  26.498  1.00  0.00     0.021 C 
BRANCH  29  30
ATOM     30  C   UNL A   1      32.507  32.701  27.251  1.00  0.00     0.116 C 
BRANCH  30  31
ATOM     31  N   UNL A   1      32.291  34.088  27.621  1.00  0.00    -0.352 N 
ATOM     32  C   UNL A   1      32.950  34.848  28.552  1.00  0.00     0.251 C 
ATOM     33  H   UNL A   1      31.569  34.548  27.135  1.00  0.00     0.163 HD
ATOM     34  O   UNL A   1      32.526  35.961  28.856  1.00  0.00    -0.269 OA
BRANCH  32  35
ATOM     35  C   UNL A   1      34.164  34.322  29.210  1.00  0.00     0.039 A 
ATOM     36  C   UNL A   1      34.038  33.684  30.447  1.00  0.00     0.014 A 
ATOM     37  C   UNL A   1      35.423  34.468  28.619  1.00  0.00     0.014 A 
ATOM     38  C   UNL A   1      35.168  33.147  31.068  1.00  0.00     0.010 A 
ATOM     39  C   UNL A   1      36.538  33.878  29.209  1.00  0.00     0.010 A 
ATOM     40  C   UNL A   1      36.422  33.218  30.442  1.00  0.00    -0.014 A 
BRANCH  40  41
ATOM     41  C   UNL A   1      37.628  32.622  31.069  1.00  0.00     0.031 A 
ATOM     42  C   UNL A   1      38.284  31.421  30.444  1.00  0.00     0.074 A 
ATOM     43  C   UNL A   1      38.100  33.125  32.225  1.00  0.00     0.049 A 
ATOM     44  N   UNL A   1      39.288  30.705  30.883  1.00  0.00    -0.248 NA
ATOM     45  C   UNL A   1      37.719  30.946  29.170  1.00  0.00     0.031 C 
ATOM     46  C   UNL A   1      37.530  34.262  32.950  1.00  0.00     0.029 A 
ATOM     47  N   UNL A   1      39.161  32.734  33.003  1.00  0.00    -0.354 N 
ATOM     48  C   UNL A   1      39.468  29.694  29.948  1.00  0.00     0.074 A 
ATOM     49  C   UNL A   1      38.439  29.857  28.944  1.00  0.00     0.031 C 
ATOM     50  C   UNL A   1      38.255  34.485  34.060  1.00  0.00     0.029 A 
ATOM     51  C   UNL A   1      39.318  33.488  34.142  1.00  0.00     0.049 A 
ATOM     52  H   UNL A   1      39.754  31.984  32.768  1.00  0.00     0.167 HD
ATOM     53  C   UNL A   1      40.419  28.731  29.916  1.00  0.00     0.037 A 
ATOM     54  C   UNL A   1      40.212  33.379  35.142  1.00  0.00     0.037 A 
ATOM     55  C   UNL A   1      41.459  28.585  30.901  1.00  0.00     0.049 A 
ATOM     56  C   UNL A   1      41.257  32.300  35.080  1.00  0.00     0.074 A 
ATOM     57  C   UNL A   1      42.489  27.662  30.936  1.00  0.00     0.029 A 
ATOM     58  N   UNL A   1      41.603  29.390  32.019  1.00  0.00    -0.354 N 
ATOM     59  N   UNL A   1      41.444  31.380  34.165  1.00  0.00    -0.248 NA
ATOM     60  C   UNL A   1      42.224  32.249  36.187  1.00  0.00     0.031 C 
ATOM     61  C   UNL A   1      43.242  27.890  32.092  1.00  0.00     0.029 A 
ATOM     62  C   UNL A   1      42.703  28.980  32.756  1.00  0.00     0.049 A 
ATOM     63  H   UNL A   1      41.012  30.141  32.256  1.00  0.00     0.167 HD
ATOM     64  C   UNL A   1      42.562  30.664  34.569  1.00  0.00     0.074 A 
ATOM     65  C   UNL A   1      43.021  31.263  35.805  1.00  0.00     0.031 C 
ATOM     66  C   UNL A   1      43.156  29.602  33.972  1.00  0.00     0.037 A 
BRANCH  53  67
ATOM     67  C   UNL A   1      40.391  27.767  28.767  1.00  0.00     0.057 A 
ATOM     68  C   UNL A   1      41.142  27.988  27.606  1.00  0.00     0.134 A 
ATOM     69  C   UNL A   1      39.646  26.583  28.841  1.00  0.00     0.134 A 
ATOM     70  F   UNL A   1      41.866  29.109  27.469  1.00  0.00    -0.206 F 
ATOM     71  C   UNL A   1      41.141  27.075  26.551  1.00  0.00     0.040 A 
ATOM     72  C   UNL A   1      39.655  25.651  27.801  1.00  0.00     0.040 A 
ATOM     73  F   UNL A   1      38.908  26.308  29.927  1.00  0.00    -0.206 F 
ATOM     74  C   UNL A   1      40.402  25.898  26.651  1.00  0.00     0.006 A 
ENDBRANCH  53  67
BRANCH  54  75
ATOM     75  C   UNL A   1      40.173  34.324  36.286  1.00  0.00     0.057 A 
ATOM     76  C   UNL A   1      39.402  34.053  37.422  1.00  0.00     0.134 A 
ATOM     77  C   UNL A   1      40.881  35.531  36.260  1.00  0.00     0.134 A 
ATOM     78  F   UNL A   1      38.687  32.921  37.497  1.00  0.00    -0.206 F 
ATOM     79  C   UNL A   1      39.312  34.960  38.479  1.00  0.00     0.040 A 
ATOM     80  C   UNL A   1      40.821  36.436  37.321  1.00  0.00     0.040 A 
ATOM     81  F   UNL A   1      41.645  35.846  35.204  1.00  0.00    -0.206 F 
ATOM     82  C   UNL A   1      40.026  36.155  38.431  1.00  0.00     0.006 A 
ENDBRANCH  54  75
BRANCH  66  83
ATOM     83  C   UNL A   1      44.390  29.051  34.621  1.00  0.00     0.057 A 
ATOM     84  C   UNL A   1      45.669  29.518  34.294  1.00  0.00     0.134 A 
ATOM     85  C   UNL A   1      44.292  28.069  35.615  1.00  0.00     0.134 A 
ATOM     86  F   UNL A   1      45.830  30.449  33.341  1.00  0.00    -0.206 F 
ATOM     87  C   UNL A   1      46.810  29.011  34.917  1.00  0.00     0.040 A 
ATOM     88  C   UNL A   1      45.424  27.573  36.262  1.00  0.00     0.040 A 
ATOM     89  F   UNL A   1      43.095  27.587  35.981  1.00  0.00    -0.206 F 
ATOM     90  C   UNL A   1      46.688  28.041  35.909  1.00  0.00     0.006 A 
ENDBRANCH  66  83
ENDBRANCH  40  41
ENDBRANCH  32  35
ENDBRANCH  30  31
ENDBRANCH  29  30
ENDBRANCH  28  29
ENDBRANCH  27  28
ENDBRANCH   1  27
TORSDOF 20
ENDMDL
MODEL 2
REMARK VINA RESULT:     -11.3      4.151      9.424
REMARK SMILES CC(C)C[C@H](CNC(=O)c1ccc(O)cc1O)C(=O)NCCCCCCNC(=O)c1ccc(-c2c3nc(c(-c4c(F)cccc4F)c4ccc([nH]4)c(-c4c(F)cccc4F)c4nc(c(-c5c(F)cccc5F)c5ccc2[nH]5)C=C4)C=C3)cc1
REMARK SMILES IDX 22 1 21 2 20 3 18 4 19 5 5 7 4 8 2 9 1 10 3 11 6 12 7 13
REMARK SMILES IDX 8 14 9 16 10 17 11 18 16 19 12 20 15 21 13 22 17 23 14 25
REMARK SMILES IDX 23 27 24 28 25 29 26 30 27 31 28 32 29 34 30 35 31 36 83 37
REMARK SMILES IDX 32 38 82 39 33 40 34 41 35 42 76 43 36 44 81 45 75 46 77 47
REMARK SMILES IDX 37 48 80 49 74 50 73 51 38 53 64 54 47 55 63 56 48 57 51 58
REMARK SMILES IDX 62 59 78 60 49 61 50 62 61 64 79 65 52 66 39 67 40 68 45 69
REMARK SMILES IDX 41 70 42 71 44 72 46 73 43 74 65 75 66 76 71 77 67 78 68 79
REMARK SMILES IDX 70 80 72 81 69 82 53 83 54 84 59 85 55 86 56 87 58 88 60 89
REMARK SMILES IDX 57 90
REMARK H PARENT 20 6 7 15 17 24 14 26 27 33 77 52 51 63
REMARK Flexibility Score: inf
ROOT
ATOM      1  C   UNL A   1      34.244  19.999  24.997  1.00  0.00     0.021 C 
ENDROOT
BRANCH   1   2
ATOM      2  C   UNL A   1      32.846  20.568  24.763  1.00  0.00     0.116 C 
BRANCH   2   3
ATOM      3  N   UNL A   1      32.335  21.214  25.956  1.00  0.00    -0.356 N 
ATOM      4  C   UNL A   1      32.049  22.520  26.205  1.00  0.00     0.224 C 
ATOM      5  O   UNL A   1      31.705  22.825  27.348  1.00  0.00    -0.275 OA
ATOM      6  H   UNL A   1      32.167  20.607  26.711  1.00  0.00     0.163 HD
BRANCH   4   7
ATOM      7  C   UNL A   1      32.127  23.578  25.111  1.00  0.00     0.098 C 
BRANCH   7   8
ATOM      8  C   UNL A   1      33.480  24.321  25.103  1.00  0.00     0.018 C 
BRANCH   8   9
ATOM      9  C   UNL A   1      34.123  24.479  23.708  1.00  0.00    -0.017 C 
ATOM     10  C   UNL A   1      33.826  23.289  22.793  1.00  0.00     0.007 C 
ATOM     11  C   UNL A   1      33.626  25.771  23.053  1.00  0.00     0.007 C 
ENDBRANCH   8   9
ENDBRANCH   7   8
BRANCH   7  12
ATOM     12  C   UNL A   1      30.852  24.449  25.126  1.00  0.00     0.129 C 
BRANCH  12  13
ATOM     13  N   UNL A   1      30.744  25.352  26.265  1.00  0.00    -0.351 N 
ATOM     14  C   UNL A   1      30.940  26.707  26.320  1.00  0.00     0.255 C 
ATOM     15  H   UNL A   1      30.493  24.927  27.117  1.00  0.00     0.163 HD
ATOM     16  O   UNL A   1      31.104  27.262  27.404  1.00  0.00    -0.269 OA
BRANCH  14  17
ATOM     17  C   UNL A   1      31.019  27.513  25.089  1.00  0.00     0.081 A 
ATOM     18  C   UNL A   1      30.058  27.375  24.077  1.00  0.00     0.021 A 
ATOM     19  C   UNL A   1      32.043  28.456  24.952  1.00  0.00     0.132 A 
ATOM     20  C   UNL A   1      30.171  28.122  22.903  1.00  0.00     0.047 A 
ATOM     21  C   UNL A   1      32.165  29.192  23.778  1.00  0.00     0.093 A 
ATOM     22  C   UNL A   1      31.232  29.013  22.760  1.00  0.00     0.119 A 
BRANCH  19  23
ATOM     23  O   UNL A   1      32.958  28.702  25.942  1.00  0.00    -0.507 OA
ATOM     24  H   UNL A   1      33.817  28.333  25.888  1.00  0.00     0.293 HD
ENDBRANCH  19  23
BRANCH  22  25
ATOM     25  O   UNL A   1      31.387  29.748  21.622  1.00  0.00    -0.508 OA
ATOM     26  H   UNL A   1      31.165  30.658  21.617  1.00  0.00     0.293 HD
ENDBRANCH  22  25
ENDBRANCH  14  17
ENDBRANCH  12  13
ENDBRANCH   7  12
ENDBRANCH   4   7
ENDBRANCH   2   3
ENDBRANCH   1   2
BRANCH   1  27
ATOM     27  C   UNL A   1      35.289  21.040  25.408  1.00  0.00     0.002 C 
BRANCH  27  28
ATOM     28  C   UNL A   1      36.553  21.073  24.542  1.00  0.00     0.002 C 
BRANCH  28  29
ATOM     29  C   UNL A   1      37.584  19.985  24.850  1.00  0.00     0.021 C 
BRANCH  29  30
ATOM     30  C   UNL A   1      38.755  20.436  25.718  1.00  0.00     0.116 C 
BRANCH  30  31
ATOM     31  N   UNL A   1      39.839  19.469  25.730  1.00  0.00    -0.352 N 
ATOM     32  C   UNL A   1      41.161  19.655  26.039  1.00  0.00     0.251 C 
ATOM     33  H   UNL A   1      39.589  18.551  25.479  1.00  0.00     0.163 HD
ATOM     34  O   UNL A   1      41.976  18.758  25.836  1.00  0.00    -0.269 OA
BRANCH  32  35
ATOM     35  C   UNL A   1      41.614  20.944  26.602  1.00  0.00     0.039 A 
ATOM     36  C   UNL A   1      42.191  21.887  25.747  1.00  0.00     0.014 A 
ATOM     37  C   UNL A   1      41.486  21.218  27.967  1.00  0.00     0.014 A 
ATOM     38  C   UNL A   1      42.592  23.126  26.251  1.00  0.00     0.010 A 
ATOM     39  C   UNL A   1      41.829  22.476  28.456  1.00  0.00     0.010 A 
ATOM     40  C   UNL A   1      42.391  23.439  27.605  1.00  0.00    -0.014 A 
BRANCH  40  41
ATOM     41  C   UNL A   1      42.777  24.763  28.152  1.00  0.00     0.031 A 
ATOM     42  C   UNL A   1      41.732  25.824  28.361  1.00  0.00     0.074 A 
ATOM     43  C   UNL A   1      44.072  25.030  28.410  1.00  0.00     0.049 A 
ATOM     44  N   UNL A   1      41.880  27.067  28.745  1.00  0.00    -0.248 NA
ATOM     45  C   UNL A   1      40.338  25.445  28.076  1.00  0.00     0.031 C 
ATOM     46  C   UNL A   1      45.185  24.099  28.213  1.00  0.00     0.029 A 
ATOM     47  N   UNL A   1      44.673  26.170  28.880  1.00  0.00    -0.354 N 
ATOM     48  C   UNL A   1      40.605  27.618  28.737  1.00  0.00     0.074 A 
ATOM     49  C   UNL A   1      39.702  26.592  28.263  1.00  0.00     0.031 C 
ATOM     50  C   UNL A   1      46.331  24.701  28.572  1.00  0.00     0.029 A 
ATOM     51  C   UNL A   1      46.039  26.068  28.991  1.00  0.00     0.049 A 
ATOM     52  H   UNL A   1      44.174  26.985  29.115  1.00  0.00     0.167 HD
ATOM     53  C   UNL A   1      40.218  28.860  29.114  1.00  0.00     0.037 A 
ATOM     54  C   UNL A   1      46.952  26.978  29.378  1.00  0.00     0.037 A 
ATOM     55  C   UNL A   1      41.113  29.872  29.611  1.00  0.00     0.049 A 
ATOM     56  C   UNL A   1      46.494  28.350  29.791  1.00  0.00     0.074 A 
ATOM     57  C   UNL A   1      40.811  31.149  30.051  1.00  0.00     0.029 A 
ATOM     58  N   UNL A   1      42.483  29.717  29.741  1.00  0.00    -0.354 N 
ATOM     59  N   UNL A   1      45.279  28.842  29.823  1.00  0.00    -0.248 NA
ATOM     60  C   UNL A   1      47.534  29.291  30.232  1.00  0.00     0.031 C 
ATOM     61  C   UNL A   1      42.004  31.778  30.421  1.00  0.00     0.029 A 
ATOM     62  C   UNL A   1      43.043  30.878  30.248  1.00  0.00     0.049 A 
ATOM     63  H   UNL A   1      42.986  28.903  29.506  1.00  0.00     0.167 HD
ATOM     64  C   UNL A   1      45.406  30.135  30.313  1.00  0.00     0.074 A 
ATOM     65  C   UNL A   1      46.814  30.348  30.578  1.00  0.00     0.031 C 
ATOM     66  C   UNL A   1      44.443  31.064  30.524  1.00  0.00     0.037 A 
BRANCH  53  67
ATOM     67  C   UNL A   1      38.758  29.189  29.020  1.00  0.00     0.057 A 
ATOM     68  C   UNL A   1      38.159  29.526  27.800  1.00  0.00     0.134 A 
ATOM     69  C   UNL A   1      37.932  29.121  30.149  1.00  0.00     0.134 A 
ATOM     70  F   UNL A   1      38.898  29.622  26.684  1.00  0.00    -0.206 F 
ATOM     71  C   UNL A   1      36.794  29.801  27.707  1.00  0.00     0.040 A 
ATOM     72  C   UNL A   1      36.560  29.370  30.065  1.00  0.00     0.040 A 
ATOM     73  F   UNL A   1      38.441  28.799  31.347  1.00  0.00    -0.206 F 
ATOM     74  C   UNL A   1      35.989  29.714  28.842  1.00  0.00     0.006 A 
ENDBRANCH  53  67
BRANCH  54  75
ATOM     75  C   UNL A   1      48.394  26.626  29.409  1.00  0.00     0.057 A 
ATOM     76  C   UNL A   1      49.237  26.932  28.334  1.00  0.00     0.134 A 
ATOM     77  C   UNL A   1      48.957  25.950  30.498  1.00  0.00     0.134 A 
ATOM     78  F   UNL A   1      48.750  27.561  27.254  1.00  0.00    -0.206 F 
ATOM     79  C   UNL A   1      50.580  26.555  28.327  1.00  0.00     0.040 A 
ATOM     80  C   UNL A   1      50.306  25.590  30.516  1.00  0.00     0.040 A 
ATOM     81  F   UNL A   1      48.205  25.636  31.563  1.00  0.00    -0.206 F 
ATOM     82  C   UNL A   1      51.118  25.884  29.423  1.00  0.00     0.006 A 
ENDBRANCH  54  75
BRANCH  66  83
ATOM     83  C   UNL A   1      44.873  32.376  31.109  1.00  0.00     0.057 A 
ATOM     84  C   UNL A   1      45.232  33.463  30.303  1.00  0.00     0.134 A 
ATOM     85  C   UNL A   1      44.888  32.565  32.497  1.00  0.00     0.134 A 
ATOM     86  F   UNL A   1      45.249  33.342  28.966  1.00  0.00    -0.206 F 
ATOM     87  C   UNL A   1      45.613  34.686  30.857  1.00  0.00     0.040 A 
ATOM     88  C   UNL A   1      45.244  33.790  33.062  1.00  0.00     0.040 A 
ATOM     89  F   UNL A   1      44.546  31.566  33.324  1.00  0.00    -0.206 F 
ATOM     90  C   UNL A   1      45.613  34.853  32.240  1.00  0.00     0.006 A 
ENDBRANCH  66  83
ENDBRANCH  40  41
ENDBRANCH  32  35
ENDBRANCH  30  31
ENDBRANCH  29  30
ENDBRANCH  28  29
ENDBRANCH  27  28
ENDBRANCH   1  27
TORSDOF 20
ENDMDL
MODEL 3
REMARK VINA RESULT:     -11.1      4.949     10.127
REMARK SMILES CC(C)C[C@H](CNC(=O)c1ccc(O)cc1O)C(=O)NCCCCCCNC(=O)c1ccc(-c2c3nc(c(-c4c(F)cccc4F)c4ccc([nH]4)c(-c4c(F)cccc4F)c4nc(c(-c5c(F)cccc5F)c5ccc2[nH]5)C=C4)C=C3)cc1
REMARK SMILES IDX 22 1 21 2 20 3 18 4 19 5 5 7 4 8 2 9 1 10 3 11 6 12 7 13
REMARK SMILES IDX 8 14 9 16 10 17 11 18 16 19 12 20 15 21 13 22 17 23 14 25
REMARK SMILES IDX 23 27 24 28 25 29 26 30 27 31 28 32 29 34 30 35 31 36 83 37
REMARK SMILES IDX 32 38 82 39 33 40 34 41 35 42 76 43 36 44 81 45 75 46 77 47
REMARK SMILES IDX 37 48 80 49 74 50 73 51 38 53 64 54 47 55 63 56 48 57 51 58
REMARK SMILES IDX 62 59 78 60 49 61 50 62 61 64 79 65 52 66 39 67 40 68 45 69
REMARK SMILES IDX 41 70 42 71 44 72 46 73 43 74 65 75 66 76 71 77 67 78 68 79
REMARK SMILES IDX 70 80 72 81 69 82 53 83 54 84 59 85 55 86 56 87 58 88 60 89
REMARK SMILES IDX 57 90
REMARK H PARENT 20 6 7 15 17 24 14 26 27 33 77 52 51 63
REMARK Flexibility Score: inf
ROOT
ATOM      1  C   UNL A   1      36.568  23.277  24.986  1.00  0.00     0.021 C 
ENDROOT
BRANCH   1   2
ATOM      2  C   UNL A   1      35.191  23.861  24.679  1.00  0.00     0.116 C 
BRANCH   2   3
ATOM      3  N   UNL A   1      34.737  23.471  23.359  1.00  0.00    -0.356 N 
ATOM      4  C   UNL A   1      33.528  23.623  22.756  1.00  0.00     0.224 C 
ATOM      5  O   UNL A   1      33.374  23.116  21.643  1.00  0.00    -0.275 OA
ATOM      6  H   UNL A   1      35.417  23.023  22.807  1.00  0.00     0.163 HD
BRANCH   4   7
ATOM      7  C   UNL A   1      32.399  24.408  23.412  1.00  0.00     0.098 C 
BRANCH   7   8
ATOM      8  C   UNL A   1      31.305  23.491  23.999  1.00  0.00     0.018 C 
BRANCH   8   9
ATOM      9  C   UNL A   1      30.887  23.827  25.447  1.00  0.00    -0.017 C 
ATOM     10  C   UNL A   1      30.644  22.573  26.288  1.00  0.00     0.007 C 
ATOM     11  C   UNL A   1      31.964  24.693  26.108  1.00  0.00     0.007 C 
ENDBRANCH   8   9
ENDBRANCH   7   8
BRANCH   7  12
ATOM     12  C   UNL A   1      31.931  25.543  22.477  1.00  0.00     0.129 C 
BRANCH  12  13
ATOM     13  N   UNL A   1      33.005  26.350  21.910  1.00  0.00    -0.351 N 
ATOM     14  C   UNL A   1      33.552  27.516  22.377  1.00  0.00     0.255 C 
ATOM     15  H   UNL A   1      33.393  26.007  21.073  1.00  0.00     0.163 HD
ATOM     16  O   UNL A   1      34.232  28.219  21.632  1.00  0.00    -0.269 OA
BRANCH  14  17
ATOM     17  C   UNL A   1      33.292  27.980  23.751  1.00  0.00     0.081 A 
ATOM     18  C   UNL A   1      34.034  27.482  24.831  1.00  0.00     0.021 A 
ATOM     19  C   UNL A   1      32.319  28.962  23.969  1.00  0.00     0.132 A 
ATOM     20  C   UNL A   1      33.748  27.908  26.129  1.00  0.00     0.047 A 
ATOM     21  C   UNL A   1      32.024  29.379  25.263  1.00  0.00     0.093 A 
ATOM     22  C   UNL A   1      32.734  28.842  26.333  1.00  0.00     0.119 A 
BRANCH  19  23
ATOM     23  O   UNL A   1      31.625  29.554  22.947  1.00  0.00    -0.507 OA
ATOM     24  H   UNL A   1      31.545  30.487  22.914  1.00  0.00     0.293 HD
ENDBRANCH  19  23
BRANCH  22  25
ATOM     25  O   UNL A   1      32.412  29.270  27.587  1.00  0.00    -0.508 OA
ATOM     26  H   UNL A   1      32.784  28.848  28.336  1.00  0.00     0.293 HD
ENDBRANCH  22  25
ENDBRANCH  14  17
ENDBRANCH  12  13
ENDBRANCH   7  12
ENDBRANCH   4   7
ENDBRANCH   2   3
ENDBRANCH   1   2
BRANCH   1  27
ATOM     27  C   UNL A   1      36.896  21.994  24.215  1.00  0.00     0.002 C 
BRANCH  27  28
ATOM     28  C   UNL A   1      36.603  20.690  24.964  1.00  0.00     0.002 C 
BRANCH  28  29
ATOM     29  C   UNL A   1      37.756  19.685  25.002  1.00  0.00     0.021 C 
BRANCH  29  30
ATOM     30  C   UNL A   1      38.998  20.157  25.752  1.00  0.00     0.116 C 
BRANCH  30  31
ATOM     31  N   UNL A   1      40.026  19.135  25.819  1.00  0.00    -0.352 N 
ATOM     32  C   UNL A   1      41.374  19.275  26.023  1.00  0.00     0.251 C 
ATOM     33  H   UNL A   1      39.710  18.210  25.701  1.00  0.00     0.163 HD
ATOM     34  O   UNL A   1      42.125  18.311  25.884  1.00  0.00    -0.269 OA
BRANCH  32  35
ATOM     35  C   UNL A   1      41.932  20.592  26.391  1.00  0.00     0.039 A 
ATOM     36  C   UNL A   1      42.288  21.482  25.374  1.00  0.00     0.014 A 
ATOM     37  C   UNL A   1      42.120  20.944  27.732  1.00  0.00     0.014 A 
ATOM     38  C   UNL A   1      42.783  22.746  25.701  1.00  0.00     0.010 A 
ATOM     39  C   UNL A   1      42.555  22.227  28.056  1.00  0.00     0.010 A 
ATOM     40  C   UNL A   1      42.897  23.137  27.045  1.00  0.00    -0.014 A 
BRANCH  40  41
ATOM     41  C   UNL A   1      43.387  24.489  27.412  1.00  0.00     0.031 A 
ATOM     42  C   UNL A   1      42.413  25.548  27.851  1.00  0.00     0.074 A 
ATOM     43  C   UNL A   1      44.697  24.780  27.299  1.00  0.00     0.049 A 
ATOM     44  N   UNL A   1      42.631  26.808  28.129  1.00  0.00    -0.248 NA
ATOM     45  C   UNL A   1      41.003  25.142  27.969  1.00  0.00     0.031 C 
ATOM     46  C   UNL A   1      45.736  23.853  26.847  1.00  0.00     0.029 A 
ATOM     47  N   UNL A   1      45.377  25.947  27.541  1.00  0.00    -0.354 N 
ATOM     48  C   UNL A   1      41.390  27.345  28.443  1.00  0.00     0.074 A 
ATOM     49  C   UNL A   1      40.415  26.289  28.273  1.00  0.00     0.031 C 
ATOM     50  C   UNL A   1      46.923  24.482  26.858  1.00  0.00     0.029 A 
ATOM     51  C   UNL A   1      46.724  25.865  27.283  1.00  0.00     0.049 A 
ATOM     52  H   UNL A   1      44.941  26.767  27.869  1.00  0.00     0.167 HD
ATOM     53  C   UNL A   1      41.091  28.599  28.858  1.00  0.00     0.037 A 
ATOM     54  C   UNL A   1      47.687  26.801  27.371  1.00  0.00     0.037 A 
ATOM     55  C   UNL A   1      42.064  29.642  29.053  1.00  0.00     0.049 A 
ATOM     56  C   UNL A   1      47.327  28.185  27.836  1.00  0.00     0.074 A 
ATOM     57  C   UNL A   1      41.863  30.935  29.505  1.00  0.00     0.029 A 
ATOM     58  N   UNL A   1      43.421  29.508  28.814  1.00  0.00    -0.354 N 
ATOM     59  N   UNL A   1      46.155  28.666  28.174  1.00  0.00    -0.248 NA
ATOM     60  C   UNL A   1      48.426  29.157  27.939  1.00  0.00     0.031 C 
ATOM     61  C   UNL A   1      43.097  31.593  29.512  1.00  0.00     0.029 A 
ATOM     62  C   UNL A   1      44.071  30.697  29.103  1.00  0.00     0.049 A 
ATOM     63  H   UNL A   1      43.860  28.689  28.487  1.00  0.00     0.167 HD
ATOM     64  C   UNL A   1      46.381  29.981  28.558  1.00  0.00     0.074 A 
ATOM     65  C   UNL A   1      47.803  30.220  28.423  1.00  0.00     0.031 C 
ATOM     66  C   UNL A   1      45.489  30.909  28.982  1.00  0.00     0.037 A 
BRANCH  53  67
ATOM     67  C   UNL A   1      39.652  28.909  29.149  1.00  0.00     0.057 A 
ATOM     68  C   UNL A   1      38.778  29.343  28.145  1.00  0.00     0.134 A 
ATOM     69  C   UNL A   1      39.123  28.724  30.433  1.00  0.00     0.134 A 
ATOM     70  F   UNL A   1      39.227  29.552  26.898  1.00  0.00    -0.206 F 
ATOM     71  C   UNL A   1      37.432  29.600  28.408  1.00  0.00     0.040 A 
ATOM     72  C   UNL A   1      37.772  28.954  30.704  1.00  0.00     0.040 A 
ATOM     73  F   UNL A   1      39.905  28.305  31.438  1.00  0.00    -0.206 F 
ATOM     74  C   UNL A   1      36.925  29.397  29.690  1.00  0.00     0.006 A 
ENDBRANCH  53  67
BRANCH  54  75
ATOM     75  C   UNL A   1      49.092  26.465  27.026  1.00  0.00     0.057 A 
ATOM     76  C   UNL A   1      49.581  26.650  25.728  1.00  0.00     0.134 A 
ATOM     77  C   UNL A   1      49.967  25.925  27.975  1.00  0.00     0.134 A 
ATOM     78  F   UNL A   1      48.783  27.146  24.771  1.00  0.00    -0.206 F 
ATOM     79  C   UNL A   1      50.882  26.285  25.377  1.00  0.00     0.040 A 
ATOM     80  C   UNL A   1      51.279  25.579  27.645  1.00  0.00     0.040 A 
ATOM     81  F   UNL A   1      49.562  25.732  29.238  1.00  0.00    -0.206 F 
ATOM     82  C   UNL A   1      51.735  25.750  26.340  1.00  0.00     0.006 A 
ENDBRANCH  54  75
BRANCH  66  83
ATOM     83  C   UNL A   1      46.031  32.251  29.374  1.00  0.00     0.057 A 
ATOM     84  C   UNL A   1      46.476  32.518  30.674  1.00  0.00     0.134 A 
ATOM     85  C   UNL A   1      46.144  33.276  28.426  1.00  0.00     0.134 A 
ATOM     86  F   UNL A   1      46.383  31.582  31.631  1.00  0.00    -0.206 F 
ATOM     87  C   UNL A   1      46.996  33.766  31.024  1.00  0.00     0.040 A 
ATOM     88  C   UNL A   1      46.684  34.519  28.758  1.00  0.00     0.040 A 
ATOM     89  F   UNL A   1      45.744  33.081  27.161  1.00  0.00    -0.206 F 
ATOM     90  C   UNL A   1      47.107  34.767  30.062  1.00  0.00     0.006 A 
ENDBRANCH  66  83
ENDBRANCH  40  41
ENDBRANCH  32  35
ENDBRANCH  30  31
ENDBRANCH  29  30
ENDBRANCH  28  29
ENDBRANCH  27  28
ENDBRANCH   1  27
TORSDOF 20
ENDMDL
