MODEL 1
REMARK VINA RESULT:     -13.5      0.000      0.000
REMARK SMILES C[C@H]1CCc2sc3ncn4nc(/C=C\C(=O)NCCCCCCNC(=O)c5ccc(-c6c7nc(c(-c8c(F)cccc8F)c8ccc([nH]8)c(-c8c(F)cccc8F)c8nc(c(-c9c(F)cccc9F)c9ccc6[nH]9)C=C8)C=C7)cc5)nc4c3c2C1
REMARK SMILES IDX 21 1 20 2 19 3 18 4 17 5 15 6 16 7 14 9 13 10 12 11 1 12
REMARK SMILES IDX 2 13 3 14 85 15 4 16 84 17 5 18 83 19 6 20 7 21 82 22 8 23
REMARK SMILES IDX 10 24 81 25 9 26 11 27 22 28 23 29 24 30 25 31 26 33 27 34
REMARK SMILES IDX 28 35 80 36 29 37 79 38 30 39 31 40 32 41 73 42 33 43 78 44
REMARK SMILES IDX 72 45 74 46 34 47 77 48 71 49 70 50 35 52 61 53 44 54 60 55
REMARK SMILES IDX 45 56 48 57 59 58 75 59 46 60 47 61 58 63 76 64 49 65 36 66
REMARK SMILES IDX 37 67 42 68 38 69 39 70 41 71 43 72 40 73 62 74 63 75 68 76
REMARK SMILES IDX 64 77 65 78 67 79 69 80 66 81 50 82 51 83 56 84 52 85 53 86
REMARK SMILES IDX 55 87 57 88 54 89
REMARK H PARENT 17 8 24 32 74 51 48 62
REMARK Flexibility Score: inf
ROOT
ATOM      1  C   UNL A   1      41.921  19.406  27.464  1.00  0.00     0.002 C 
ENDROOT
BRANCH   1   2
ATOM      2  C   UNL A   1      41.898  20.900  27.130  1.00  0.00     0.002 C 
BRANCH   2   3
ATOM      3  C   UNL A   1      40.907  21.382  26.061  1.00  0.00     0.021 C 
BRANCH   3   4
ATOM      4  C   UNL A   1      39.521  21.793  26.539  1.00  0.00     0.116 C 
BRANCH   4   5
ATOM      5  N   UNL A   1      38.778  22.688  25.681  1.00  0.00    -0.353 N 
ATOM      6  C   UNL A   1      37.595  22.445  25.039  1.00  0.00     0.244 C 
ATOM      7  O   UNL A   1      37.028  23.351  24.430  1.00  0.00    -0.270 OA
ATOM      8  H   UNL A   1      39.170  23.581  25.543  1.00  0.00     0.163 HD
BRANCH   6   9
ATOM      9  C   UNL A   1      37.074  21.060  24.903  1.00  0.00     0.075 C 
ATOM     10  C   UNL A   1      35.824  20.588  25.045  1.00  0.00     0.057 C 
BRANCH  10  11
ATOM     11  C   UNL A   1      34.631  21.288  25.386  1.00  0.00     0.175 A 
ATOM     12  C   UNL A   1      31.881  26.088  20.939  1.00  0.00     0.008 C 
ATOM     13  C   UNL A   1      33.091  26.207  21.867  1.00  0.00    -0.009 C 
ATOM     14  C   UNL A   1      32.975  27.481  22.730  1.00  0.00     0.009 C 
ATOM     15  C   UNL A   1      33.254  24.927  22.726  1.00  0.00     0.041 C 
ATOM     16  C   UNL A   1      31.795  27.429  23.715  1.00  0.00     0.047 C 
ATOM     17  C   UNL A   1      32.388  24.940  23.956  1.00  0.00    -0.020 A 
ATOM     18  C   UNL A   1      31.713  26.080  24.370  1.00  0.00     0.011 A 
ATOM     19  C   UNL A   1      32.317  23.956  24.982  1.00  0.00     0.060 A 
ATOM     20  S   UNL A   1      30.780  25.824  25.782  1.00  0.00    -0.120 S 
ATOM     21  C   UNL A   1      31.552  24.325  26.084  1.00  0.00     0.129 A 
ATOM     22  C   UNL A   1      33.126  22.740  25.209  1.00  0.00     0.168 A 
ATOM     23  N   UNL A   1      31.518  23.732  27.327  1.00  0.00    -0.225 NA
ATOM     24  N   UNL A   1      33.122  22.220  26.469  1.00  0.00    -0.201 N 
ATOM     25  N   UNL A   1      34.045  22.150  24.484  1.00  0.00    -0.207 NA
ATOM     26  C   UNL A   1      32.340  22.728  27.506  1.00  0.00     0.227 A 
ATOM     27  N   UNL A   1      34.077  21.281  26.613  1.00  0.00    -0.145 NA
ENDBRANCH  10  11
ENDBRANCH   6   9
ENDBRANCH   4   5
ENDBRANCH   3   4
ENDBRANCH   2   3
ENDBRANCH   1   2
BRANCH   1  28
ATOM     28  C   UNL A   1      42.779  18.507  26.581  1.00  0.00     0.021 C 
BRANCH  28  29
ATOM     29  C   UNL A   1      43.476  19.247  25.465  1.00  0.00     0.116 C 
BRANCH  29  30
ATOM     30  N   UNL A   1      44.948  19.156  25.382  1.00  0.00    -0.352 N 
ATOM     31  C   UNL A   1      45.876  20.154  25.013  1.00  0.00     0.251 C 
ATOM     32  H   UNL A   1      45.334  18.281  25.617  1.00  0.00     0.163 HD
ATOM     33  O   UNL A   1      47.037  19.912  24.775  1.00  0.00    -0.269 OA
BRANCH  31  34
ATOM     34  C   UNL A   1      45.375  21.545  24.994  1.00  0.00     0.039 A 
ATOM     35  C   UNL A   1      44.228  22.097  24.413  1.00  0.00     0.014 A 
ATOM     36  C   UNL A   1      46.117  22.379  25.760  1.00  0.00     0.014 A 
ATOM     37  C   UNL A   1      43.843  23.389  24.844  1.00  0.00     0.010 A 
ATOM     38  C   UNL A   1      45.331  23.050  26.613  1.00  0.00     0.010 A 
ATOM     39  C   UNL A   1      44.495  23.897  25.966  1.00  0.00    -0.014 A 
BRANCH  39  40
ATOM     40  C   UNL A   1      44.297  25.062  26.795  1.00  0.00     0.031 A 
ATOM     41  C   UNL A   1      45.291  26.134  26.598  1.00  0.00     0.074 A 
ATOM     42  C   UNL A   1      43.079  25.323  27.337  1.00  0.00     0.049 A 
ATOM     43  N   UNL A   1      46.291  26.388  27.367  1.00  0.00    -0.248 NA
ATOM     44  C   UNL A   1      45.304  26.888  25.332  1.00  0.00     0.031 C 
ATOM     45  C   UNL A   1      41.805  24.581  27.256  1.00  0.00     0.029 A 
ATOM     46  N   UNL A   1      42.722  26.408  28.067  1.00  0.00    -0.354 N 
ATOM     47  C   UNL A   1      46.920  27.490  26.812  1.00  0.00     0.074 A 
ATOM     48  C   UNL A   1      46.434  27.589  25.460  1.00  0.00     0.031 C 
ATOM     49  C   UNL A   1      40.792  25.328  27.750  1.00  0.00     0.029 A 
ATOM     50  C   UNL A   1      41.366  26.508  28.356  1.00  0.00     0.049 A 
ATOM     51  H   UNL A   1      43.378  27.077  28.371  1.00  0.00     0.167 HD
ATOM     52  C   UNL A   1      47.595  28.374  27.596  1.00  0.00     0.037 A 
ATOM     53  C   UNL A   1      40.788  27.501  29.073  1.00  0.00     0.037 A 
ATOM     54  C   UNL A   1      47.714  27.872  28.949  1.00  0.00     0.049 A 
ATOM     55  C   UNL A   1      41.883  28.139  29.862  1.00  0.00     0.074 A 
ATOM     56  C   UNL A   1      48.284  26.732  29.490  1.00  0.00     0.029 A 
ATOM     57  N   UNL A   1      46.776  28.286  29.872  1.00  0.00    -0.354 N 
ATOM     58  N   UNL A   1      42.543  27.518  30.805  1.00  0.00    -0.248 NA
ATOM     59  C   UNL A   1      42.593  29.245  29.233  1.00  0.00     0.031 C 
ATOM     60  C   UNL A   1      47.317  26.246  30.423  1.00  0.00     0.029 A 
ATOM     61  C   UNL A   1      46.265  27.163  30.487  1.00  0.00     0.049 A 
ATOM     62  H   UNL A   1      46.517  29.217  30.058  1.00  0.00     0.167 HD
ATOM     63  C   UNL A   1      43.875  27.872  30.613  1.00  0.00     0.074 A 
ATOM     64  C   UNL A   1      43.832  28.986  29.663  1.00  0.00     0.031 C 
ATOM     65  C   UNL A   1      44.903  27.046  30.981  1.00  0.00     0.037 A 
BRANCH  52  66
ATOM     66  C   UNL A   1      47.877  29.800  27.225  1.00  0.00     0.057 A 
ATOM     67  C   UNL A   1      49.200  30.269  27.231  1.00  0.00     0.134 A 
ATOM     68  C   UNL A   1      46.889  30.788  27.043  1.00  0.00     0.134 A 
ATOM     69  F   UNL A   1      50.225  29.427  27.429  1.00  0.00    -0.206 F 
ATOM     70  C   UNL A   1      49.514  31.625  27.084  1.00  0.00     0.040 A 
ATOM     71  C   UNL A   1      47.192  32.136  26.839  1.00  0.00     0.040 A 
ATOM     72  F   UNL A   1      45.581  30.516  27.145  1.00  0.00    -0.206 F 
ATOM     73  C   UNL A   1      48.509  32.563  26.880  1.00  0.00     0.006 A 
ENDBRANCH  52  66
BRANCH  53  74
ATOM     74  C   UNL A   1      39.461  28.122  28.862  1.00  0.00     0.057 A 
ATOM     75  C   UNL A   1      38.519  28.188  29.896  1.00  0.00     0.134 A 
ATOM     76  C   UNL A   1      39.186  28.909  27.728  1.00  0.00     0.134 A 
ATOM     77  F   UNL A   1      38.706  27.496  31.030  1.00  0.00    -0.206 F 
ATOM     78  C   UNL A   1      37.389  29.016  29.825  1.00  0.00     0.040 A 
ATOM     79  C   UNL A   1      38.062  29.737  27.642  1.00  0.00     0.040 A 
ATOM     80  F   UNL A   1      40.047  28.970  26.700  1.00  0.00    -0.206 F 
ATOM     81  C   UNL A   1      37.166  29.805  28.701  1.00  0.00     0.006 A 
ENDBRANCH  53  74
BRANCH  65  82
ATOM     82  C   UNL A   1      44.569  25.792  31.769  1.00  0.00     0.057 A 
ATOM     83  C   UNL A   1      44.444  24.508  31.210  1.00  0.00     0.134 A 
ATOM     84  C   UNL A   1      44.539  25.850  33.165  1.00  0.00     0.134 A 
ATOM     85  F   UNL A   1      44.545  24.312  29.895  1.00  0.00    -0.206 F 
ATOM     86  C   UNL A   1      44.269  23.356  31.986  1.00  0.00     0.040 A 
ATOM     87  C   UNL A   1      44.392  24.705  33.959  1.00  0.00     0.040 A 
ATOM     88  F   UNL A   1      44.705  27.025  33.793  1.00  0.00    -0.206 F 
ATOM     89  C   UNL A   1      44.249  23.453  33.370  1.00  0.00     0.006 A 
ENDBRANCH  65  82
ENDBRANCH  39  40
ENDBRANCH  31  34
ENDBRANCH  29  30
ENDBRANCH  28  29
ENDBRANCH   1  28
TORSDOF 14
ENDMDL
MODEL 2
REMARK VINA RESULT:     -13.5      1.472      2.232
REMARK SMILES C[C@H]1CCc2sc3ncn4nc(/C=C\C(=O)NCCCCCCNC(=O)c5ccc(-c6c7nc(c(-c8c(F)cccc8F)c8ccc([nH]8)c(-c8c(F)cccc8F)c8nc(c(-c9c(F)cccc9F)c9ccc6[nH]9)C=C8)C=C7)cc5)nc4c3c2C1
REMARK SMILES IDX 21 1 20 2 19 3 18 4 17 5 15 6 16 7 14 9 13 10 12 11 1 12
REMARK SMILES IDX 2 13 3 14 85 15 4 16 84 17 5 18 83 19 6 20 7 21 82 22 8 23
REMARK SMILES IDX 10 24 81 25 9 26 11 27 22 28 23 29 24 30 25 31 26 33 27 34
REMARK SMILES IDX 28 35 80 36 29 37 79 38 30 39 31 40 32 41 73 42 33 43 78 44
REMARK SMILES IDX 72 45 74 46 34 47 77 48 71 49 70 50 35 52 61 53 44 54 60 55
REMARK SMILES IDX 45 56 48 57 59 58 75 59 46 60 47 61 58 63 76 64 49 65 36 66
REMARK SMILES IDX 37 67 42 68 38 69 39 70 41 71 43 72 40 73 62 74 63 75 68 76
REMARK SMILES IDX 64 77 65 78 67 79 69 80 66 81 50 82 51 83 56 84 52 85 53 86
REMARK SMILES IDX 55 87 57 88 54 89
REMARK H PARENT 17 8 24 32 74 51 48 62
REMARK Flexibility Score: inf
ROOT
ATOM      1  C   UNL A   1      41.482  21.107  27.404  1.00  0.00     0.002 C 
ENDROOT
BRANCH   1   2
ATOM      2  C   UNL A   1      40.599  21.610  26.259  1.00  0.00     0.002 C 
BRANCH   2   3
ATOM      3  C   UNL A   1      39.209  20.979  26.092  1.00  0.00     0.021 C 
BRANCH   3   4
ATOM      4  C   UNL A   1      38.052  21.924  25.801  1.00  0.00     0.116 C 
BRANCH   4   5
ATOM      5  N   UNL A   1      37.868  22.321  24.423  1.00  0.00    -0.353 N 
ATOM      6  C   UNL A   1      36.690  22.499  23.752  1.00  0.00     0.244 C 
ATOM      7  O   UNL A   1      36.696  22.950  22.607  1.00  0.00    -0.270 OA
ATOM      8  H   UNL A   1      38.690  22.483  23.906  1.00  0.00     0.163 HD
BRANCH   6   9
ATOM      9  C   UNL A   1      35.412  21.986  24.308  1.00  0.00     0.075 C 
ATOM     10  C   UNL A   1      34.171  22.496  24.242  1.00  0.00     0.057 C 
BRANCH  10  11
ATOM     11  C   UNL A   1      33.726  23.701  23.624  1.00  0.00     0.175 A 
ATOM     12  C   UNL A   1      34.344  29.917  26.992  1.00  0.00     0.008 C 
ATOM     13  C   UNL A   1      33.334  28.790  27.213  1.00  0.00    -0.009 C 
ATOM     14  C   UNL A   1      31.898  29.355  27.205  1.00  0.00     0.009 C 
ATOM     15  C   UNL A   1      33.529  27.662  26.168  1.00  0.00     0.041 C 
ATOM     16  C   UNL A   1      31.486  29.916  25.833  1.00  0.00     0.047 C 
ATOM     17  C   UNL A   1      32.828  27.950  24.868  1.00  0.00    -0.020 A 
ATOM     18  C   UNL A   1      31.927  28.995  24.732  1.00  0.00     0.011 A 
ATOM     19  C   UNL A   1      32.759  27.120  23.714  1.00  0.00     0.060 A 
ATOM     20  S   UNL A   1      31.289  29.122  23.149  1.00  0.00    -0.120 S 
ATOM     21  C   UNL A   1      31.894  27.577  22.725  1.00  0.00     0.129 A 
ATOM     22  C   UNL A   1      33.224  25.734  23.494  1.00  0.00     0.168 A 
ATOM     23  N   UNL A   1      31.403  26.880  21.643  1.00  0.00    -0.225 NA
ATOM     24  N   UNL A   1      32.665  25.052  22.454  1.00  0.00    -0.201 N 
ATOM     25  N   UNL A   1      33.932  24.918  24.237  1.00  0.00    -0.207 NA
ATOM     26  C   UNL A   1      31.758  25.622  21.562  1.00  0.00     0.227 A 
ATOM     27  N   UNL A   1      32.974  23.742  22.508  1.00  0.00    -0.145 NA
ENDBRANCH  10  11
ENDBRANCH   6   9
ENDBRANCH   4   5
ENDBRANCH   3   4
ENDBRANCH   2   3
ENDBRANCH   1   2
BRANCH   1  28
ATOM     28  C   UNL A   1      42.186  19.770  27.206  1.00  0.00     0.021 C 
BRANCH  28  29
ATOM     29  C   UNL A   1      42.668  19.546  25.793  1.00  0.00     0.116 C 
BRANCH  29  30
ATOM     30  N   UNL A   1      44.097  19.232  25.585  1.00  0.00    -0.352 N 
ATOM     31  C   UNL A   1      45.125  20.071  25.105  1.00  0.00     0.251 C 
ATOM     32  H   UNL A   1      44.367  18.312  25.812  1.00  0.00     0.163 HD
ATOM     33  O   UNL A   1      46.211  19.652  24.773  1.00  0.00    -0.269 OA
BRANCH  31  34
ATOM     34  C   UNL A   1      44.837  21.521  25.086  1.00  0.00     0.039 A 
ATOM     35  C   UNL A   1      43.880  22.255  24.377  1.00  0.00     0.014 A 
ATOM     36  C   UNL A   1      45.571  22.212  25.990  1.00  0.00     0.014 A 
ATOM     37  C   UNL A   1      43.625  23.577  24.814  1.00  0.00     0.010 A 
ATOM     38  C   UNL A   1      44.772  22.967  26.757  1.00  0.00     0.010 A 
ATOM     39  C   UNL A   1      44.171  23.948  26.042  1.00  0.00    -0.014 A 
BRANCH  39  40
ATOM     40  C   UNL A   1      44.023  25.105  26.892  1.00  0.00     0.031 A 
ATOM     41  C   UNL A   1      45.021  26.167  26.667  1.00  0.00     0.074 A 
ATOM     42  C   UNL A   1      42.832  25.374  27.489  1.00  0.00     0.049 A 
ATOM     43  N   UNL A   1      46.056  26.400  27.396  1.00  0.00    -0.248 NA
ATOM     44  C   UNL A   1      44.991  26.937  25.411  1.00  0.00     0.031 C 
ATOM     45  C   UNL A   1      41.546  24.648  27.452  1.00  0.00     0.029 A 
ATOM     46  N   UNL A   1      42.520  26.454  28.246  1.00  0.00    -0.354 N 
ATOM     47  C   UNL A   1      46.674  27.501  26.828  1.00  0.00     0.074 A 
ATOM     48  C   UNL A   1      46.134  27.623  25.500  1.00  0.00     0.031 C 
ATOM     49  C   UNL A   1      40.564  25.401  27.997  1.00  0.00     0.029 A 
ATOM     50  C   UNL A   1      41.178  26.566  28.593  1.00  0.00     0.049 A 
ATOM     51  H   UNL A   1      43.196  27.111  28.530  1.00  0.00     0.167 HD
ATOM     52  C   UNL A   1      47.393  28.367  27.595  1.00  0.00     0.037 A 
ATOM     53  C   UNL A   1      40.643  27.557  29.345  1.00  0.00     0.037 A 
ATOM     54  C   UNL A   1      47.562  27.847  28.935  1.00  0.00     0.049 A 
ATOM     55  C   UNL A   1      41.778  28.172  30.095  1.00  0.00     0.074 A 
ATOM     56  C   UNL A   1      48.140  26.693  29.437  1.00  0.00     0.029 A 
ATOM     57  N   UNL A   1      46.669  28.260  29.901  1.00  0.00    -0.354 N 
ATOM     58  N   UNL A   1      42.470  27.531  31.003  1.00  0.00    -0.248 NA
ATOM     59  C   UNL A   1      42.475  29.277  29.451  1.00  0.00     0.031 C 
ATOM     60  C   UNL A   1      47.207  26.206  30.404  1.00  0.00     0.029 A 
ATOM     61  C   UNL A   1      46.170  27.135  30.524  1.00  0.00     0.049 A 
ATOM     62  H   UNL A   1      46.430  29.191  30.110  1.00  0.00     0.167 HD
ATOM     63  C   UNL A   1      43.797  27.871  30.759  1.00  0.00     0.074 A 
ATOM     64  C   UNL A   1      43.728  28.997  29.825  1.00  0.00     0.031 C 
ATOM     65  C   UNL A   1      44.828  27.028  31.073  1.00  0.00     0.037 A 
BRANCH  52  66
ATOM     66  C   UNL A   1      47.677  29.794  27.229  1.00  0.00     0.057 A 
ATOM     67  C   UNL A   1      49.001  30.260  27.234  1.00  0.00     0.134 A 
ATOM     68  C   UNL A   1      46.690  30.785  27.054  1.00  0.00     0.134 A 
ATOM     69  F   UNL A   1      50.025  29.415  27.426  1.00  0.00    -0.206 F 
ATOM     70  C   UNL A   1      49.318  31.616  27.093  1.00  0.00     0.040 A 
ATOM     71  C   UNL A   1      46.996  32.133  26.855  1.00  0.00     0.040 A 
ATOM     72  F   UNL A   1      45.382  30.515  27.158  1.00  0.00    -0.206 F 
ATOM     73  C   UNL A   1      48.314  32.558  26.895  1.00  0.00     0.006 A 
ENDBRANCH  52  66
BRANCH  53  74
ATOM     74  C   UNL A   1      39.316  28.197  29.199  1.00  0.00     0.057 A 
ATOM     75  C   UNL A   1      38.411  28.241  30.265  1.00  0.00     0.134 A 
ATOM     76  C   UNL A   1      39.012  29.019  28.098  1.00  0.00     0.134 A 
ATOM     77  F   UNL A   1      38.629  27.514  31.371  1.00  0.00    -0.206 F 
ATOM     78  C   UNL A   1      37.288  29.081  30.257  1.00  0.00     0.040 A 
ATOM     79  C   UNL A   1      37.894  29.860  28.074  1.00  0.00     0.040 A 
ATOM     80  F   UNL A   1      39.838  29.102  27.043  1.00  0.00    -0.206 F 
ATOM     81  C   UNL A   1      37.035  29.906  29.164  1.00  0.00     0.006 A 
ENDBRANCH  53  74
BRANCH  65  82
ATOM     82  C   UNL A   1      44.512  25.768  31.859  1.00  0.00     0.057 A 
ATOM     83  C   UNL A   1      44.363  24.490  31.292  1.00  0.00     0.134 A 
ATOM     84  C   UNL A   1      44.526  25.813  33.256  1.00  0.00     0.134 A 
ATOM     85  F   UNL A   1      44.422  24.307  29.972  1.00  0.00    -0.206 F 
ATOM     86  C   UNL A   1      44.206  23.332  32.062  1.00  0.00     0.040 A 
ATOM     87  C   UNL A   1      44.397  24.661  34.043  1.00  0.00     0.040 A 
ATOM     88  F   UNL A   1      44.717  26.981  33.890  1.00  0.00    -0.206 F 
ATOM     89  C   UNL A   1      44.229  23.415  33.447  1.00  0.00     0.006 A 
ENDBRANCH  65  82
ENDBRANCH  39  40
ENDBRANCH  31  34
ENDBRANCH  29  30
ENDBRANCH  28  29
ENDBRANCH   1  28
TORSDOF 14
ENDMDL
MODEL 3
REMARK VINA RESULT:     -13.0      4.804     10.016
REMARK SMILES C[C@H]1CCc2sc3ncn4nc(/C=C\C(=O)NCCCCCCNC(=O)c5ccc(-c6c7nc(c(-c8c(F)cccc8F)c8ccc([nH]8)c(-c8c(F)cccc8F)c8nc(c(-c9c(F)cccc9F)c9ccc6[nH]9)C=C8)C=C7)cc5)nc4c3c2C1
REMARK SMILES IDX 21 1 20 2 19 3 18 4 17 5 15 6 16 7 14 9 13 10 12 11 1 12
REMARK SMILES IDX 2 13 3 14 85 15 4 16 84 17 5 18 83 19 6 20 7 21 82 22 8 23
REMARK SMILES IDX 10 24 81 25 9 26 11 27 22 28 23 29 24 30 25 31 26 33 27 34
REMARK SMILES IDX 28 35 80 36 29 37 79 38 30 39 31 40 32 41 73 42 33 43 78 44
REMARK SMILES IDX 72 45 74 46 34 47 77 48 71 49 70 50 35 52 61 53 44 54 60 55
REMARK SMILES IDX 45 56 48 57 59 58 75 59 46 60 47 61 58 63 76 64 49 65 36 66
REMARK SMILES IDX 37 67 42 68 38 69 39 70 41 71 43 72 40 73 62 74 63 75 68 76
REMARK SMILES IDX 64 77 65 78 67 79 69 80 66 81 50 82 51 83 56 84 52 85 53 86
REMARK SMILES IDX 55 87 57 88 54 89
REMARK H PARENT 17 8 24 32 74 51 48 62
REMARK Flexibility Score: inf
ROOT
ATOM      1  C   UNL A   1      35.171  33.254  28.334  1.00  0.00     0.002 C 
ENDROOT
BRANCH   1   2
ATOM      2  C   UNL A   1      34.064  32.253  27.989  1.00  0.00     0.002 C 
BRANCH   2   3
ATOM      3  C   UNL A   1      34.474  30.806  27.680  1.00  0.00     0.021 C 
BRANCH   3   4
ATOM      4  C   UNL A   1      33.529  29.991  26.808  1.00  0.00     0.116 C 
BRANCH   4   5
ATOM      5  N   UNL A   1      34.126  29.254  25.718  1.00  0.00    -0.353 N 
ATOM      6  C   UNL A   1      33.535  28.860  24.550  1.00  0.00     0.244 C 
ATOM      7  O   UNL A   1      34.209  28.334  23.665  1.00  0.00    -0.270 OA
ATOM      8  H   UNL A   1      35.073  29.007  25.829  1.00  0.00     0.163 HD
BRANCH   6   9
ATOM      9  C   UNL A   1      32.057  28.885  24.399  1.00  0.00     0.075 C 
ATOM     10  C   UNL A   1      31.127  28.016  24.830  1.00  0.00     0.057 C 
BRANCH  10  11
ATOM     11  C   UNL A   1      31.300  26.800  25.552  1.00  0.00     0.175 A 
ATOM     12  C   UNL A   1      37.675  23.702  25.918  1.00  0.00     0.008 C 
ATOM     13  C   UNL A   1      36.676  23.732  24.760  1.00  0.00    -0.009 C 
ATOM     14  C   UNL A   1      36.417  22.301  24.245  1.00  0.00     0.009 C 
ATOM     15  C   UNL A   1      35.369  24.452  25.178  1.00  0.00     0.041 C 
ATOM     16  C   UNL A   1      35.709  21.412  25.282  1.00  0.00     0.047 C 
ATOM     17  C   UNL A   1      34.411  23.542  25.899  1.00  0.00    -0.020 A 
ATOM     18  C   UNL A   1      34.601  22.169  25.956  1.00  0.00     0.011 A 
ATOM     19  C   UNL A   1      33.110  23.855  26.382  1.00  0.00     0.060 A 
ATOM     20  S   UNL A   1      33.385  21.367  26.853  1.00  0.00    -0.120 S 
ATOM     21  C   UNL A   1      32.390  22.761  26.852  1.00  0.00     0.129 A 
ATOM     22  C   UNL A   1      32.288  25.073  26.220  1.00  0.00     0.168 A 
ATOM     23  N   UNL A   1      31.040  22.686  27.116  1.00  0.00    -0.225 NA
ATOM     24  N   UNL A   1      30.946  24.945  26.422  1.00  0.00    -0.201 N 
ATOM     25  N   UNL A   1      32.554  26.248  25.703  1.00  0.00    -0.207 NA
ATOM     26  C   UNL A   1      30.343  23.762  26.846  1.00  0.00     0.227 A 
ATOM     27  N   UNL A   1      30.283  26.042  26.006  1.00  0.00    -0.145 NA
ENDBRANCH  10  11
ENDBRANCH   6   9
ENDBRANCH   4   5
ENDBRANCH   3   4
ENDBRANCH   2   3
ENDBRANCH   1   2
BRANCH   1  28
ATOM     28  C   UNL A   1      34.740  34.659  28.738  1.00  0.00     0.021 C 
BRANCH  28  29
ATOM     29  C   UNL A   1      33.606  34.678  29.736  1.00  0.00     0.116 C 
BRANCH  29  30
ATOM     30  N   UNL A   1      33.634  35.698  30.803  1.00  0.00    -0.352 N 
ATOM     31  C   UNL A   1      34.109  35.581  32.126  1.00  0.00     0.251 C 
ATOM     32  H   UNL A   1      33.271  36.581  30.557  1.00  0.00     0.163 HD
ATOM     33  O   UNL A   1      33.890  36.412  32.978  1.00  0.00    -0.269 OA
BRANCH  31  34
ATOM     34  C   UNL A   1      34.960  34.408  32.419  1.00  0.00     0.039 A 
ATOM     35  C   UNL A   1      34.653  33.044  32.470  1.00  0.00     0.014 A 
ATOM     36  C   UNL A   1      36.268  34.731  32.556  1.00  0.00     0.014 A 
ATOM     37  C   UNL A   1      35.738  32.135  32.445  1.00  0.00     0.010 A 
ATOM     38  C   UNL A   1      37.023  33.962  31.758  1.00  0.00     0.010 A 
ATOM     39  C   UNL A   1      36.991  32.662  32.137  1.00  0.00    -0.014 A 
BRANCH  39  40
ATOM     40  C   UNL A   1      38.281  32.076  31.861  1.00  0.00     0.031 A 
ATOM     41  C   UNL A   1      39.091  31.777  33.057  1.00  0.00     0.074 A 
ATOM     42  C   UNL A   1      38.514  31.448  30.678  1.00  0.00     0.049 A 
ATOM     43  N   UNL A   1      40.074  32.479  33.499  1.00  0.00    -0.248 NA
ATOM     44  C   UNL A   1      38.665  30.703  33.971  1.00  0.00     0.031 C 
ATOM     45  C   UNL A   1      37.639  31.239  29.506  1.00  0.00     0.029 A 
ATOM     46  N   UNL A   1      39.638  30.790  30.307  1.00  0.00    -0.354 N 
ATOM     47  C   UNL A   1      40.548  31.802  34.610  1.00  0.00     0.074 A 
ATOM     48  C   UNL A   1      39.508  30.882  34.992  1.00  0.00     0.031 C 
ATOM     49  C   UNL A   1      38.203  30.357  28.650  1.00  0.00     0.029 A 
ATOM     50  C   UNL A   1      39.548  30.092  29.108  1.00  0.00     0.049 A 
ATOM     51  H   UNL A   1      40.461  30.805  30.849  1.00  0.00     0.167 HD
ATOM     52  C   UNL A   1      41.859  31.880  34.966  1.00  0.00     0.037 A 
ATOM     53  C   UNL A   1      40.546  29.371  28.544  1.00  0.00     0.037 A 
ATOM     54  C   UNL A   1      42.545  32.885  34.181  1.00  0.00     0.049 A 
ATOM     55  C   UNL A   1      41.815  29.859  29.159  1.00  0.00     0.074 A 
ATOM     56  C   UNL A   1      42.357  34.246  34.012  1.00  0.00     0.029 A 
ATOM     57  N   UNL A   1      43.223  32.466  33.055  1.00  0.00    -0.354 N 
ATOM     58  N   UNL A   1      42.274  31.073  28.989  1.00  0.00    -0.248 NA
ATOM     59  C   UNL A   1      42.260  29.193  30.376  1.00  0.00     0.031 C 
ATOM     60  C   UNL A   1      42.459  34.459  32.603  1.00  0.00     0.029 A 
ATOM     61  C   UNL A   1      42.811  33.250  31.998  1.00  0.00     0.049 A 
ATOM     62  H   UNL A   1      43.884  31.738  33.014  1.00  0.00     0.167 HD
ATOM     63  C   UNL A   1      42.718  31.475  30.245  1.00  0.00     0.074 A 
ATOM     64  C   UNL A   1      42.734  30.249  31.046  1.00  0.00     0.031 C 
ATOM     65  C   UNL A   1      42.728  32.792  30.621  1.00  0.00     0.037 A 
BRANCH  52  66
ATOM     66  C   UNL A   1      42.580  30.859  35.796  1.00  0.00     0.057 A 
ATOM     67  C   UNL A   1      43.259  31.263  36.956  1.00  0.00     0.134 A 
ATOM     68  C   UNL A   1      42.796  29.522  35.407  1.00  0.00     0.134 A 
ATOM     69  F   UNL A   1      43.158  32.522  37.407  1.00  0.00    -0.206 F 
ATOM     70  C   UNL A   1      44.106  30.403  37.666  1.00  0.00     0.040 A 
ATOM     71  C   UNL A   1      43.592  28.638  36.137  1.00  0.00     0.040 A 
ATOM     72  F   UNL A   1      42.323  29.030  34.254  1.00  0.00    -0.206 F 
ATOM     73  C   UNL A   1      44.269  29.083  37.261  1.00  0.00     0.006 A 
ENDBRANCH  52  66
BRANCH  53  74
ATOM     74  C   UNL A   1      40.437  28.103  27.787  1.00  0.00     0.057 A 
ATOM     75  C   UNL A   1      41.033  27.955  26.529  1.00  0.00     0.134 A 
ATOM     76  C   UNL A   1      39.983  26.918  28.397  1.00  0.00     0.134 A 
ATOM     77  F   UNL A   1      41.523  29.023  25.881  1.00  0.00    -0.206 F 
ATOM     78  C   UNL A   1      41.203  26.701  25.926  1.00  0.00     0.040 A 
ATOM     79  C   UNL A   1      40.143  25.660  27.805  1.00  0.00     0.040 A 
ATOM     80  F   UNL A   1      39.448  26.930  29.627  1.00  0.00    -0.206 F 
ATOM     81  C   UNL A   1      40.770  25.546  26.571  1.00  0.00     0.006 A 
ENDBRANCH  53  74
BRANCH  65  82
ATOM     82  C   UNL A   1      42.404  33.840  29.573  1.00  0.00     0.057 A 
ATOM     83  C   UNL A   1      41.169  34.502  29.461  1.00  0.00     0.134 A 
ATOM     84  C   UNL A   1      43.427  34.324  28.751  1.00  0.00     0.134 A 
ATOM     85  F   UNL A   1      40.142  34.191  30.253  1.00  0.00    -0.206 F 
ATOM     86  C   UNL A   1      40.951  35.558  28.568  1.00  0.00     0.040 A 
ATOM     87  C   UNL A   1      43.235  35.397  27.871  1.00  0.00     0.040 A 
ATOM     88  F   UNL A   1      44.657  33.791  28.824  1.00  0.00    -0.206 F 
ATOM     89  C   UNL A   1      41.992  36.014  27.771  1.00  0.00     0.006 A 
ENDBRANCH  65  82
ENDBRANCH  39  40
ENDBRANCH  31  34
ENDBRANCH  29  30
ENDBRANCH  28  29
ENDBRANCH   1  28
TORSDOF 14
ENDMDL
