MODEL 1
REMARK VINA RESULT:     -13.0      0.000      0.000
REMARK SMILES Cc1ccc(-c2cc([C@@H](C)C(=O)NCCCCCCNC(=O)c3ccc(-c4c5nc(c(-c6c(F)cccc6F)c6ccc([nH]6)c(-c6c(F)cccc6F)c6nc(c(-c7c(F)cccc7F)c7ccc4[nH]7)C=C6)C=C5)cc3)ccc2C[C@H]2CCCC2=O)cc1
REMARK SMILES IDX 16 1 15 2 14 3 13 4 11 5 12 6 9 8 10 9 8 10 6 11 7 12 79 13
REMARK SMILES IDX 78 14 77 15 5 16 1 17 2 18 3 19 88 20 4 21 87 22 80 23 81 24
REMARK SMILES IDX 82 25 85 26 83 27 84 28 86 29 17 30 18 31 19 32 20 33 21 34
REMARK SMILES IDX 22 36 23 37 24 38 76 39 25 40 75 41 26 42 27 43 28 44 69 45
REMARK SMILES IDX 29 46 74 47 68 48 70 49 30 50 73 51 67 52 66 53 31 55 57 56
REMARK SMILES IDX 40 57 56 58 41 59 44 60 55 61 71 62 42 63 43 64 54 66 72 67
REMARK SMILES IDX 45 68 32 69 33 70 38 71 34 72 35 73 37 74 39 75 36 76 58 77
REMARK SMILES IDX 59 78 64 79 60 80 61 81 63 82 65 83 62 84 46 85 47 86 52 87
REMARK SMILES IDX 48 88 49 89 51 90 53 91 50 92
REMARK H PARENT 13 7 20 35 70 54 44 65
REMARK Flexibility Score: inf
ROOT
ATOM      1  C   UNL A   1      33.165  28.497  27.215  1.00  0.00     0.002 C 
ENDROOT
BRANCH   1   2
ATOM      2  C   UNL A   1      31.787  28.794  26.608  1.00  0.00     0.021 C 
BRANCH   2   3
ATOM      3  C   UNL A   1      31.741  29.989  25.652  1.00  0.00     0.116 C 
BRANCH   3   4
ATOM      4  N   UNL A   1      31.206  29.631  24.357  1.00  0.00    -0.356 N 
ATOM      5  C   UNL A   1      31.717  28.890  23.336  1.00  0.00     0.227 C 
ATOM      6  O   UNL A   1      31.028  28.830  22.310  1.00  0.00    -0.274 OA
ATOM      7  H   UNL A   1      30.305  29.988  24.183  1.00  0.00     0.163 HD
BRANCH   5   8
ATOM      8  C   UNL A   1      33.057  28.139  23.402  1.00  0.00     0.105 C 
ATOM      9  C   UNL A   1      34.071  28.566  22.341  1.00  0.00     0.023 C 
BRANCH   8  10
ATOM     10  C   UNL A   1      32.908  26.639  23.608  1.00  0.00    -0.035 A 
ATOM     11  C   UNL A   1      33.869  24.526  24.455  1.00  0.00    -0.015 A 
ATOM     12  C   UNL A   1      33.958  25.912  24.197  1.00  0.00     0.013 A 
ATOM     13  C   UNL A   1      32.630  23.885  24.234  1.00  0.00    -0.039 A 
ATOM     14  C   UNL A   1      31.616  24.587  23.566  1.00  0.00     0.004 A 
ATOM     15  C   UNL A   1      31.771  25.930  23.226  1.00  0.00     0.005 A 
BRANCH  11  16
ATOM     16  C   UNL A   1      35.095  23.789  24.810  1.00  0.00    -0.018 A 
ATOM     17  C   UNL A   1      38.775  21.671  25.673  1.00  0.00     0.044 C 
ATOM     18  C   UNL A   1      37.507  22.419  25.385  1.00  0.00    -0.051 A 
ATOM     19  C   UNL A   1      37.055  22.528  24.070  1.00  0.00     0.004 A 
ATOM     20  C   UNL A   1      36.756  23.006  26.411  1.00  0.00     0.004 A 
ATOM     21  C   UNL A   1      35.873  23.213  23.788  1.00  0.00     0.009 A 
ATOM     22  C   UNL A   1      35.564  23.686  26.126  1.00  0.00     0.009 A 
ENDBRANCH  11  16
BRANCH  13  23
ATOM     23  C   UNL A   1      32.324  22.472  24.698  1.00  0.00     0.047 C 
BRANCH  23  24
ATOM     24  C   UNL A   1      33.096  21.345  23.993  1.00  0.00     0.060 C 
ATOM     25  C   UNL A   1      33.611  20.209  24.889  1.00  0.00     0.012 C 
ATOM     26  C   UNL A   1      32.277  20.592  22.963  1.00  0.00     0.136 C 
ATOM     27  C   UNL A   1      32.650  19.043  24.691  1.00  0.00     0.009 C 
ATOM     28  C   UNL A   1      32.252  19.109  23.225  1.00  0.00     0.076 C 
ATOM     29  O   UNL A   1      31.721  21.116  22.005  1.00  0.00    -0.299 OA
ENDBRANCH  23  24
ENDBRANCH  13  23
ENDBRANCH   8  10
ENDBRANCH   5   8
ENDBRANCH   3   4
ENDBRANCH   2   3
ENDBRANCH   1   2
BRANCH   1  30
ATOM     30  C   UNL A   1      34.277  29.524  26.936  1.00  0.00     0.002 C 
BRANCH  30  31
ATOM     31  C   UNL A   1      34.135  30.877  27.637  1.00  0.00     0.021 C 
BRANCH  31  32
ATOM     32  C   UNL A   1      35.432  31.671  27.727  1.00  0.00     0.116 C 
BRANCH  32  33
ATOM     33  N   UNL A   1      35.839  31.962  29.096  1.00  0.00    -0.352 N 
ATOM     34  C   UNL A   1      36.589  31.209  29.989  1.00  0.00     0.251 C 
ATOM     35  H   UNL A   1      35.536  32.832  29.442  1.00  0.00     0.163 HD
ATOM     36  O   UNL A   1      36.785  31.619  31.112  1.00  0.00    -0.269 OA
BRANCH  34  37
ATOM     37  C   UNL A   1      37.275  29.979  29.512  1.00  0.00     0.039 A 
ATOM     38  C   UNL A   1      37.404  28.926  30.426  1.00  0.00     0.014 A 
ATOM     39  C   UNL A   1      37.962  29.943  28.303  1.00  0.00     0.014 A 
ATOM     40  C   UNL A   1      38.419  27.991  30.251  1.00  0.00     0.010 A 
ATOM     41  C   UNL A   1      39.031  29.080  28.172  1.00  0.00     0.010 A 
ATOM     42  C   UNL A   1      39.303  28.157  29.186  1.00  0.00    -0.014 A 
BRANCH  42  43
ATOM     43  C   UNL A   1      40.611  27.521  29.140  1.00  0.00     0.031 A 
ATOM     44  C   UNL A   1      40.750  26.108  28.741  1.00  0.00     0.074 A 
ATOM     45  C   UNL A   1      41.706  28.269  29.400  1.00  0.00     0.049 A 
ATOM     46  N   UNL A   1      41.734  25.348  29.086  1.00  0.00    -0.248 NA
ATOM     47  C   UNL A   1      39.742  25.422  27.944  1.00  0.00     0.031 C 
ATOM     48  C   UNL A   1      43.100  27.918  29.149  1.00  0.00     0.029 A 
ATOM     49  N   UNL A   1      41.772  29.455  30.143  1.00  0.00    -0.354 N 
ATOM     50  C   UNL A   1      41.637  24.181  28.362  1.00  0.00     0.074 A 
ATOM     51  C   UNL A   1      40.347  24.253  27.713  1.00  0.00     0.031 C 
ATOM     52  C   UNL A   1      43.885  28.688  29.918  1.00  0.00     0.029 A 
ATOM     53  C   UNL A   1      43.017  29.447  30.803  1.00  0.00     0.049 A 
ATOM     54  H   UNL A   1      41.082  30.156  30.194  1.00  0.00     0.167 HD
ATOM     55  C   UNL A   1      42.713  23.346  28.285  1.00  0.00     0.037 A 
ATOM     56  C   UNL A   1      43.092  29.430  32.166  1.00  0.00     0.037 A 
ATOM     57  C   UNL A   1      43.828  23.851  29.083  1.00  0.00     0.049 A 
ATOM     58  C   UNL A   1      43.780  28.208  32.730  1.00  0.00     0.074 A 
ATOM     59  C   UNL A   1      44.937  24.614  28.751  1.00  0.00     0.029 A 
ATOM     60  N   UNL A   1      43.738  23.868  30.469  1.00  0.00    -0.354 N 
ATOM     61  N   UNL A   1      43.992  27.116  32.051  1.00  0.00    -0.248 NA
ATOM     62  C   UNL A   1      44.246  28.105  34.111  1.00  0.00     0.031 C 
ATOM     63  C   UNL A   1      45.475  25.150  29.945  1.00  0.00     0.029 A 
ATOM     64  C   UNL A   1      44.711  24.692  31.004  1.00  0.00     0.049 A 
ATOM     65  H   UNL A   1      43.076  23.366  30.995  1.00  0.00     0.167 HD
ATOM     66  C   UNL A   1      44.549  26.171  32.869  1.00  0.00     0.074 A 
ATOM     67  C   UNL A   1      44.717  26.846  34.142  1.00  0.00     0.031 C 
ATOM     68  C   UNL A   1      44.800  24.901  32.440  1.00  0.00     0.037 A 
BRANCH  55  69
ATOM     69  C   UNL A   1      42.856  22.258  27.242  1.00  0.00     0.057 A 
ATOM     70  C   UNL A   1      42.099  21.071  27.324  1.00  0.00     0.134 A 
ATOM     71  C   UNL A   1      43.762  22.289  26.168  1.00  0.00     0.134 A 
ATOM     72  F   UNL A   1      41.101  20.929  28.206  1.00  0.00    -0.206 F 
ATOM     73  C   UNL A   1      42.327  19.961  26.500  1.00  0.00     0.040 A 
ATOM     74  C   UNL A   1      44.041  21.166  25.372  1.00  0.00     0.040 A 
ATOM     75  F   UNL A   1      44.375  23.422  25.804  1.00  0.00    -0.206 F 
ATOM     76  C   UNL A   1      43.334  19.988  25.550  1.00  0.00     0.006 A 
ENDBRANCH  55  69
BRANCH  56  77
ATOM     77  C   UNL A   1      41.979  30.156  32.830  1.00  0.00     0.057 A 
ATOM     78  C   UNL A   1      42.055  31.554  32.940  1.00  0.00     0.134 A 
ATOM     79  C   UNL A   1      40.722  29.570  33.010  1.00  0.00     0.134 A 
ATOM     80  F   UNL A   1      43.233  32.179  32.779  1.00  0.00    -0.206 F 
ATOM     81  C   UNL A   1      40.917  32.344  33.113  1.00  0.00     0.040 A 
ATOM     82  C   UNL A   1      39.575  30.351  33.189  1.00  0.00     0.040 A 
ATOM     83  F   UNL A   1      40.566  28.242  32.899  1.00  0.00    -0.206 F 
ATOM     84  C   UNL A   1      39.666  31.743  33.204  1.00  0.00     0.006 A 
ENDBRANCH  56  77
BRANCH  68  85
ATOM     85  C   UNL A   1      45.212  23.751  33.316  1.00  0.00     0.057 A 
ATOM     86  C   UNL A   1      46.512  23.575  33.810  1.00  0.00     0.134 A 
ATOM     87  C   UNL A   1      44.241  22.864  33.827  1.00  0.00     0.134 A 
ATOM     88  F   UNL A   1      47.506  24.409  33.474  1.00  0.00    -0.206 F 
ATOM     89  C   UNL A   1      46.833  22.559  34.718  1.00  0.00     0.040 A 
ATOM     90  C   UNL A   1      44.541  21.877  34.769  1.00  0.00     0.040 A 
ATOM     91  F   UNL A   1      42.957  22.934  33.444  1.00  0.00    -0.206 F 
ATOM     92  C   UNL A   1      45.845  21.715  35.212  1.00  0.00     0.006 A 
ENDBRANCH  68  85
ENDBRANCH  42  43
ENDBRANCH  34  37
ENDBRANCH  32  33
ENDBRANCH  31  32
ENDBRANCH  30  31
ENDBRANCH   1  30
TORSDOF 17
ENDMDL
MODEL 2
REMARK VINA RESULT:     -12.8      1.062      2.424
REMARK SMILES Cc1ccc(-c2cc([C@@H](C)C(=O)NCCCCCCNC(=O)c3ccc(-c4c5nc(c(-c6c(F)cccc6F)c6ccc([nH]6)c(-c6c(F)cccc6F)c6nc(c(-c7c(F)cccc7F)c7ccc4[nH]7)C=C6)C=C5)cc3)ccc2C[C@H]2CCCC2=O)cc1
REMARK SMILES IDX 16 1 15 2 14 3 13 4 11 5 12 6 9 8 10 9 8 10 6 11 7 12 79 13
REMARK SMILES IDX 78 14 77 15 5 16 1 17 2 18 3 19 88 20 4 21 87 22 80 23 81 24
REMARK SMILES IDX 82 25 85 26 83 27 84 28 86 29 17 30 18 31 19 32 20 33 21 34
REMARK SMILES IDX 22 36 23 37 24 38 76 39 25 40 75 41 26 42 27 43 28 44 69 45
REMARK SMILES IDX 29 46 74 47 68 48 70 49 30 50 73 51 67 52 66 53 31 55 57 56
REMARK SMILES IDX 40 57 56 58 41 59 44 60 55 61 71 62 42 63 43 64 54 66 72 67
REMARK SMILES IDX 45 68 32 69 33 70 38 71 34 72 35 73 37 74 39 75 36 76 58 77
REMARK SMILES IDX 59 78 64 79 60 80 61 81 63 82 65 83 62 84 46 85 47 86 52 87
REMARK SMILES IDX 48 88 49 89 51 90 53 91 50 92
REMARK H PARENT 13 7 20 35 70 54 44 65
REMARK Flexibility Score: inf
ROOT
ATOM      1  C   UNL A   1      33.422  28.390  26.358  1.00  0.00     0.002 C 
ENDROOT
BRANCH   1   2
ATOM      2  C   UNL A   1      32.850  29.122  25.136  1.00  0.00     0.021 C 
BRANCH   2   3
ATOM      3  C   UNL A   1      31.382  28.817  24.824  1.00  0.00     0.116 C 
BRANCH   3   4
ATOM      4  N   UNL A   1      31.192  28.391  23.456  1.00  0.00    -0.356 N 
ATOM      5  C   UNL A   1      30.962  27.165  22.910  1.00  0.00     0.227 C 
ATOM      6  O   UNL A   1      30.919  27.120  21.674  1.00  0.00    -0.274 OA
ATOM      7  H   UNL A   1      31.238  29.122  22.797  1.00  0.00     0.163 HD
BRANCH   5   8
ATOM      8  C   UNL A   1      30.743  25.883  23.731  1.00  0.00     0.105 C 
ATOM      9  C   UNL A   1      29.906  26.080  24.994  1.00  0.00     0.023 C 
BRANCH   8  10
ATOM     10  C   UNL A   1      31.998  25.039  23.894  1.00  0.00    -0.035 A 
ATOM     11  C   UNL A   1      33.026  22.795  23.990  1.00  0.00    -0.015 A 
ATOM     12  C   UNL A   1      31.897  23.636  23.884  1.00  0.00     0.013 A 
ATOM     13  C   UNL A   1      34.307  23.390  23.967  1.00  0.00    -0.039 A 
ATOM     14  C   UNL A   1      34.403  24.786  24.067  1.00  0.00     0.004 A 
ATOM     15  C   UNL A   1      33.266  25.591  24.069  1.00  0.00     0.005 A 
BRANCH  11  16
ATOM     16  C   UNL A   1      32.820  21.358  24.252  1.00  0.00    -0.018 A 
ATOM     17  C   UNL A   1      32.273  17.100  24.832  1.00  0.00     0.044 C 
ATOM     18  C   UNL A   1      32.479  18.574  24.641  1.00  0.00    -0.051 A 
ATOM     19  C   UNL A   1      32.312  19.134  23.374  1.00  0.00     0.004 A 
ATOM     20  C   UNL A   1      32.828  19.407  25.711  1.00  0.00     0.004 A 
ATOM     21  C   UNL A   1      32.492  20.503  23.183  1.00  0.00     0.009 A 
ATOM     22  C   UNL A   1      32.999  20.785  25.517  1.00  0.00     0.009 A 
ENDBRANCH  11  16
BRANCH  13  23
ATOM     23  C   UNL A   1      35.595  22.600  23.823  1.00  0.00     0.047 C 
BRANCH  23  24
ATOM     24  C   UNL A   1      36.195  22.038  25.122  1.00  0.00     0.060 C 
ATOM     25  C   UNL A   1      36.649  20.572  25.083  1.00  0.00     0.012 C 
ATOM     26  C   UNL A   1      37.454  22.750  25.575  1.00  0.00     0.136 C 
ATOM     27  C   UNL A   1      38.167  20.602  24.944  1.00  0.00     0.009 C 
ATOM     28  C   UNL A   1      38.611  21.804  25.761  1.00  0.00     0.076 C 
ATOM     29  O   UNL A   1      37.526  23.954  25.797  1.00  0.00    -0.299 OA
ENDBRANCH  23  24
ENDBRANCH  13  23
ENDBRANCH   8  10
ENDBRANCH   5   8
ENDBRANCH   3   4
ENDBRANCH   2   3
ENDBRANCH   1   2
BRANCH   1  30
ATOM     30  C   UNL A   1      34.513  29.128  27.154  1.00  0.00     0.002 C 
BRANCH  30  31
ATOM     31  C   UNL A   1      34.143  30.521  27.672  1.00  0.00     0.021 C 
BRANCH  31  32
ATOM     32  C   UNL A   1      35.287  31.525  27.628  1.00  0.00     0.116 C 
BRANCH  32  33
ATOM     33  N   UNL A   1      35.768  31.914  28.948  1.00  0.00    -0.352 N 
ATOM     34  C   UNL A   1      36.600  31.244  29.835  1.00  0.00     0.251 C 
ATOM     35  H   UNL A   1      35.453  32.793  29.261  1.00  0.00     0.163 HD
ATOM     36  O   UNL A   1      36.849  31.729  30.916  1.00  0.00    -0.269 OA
BRANCH  34  37
ATOM     37  C   UNL A   1      37.301  30.011  29.387  1.00  0.00     0.039 A 
ATOM     38  C   UNL A   1      37.424  28.974  30.320  1.00  0.00     0.014 A 
ATOM     39  C   UNL A   1      38.007  29.961  28.189  1.00  0.00     0.014 A 
ATOM     40  C   UNL A   1      38.449  28.044  30.176  1.00  0.00     0.010 A 
ATOM     41  C   UNL A   1      39.084  29.104  28.089  1.00  0.00     0.010 A 
ATOM     42  C   UNL A   1      39.347  28.200  29.121  1.00  0.00    -0.014 A 
BRANCH  42  43
ATOM     43  C   UNL A   1      40.661  27.572  29.105  1.00  0.00     0.031 A 
ATOM     44  C   UNL A   1      40.821  26.167  28.690  1.00  0.00     0.074 A 
ATOM     45  C   UNL A   1      41.742  28.324  29.408  1.00  0.00     0.049 A 
ATOM     46  N   UNL A   1      41.799  25.408  29.053  1.00  0.00    -0.248 NA
ATOM     47  C   UNL A   1      39.842  25.486  27.854  1.00  0.00     0.031 C 
ATOM     48  C   UNL A   1      43.145  27.985  29.194  1.00  0.00     0.029 A 
ATOM     49  N   UNL A   1      41.778  29.499  30.170  1.00  0.00    -0.354 N 
ATOM     50  C   UNL A   1      41.731  24.251  28.310  1.00  0.00     0.074 A 
ATOM     51  C   UNL A   1      40.461  24.324  27.625  1.00  0.00     0.031 C 
ATOM     52  C   UNL A   1      43.902  28.749  29.997  1.00  0.00     0.029 A 
ATOM     53  C   UNL A   1      43.002  29.490  30.866  1.00  0.00     0.049 A 
ATOM     54  H   UNL A   1      41.082  30.195  30.211  1.00  0.00     0.167 HD
ATOM     55  C   UNL A   1      42.815  23.424  28.253  1.00  0.00     0.037 A 
ATOM     56  C   UNL A   1      43.038  29.453  32.231  1.00  0.00     0.037 A 
ATOM     57  C   UNL A   1      43.902  23.924  29.091  1.00  0.00     0.049 A 
ATOM     58  C   UNL A   1      43.717  28.228  32.797  1.00  0.00     0.074 A 
ATOM     59  C   UNL A   1      45.016  24.699  28.803  1.00  0.00     0.029 A 
ATOM     60  N   UNL A   1      43.771  23.921  30.474  1.00  0.00    -0.354 N 
ATOM     61  N   UNL A   1      43.956  27.147  32.109  1.00  0.00    -0.248 NA
ATOM     62  C   UNL A   1      44.142  28.108  34.190  1.00  0.00     0.031 C 
ATOM     63  C   UNL A   1      45.514  25.221  30.021  1.00  0.00     0.029 A 
ATOM     64  C   UNL A   1      44.723  24.743  31.050  1.00  0.00     0.049 A 
ATOM     65  H   UNL A   1      43.097  23.406  30.973  1.00  0.00     0.167 HD
ATOM     66  C   UNL A   1      44.495  26.193  32.930  1.00  0.00     0.074 A 
ATOM     67  C   UNL A   1      44.621  26.851  34.217  1.00  0.00     0.031 C 
ATOM     68  C   UNL A   1      44.768  24.931  32.490  1.00  0.00     0.037 A 
BRANCH  55  69
ATOM     69  C   UNL A   1      42.996  22.352  27.199  1.00  0.00     0.057 A 
ATOM     70  C   UNL A   1      42.230  21.169  27.229  1.00  0.00     0.134 A 
ATOM     71  C   UNL A   1      43.948  22.394  26.166  1.00  0.00     0.134 A 
ATOM     72  F   UNL A   1      41.194  21.019  28.065  1.00  0.00    -0.206 F 
ATOM     73  C   UNL A   1      42.486  20.071  26.398  1.00  0.00     0.040 A 
ATOM     74  C   UNL A   1      44.254  21.284  25.364  1.00  0.00     0.040 A 
ATOM     75  F   UNL A   1      44.582  23.529  25.847  1.00  0.00    -0.206 F 
ATOM     76  C   UNL A   1      43.533  20.107  25.492  1.00  0.00     0.006 A 
ENDBRANCH  55  69
BRANCH  56  77
ATOM     77  C   UNL A   1      41.901  30.162  32.872  1.00  0.00     0.057 A 
ATOM     78  C   UNL A   1      41.964  31.559  33.003  1.00  0.00     0.134 A 
ATOM     79  C   UNL A   1      40.643  29.565  33.006  1.00  0.00     0.134 A 
ATOM     80  F   UNL A   1      43.141  32.194  32.886  1.00  0.00    -0.206 F 
ATOM     81  C   UNL A   1      40.816  32.339  33.154  1.00  0.00     0.040 A 
ATOM     82  C   UNL A   1      39.486  30.336  33.163  1.00  0.00     0.040 A 
ATOM     83  F   UNL A   1      40.500  28.238  32.872  1.00  0.00    -0.206 F 
ATOM     84  C   UNL A   1      39.566  31.728  33.199  1.00  0.00     0.006 A 
ENDBRANCH  56  77
BRANCH  68  85
ATOM     85  C   UNL A   1      45.162  23.772  33.362  1.00  0.00     0.057 A 
ATOM     86  C   UNL A   1      46.447  23.596  33.892  1.00  0.00     0.134 A 
ATOM     87  C   UNL A   1      44.182  22.870  33.830  1.00  0.00     0.134 A 
ATOM     88  F   UNL A   1      47.445  24.442  33.598  1.00  0.00    -0.206 F 
ATOM     89  C   UNL A   1      46.748  22.569  34.795  1.00  0.00     0.040 A 
ATOM     90  C   UNL A   1      44.460  21.872  34.766  1.00  0.00     0.040 A 
ATOM     91  F   UNL A   1      42.909  22.938  33.410  1.00  0.00    -0.206 F 
ATOM     92  C   UNL A   1      45.751  21.712  35.246  1.00  0.00     0.006 A 
ENDBRANCH  68  85
ENDBRANCH  42  43
ENDBRANCH  34  37
ENDBRANCH  32  33
ENDBRANCH  31  32
ENDBRANCH  30  31
ENDBRANCH   1  30
TORSDOF 17
ENDMDL
MODEL 3
REMARK VINA RESULT:     -12.6      1.571      2.503
REMARK SMILES Cc1ccc(-c2cc([C@@H](C)C(=O)NCCCCCCNC(=O)c3ccc(-c4c5nc(c(-c6c(F)cccc6F)c6ccc([nH]6)c(-c6c(F)cccc6F)c6nc(c(-c7c(F)cccc7F)c7ccc4[nH]7)C=C6)C=C5)cc3)ccc2C[C@H]2CCCC2=O)cc1
REMARK SMILES IDX 16 1 15 2 14 3 13 4 11 5 12 6 9 8 10 9 8 10 6 11 7 12 79 13
REMARK SMILES IDX 78 14 77 15 5 16 1 17 2 18 3 19 88 20 4 21 87 22 80 23 81 24
REMARK SMILES IDX 82 25 85 26 83 27 84 28 86 29 17 30 18 31 19 32 20 33 21 34
REMARK SMILES IDX 22 36 23 37 24 38 76 39 25 40 75 41 26 42 27 43 28 44 69 45
REMARK SMILES IDX 29 46 74 47 68 48 70 49 30 50 73 51 67 52 66 53 31 55 57 56
REMARK SMILES IDX 40 57 56 58 41 59 44 60 55 61 71 62 42 63 43 64 54 66 72 67
REMARK SMILES IDX 45 68 32 69 33 70 38 71 34 72 35 73 37 74 39 75 36 76 58 77
REMARK SMILES IDX 59 78 64 79 60 80 61 81 63 82 65 83 62 84 46 85 47 86 52 87
REMARK SMILES IDX 48 88 49 89 51 90 53 91 50 92
REMARK H PARENT 13 7 20 35 70 54 44 65
REMARK Flexibility Score: inf
ROOT
ATOM      1  C   UNL A   1      33.388  28.471  25.291  1.00  0.00     0.002 C 
ENDROOT
BRANCH   1   2
ATOM      2  C   UNL A   1      34.239  28.882  24.082  1.00  0.00     0.021 C 
BRANCH   2   3
ATOM      3  C   UNL A   1      33.726  28.389  22.727  1.00  0.00     0.116 C 
BRANCH   3   4
ATOM      4  N   UNL A   1      32.476  27.672  22.845  1.00  0.00    -0.356 N 
ATOM      5  C   UNL A   1      32.070  26.467  22.359  1.00  0.00     0.227 C 
ATOM      6  O   UNL A   1      30.891  26.161  22.578  1.00  0.00    -0.274 OA
ATOM      7  H   UNL A   1      31.793  28.141  23.376  1.00  0.00     0.163 HD
BRANCH   5   8
ATOM      8  C   UNL A   1      32.982  25.495  21.591  1.00  0.00     0.105 C 
ATOM      9  C   UNL A   1      32.661  25.375  20.101  1.00  0.00     0.023 C 
BRANCH   8  10
ATOM     10  C   UNL A   1      33.233  24.184  22.321  1.00  0.00    -0.035 A 
ATOM     11  C   UNL A   1      34.617  22.891  23.907  1.00  0.00    -0.015 A 
ATOM     12  C   UNL A   1      34.350  24.065  23.169  1.00  0.00     0.013 A 
ATOM     13  C   UNL A   1      33.654  21.858  23.892  1.00  0.00    -0.039 A 
ATOM     14  C   UNL A   1      32.590  21.942  22.981  1.00  0.00     0.004 A 
ATOM     15  C   UNL A   1      32.408  23.070  22.183  1.00  0.00     0.005 A 
BRANCH  11  16
ATOM     16  C   UNL A   1      35.937  22.739  24.546  1.00  0.00    -0.018 A 
ATOM     17  C   UNL A   1      39.756  22.420  26.568  1.00  0.00     0.044 C 
ATOM     18  C   UNL A   1      38.428  22.513  25.875  1.00  0.00    -0.051 A 
ATOM     19  C   UNL A   1      37.679  23.686  25.977  1.00  0.00     0.004 A 
ATOM     20  C   UNL A   1      37.925  21.450  25.115  1.00  0.00     0.004 A 
ATOM     21  C   UNL A   1      36.447  23.790  25.331  1.00  0.00     0.009 A 
ATOM     22  C   UNL A   1      36.690  21.561  24.460  1.00  0.00     0.009 A 
ENDBRANCH  11  16
BRANCH  13  23
ATOM     23  C   UNL A   1      33.694  20.662  24.825  1.00  0.00     0.047 C 
BRANCH  23  24
ATOM     24  C   UNL A   1      33.139  20.888  26.241  1.00  0.00     0.060 C 
ATOM     25  C   UNL A   1      34.113  21.489  27.265  1.00  0.00     0.012 C 
ATOM     26  C   UNL A   1      31.977  21.859  26.298  1.00  0.00     0.136 C 
ATOM     27  C   UNL A   1      33.741  22.963  27.388  1.00  0.00     0.009 C 
ATOM     28  C   UNL A   1      32.228  22.997  27.251  1.00  0.00     0.076 C 
ATOM     29  O   UNL A   1      30.934  21.725  25.667  1.00  0.00    -0.299 OA
ENDBRANCH  23  24
ENDBRANCH  13  23
ENDBRANCH   8  10
ENDBRANCH   5   8
ENDBRANCH   3   4
ENDBRANCH   2   3
ENDBRANCH   1   2
BRANCH   1  30
ATOM     30  C   UNL A   1      34.078  28.514  26.666  1.00  0.00     0.002 C 
BRANCH  30  31
ATOM     31  C   UNL A   1      33.531  29.541  27.661  1.00  0.00     0.021 C 
BRANCH  31  32
ATOM     32  C   UNL A   1      33.960  30.974  27.375  1.00  0.00     0.116 C 
BRANCH  32  33
ATOM     33  N   UNL A   1      34.427  31.687  28.558  1.00  0.00    -0.352 N 
ATOM     34  C   UNL A   1      35.467  31.395  29.430  1.00  0.00     0.251 C 
ATOM     35  H   UNL A   1      33.925  32.506  28.773  1.00  0.00     0.163 HD
ATOM     36  O   UNL A   1      35.668  32.104  30.391  1.00  0.00    -0.269 OA
BRANCH  34  37
ATOM     37  C   UNL A   1      36.422  30.307  29.090  1.00  0.00     0.039 A 
ATOM     38  C   UNL A   1      36.619  29.309  30.053  1.00  0.00     0.014 A 
ATOM     39  C   UNL A   1      37.256  30.381  27.979  1.00  0.00     0.014 A 
ATOM     40  C   UNL A   1      37.802  28.576  30.043  1.00  0.00     0.010 A 
ATOM     41  C   UNL A   1      38.472  29.729  28.018  1.00  0.00     0.010 A 
ATOM     42  C   UNL A   1      38.772  28.888  29.092  1.00  0.00    -0.014 A 
BRANCH  42  43
ATOM     43  C   UNL A   1      40.169  28.503  29.236  1.00  0.00     0.031 A 
ATOM     44  C   UNL A   1      40.666  27.236  28.669  1.00  0.00     0.074 A 
ATOM     45  C   UNL A   1      41.020  29.364  29.836  1.00  0.00     0.049 A 
ATOM     46  N   UNL A   1      41.704  26.604  29.101  1.00  0.00    -0.248 NA
ATOM     47  C   UNL A   1      39.984  26.552  27.578  1.00  0.00     0.031 C 
ATOM     48  C   UNL A   1      42.478  29.310  29.843  1.00  0.00     0.029 A 
ATOM     49  N   UNL A   1      40.703  30.382  30.745  1.00  0.00    -0.354 N 
ATOM     50  C   UNL A   1      41.983  25.595  28.206  1.00  0.00     0.074 A 
ATOM     51  C   UNL A   1      40.847  25.567  27.312  1.00  0.00     0.031 C 
ATOM     52  C   UNL A   1      42.933  30.043  30.871  1.00  0.00     0.029 A 
ATOM     53  C   UNL A   1      41.780  30.462  31.650  1.00  0.00     0.049 A 
ATOM     54  H   UNL A   1      39.887  30.933  30.750  1.00  0.00     0.167 HD
ATOM     55  C   UNL A   1      43.203  24.985  28.239  1.00  0.00     0.037 A 
ATOM     56  C   UNL A   1      41.605  30.202  32.979  1.00  0.00     0.037 A 
ATOM     57  C   UNL A   1      44.025  25.513  29.326  1.00  0.00     0.049 A 
ATOM     58  C   UNL A   1      42.413  29.030  33.488  1.00  0.00     0.074 A 
ATOM     59  C   UNL A   1      44.995  26.503  29.361  1.00  0.00     0.029 A 
ATOM     60  N   UNL A   1      43.680  25.253  30.646  1.00  0.00    -0.354 N 
ATOM     61  N   UNL A   1      42.966  28.138  32.715  1.00  0.00    -0.248 NA
ATOM     62  C   UNL A   1      42.628  28.749  34.906  1.00  0.00     0.031 C 
ATOM     63  C   UNL A   1      45.182  26.887  30.711  1.00  0.00     0.029 A 
ATOM     64  C   UNL A   1      44.347  26.114  31.498  1.00  0.00     0.049 A 
ATOM     65  H   UNL A   1      43.049  24.554  30.935  1.00  0.00     0.167 HD
ATOM     66  C   UNL A   1      43.545  27.164  33.484  1.00  0.00     0.074 A 
ATOM     67  C   UNL A   1      43.334  27.606  34.849  1.00  0.00     0.031 C 
ATOM     68  C   UNL A   1      44.126  26.060  32.933  1.00  0.00     0.037 A 
BRANCH  55  69
ATOM     69  C   UNL A   1      43.756  24.154  27.101  1.00  0.00     0.057 A 
ATOM     70  C   UNL A   1      44.508  24.751  26.067  1.00  0.00     0.134 A 
ATOM     71  C   UNL A   1      43.534  22.778  26.929  1.00  0.00     0.134 A 
ATOM     72  F   UNL A   1      44.920  26.023  26.137  1.00  0.00    -0.206 F 
ATOM     73  C   UNL A   1      44.878  24.069  24.901  1.00  0.00     0.040 A 
ATOM     74  C   UNL A   1      43.849  22.096  25.744  1.00  0.00     0.040 A 
ATOM     75  F   UNL A   1      43.057  22.018  27.923  1.00  0.00    -0.206 F 
ATOM     76  C   UNL A   1      44.508  22.748  24.713  1.00  0.00     0.006 A 
ENDBRANCH  55  69
BRANCH  56  77
ATOM     77  C   UNL A   1      40.264  30.588  33.487  1.00  0.00     0.057 A 
ATOM     78  C   UNL A   1      40.018  31.938  33.784  1.00  0.00     0.134 A 
ATOM     79  C   UNL A   1      39.150  29.757  33.332  1.00  0.00     0.134 A 
ATOM     80  F   UNL A   1      41.045  32.790  33.946  1.00  0.00    -0.206 F 
ATOM     81  C   UNL A   1      38.725  32.464  33.819  1.00  0.00     0.040 A 
ATOM     82  C   UNL A   1      37.849  30.271  33.370  1.00  0.00     0.040 A 
ATOM     83  F   UNL A   1      39.304  28.460  33.026  1.00  0.00    -0.206 F 
ATOM     84  C   UNL A   1      37.635  31.633  33.577  1.00  0.00     0.006 A 
ENDBRANCH  56  77
BRANCH  68  85
ATOM     85  C   UNL A   1      44.597  24.853  33.695  1.00  0.00     0.057 A 
ATOM     86  C   UNL A   1      43.738  23.957  34.345  1.00  0.00     0.134 A 
ATOM     87  C   UNL A   1      45.955  24.470  33.650  1.00  0.00     0.134 A 
ATOM     88  F   UNL A   1      42.413  24.160  34.378  1.00  0.00    -0.206 F 
ATOM     89  C   UNL A   1      44.201  22.781  34.946  1.00  0.00     0.040 A 
ATOM     90  C   UNL A   1      46.421  23.276  34.203  1.00  0.00     0.040 A 
ATOM     91  F   UNL A   1      46.879  25.233  33.046  1.00  0.00    -0.206 F 
ATOM     92  C   UNL A   1      45.544  22.429  34.864  1.00  0.00     0.006 A 
ENDBRANCH  68  85
ENDBRANCH  42  43
ENDBRANCH  34  37
ENDBRANCH  32  33
ENDBRANCH  31  32
ENDBRANCH  30  31
ENDBRANCH   1  30
TORSDOF 17
ENDMDL
