MODEL 1
REMARK VINA RESULT:     -11.3      0.000      0.000
REMARK SMILES CCn1cc(CNC(=O)[C@H]2CC=CC[C@@H]2C(=O)NCCCCCCNC(=O)c2ccc(-c3c4nc(c(-c5c(F)cccc5F)c5ccc([nH]5)c(-c5c(F)cccc5F)c5nc(c(-c6c(F)cccc6F)c6ccc3[nH]6)C=C5)C=C4)cc2)cn1
REMARK SMILES IDX 20 1 19 2 18 3 16 4 17 5 15 7 10 8 11 9 12 10 14 11 13 12
REMARK SMILES IDX 8 13 7 14 9 16 6 17 5 18 3 19 4 20 83 21 82 22 2 23 1 24
REMARK SMILES IDX 21 25 22 26 23 27 24 28 25 29 26 30 27 32 28 33 29 34 81 35
REMARK SMILES IDX 30 36 80 37 31 38 32 39 33 40 74 41 34 42 79 43 73 44 75 45
REMARK SMILES IDX 35 46 78 47 72 48 71 49 36 51 62 52 45 53 61 54 46 55 49 56
REMARK SMILES IDX 60 57 76 58 47 59 48 60 59 62 77 63 50 64 37 65 38 66 43 67
REMARK SMILES IDX 39 68 40 69 42 70 44 71 41 72 63 73 64 74 69 75 65 76 66 77
REMARK SMILES IDX 68 78 70 79 67 80 51 81 52 82 57 83 53 84 54 85 56 86 58 87
REMARK SMILES IDX 55 88
REMARK H PARENT 18 6 7 15 25 31 75 50 49 61
REMARK Flexibility Score: inf
ROOT
ATOM      1  C   UNL A   1      38.927  21.646  26.138  1.00  0.00     0.021 C 
ENDROOT
BRANCH   1   2
ATOM      2  C   UNL A   1      38.012  22.745  25.610  1.00  0.00     0.116 C 
BRANCH   2   3
ATOM      3  N   UNL A   1      36.812  22.882  26.401  1.00  0.00    -0.356 N 
ATOM      4  C   UNL A   1      35.551  23.292  26.095  1.00  0.00     0.224 C 
ATOM      5  O   UNL A   1      34.739  23.259  27.025  1.00  0.00    -0.275 OA
ATOM      6  H   UNL A   1      36.930  22.631  27.345  1.00  0.00     0.163 HD
BRANCH   4   7
ATOM      7  C   UNL A   1      35.137  23.660  24.662  1.00  0.00     0.095 C 
ATOM      8  C   UNL A   1      33.920  24.604  24.568  1.00  0.00     0.095 C 
ATOM      9  C   UNL A   1      32.621  23.881  24.994  1.00  0.00     0.041 C 
ATOM     10  C   UNL A   1      32.520  22.451  24.564  1.00  0.00    -0.030 C 
ATOM     11  C   UNL A   1      34.896  22.387  23.816  1.00  0.00     0.041 C 
ATOM     12  C   UNL A   1      33.540  21.781  24.012  1.00  0.00    -0.030 C 
BRANCH   8  13
ATOM     13  C   UNL A   1      33.806  25.269  23.187  1.00  0.00     0.224 C 
ATOM     14  N   UNL A   1      33.705  26.625  23.059  1.00  0.00    -0.352 N 
ATOM     15  H   UNL A   1      33.707  26.942  22.128  1.00  0.00     0.163 HD
ATOM     16  O   UNL A   1      33.750  24.610  22.147  1.00  0.00    -0.275 OA
BRANCH  14  17
ATOM     17  C   UNL A   1      33.593  27.680  24.041  1.00  0.00     0.155 C 
BRANCH  17  18
ATOM     18  C   UNL A   1      32.372  28.486  23.828  1.00  0.00     0.009 A 
ATOM     19  N   UNL A   1      30.552  29.389  22.974  1.00  0.00    -0.273 N 
ATOM     20  C   UNL A   1      31.645  28.632  22.663  1.00  0.00     0.114 A 
ATOM     21  N   UNL A   1      30.514  29.737  24.274  1.00  0.00    -0.181 NA
ATOM     22  C   UNL A   1      31.612  29.186  24.790  1.00  0.00     0.140 A 
BRANCH  19  23
ATOM     23  C   UNL A   1      29.484  29.852  22.107  1.00  0.00     0.141 C 
ATOM     24  C   UNL A   1      28.070  29.651  22.628  1.00  0.00     0.029 C 
ENDBRANCH  19  23
ENDBRANCH  17  18
ENDBRANCH  14  17
ENDBRANCH   8  13
ENDBRANCH   4   7
ENDBRANCH   2   3
ENDBRANCH   1   2
BRANCH   1  25
ATOM     25  C   UNL A   1      40.320  22.148  26.508  1.00  0.00     0.002 C 
BRANCH  25  26
ATOM     26  C   UNL A   1      41.011  21.392  27.655  1.00  0.00     0.002 C 
BRANCH  26  27
ATOM     27  C   UNL A   1      41.831  20.149  27.275  1.00  0.00     0.021 C 
BRANCH  27  28
ATOM     28  C   UNL A   1      41.958  19.925  25.777  1.00  0.00     0.116 C 
BRANCH  28  29
ATOM     29  N   UNL A   1      43.349  19.714  25.363  1.00  0.00    -0.352 N 
ATOM     30  C   UNL A   1      44.308  20.645  25.027  1.00  0.00     0.251 C 
ATOM     31  H   UNL A   1      43.638  18.774  25.319  1.00  0.00     0.163 HD
ATOM     32  O   UNL A   1      45.295  20.325  24.361  1.00  0.00    -0.269 OA
BRANCH  30  33
ATOM     33  C   UNL A   1      44.147  22.031  25.488  1.00  0.00     0.039 A 
ATOM     34  C   UNL A   1      43.410  22.983  24.778  1.00  0.00     0.014 A 
ATOM     35  C   UNL A   1      44.750  22.358  26.695  1.00  0.00     0.014 A 
ATOM     36  C   UNL A   1      43.250  24.250  25.335  1.00  0.00     0.010 A 
ATOM     37  C   UNL A   1      44.382  23.495  27.346  1.00  0.00     0.010 A 
ATOM     38  C   UNL A   1      43.740  24.489  26.627  1.00  0.00    -0.014 A 
BRANCH  38  39
ATOM     39  C   UNL A   1      43.547  25.751  27.320  1.00  0.00     0.031 A 
ATOM     40  C   UNL A   1      44.519  26.799  26.931  1.00  0.00     0.074 A 
ATOM     41  C   UNL A   1      42.416  26.014  28.013  1.00  0.00     0.049 A 
ATOM     42  N   UNL A   1      45.490  27.273  27.637  1.00  0.00    -0.248 NA
ATOM     43  C   UNL A   1      44.535  27.240  25.526  1.00  0.00     0.031 C 
ATOM     44  C   UNL A   1      41.217  25.175  28.161  1.00  0.00     0.029 A 
ATOM     45  N   UNL A   1      42.049  27.158  28.649  1.00  0.00    -0.354 N 
ATOM     46  C   UNL A   1      46.075  28.260  26.849  1.00  0.00     0.074 A 
ATOM     47  C   UNL A   1      45.624  28.011  25.508  1.00  0.00     0.031 C 
ATOM     48  C   UNL A   1      40.192  25.920  28.632  1.00  0.00     0.029 A 
ATOM     49  C   UNL A   1      40.700  27.231  28.984  1.00  0.00     0.049 A 
ATOM     50  H   UNL A   1      42.689  27.877  28.857  1.00  0.00     0.167 HD
ATOM     51  C   UNL A   1      46.621  29.369  27.423  1.00  0.00     0.037 A 
ATOM     52  C   UNL A   1      40.055  28.315  29.486  1.00  0.00     0.037 A 
ATOM     53  C   UNL A   1      46.809  29.157  28.844  1.00  0.00     0.049 A 
ATOM     54  C   UNL A   1      41.098  29.226  30.025  1.00  0.00     0.074 A 
ATOM     55  C   UNL A   1      47.495  28.238  29.615  1.00  0.00     0.029 A 
ATOM     56  N   UNL A   1      45.901  29.746  29.691  1.00  0.00    -0.354 N 
ATOM     57  N   UNL A   1      41.834  28.948  31.064  1.00  0.00    -0.248 NA
ATOM     58  C   UNL A   1      41.647  30.223  29.118  1.00  0.00     0.031 C 
ATOM     59  C   UNL A   1      46.643  27.984  30.731  1.00  0.00     0.029 A 
ATOM     60  C   UNL A   1      45.529  28.817  30.626  1.00  0.00     0.049 A 
ATOM     61  H   UNL A   1      45.576  30.673  29.637  1.00  0.00     0.167 HD
ATOM     62  C   UNL A   1      43.106  29.384  30.723  1.00  0.00     0.074 A 
ATOM     63  C   UNL A   1      42.913  30.233  29.547  1.00  0.00     0.031 C 
ATOM     64  C   UNL A   1      44.219  28.775  31.232  1.00  0.00     0.037 A 
BRANCH  51  65
ATOM     65  C   UNL A   1      46.555  30.769  26.837  1.00  0.00     0.057 A 
ATOM     66  C   UNL A   1      47.733  31.542  26.834  1.00  0.00     0.134 A 
ATOM     67  C   UNL A   1      45.375  31.498  26.579  1.00  0.00     0.134 A 
ATOM     68  F   UNL A   1      48.933  30.973  27.027  1.00  0.00    -0.206 F 
ATOM     69  C   UNL A   1      47.720  32.939  26.736  1.00  0.00     0.040 A 
ATOM     70  C   UNL A   1      45.358  32.888  26.433  1.00  0.00     0.040 A 
ATOM     71  F   UNL A   1      44.163  30.939  26.532  1.00  0.00    -0.206 F 
ATOM     72  C   UNL A   1      46.526  33.619  26.558  1.00  0.00     0.006 A 
ENDBRANCH  51  65
BRANCH  52  73
ATOM     73  C   UNL A   1      38.660  28.758  29.265  1.00  0.00     0.057 A 
ATOM     74  C   UNL A   1      37.753  28.855  30.331  1.00  0.00     0.134 A 
ATOM     75  C   UNL A   1      38.265  29.373  28.063  1.00  0.00     0.134 A 
ATOM     76  F   UNL A   1      38.055  28.335  31.530  1.00  0.00    -0.206 F 
ATOM     77  C   UNL A   1      36.539  29.548  30.220  1.00  0.00     0.040 A 
ATOM     78  C   UNL A   1      37.055  30.064  27.937  1.00  0.00     0.040 A 
ATOM     79  F   UNL A   1      39.082  29.402  27.001  1.00  0.00    -0.206 F 
ATOM     80  C   UNL A   1      36.193  30.168  29.023  1.00  0.00     0.006 A 
ENDBRANCH  52  73
BRANCH  64  81
ATOM     81  C   UNL A   1      44.036  27.808  32.370  1.00  0.00     0.057 A 
ATOM     82  C   UNL A   1      43.932  26.416  32.221  1.00  0.00     0.134 A 
ATOM     83  C   UNL A   1      44.130  28.296  33.678  1.00  0.00     0.134 A 
ATOM     84  F   UNL A   1      43.930  25.846  31.010  1.00  0.00    -0.206 F 
ATOM     85  C   UNL A   1      43.888  25.556  33.323  1.00  0.00     0.040 A 
ATOM     86  C   UNL A   1      44.121  27.447  34.785  1.00  0.00     0.040 A 
ATOM     87  F   UNL A   1      44.285  29.611  33.897  1.00  0.00    -0.206 F 
ATOM     88  C   UNL A   1      43.991  26.072  34.611  1.00  0.00     0.006 A 
ENDBRANCH  64  81
ENDBRANCH  38  39
ENDBRANCH  30  33
ENDBRANCH  28  29
ENDBRANCH  27  28
ENDBRANCH  26  27
ENDBRANCH  25  26
ENDBRANCH   1  25
TORSDOF 17
ENDMDL
MODEL 2
REMARK VINA RESULT:     -11.0      2.593      7.648
REMARK SMILES CCn1cc(CNC(=O)[C@H]2CC=CC[C@@H]2C(=O)NCCCCCCNC(=O)c2ccc(-c3c4nc(c(-c5c(F)cccc5F)c5ccc([nH]5)c(-c5c(F)cccc5F)c5nc(c(-c6c(F)cccc6F)c6ccc3[nH]6)C=C5)C=C4)cc2)cn1
REMARK SMILES IDX 20 1 19 2 18 3 16 4 17 5 15 7 10 8 11 9 12 10 14 11 13 12
REMARK SMILES IDX 8 13 7 14 9 16 6 17 5 18 3 19 4 20 83 21 82 22 2 23 1 24
REMARK SMILES IDX 21 25 22 26 23 27 24 28 25 29 26 30 27 32 28 33 29 34 81 35
REMARK SMILES IDX 30 36 80 37 31 38 32 39 33 40 74 41 34 42 79 43 73 44 75 45
REMARK SMILES IDX 35 46 78 47 72 48 71 49 36 51 62 52 45 53 61 54 46 55 49 56
REMARK SMILES IDX 60 57 76 58 47 59 48 60 59 62 77 63 50 64 37 65 38 66 43 67
REMARK SMILES IDX 39 68 40 69 42 70 44 71 41 72 63 73 64 74 69 75 65 76 66 77
REMARK SMILES IDX 68 78 70 79 67 80 51 81 52 82 57 83 53 84 54 85 56 86 58 87
REMARK SMILES IDX 55 88
REMARK H PARENT 18 6 7 15 25 31 75 50 49 61
REMARK Flexibility Score: inf
ROOT
ATOM      1  C   UNL A   1      31.593  28.002  27.502  1.00  0.00     0.021 C 
ENDROOT
BRANCH   1   2
ATOM      2  C   UNL A   1      31.528  27.071  26.297  1.00  0.00     0.116 C 
BRANCH   2   3
ATOM      3  N   UNL A   1      32.152  25.796  26.559  1.00  0.00    -0.356 N 
ATOM      4  C   UNL A   1      32.993  25.016  25.825  1.00  0.00     0.224 C 
ATOM      5  O   UNL A   1      33.371  23.976  26.373  1.00  0.00    -0.275 OA
ATOM      6  H   UNL A   1      31.926  25.417  27.438  1.00  0.00     0.163 HD
BRANCH   4   7
ATOM      7  C   UNL A   1      33.526  25.456  24.453  1.00  0.00     0.095 C 
ATOM      8  C   UNL A   1      32.497  25.369  23.306  1.00  0.00     0.095 C 
ATOM      9  C   UNL A   1      32.176  23.897  22.957  1.00  0.00     0.041 C 
ATOM     10  C   UNL A   1      33.344  22.961  23.016  1.00  0.00    -0.030 C 
ATOM     11  C   UNL A   1      34.808  24.671  24.085  1.00  0.00     0.041 C 
ATOM     12  C   UNL A   1      34.539  23.316  23.505  1.00  0.00    -0.030 C 
BRANCH   8  13
ATOM     13  C   UNL A   1      32.922  26.192  22.081  1.00  0.00     0.224 C 
ATOM     14  N   UNL A   1      32.846  27.557  22.081  1.00  0.00    -0.352 N 
ATOM     15  H   UNL A   1      33.209  27.980  21.271  1.00  0.00     0.163 HD
ATOM     16  O   UNL A   1      33.299  25.660  21.035  1.00  0.00    -0.275 OA
BRANCH  14  17
ATOM     17  C   UNL A   1      32.329  28.492  23.054  1.00  0.00     0.155 C 
BRANCH  17  18
ATOM     18  C   UNL A   1      30.887  28.744  22.844  1.00  0.00     0.009 A 
ATOM     19  N   UNL A   1      28.956  29.524  22.124  1.00  0.00    -0.273 N 
ATOM     20  C   UNL A   1      30.302  29.755  22.107  1.00  0.00     0.114 A 
ATOM     21  N   UNL A   1      28.626  28.418  22.816  1.00  0.00    -0.181 NA
ATOM     22  C   UNL A   1      29.795  27.944  23.247  1.00  0.00     0.140 A 
BRANCH  19  23
ATOM     23  C   UNL A   1      27.888  30.302  21.522  1.00  0.00     0.141 C 
ATOM     24  C   UNL A   1      28.310  31.590  20.834  1.00  0.00     0.029 C 
ENDBRANCH  19  23
ENDBRANCH  17  18
ENDBRANCH  14  17
ENDBRANCH   8  13
ENDBRANCH   4   7
ENDBRANCH   2   3
ENDBRANCH   1   2
BRANCH   1  25
ATOM     25  C   UNL A   1      32.102  29.399  27.157  1.00  0.00     0.002 C 
BRANCH  25  26
ATOM     26  C   UNL A   1      33.560  29.471  26.676  1.00  0.00     0.002 C 
BRANCH  26  27
ATOM     27  C   UNL A   1      34.608  29.943  27.698  1.00  0.00     0.021 C 
BRANCH  27  28
ATOM     28  C   UNL A   1      34.951  31.419  27.595  1.00  0.00     0.116 C 
BRANCH  28  29
ATOM     29  N   UNL A   1      34.680  32.141  28.842  1.00  0.00    -0.352 N 
ATOM     30  C   UNL A   1      35.172  31.906  30.108  1.00  0.00     0.251 C 
ATOM     31  H   UNL A   1      34.058  32.900  28.764  1.00  0.00     0.163 HD
ATOM     32  O   UNL A   1      34.591  32.346  31.103  1.00  0.00    -0.269 OA
BRANCH  30  33
ATOM     33  C   UNL A   1      36.413  31.135  30.258  1.00  0.00     0.039 A 
ATOM     34  C   UNL A   1      36.425  29.787  30.628  1.00  0.00     0.014 A 
ATOM     35  C   UNL A   1      37.598  31.807  29.989  1.00  0.00     0.014 A 
ATOM     36  C   UNL A   1      37.648  29.120  30.668  1.00  0.00     0.010 A 
ATOM     37  C   UNL A   1      38.742  31.099  29.782  1.00  0.00     0.010 A 
ATOM     38  C   UNL A   1      38.800  29.793  30.236  1.00  0.00    -0.014 A 
BRANCH  38  39
ATOM     39  C   UNL A   1      40.102  29.153  30.164  1.00  0.00     0.031 A 
ATOM     40  C   UNL A   1      40.764  28.999  31.480  1.00  0.00     0.074 A 
ATOM     41  C   UNL A   1      40.514  28.503  29.051  1.00  0.00     0.049 A 
ATOM     42  N   UNL A   1      41.794  29.639  31.923  1.00  0.00    -0.248 NA
ATOM     43  C   UNL A   1      40.093  28.176  32.500  1.00  0.00     0.031 C 
ATOM     44  C   UNL A   1      39.778  28.277  27.798  1.00  0.00     0.029 A 
ATOM     45  N   UNL A   1      41.658  27.798  28.847  1.00  0.00    -0.354 N 
ATOM     46  C   UNL A   1      42.052  29.105  33.183  1.00  0.00     0.074 A 
ATOM     47  C   UNL A   1      40.849  28.422  33.572  1.00  0.00     0.031 C 
ATOM     48  C   UNL A   1      40.388  27.311  27.077  1.00  0.00     0.029 A 
ATOM     49  C   UNL A   1      41.642  26.977  27.722  1.00  0.00     0.049 A 
ATOM     50  H   UNL A   1      42.436  27.863  29.447  1.00  0.00     0.167 HD
ATOM     51  C   UNL A   1      43.330  29.011  33.645  1.00  0.00     0.037 A 
ATOM     52  C   UNL A   1      42.589  26.068  27.379  1.00  0.00     0.037 A 
ATOM     53  C   UNL A   1      44.214  29.836  32.847  1.00  0.00     0.049 A 
ATOM     54  C   UNL A   1      43.818  26.417  28.138  1.00  0.00     0.074 A 
ATOM     55  C   UNL A   1      44.273  31.177  32.520  1.00  0.00     0.029 A 
ATOM     56  N   UNL A   1      45.005  29.194  31.923  1.00  0.00    -0.354 N 
ATOM     57  N   UNL A   1      44.513  27.501  27.929  1.00  0.00    -0.248 NA
ATOM     58  C   UNL A   1      43.991  25.805  29.446  1.00  0.00     0.031 C 
ATOM     59  C   UNL A   1      44.686  31.206  31.155  1.00  0.00     0.029 A 
ATOM     60  C   UNL A   1      44.936  29.895  30.748  1.00  0.00     0.049 A 
ATOM     61  H   UNL A   1      45.530  28.377  32.078  1.00  0.00     0.167 HD
ATOM     62  C   UNL A   1      44.856  27.949  29.197  1.00  0.00     0.074 A 
ATOM     63  C   UNL A   1      44.577  26.822  30.086  1.00  0.00     0.031 C 
ATOM     64  C   UNL A   1      45.039  29.280  29.445  1.00  0.00     0.037 A 
BRANCH  51  65
ATOM     65  C   UNL A   1      43.865  27.861  34.481  1.00  0.00     0.057 A 
ATOM     66  C   UNL A   1      43.671  26.549  34.004  1.00  0.00     0.134 A 
ATOM     67  C   UNL A   1      44.258  27.940  35.833  1.00  0.00     0.134 A 
ATOM     68  F   UNL A   1      43.333  26.322  32.725  1.00  0.00    -0.206 F 
ATOM     69  C   UNL A   1      43.715  25.427  34.840  1.00  0.00     0.040 A 
ATOM     70  C   UNL A   1      44.350  26.820  36.664  1.00  0.00     0.040 A 
ATOM     71  F   UNL A   1      44.497  29.095  36.461  1.00  0.00    -0.206 F 
ATOM     72  C   UNL A   1      44.033  25.562  36.182  1.00  0.00     0.006 A 
ENDBRANCH  51  65
BRANCH  52  73
ATOM     73  C   UNL A   1      42.430  24.764  26.695  1.00  0.00     0.057 A 
ATOM     74  C   UNL A   1      43.093  24.492  25.489  1.00  0.00     0.134 A 
ATOM     75  C   UNL A   1      41.862  23.656  27.349  1.00  0.00     0.134 A 
ATOM     76  F   UNL A   1      43.701  25.477  24.811  1.00  0.00    -0.206 F 
ATOM     77  C   UNL A   1      43.213  23.192  24.978  1.00  0.00     0.040 A 
ATOM     78  C   UNL A   1      41.971  22.354  26.847  1.00  0.00     0.040 A 
ATOM     79  F   UNL A   1      41.265  23.788  28.541  1.00  0.00    -0.206 F 
ATOM     80  C   UNL A   1      42.662  22.115  25.665  1.00  0.00     0.006 A 
ENDBRANCH  52  73
BRANCH  64  81
ATOM     81  C   UNL A   1      45.128  30.213  28.268  1.00  0.00     0.057 A 
ATOM     82  C   UNL A   1      44.031  30.874  27.693  1.00  0.00     0.134 A 
ATOM     83  C   UNL A   1      46.397  30.577  27.803  1.00  0.00     0.134 A 
ATOM     84  F   UNL A   1      42.785  30.663  28.134  1.00  0.00    -0.206 F 
ATOM     85  C   UNL A   1      44.190  31.825  26.679  1.00  0.00     0.040 A 
ATOM     86  C   UNL A   1      46.571  31.548  26.817  1.00  0.00     0.040 A 
ATOM     87  F   UNL A   1      47.495  30.027  28.343  1.00  0.00    -0.206 F 
ATOM     88  C   UNL A   1      45.464  32.170  26.244  1.00  0.00     0.006 A 
ENDBRANCH  64  81
ENDBRANCH  38  39
ENDBRANCH  30  33
ENDBRANCH  28  29
ENDBRANCH  27  28
ENDBRANCH  26  27
ENDBRANCH  25  26
ENDBRANCH   1  25
TORSDOF 17
ENDMDL
MODEL 3
REMARK VINA RESULT:     -10.7      2.611      4.761
REMARK SMILES CCn1cc(CNC(=O)[C@H]2CC=CC[C@@H]2C(=O)NCCCCCCNC(=O)c2ccc(-c3c4nc(c(-c5c(F)cccc5F)c5ccc([nH]5)c(-c5c(F)cccc5F)c5nc(c(-c6c(F)cccc6F)c6ccc3[nH]6)C=C5)C=C4)cc2)cn1
REMARK SMILES IDX 20 1 19 2 18 3 16 4 17 5 15 7 10 8 11 9 12 10 14 11 13 12
REMARK SMILES IDX 8 13 7 14 9 16 6 17 5 18 3 19 4 20 83 21 82 22 2 23 1 24
REMARK SMILES IDX 21 25 22 26 23 27 24 28 25 29 26 30 27 32 28 33 29 34 81 35
REMARK SMILES IDX 30 36 80 37 31 38 32 39 33 40 74 41 34 42 79 43 73 44 75 45
REMARK SMILES IDX 35 46 78 47 72 48 71 49 36 51 62 52 45 53 61 54 46 55 49 56
REMARK SMILES IDX 60 57 76 58 47 59 48 60 59 62 77 63 50 64 37 65 38 66 43 67
REMARK SMILES IDX 39 68 40 69 42 70 44 71 41 72 63 73 64 74 69 75 65 76 66 77
REMARK SMILES IDX 68 78 70 79 67 80 51 81 52 82 57 83 53 84 54 85 56 86 58 87
REMARK SMILES IDX 55 88
REMARK H PARENT 18 6 7 15 25 31 75 50 49 61
REMARK Flexibility Score: inf
ROOT
ATOM      1  C   UNL A   1      34.077  24.162  22.987  1.00  0.00     0.021 C 
ENDROOT
BRANCH   1   2
ATOM      2  C   UNL A   1      33.045  25.276  22.865  1.00  0.00     0.116 C 
BRANCH   2   3
ATOM      3  N   UNL A   1      33.654  26.586  22.857  1.00  0.00    -0.356 N 
ATOM      4  C   UNL A   1      33.760  27.556  23.806  1.00  0.00     0.224 C 
ATOM      5  O   UNL A   1      34.385  28.565  23.470  1.00  0.00    -0.275 OA
ATOM      6  H   UNL A   1      34.074  26.822  22.000  1.00  0.00     0.163 HD
BRANCH   4   7
ATOM      7  C   UNL A   1      33.234  27.360  25.237  1.00  0.00     0.095 C 
ATOM      8  C   UNL A   1      31.774  27.813  25.452  1.00  0.00     0.095 C 
ATOM      9  C   UNL A   1      31.652  29.353  25.380  1.00  0.00     0.041 C 
ATOM     10  C   UNL A   1      32.790  30.108  25.993  1.00  0.00    -0.030 C 
ATOM     11  C   UNL A   1      34.166  28.048  26.263  1.00  0.00     0.041 C 
ATOM     12  C   UNL A   1      33.917  29.518  26.412  1.00  0.00    -0.030 C 
BRANCH   8  13
ATOM     13  C   UNL A   1      31.167  27.227  26.736  1.00  0.00     0.224 C 
ATOM     14  N   UNL A   1      30.596  25.986  26.748  1.00  0.00    -0.352 N 
ATOM     15  H   UNL A   1      30.303  25.687  27.639  1.00  0.00     0.163 HD
ATOM     16  O   UNL A   1      31.124  27.866  27.789  1.00  0.00    -0.275 OA
BRANCH  14  17
ATOM     17  C   UNL A   1      30.341  25.032  25.693  1.00  0.00     0.155 C 
BRANCH  17  18
ATOM     18  C   UNL A   1      31.116  23.788  25.893  1.00  0.00     0.009 A 
ATOM     19  N   UNL A   1      32.060  21.815  25.626  1.00  0.00    -0.273 N 
ATOM     20  C   UNL A   1      31.121  22.657  25.101  1.00  0.00     0.114 A 
ATOM     21  N   UNL A   1      32.676  22.331  26.705  1.00  0.00    -0.181 NA
ATOM     22  C   UNL A   1      32.108  23.527  26.863  1.00  0.00     0.140 A 
BRANCH  19  23
ATOM     23  C   UNL A   1      32.442  20.486  25.187  1.00  0.00     0.141 C 
ATOM     24  C   UNL A   1      32.887  20.367  23.738  1.00  0.00     0.029 C 
ENDBRANCH  19  23
ENDBRANCH  17  18
ENDBRANCH  14  17
ENDBRANCH   8  13
ENDBRANCH   4   7
ENDBRANCH   2   3
ENDBRANCH   1   2
BRANCH   1  25
ATOM     25  C   UNL A   1      34.775  24.134  24.345  1.00  0.00     0.002 C 
BRANCH  25  26
ATOM     26  C   UNL A   1      35.704  22.933  24.584  1.00  0.00     0.002 C 
BRANCH  26  27
ATOM     27  C   UNL A   1      37.202  23.235  24.756  1.00  0.00     0.021 C 
BRANCH  27  28
ATOM     28  C   UNL A   1      37.687  23.160  26.194  1.00  0.00     0.116 C 
BRANCH  28  29
ATOM     29  N   UNL A   1      38.903  22.351  26.328  1.00  0.00    -0.352 N 
ATOM     30  C   UNL A   1      40.212  22.763  26.458  1.00  0.00     0.251 C 
ATOM     31  H   UNL A   1      38.765  21.377  26.324  1.00  0.00     0.163 HD
ATOM     32  O   UNL A   1      41.144  21.999  26.198  1.00  0.00    -0.269 OA
BRANCH  30  33
ATOM     33  C   UNL A   1      40.486  24.126  26.931  1.00  0.00     0.039 A 
ATOM     34  C   UNL A   1      40.086  25.265  26.225  1.00  0.00     0.014 A 
ATOM     35  C   UNL A   1      41.153  24.242  28.143  1.00  0.00     0.014 A 
ATOM     36  C   UNL A   1      40.322  26.516  26.793  1.00  0.00     0.010 A 
ATOM     37  C   UNL A   1      41.150  25.433  28.803  1.00  0.00     0.010 A 
ATOM     38  C   UNL A   1      40.854  26.581  28.089  1.00  0.00    -0.014 A 
BRANCH  38  39
ATOM     39  C   UNL A   1      41.056  27.837  28.791  1.00  0.00     0.031 A 
ATOM     40  C   UNL A   1      42.260  28.579  28.350  1.00  0.00     0.074 A 
ATOM     41  C   UNL A   1      40.082  28.393  29.547  1.00  0.00     0.049 A 
ATOM     42  N   UNL A   1      43.360  28.754  29.001  1.00  0.00    -0.248 NA
ATOM     43  C   UNL A   1      42.323  29.020  26.946  1.00  0.00     0.031 C 
ATOM     44  C   UNL A   1      38.706  27.919  29.761  1.00  0.00     0.029 A 
ATOM     45  N   UNL A   1      40.083  29.584  30.202  1.00  0.00    -0.354 N 
ATOM     46  C   UNL A   1      44.155  29.551  28.182  1.00  0.00     0.074 A 
ATOM     47  C   UNL A   1      43.581  29.458  26.868  1.00  0.00     0.031 C 
ATOM     48  C   UNL A   1      37.956  28.911  30.287  1.00  0.00     0.029 A 
ATOM     49  C   UNL A   1      38.827  30.024  30.611  1.00  0.00     0.049 A 
ATOM     50  H   UNL A   1      40.907  30.094  30.374  1.00  0.00     0.167 HD
ATOM     51  C   UNL A   1      45.018  30.456  28.725  1.00  0.00     0.037 A 
ATOM     52  C   UNL A   1      38.537  31.236  31.148  1.00  0.00     0.037 A 
ATOM     53  C   UNL A   1      45.214  30.178  30.134  1.00  0.00     0.049 A 
ATOM     54  C   UNL A   1      39.819  31.814  31.629  1.00  0.00     0.074 A 
ATOM     55  C   UNL A   1      45.657  29.093  30.865  1.00  0.00     0.029 A 
ATOM     56  N   UNL A   1      44.552  30.983  31.030  1.00  0.00    -0.354 N 
ATOM     57  N   UNL A   1      40.503  31.325  32.626  1.00  0.00    -0.248 NA
ATOM     58  C   UNL A   1      40.575  32.632  30.693  1.00  0.00     0.031 C 
ATOM     59  C   UNL A   1      44.829  29.067  32.027  1.00  0.00     0.029 A 
ATOM     60  C   UNL A   1      43.987  30.179  31.983  1.00  0.00     0.049 A 
ATOM     61  H   UNL A   1      44.496  31.965  30.994  1.00  0.00     0.167 HD
ATOM     62  C   UNL A   1      41.826  31.396  32.214  1.00  0.00     0.074 A 
ATOM     63  C   UNL A   1      41.815  32.284  31.052  1.00  0.00     0.031 C 
ATOM     64  C   UNL A   1      42.750  30.494  32.661  1.00  0.00     0.037 A 
BRANCH  51  65
ATOM     65  C   UNL A   1      45.313  31.827  28.144  1.00  0.00     0.057 A 
ATOM     66  C   UNL A   1      44.225  32.689  27.894  1.00  0.00     0.134 A 
ATOM     67  C   UNL A   1      46.522  32.219  27.533  1.00  0.00     0.134 A 
ATOM     68  F   UNL A   1      43.022  32.459  28.442  1.00  0.00    -0.206 F 
ATOM     69  C   UNL A   1      44.299  33.758  26.993  1.00  0.00     0.040 A 
ATOM     70  C   UNL A   1      46.617  33.314  26.668  1.00  0.00     0.040 A 
ATOM     71  F   UNL A   1      47.663  31.536  27.660  1.00  0.00    -0.206 F 
ATOM     72  C   UNL A   1      45.494  34.060  26.358  1.00  0.00     0.006 A 
ENDBRANCH  51  65
BRANCH  52  73
ATOM     73  C   UNL A   1      37.311  32.054  31.005  1.00  0.00     0.057 A 
ATOM     74  C   UNL A   1      37.045  32.762  29.823  1.00  0.00     0.134 A 
ATOM     75  C   UNL A   1      36.236  31.930  31.903  1.00  0.00     0.134 A 
ATOM     76  F   UNL A   1      37.995  32.901  28.886  1.00  0.00    -0.206 F 
ATOM     77  C   UNL A   1      35.778  33.289  29.535  1.00  0.00     0.040 A 
ATOM     78  C   UNL A   1      34.967  32.455  31.630  1.00  0.00     0.040 A 
ATOM     79  F   UNL A   1      36.356  31.217  33.031  1.00  0.00    -0.206 F 
ATOM     80  C   UNL A   1      34.730  33.124  30.435  1.00  0.00     0.006 A 
ENDBRANCH  52  73
BRANCH  64  81
ATOM     81  C   UNL A   1      42.366  29.598  33.807  1.00  0.00     0.057 A 
ATOM     82  C   UNL A   1      41.812  28.317  33.663  1.00  0.00     0.134 A 
ATOM     83  C   UNL A   1      42.722  29.988  35.103  1.00  0.00     0.134 A 
ATOM     84  F   UNL A   1      41.525  27.816  32.455  1.00  0.00    -0.206 F 
ATOM     85  C   UNL A   1      41.590  27.480  34.762  1.00  0.00     0.040 A 
ATOM     86  C   UNL A   1      42.537  29.150  36.203  1.00  0.00     0.040 A 
ATOM     87  F   UNL A   1      43.306  31.178  35.312  1.00  0.00    -0.206 F 
ATOM     88  C   UNL A   1      41.960  27.894  36.036  1.00  0.00     0.006 A 
ENDBRANCH  64  81
ENDBRANCH  38  39
ENDBRANCH  30  33
ENDBRANCH  28  29
ENDBRANCH  27  28
ENDBRANCH  26  27
ENDBRANCH  25  26
ENDBRANCH   1  25
TORSDOF 17
ENDMDL
