MODEL 1
REMARK VINA RESULT:     -11.2      0.000      0.000
REMARK SMILES CNC(=O)NC(=O)CCSc1csc(C(=O)NCCCCCCNC(=O)c2ccc(-c3c4nc(c(-c5c(F)cccc5F)c5ccc([nH]5)c(-c5c(F)cccc5F)c5nc(c(-c6c(F)cccc6F)c6ccc3[nH]6)C=C5)C=C4)cc2)c1
REMARK SMILES IDX 19 1 18 2 17 3 15 4 16 5 14 7 11 8 12 9 81 10 13 11 10 12
REMARK SMILES IDX 9 13 8 14 6 15 1 16 2 17 3 18 4 20 5 21 7 23 20 24 21 25
REMARK SMILES IDX 22 26 23 27 24 28 25 29 26 31 27 32 28 33 80 34 29 35 79 36
REMARK SMILES IDX 30 37 31 38 32 39 73 40 33 41 78 42 72 43 74 44 34 45 77 46
REMARK SMILES IDX 71 47 70 48 35 50 61 51 44 52 60 53 45 54 48 55 59 56 75 57
REMARK SMILES IDX 46 58 47 59 58 61 76 62 49 63 36 64 37 65 42 66 38 67 39 68
REMARK SMILES IDX 41 69 43 70 40 71 62 72 63 73 68 74 64 75 65 76 67 77 69 78
REMARK SMILES IDX 66 79 50 80 51 81 56 82 52 83 53 84 55 85 57 86 54 87
REMARK H PARENT 17 6 2 19 5 22 24 30 74 49 48 60
REMARK Flexibility Score: inf
ROOT
ATOM      1  C   UNL A   1      35.271  22.052  25.543  1.00  0.00     0.021 C 
ENDROOT
BRANCH   1   2
ATOM      2  C   UNL A   1      34.416  21.473  26.672  1.00  0.00     0.116 C 
BRANCH   2   3
ATOM      3  N   UNL A   1      33.641  20.336  26.204  1.00  0.00    -0.351 N 
ATOM      4  C   UNL A   1      32.540  20.279  25.371  1.00  0.00     0.261 C 
ATOM      5  O   UNL A   1      32.154  19.163  25.035  1.00  0.00    -0.268 OA
ATOM      6  H   UNL A   1      33.950  19.462  26.536  1.00  0.00     0.163 HD
BRANCH   4   7
ATOM      7  C   UNL A   1      31.944  21.523  24.923  1.00  0.00     0.093 A 
ATOM      8  C   UNL A   1      31.037  23.664  24.988  1.00  0.00     0.019 A 
ATOM      9  C   UNL A   1      31.454  23.592  23.678  1.00  0.00     0.080 A 
ATOM     10  C   UNL A   1      31.165  22.413  25.629  1.00  0.00     0.040 A 
ATOM     11  S   UNL A   1      32.153  22.067  23.313  1.00  0.00    -0.137 S 
BRANCH   8  12
ATOM     12  S   UNL A   1      30.448  25.128  25.756  1.00  0.00    -0.125 SA
BRANCH  12  13
ATOM     13  C   UNL A   1      29.864  26.164  24.381  1.00  0.00     0.085 C 
BRANCH  13  14
ATOM     14  C   UNL A   1      30.517  27.523  24.135  1.00  0.00     0.112 C 
BRANCH  14  15
ATOM     15  C   UNL A   1      30.903  27.900  22.731  1.00  0.00     0.228 C 
ATOM     16  C   UNL A   1      33.652  26.813  24.811  1.00  0.00     0.144 C 
ATOM     17  N   UNL A   1      33.704  26.351  23.449  1.00  0.00    -0.341 N 
ATOM     18  C   UNL A   1      33.176  26.782  22.298  1.00  0.00     0.321 C 
ATOM     19  H   UNL A   1      34.248  25.538  23.341  1.00  0.00     0.165 HD
ATOM     20  O   UNL A   1      33.650  26.327  21.253  1.00  0.00    -0.248 OA
ATOM     21  N   UNL A   1      32.157  27.681  22.199  1.00  0.00    -0.278 N 
ATOM     22  H   UNL A   1      32.383  28.388  21.553  1.00  0.00     0.174 HD
ATOM     23  O   UNL A   1      30.051  28.424  22.001  1.00  0.00    -0.275 OA
ENDBRANCH  14  15
ENDBRANCH  13  14
ENDBRANCH  12  13
ENDBRANCH   8  12
ENDBRANCH   4   7
ENDBRANCH   2   3
ENDBRANCH   1   2
BRANCH   1  24
ATOM     24  C   UNL A   1      36.714  21.540  25.588  1.00  0.00     0.002 C 
BRANCH  24  25
ATOM     25  C   UNL A   1      37.022  20.455  24.547  1.00  0.00     0.002 C 
BRANCH  25  26
ATOM     26  C   UNL A   1      38.048  19.413  25.001  1.00  0.00     0.021 C 
BRANCH  26  27
ATOM     27  C   UNL A   1      39.230  20.010  25.751  1.00  0.00     0.116 C 
BRANCH  27  28
ATOM     28  N   UNL A   1      40.262  19.012  25.984  1.00  0.00    -0.352 N 
ATOM     29  C   UNL A   1      41.613  19.179  26.127  1.00  0.00     0.251 C 
ATOM     30  H   UNL A   1      39.943  18.083  26.048  1.00  0.00     0.163 HD
ATOM     31  O   UNL A   1      42.369  18.218  26.027  1.00  0.00    -0.269 OA
BRANCH  29  32
ATOM     32  C   UNL A   1      42.154  20.521  26.413  1.00  0.00     0.039 A 
ATOM     33  C   UNL A   1      42.246  20.945  27.740  1.00  0.00     0.014 A 
ATOM     34  C   UNL A   1      42.523  21.376  25.370  1.00  0.00     0.014 A 
ATOM     35  C   UNL A   1      42.720  22.225  28.020  1.00  0.00     0.010 A 
ATOM     36  C   UNL A   1      43.083  22.614  25.654  1.00  0.00     0.010 A 
ATOM     37  C   UNL A   1      43.151  23.065  26.979  1.00  0.00    -0.014 A 
BRANCH  37  38
ATOM     38  C   UNL A   1      43.615  24.445  27.258  1.00  0.00     0.031 A 
ATOM     39  C   UNL A   1      42.633  25.486  27.723  1.00  0.00     0.074 A 
ATOM     40  C   UNL A   1      44.907  24.767  27.061  1.00  0.00     0.049 A 
ATOM     41  N   UNL A   1      42.835  26.748  28.000  1.00  0.00    -0.248 NA
ATOM     42  C   UNL A   1      41.230  25.061  27.861  1.00  0.00     0.031 C 
ATOM     43  C   UNL A   1      45.940  23.857  26.564  1.00  0.00     0.029 A 
ATOM     44  N   UNL A   1      45.570  25.951  27.256  1.00  0.00    -0.354 N 
ATOM     45  C   UNL A   1      41.589  27.266  28.332  1.00  0.00     0.074 A 
ATOM     46  C   UNL A   1      40.626  26.202  28.150  1.00  0.00     0.031 C 
ATOM     47  C   UNL A   1      47.115  24.506  26.527  1.00  0.00     0.029 A 
ATOM     48  C   UNL A   1      46.909  25.884  26.962  1.00  0.00     0.049 A 
ATOM     49  H   UNL A   1      45.128  26.770  27.576  1.00  0.00     0.167 HD
ATOM     50  C   UNL A   1      41.276  28.505  28.779  1.00  0.00     0.037 A 
ATOM     51  C   UNL A   1      47.863  26.831  27.039  1.00  0.00     0.037 A 
ATOM     52  C   UNL A   1      42.244  29.552  28.979  1.00  0.00     0.049 A 
ATOM     53  C   UNL A   1      47.495  28.199  27.543  1.00  0.00     0.074 A 
ATOM     54  C   UNL A   1      42.045  30.827  29.477  1.00  0.00     0.029 A 
ATOM     55  N   UNL A   1      43.595  29.441  28.688  1.00  0.00    -0.354 N 
ATOM     56  N   UNL A   1      46.325  28.656  27.919  1.00  0.00    -0.248 NA
ATOM     57  C   UNL A   1      48.585  29.177  27.648  1.00  0.00     0.031 C 
ATOM     58  C   UNL A   1      43.267  31.506  29.435  1.00  0.00     0.029 A 
ATOM     59  C   UNL A   1      44.240  30.632  28.975  1.00  0.00     0.049 A 
ATOM     60  H   UNL A   1      44.032  28.635  28.331  1.00  0.00     0.167 HD
ATOM     61  C   UNL A   1      46.543  29.961  28.341  1.00  0.00     0.074 A 
ATOM     62  C   UNL A   1      47.962  30.216  28.185  1.00  0.00     0.031 C 
ATOM     63  C   UNL A   1      45.654  30.867  28.820  1.00  0.00     0.037 A 
BRANCH  50  64
ATOM     64  C   UNL A   1      39.830  28.790  29.072  1.00  0.00     0.057 A 
ATOM     65  C   UNL A   1      38.940  29.226  28.080  1.00  0.00     0.134 A 
ATOM     66  C   UNL A   1      39.316  28.617  30.364  1.00  0.00     0.134 A 
ATOM     67  F   UNL A   1      39.367  29.427  26.824  1.00  0.00    -0.206 F 
ATOM     68  C   UNL A   1      37.606  29.517  28.369  1.00  0.00     0.040 A 
ATOM     69  C   UNL A   1      37.975  28.871  30.657  1.00  0.00     0.040 A 
ATOM     70  F   UNL A   1      40.107  28.198  31.362  1.00  0.00    -0.206 F 
ATOM     71  C   UNL A   1      37.118  29.333  29.661  1.00  0.00     0.006 A 
ENDBRANCH  50  64
BRANCH  51  72
ATOM     72  C   UNL A   1      49.263  26.504  26.666  1.00  0.00     0.057 A 
ATOM     73  C   UNL A   1      49.759  26.794  25.389  1.00  0.00     0.134 A 
ATOM     74  C   UNL A   1      50.138  25.896  27.574  1.00  0.00     0.134 A 
ATOM     75  F   UNL A   1      48.966  27.364  24.470  1.00  0.00    -0.206 F 
ATOM     76  C   UNL A   1      51.065  26.469  25.021  1.00  0.00     0.040 A 
ATOM     77  C   UNL A   1      51.455  25.591  27.228  1.00  0.00     0.040 A 
ATOM     78  F   UNL A   1      49.728  25.604  28.817  1.00  0.00    -0.206 F 
ATOM     79  C   UNL A   1      51.919  25.869  25.944  1.00  0.00     0.006 A 
ENDBRANCH  51  72
BRANCH  63  80
ATOM     80  C   UNL A   1      46.198  32.196  29.260  1.00  0.00     0.057 A 
ATOM     81  C   UNL A   1      46.711  32.405  30.547  1.00  0.00     0.134 A 
ATOM     82  C   UNL A   1      46.226  33.279  28.370  1.00  0.00     0.134 A 
ATOM     83  F   UNL A   1      46.706  31.414  31.451  1.00  0.00    -0.206 F 
ATOM     84  C   UNL A   1      47.197  33.652  30.944  1.00  0.00     0.040 A 
ATOM     85  C   UNL A   1      46.740  34.520  28.745  1.00  0.00     0.040 A 
ATOM     86  F   UNL A   1      45.762  33.145  27.119  1.00  0.00    -0.206 F 
ATOM     87  C   UNL A   1      47.218  34.712  30.039  1.00  0.00     0.006 A 
ENDBRANCH  63  80
ENDBRANCH  37  38
ENDBRANCH  29  32
ENDBRANCH  27  28
ENDBRANCH  26  27
ENDBRANCH  25  26
ENDBRANCH  24  25
ENDBRANCH   1  24
TORSDOF 17
ENDMDL
MODEL 2
REMARK VINA RESULT:     -11.2      4.448      9.310
REMARK SMILES CNC(=O)NC(=O)CCSc1csc(C(=O)NCCCCCCNC(=O)c2ccc(-c3c4nc(c(-c5c(F)cccc5F)c5ccc([nH]5)c(-c5c(F)cccc5F)c5nc(c(-c6c(F)cccc6F)c6ccc3[nH]6)C=C5)C=C4)cc2)c1
REMARK SMILES IDX 19 1 18 2 17 3 15 4 16 5 14 7 11 8 12 9 81 10 13 11 10 12
REMARK SMILES IDX 9 13 8 14 6 15 1 16 2 17 3 18 4 20 5 21 7 23 20 24 21 25
REMARK SMILES IDX 22 26 23 27 24 28 25 29 26 31 27 32 28 33 80 34 29 35 79 36
REMARK SMILES IDX 30 37 31 38 32 39 73 40 33 41 78 42 72 43 74 44 34 45 77 46
REMARK SMILES IDX 71 47 70 48 35 50 61 51 44 52 60 53 45 54 48 55 59 56 75 57
REMARK SMILES IDX 46 58 47 59 58 61 76 62 49 63 36 64 37 65 42 66 38 67 39 68
REMARK SMILES IDX 41 69 43 70 40 71 62 72 63 73 68 74 64 75 65 76 67 77 69 78
REMARK SMILES IDX 66 79 50 80 51 81 56 82 52 83 53 84 55 85 57 86 54 87
REMARK H PARENT 17 6 2 19 5 22 24 30 74 49 48 60
REMARK Flexibility Score: inf
ROOT
ATOM      1  C   UNL A   1      31.731  28.518  27.253  1.00  0.00     0.021 C 
ENDROOT
BRANCH   1   2
ATOM      2  C   UNL A   1      31.600  27.413  26.204  1.00  0.00     0.116 C 
BRANCH   2   3
ATOM      3  N   UNL A   1      31.029  26.210  26.786  1.00  0.00    -0.351 N 
ATOM      4  C   UNL A   1      31.168  24.884  26.427  1.00  0.00     0.261 C 
ATOM      5  O   UNL A   1      30.669  24.049  27.177  1.00  0.00    -0.268 OA
ATOM      6  H   UNL A   1      30.445  26.367  27.564  1.00  0.00     0.163 HD
BRANCH   4   7
ATOM      7  C   UNL A   1      31.916  24.563  25.226  1.00  0.00     0.093 A 
ATOM      8  C   UNL A   1      33.674  23.905  23.854  1.00  0.00     0.019 A 
ATOM      9  C   UNL A   1      32.593  23.651  23.040  1.00  0.00     0.080 A 
ATOM     10  C   UNL A   1      33.278  24.588  25.024  1.00  0.00     0.040 A 
ATOM     11  S   UNL A   1      31.112  24.085  23.792  1.00  0.00    -0.137 S 
BRANCH   8  12
ATOM     12  S   UNL A   1      35.319  23.416  23.487  1.00  0.00    -0.125 SA
BRANCH  12  13
ATOM     13  C   UNL A   1      36.197  23.535  25.075  1.00  0.00     0.085 C 
BRANCH  13  14
ATOM     14  C   UNL A   1      36.296  22.302  25.972  1.00  0.00     0.112 C 
BRANCH  14  15
ATOM     15  C   UNL A   1      36.067  20.944  25.369  1.00  0.00     0.228 C 
ATOM     16  C   UNL A   1      33.517  22.007  27.699  1.00  0.00     0.144 C 
ATOM     17  N   UNL A   1      33.025  21.311  26.540  1.00  0.00    -0.341 N 
ATOM     18  C   UNL A   1      33.564  20.446  25.674  1.00  0.00     0.321 C 
ATOM     19  H   UNL A   1      32.083  21.517  26.340  1.00  0.00     0.165 HD
ATOM     20  O   UNL A   1      32.790  19.807  24.956  1.00  0.00    -0.248 OA
ATOM     21  N   UNL A   1      34.901  20.224  25.528  1.00  0.00    -0.278 N 
ATOM     22  H   UNL A   1      35.093  19.259  25.539  1.00  0.00     0.174 HD
ATOM     23  O   UNL A   1      36.965  20.442  24.679  1.00  0.00    -0.275 OA
ENDBRANCH  14  15
ENDBRANCH  13  14
ENDBRANCH  12  13
ENDBRANCH   8  12
ENDBRANCH   4   7
ENDBRANCH   2   3
ENDBRANCH   1   2
BRANCH   1  24
ATOM     24  C   UNL A   1      32.359  29.791  26.680  1.00  0.00     0.002 C 
BRANCH  24  25
ATOM     25  C   UNL A   1      31.355  30.726  25.991  1.00  0.00     0.002 C 
BRANCH  25  26
ATOM     26  C   UNL A   1      31.290  32.136  26.583  1.00  0.00     0.021 C 
BRANCH  26  27
ATOM     27  C   UNL A   1      32.591  32.583  27.235  1.00  0.00     0.116 C 
BRANCH  27  28
ATOM     28  N   UNL A   1      32.494  33.952  27.714  1.00  0.00    -0.352 N 
ATOM     29  C   UNL A   1      33.216  34.581  28.693  1.00  0.00     0.251 C 
ATOM     30  H   UNL A   1      31.812  34.507  27.272  1.00  0.00     0.163 HD
ATOM     31  O   UNL A   1      32.819  35.638  29.172  1.00  0.00    -0.269 OA
BRANCH  29  32
ATOM     32  C   UNL A   1      34.483  33.986  29.158  1.00  0.00     0.039 A 
ATOM     33  C   UNL A   1      35.656  34.247  28.449  1.00  0.00     0.014 A 
ATOM     34  C   UNL A   1      34.501  33.131  30.265  1.00  0.00     0.014 A 
ATOM     35  C   UNL A   1      36.851  33.661  28.858  1.00  0.00     0.010 A 
ATOM     36  C   UNL A   1      35.707  32.623  30.728  1.00  0.00     0.010 A 
ATOM     37  C   UNL A   1      36.887  32.851  30.007  1.00  0.00    -0.014 A 
BRANCH  37  38
ATOM     38  C   UNL A   1      38.141  32.183  30.428  1.00  0.00     0.031 A 
ATOM     39  C   UNL A   1      38.992  32.796  31.507  1.00  0.00     0.074 A 
ATOM     40  C   UNL A   1      38.528  31.046  29.819  1.00  0.00     0.049 A 
ATOM     41  N   UNL A   1      40.128  32.379  32.002  1.00  0.00    -0.248 NA
ATOM     42  C   UNL A   1      38.520  34.067  32.082  1.00  0.00     0.031 C 
ATOM     43  C   UNL A   1      37.812  30.385  28.726  1.00  0.00     0.029 A 
ATOM     44  N   UNL A   1      39.621  30.247  30.035  1.00  0.00    -0.354 N 
ATOM     45  C   UNL A   1      40.510  33.337  32.932  1.00  0.00     0.074 A 
ATOM     46  C   UNL A   1      39.523  34.394  32.880  1.00  0.00     0.031 C 
ATOM     47  C   UNL A   1      38.466  29.261  28.391  1.00  0.00     0.029 A 
ATOM     48  C   UNL A   1      39.662  29.144  29.219  1.00  0.00     0.049 A 
ATOM     49  H   UNL A   1      40.308  30.445  30.710  1.00  0.00     0.167 HD
ATOM     50  C   UNL A   1      41.568  33.327  33.777  1.00  0.00     0.037 A 
ATOM     51  C   UNL A   1      40.566  28.148  29.151  1.00  0.00     0.037 A 
ATOM     52  C   UNL A   1      42.532  32.260  33.838  1.00  0.00     0.049 A 
ATOM     53  C   UNL A   1      41.730  28.153  30.102  1.00  0.00     0.074 A 
ATOM     54  C   UNL A   1      43.612  32.122  34.691  1.00  0.00     0.029 A 
ATOM     55  N   UNL A   1      42.532  31.149  33.008  1.00  0.00    -0.354 N 
ATOM     56  N   UNL A   1      42.043  29.031  31.025  1.00  0.00    -0.248 NA
ATOM     57  C   UNL A   1      42.658  27.018  30.013  1.00  0.00     0.031 C 
ATOM     58  C   UNL A   1      44.297  30.953  34.341  1.00  0.00     0.029 A 
ATOM     59  C   UNL A   1      43.605  30.329  33.314  1.00  0.00     0.049 A 
ATOM     60  H   UNL A   1      41.866  30.968  32.306  1.00  0.00     0.167 HD
ATOM     61  C   UNL A   1      43.180  28.537  31.652  1.00  0.00     0.074 A 
ATOM     62  C   UNL A   1      43.493  27.276  31.009  1.00  0.00     0.031 C 
ATOM     63  C   UNL A   1      43.898  29.073  32.669  1.00  0.00     0.037 A 
BRANCH  50  64
ATOM     64  C   UNL A   1      41.733  34.506  34.693  1.00  0.00     0.057 A 
ATOM     65  C   UNL A   1      41.152  34.545  35.969  1.00  0.00     0.134 A 
ATOM     66  C   UNL A   1      42.491  35.616  34.299  1.00  0.00     0.134 A 
ATOM     67  F   UNL A   1      40.401  33.523  36.406  1.00  0.00    -0.206 F 
ATOM     68  C   UNL A   1      41.286  35.657  36.801  1.00  0.00     0.040 A 
ATOM     69  C   UNL A   1      42.662  36.720  35.138  1.00  0.00     0.040 A 
ATOM     70  F   UNL A   1      43.081  35.647  33.095  1.00  0.00    -0.206 F 
ATOM     71  C   UNL A   1      42.049  36.747  36.388  1.00  0.00     0.006 A 
ENDBRANCH  50  64
BRANCH  51  72
ATOM     72  C   UNL A   1      40.381  27.046  28.173  1.00  0.00     0.057 A 
ATOM     73  C   UNL A   1      40.978  27.094  26.907  1.00  0.00     0.134 A 
ATOM     74  C   UNL A   1      39.607  25.920  28.478  1.00  0.00     0.134 A 
ATOM     75  F   UNL A   1      41.720  28.152  26.550  1.00  0.00    -0.206 F 
ATOM     76  C   UNL A   1      40.791  26.075  25.971  1.00  0.00     0.040 A 
ATOM     77  C   UNL A   1      39.435  24.881  27.562  1.00  0.00     0.040 A 
ATOM     78  F   UNL A   1      39.019  25.808  29.678  1.00  0.00    -0.206 F 
ATOM     79  C   UNL A   1      40.021  24.962  26.301  1.00  0.00     0.006 A 
ENDBRANCH  51  72
BRANCH  63  80
ATOM     80  C   UNL A   1      45.060  28.273  33.186  1.00  0.00     0.057 A 
ATOM     81  C   UNL A   1      44.915  27.313  34.196  1.00  0.00     0.134 A 
ATOM     82  C   UNL A   1      46.341  28.454  32.646  1.00  0.00     0.134 A 
ATOM     83  F   UNL A   1      43.719  27.097  34.763  1.00  0.00    -0.206 F 
ATOM     84  C   UNL A   1      46.009  26.590  34.677  1.00  0.00     0.040 A 
ATOM     85  C   UNL A   1      47.434  27.713  33.094  1.00  0.00     0.040 A 
ATOM     86  F   UNL A   1      46.547  29.347  31.667  1.00  0.00    -0.206 F 
ATOM     87  C   UNL A   1      47.272  26.786  34.120  1.00  0.00     0.006 A 
ENDBRANCH  63  80
ENDBRANCH  37  38
ENDBRANCH  29  32
ENDBRANCH  27  28
ENDBRANCH  26  27
ENDBRANCH  25  26
ENDBRANCH  24  25
ENDBRANCH   1  24
TORSDOF 17
ENDMDL
MODEL 3
REMARK VINA RESULT:     -11.1      2.098      6.550
REMARK SMILES CNC(=O)NC(=O)CCSc1csc(C(=O)NCCCCCCNC(=O)c2ccc(-c3c4nc(c(-c5c(F)cccc5F)c5ccc([nH]5)c(-c5c(F)cccc5F)c5nc(c(-c6c(F)cccc6F)c6ccc3[nH]6)C=C5)C=C4)cc2)c1
REMARK SMILES IDX 19 1 18 2 17 3 15 4 16 5 14 7 11 8 12 9 81 10 13 11 10 12
REMARK SMILES IDX 9 13 8 14 6 15 1 16 2 17 3 18 4 20 5 21 7 23 20 24 21 25
REMARK SMILES IDX 22 26 23 27 24 28 25 29 26 31 27 32 28 33 80 34 29 35 79 36
REMARK SMILES IDX 30 37 31 38 32 39 73 40 33 41 78 42 72 43 74 44 34 45 77 46
REMARK SMILES IDX 71 47 70 48 35 50 61 51 44 52 60 53 45 54 48 55 59 56 75 57
REMARK SMILES IDX 46 58 47 59 58 61 76 62 49 63 36 64 37 65 42 66 38 67 39 68
REMARK SMILES IDX 41 69 43 70 40 71 62 72 63 73 68 74 64 75 65 76 67 77 69 78
REMARK SMILES IDX 66 79 50 80 51 81 56 82 52 83 53 84 55 85 57 86 54 87
REMARK H PARENT 17 6 2 19 5 22 24 30 74 49 48 60
REMARK Flexibility Score: inf
ROOT
ATOM      1  C   UNL A   1      37.238  22.921  25.338  1.00  0.00     0.021 C 
ENDROOT
BRANCH   1   2
ATOM      2  C   UNL A   1      35.958  23.637  25.773  1.00  0.00     0.116 C 
BRANCH   2   3
ATOM      3  N   UNL A   1      35.272  22.889  26.812  1.00  0.00    -0.351 N 
ATOM      4  C   UNL A   1      34.031  22.283  26.815  1.00  0.00     0.261 C 
ATOM      5  O   UNL A   1      33.746  21.601  27.795  1.00  0.00    -0.268 OA
ATOM      6  H   UNL A   1      35.775  22.799  27.654  1.00  0.00     0.163 HD
BRANCH   4   7
ATOM      7  C   UNL A   1      33.170  22.458  25.659  1.00  0.00     0.093 A 
ATOM      8  C   UNL A   1      31.872  23.499  24.036  1.00  0.00     0.019 A 
ATOM      9  C   UNL A   1      32.194  22.321  23.401  1.00  0.00     0.080 A 
ATOM     10  C   UNL A   1      32.289  23.480  25.384  1.00  0.00     0.040 A 
ATOM     11  S   UNL A   1      33.147  21.299  24.399  1.00  0.00    -0.137 S 
BRANCH   8  12
ATOM     12  S   UNL A   1      31.069  24.851  23.255  1.00  0.00    -0.125 SA
BRANCH  12  13
ATOM     13  C   UNL A   1      30.337  25.801  24.622  1.00  0.00     0.085 C 
BRANCH  13  14
ATOM     14  C   UNL A   1      30.817  27.227  24.887  1.00  0.00     0.112 C 
BRANCH  14  15
ATOM     15  C   UNL A   1      31.508  27.531  26.187  1.00  0.00     0.228 C 
ATOM     16  C   UNL A   1      33.217  28.758  23.248  1.00  0.00     0.144 C 
ATOM     17  N   UNL A   1      33.242  29.648  24.379  1.00  0.00    -0.341 N 
ATOM     18  C   UNL A   1      33.108  29.482  25.698  1.00  0.00     0.321 C 
ATOM     19  H   UNL A   1      33.390  30.587  24.123  1.00  0.00     0.165 HD
ATOM     20  O   UNL A   1      33.471  30.412  26.426  1.00  0.00    -0.248 OA
ATOM     21  N   UNL A   1      32.602  28.366  26.294  1.00  0.00    -0.278 N 
ATOM     22  H   UNL A   1      33.194  28.063  27.019  1.00  0.00     0.174 HD
ATOM     23  O   UNL A   1      31.070  27.019  27.226  1.00  0.00    -0.275 OA
ENDBRANCH  14  15
ENDBRANCH  13  14
ENDBRANCH  12  13
ENDBRANCH   8  12
ENDBRANCH   4   7
ENDBRANCH   2   3
ENDBRANCH   1   2
BRANCH   1  24
ATOM     24  C   UNL A   1      36.968  21.836  24.291  1.00  0.00     0.002 C 
BRANCH  24  25
ATOM     25  C   UNL A   1      36.786  20.431  24.883  1.00  0.00     0.002 C 
BRANCH  25  26
ATOM     26  C   UNL A   1      38.060  19.583  24.909  1.00  0.00     0.021 C 
BRANCH  26  27
ATOM     27  C   UNL A   1      39.114  20.098  25.880  1.00  0.00     0.116 C 
BRANCH  27  28
ATOM     28  N   UNL A   1      40.304  19.264  25.854  1.00  0.00    -0.352 N 
ATOM     29  C   UNL A   1      41.619  19.625  25.979  1.00  0.00     0.251 C 
ATOM     30  H   UNL A   1      40.142  18.302  25.727  1.00  0.00     0.163 HD
ATOM     31  O   UNL A   1      42.508  18.849  25.646  1.00  0.00    -0.269 OA
BRANCH  29  32
ATOM     32  C   UNL A   1      41.959  20.950  26.529  1.00  0.00     0.039 A 
ATOM     33  C   UNL A   1      41.891  21.150  27.909  1.00  0.00     0.014 A 
ATOM     34  C   UNL A   1      42.298  22.007  25.678  1.00  0.00     0.014 A 
ATOM     35  C   UNL A   1      42.175  22.408  28.436  1.00  0.00     0.010 A 
ATOM     36  C   UNL A   1      42.671  23.234  26.211  1.00  0.00     0.010 A 
ATOM     37  C   UNL A   1      42.576  23.456  27.591  1.00  0.00    -0.014 A 
BRANCH  37  38
ATOM     38  C   UNL A   1      42.837  24.812  28.131  1.00  0.00     0.031 A 
ATOM     39  C   UNL A   1      44.236  25.210  28.515  1.00  0.00     0.074 A 
ATOM     40  C   UNL A   1      41.813  25.668  28.306  1.00  0.00     0.049 A 
ATOM     41  N   UNL A   1      44.666  26.337  29.021  1.00  0.00    -0.248 NA
ATOM     42  C   UNL A   1      45.287  24.194  28.340  1.00  0.00     0.031 C 
ATOM     43  C   UNL A   1      40.408  25.377  28.018  1.00  0.00     0.029 A 
ATOM     44  N   UNL A   1      41.799  26.959  28.768  1.00  0.00    -0.354 N 
ATOM     45  C   UNL A   1      46.028  26.160  29.234  1.00  0.00     0.074 A 
ATOM     46  C   UNL A   1      46.339  24.794  28.873  1.00  0.00     0.031 C 
ATOM     47  C   UNL A   1      39.672  26.470  28.277  1.00  0.00     0.029 A 
ATOM     48  C   UNL A   1      40.548  27.523  28.781  1.00  0.00     0.049 A 
ATOM     49  H   UNL A   1      42.608  27.435  29.062  1.00  0.00     0.167 HD
ATOM     50  C   UNL A   1      46.944  27.061  29.661  1.00  0.00     0.037 A 
ATOM     51  C   UNL A   1      40.154  28.754  29.157  1.00  0.00     0.037 A 
ATOM     52  C   UNL A   1      46.630  28.425  29.996  1.00  0.00     0.049 A 
ATOM     53  C   UNL A   1      41.190  29.740  29.623  1.00  0.00     0.074 A 
ATOM     54  C   UNL A   1      47.488  29.436  30.389  1.00  0.00     0.029 A 
ATOM     55  N   UNL A   1      45.353  28.966  29.980  1.00  0.00    -0.354 N 
ATOM     56  N   UNL A   1      42.485  29.582  29.755  1.00  0.00    -0.248 NA
ATOM     57  C   UNL A   1      40.709  31.082  29.977  1.00  0.00     0.031 C 
ATOM     58  C   UNL A   1      46.723  30.574  30.663  1.00  0.00     0.029 A 
ATOM     59  C   UNL A   1      45.397  30.292  30.376  1.00  0.00     0.049 A 
ATOM     60  H   UNL A   1      44.536  28.480  29.723  1.00  0.00     0.167 HD
ATOM     61  C   UNL A   1      42.979  30.813  30.169  1.00  0.00     0.074 A 
ATOM     62  C   UNL A   1      41.843  31.708  30.255  1.00  0.00     0.031 C 
ATOM     63  C   UNL A   1      44.256  31.172  30.449  1.00  0.00     0.037 A 
BRANCH  50  64
ATOM     64  C   UNL A   1      48.366  26.592  29.792  1.00  0.00     0.057 A 
ATOM     65  C   UNL A   1      48.841  25.971  30.957  1.00  0.00     0.134 A 
ATOM     66  C   UNL A   1      49.272  26.754  28.736  1.00  0.00     0.134 A 
ATOM     67  F   UNL A   1      48.032  25.796  32.013  1.00  0.00    -0.206 F 
ATOM     68  C   UNL A   1      50.171  25.566  31.080  1.00  0.00     0.040 A 
ATOM     69  C   UNL A   1      50.595  26.320  28.835  1.00  0.00     0.040 A 
ATOM     70  F   UNL A   1      48.887  27.334  27.590  1.00  0.00    -0.206 F 
ATOM     71  C   UNL A   1      51.051  25.734  30.014  1.00  0.00     0.006 A 
ENDBRANCH  50  64
BRANCH  51  72
ATOM     72  C   UNL A   1      38.722  29.133  29.069  1.00  0.00     0.057 A 
ATOM     73  C   UNL A   1      37.886  29.068  30.191  1.00  0.00     0.134 A 
ATOM     74  C   UNL A   1      38.153  29.569  27.867  1.00  0.00     0.134 A 
ATOM     75  F   UNL A   1      38.368  28.646  31.369  1.00  0.00    -0.206 F 
ATOM     76  C   UNL A   1      36.532  29.399  30.114  1.00  0.00     0.040 A 
ATOM     77  C   UNL A   1      36.808  29.930  27.783  1.00  0.00     0.040 A 
ATOM     78  F   UNL A   1      38.903  29.666  26.759  1.00  0.00    -0.206 F 
ATOM     79  C   UNL A   1      35.990  29.836  28.907  1.00  0.00     0.006 A 
ENDBRANCH  51  72
BRANCH  63  80
ATOM     80  C   UNL A   1      44.500  32.607  30.820  1.00  0.00     0.057 A 
ATOM     81  C   UNL A   1      44.491  33.047  32.151  1.00  0.00     0.134 A 
ATOM     82  C   UNL A   1      44.767  33.560  29.828  1.00  0.00     0.134 A 
ATOM     83  F   UNL A   1      44.231  32.189  33.150  1.00  0.00    -0.206 F 
ATOM     84  C   UNL A   1      44.702  34.388  32.477  1.00  0.00     0.040 A 
ATOM     85  C   UNL A   1      45.014  34.895  30.143  1.00  0.00     0.040 A 
ATOM     86  F   UNL A   1      44.804  33.204  28.535  1.00  0.00    -0.206 F 
ATOM     87  C   UNL A   1      44.971  35.315  31.471  1.00  0.00     0.006 A 
ENDBRANCH  63  80
ENDBRANCH  37  38
ENDBRANCH  29  32
ENDBRANCH  27  28
ENDBRANCH  26  27
ENDBRANCH  25  26
ENDBRANCH  24  25
ENDBRANCH   1  24
TORSDOF 17
ENDMDL
