MODEL 1
REMARK VINA RESULT:     -11.3      0.000      0.000
REMARK SMILES C[C@@H](C(=O)NCCCCCCNC(=O)c1ccc(-c2c3nc(c(-c4c(F)cccc4F)c4ccc([nH]4)c(-c4c(F)cccc4F)c4nc(c(-c5c(F)cccc5F)c5ccc2[nH]5)C=C4)C=C3)cc1)c1ccc(Cc2ccsc2)cc1F
REMARK SMILES IDX 8 1 7 2 6 3 5 4 3 5 4 6 2 8 1 9 69 10 70 11 80 12 71 13
REMARK SMILES IDX 79 14 81 15 72 16 73 17 74 18 75 19 78 20 76 21 77 22 9 23
REMARK SMILES IDX 10 24 11 25 12 26 13 27 14 29 15 30 16 31 68 32 17 33 67 34
REMARK SMILES IDX 18 35 19 36 20 37 61 38 21 39 66 40 60 41 62 42 22 43 65 44
REMARK SMILES IDX 59 45 58 46 23 48 49 49 32 50 48 51 33 52 36 53 47 54 63 55
REMARK SMILES IDX 34 56 35 57 46 59 64 60 37 61 24 62 25 63 30 64 26 65 27 66
REMARK SMILES IDX 29 67 31 68 28 69 50 70 51 71 56 72 52 73 53 74 55 75 57 76
REMARK SMILES IDX 54 77 38 78 39 79 44 80 40 81 41 82 43 83 45 84 42 85
REMARK H PARENT 5 7 12 28 62 47 36 58
REMARK Flexibility Score: inf
ROOT
ATOM      1  C   UNL A   1      32.239  29.780  26.105  1.00  0.00     0.002 C 
ENDROOT
BRANCH   1   2
ATOM      2  C   UNL A   1      31.788  28.407  26.624  1.00  0.00     0.021 C 
BRANCH   2   3
ATOM      3  C   UNL A   1      32.845  27.308  26.497  1.00  0.00     0.116 C 
BRANCH   3   4
ATOM      4  N   UNL A   1      33.638  27.486  25.300  1.00  0.00    -0.356 N 
ATOM      5  C   UNL A   1      33.533  26.908  24.068  1.00  0.00     0.227 C 
ATOM      6  O   UNL A   1      34.375  27.248  23.234  1.00  0.00    -0.274 OA
ATOM      7  H   UNL A   1      34.377  28.132  25.388  1.00  0.00     0.163 HD
BRANCH   5   8
ATOM      8  C   UNL A   1      32.363  25.959  23.754  1.00  0.00     0.108 C 
ATOM      9  C   UNL A   1      32.630  25.023  22.570  1.00  0.00     0.023 C 
BRANCH   8  10
ATOM     10  C   UNL A   1      31.060  26.716  23.531  1.00  0.00    -0.000 A 
ATOM     11  C   UNL A   1      31.031  27.847  22.706  1.00  0.00     0.008 A 
ATOM     12  C   UNL A   1      29.861  26.304  24.128  1.00  0.00     0.127 A 
ATOM     13  C   UNL A   1      29.836  28.542  22.498  1.00  0.00     0.004 A 
ATOM     14  C   UNL A   1      28.670  27.000  23.934  1.00  0.00     0.043 A 
ATOM     15  F   UNL A   1      29.839  25.217  24.914  1.00  0.00    -0.207 F 
ATOM     16  C   UNL A   1      28.642  28.135  23.116  1.00  0.00    -0.041 A 
BRANCH  16  17
ATOM     17  C   UNL A   1      27.351  28.880  22.879  1.00  0.00     0.072 C 
BRANCH  17  18
ATOM     18  C   UNL A   1      27.707  30.317  22.627  1.00  0.00    -0.033 A 
ATOM     19  C   UNL A   1      28.013  31.287  23.646  1.00  0.00     0.015 A 
ATOM     20  C   UNL A   1      27.847  30.885  21.372  1.00  0.00     0.068 A 
ATOM     21  C   UNL A   1      28.341  32.522  23.132  1.00  0.00     0.065 A 
ATOM     22  S   UNL A   1      28.310  32.530  21.426  1.00  0.00    -0.152 S 
ENDBRANCH  17  18
ENDBRANCH  16  17
ENDBRANCH   8  10
ENDBRANCH   5   8
ENDBRANCH   3   4
ENDBRANCH   2   3
ENDBRANCH   1   2
BRANCH   1  23
ATOM     23  C   UNL A   1      31.114  30.696  25.611  1.00  0.00     0.002 C 
BRANCH  23  24
ATOM     24  C   UNL A   1      31.062  32.077  26.270  1.00  0.00     0.021 C 
BRANCH  24  25
ATOM     25  C   UNL A   1      32.332  32.479  27.011  1.00  0.00     0.116 C 
BRANCH  25  26
ATOM     26  N   UNL A   1      32.304  33.869  27.434  1.00  0.00    -0.352 N 
ATOM     27  C   UNL A   1      33.073  34.505  28.374  1.00  0.00     0.251 C 
ATOM     28  H   UNL A   1      31.638  34.435  26.980  1.00  0.00     0.163 HD
ATOM     29  O   UNL A   1      32.787  35.650  28.726  1.00  0.00    -0.269 OA
BRANCH  27  30
ATOM     30  C   UNL A   1      34.236  33.822  28.979  1.00  0.00     0.039 A 
ATOM     31  C   UNL A   1      35.522  34.234  28.615  1.00  0.00     0.014 A 
ATOM     32  C   UNL A   1      34.069  32.754  29.866  1.00  0.00     0.014 A 
ATOM     33  C   UNL A   1      36.636  33.595  29.161  1.00  0.00     0.010 A 
ATOM     34  C   UNL A   1      35.181  32.164  30.463  1.00  0.00     0.010 A 
ATOM     35  C   UNL A   1      36.475  32.562  30.099  1.00  0.00    -0.014 A 
BRANCH  35  36
ATOM     36  C   UNL A   1      37.651  31.858  30.667  1.00  0.00     0.031 A 
ATOM     37  C   UNL A   1      38.125  32.187  32.057  1.00  0.00     0.074 A 
ATOM     38  C   UNL A   1      38.316  30.952  29.925  1.00  0.00     0.049 A 
ATOM     39  N   UNL A   1      39.146  31.706  32.720  1.00  0.00    -0.248 NA
ATOM     40  C   UNL A   1      37.368  33.215  32.789  1.00  0.00     0.031 C 
ATOM     41  C   UNL A   1      37.984  30.577  28.549  1.00  0.00     0.029 A 
ATOM     42  N   UNL A   1      39.412  30.183  30.224  1.00  0.00    -0.354 N 
ATOM     43  C   UNL A   1      39.164  32.385  33.932  1.00  0.00     0.074 A 
ATOM     44  C   UNL A   1      38.087  33.348  33.893  1.00  0.00     0.031 C 
ATOM     45  C   UNL A   1      38.841  29.628  28.135  1.00  0.00     0.029 A 
ATOM     46  C   UNL A   1      39.795  29.349  29.204  1.00  0.00     0.049 A 
ATOM     47  H   UNL A   1      39.880  30.226  31.089  1.00  0.00     0.167 HD
ATOM     48  C   UNL A   1      39.990  32.208  34.990  1.00  0.00     0.037 A 
ATOM     49  C   UNL A   1      40.799  28.455  29.140  1.00  0.00     0.037 A 
ATOM     50  C   UNL A   1      41.036  31.221  35.044  1.00  0.00     0.049 A 
ATOM     51  C   UNL A   1      41.687  28.259  30.338  1.00  0.00     0.074 A 
ATOM     52  C   UNL A   1      41.881  30.916  36.096  1.00  0.00     0.029 A 
ATOM     53  N   UNL A   1      41.375  30.376  33.998  1.00  0.00    -0.354 N 
ATOM     54  N   UNL A   1      41.649  28.860  31.503  1.00  0.00    -0.248 NA
ATOM     55  C   UNL A   1      42.750  27.251  30.216  1.00  0.00     0.031 C 
ATOM     56  C   UNL A   1      42.757  29.910  35.674  1.00  0.00     0.029 A 
ATOM     57  C   UNL A   1      42.428  29.559  34.375  1.00  0.00     0.049 A 
ATOM     58  H   UNL A   1      40.933  30.359  33.119  1.00  0.00     0.167 HD
ATOM     59  C   UNL A   1      42.656  28.279  32.263  1.00  0.00     0.074 A 
ATOM     60  C   UNL A   1      43.281  27.273  31.430  1.00  0.00     0.031 C 
ATOM     61  C   UNL A   1      43.027  28.552  33.539  1.00  0.00     0.037 A 
BRANCH  48  62
ATOM     62  C   UNL A   1      39.789  33.101  36.180  1.00  0.00     0.057 A 
ATOM     63  C   UNL A   1      38.894  32.775  37.209  1.00  0.00     0.134 A 
ATOM     64  C   UNL A   1      40.514  34.293  36.311  1.00  0.00     0.134 A 
ATOM     65  F   UNL A   1      38.159  31.655  37.140  1.00  0.00    -0.206 F 
ATOM     66  C   UNL A   1      38.706  33.615  38.308  1.00  0.00     0.040 A 
ATOM     67  C   UNL A   1      40.355  35.127  37.418  1.00  0.00     0.040 A 
ATOM     68  F   UNL A   1      41.391  34.663  35.366  1.00  0.00    -0.206 F 
ATOM     69  C   UNL A   1      39.443  34.793  38.417  1.00  0.00     0.006 A 
ENDBRANCH  48  62
BRANCH  49  70
ATOM     70  C   UNL A   1      40.994  27.639  27.916  1.00  0.00     0.057 A 
ATOM     71  C   UNL A   1      41.785  28.106  26.860  1.00  0.00     0.134 A 
ATOM     72  C   UNL A   1      40.390  26.385  27.766  1.00  0.00     0.134 A 
ATOM     73  F   UNL A   1      42.375  29.308  26.939  1.00  0.00    -0.206 F 
ATOM     74  C   UNL A   1      41.954  27.366  25.689  1.00  0.00     0.040 A 
ATOM     75  C   UNL A   1      40.569  25.624  26.610  1.00  0.00     0.040 A 
ATOM     76  F   UNL A   1      39.627  25.879  28.745  1.00  0.00    -0.206 F 
ATOM     77  C   UNL A   1      41.346  26.118  25.563  1.00  0.00     0.006 A 
ENDBRANCH  49  70
BRANCH  61  78
ATOM     78  C   UNL A   1      44.127  27.717  34.124  1.00  0.00     0.057 A 
ATOM     79  C   UNL A   1      43.877  26.485  34.741  1.00  0.00     0.134 A 
ATOM     80  C   UNL A   1      45.460  28.140  34.040  1.00  0.00     0.134 A 
ATOM     81  F   UNL A   1      42.621  26.029  34.864  1.00  0.00    -0.206 F 
ATOM     82  C   UNL A   1      44.911  25.716  35.278  1.00  0.00     0.040 A 
ATOM     83  C   UNL A   1      46.505  27.368  34.550  1.00  0.00     0.040 A 
ATOM     84  F   UNL A   1      45.769  29.307  33.454  1.00  0.00    -0.206 F 
ATOM     85  C   UNL A   1      46.230  26.155  35.178  1.00  0.00     0.006 A 
ENDBRANCH  61  78
ENDBRANCH  35  36
ENDBRANCH  27  30
ENDBRANCH  25  26
ENDBRANCH  24  25
ENDBRANCH  23  24
ENDBRANCH   1  23
TORSDOF 16
ENDMDL
MODEL 2
REMARK VINA RESULT:     -11.2      1.043      6.183
REMARK SMILES C[C@@H](C(=O)NCCCCCCNC(=O)c1ccc(-c2c3nc(c(-c4c(F)cccc4F)c4ccc([nH]4)c(-c4c(F)cccc4F)c4nc(c(-c5c(F)cccc5F)c5ccc2[nH]5)C=C4)C=C3)cc1)c1ccc(Cc2ccsc2)cc1F
REMARK SMILES IDX 8 1 7 2 6 3 5 4 3 5 4 6 2 8 1 9 69 10 70 11 80 12 71 13
REMARK SMILES IDX 79 14 81 15 72 16 73 17 74 18 75 19 78 20 76 21 77 22 9 23
REMARK SMILES IDX 10 24 11 25 12 26 13 27 14 29 15 30 16 31 68 32 17 33 67 34
REMARK SMILES IDX 18 35 19 36 20 37 61 38 21 39 66 40 60 41 62 42 22 43 65 44
REMARK SMILES IDX 59 45 58 46 23 48 49 49 32 50 48 51 33 52 36 53 47 54 63 55
REMARK SMILES IDX 34 56 35 57 46 59 64 60 37 61 24 62 25 63 30 64 26 65 27 66
REMARK SMILES IDX 29 67 31 68 28 69 50 70 51 71 56 72 52 73 53 74 55 75 57 76
REMARK SMILES IDX 54 77 38 78 39 79 44 80 40 81 41 82 43 83 45 84 42 85
REMARK H PARENT 5 7 12 28 62 47 36 58
REMARK Flexibility Score: inf
ROOT
ATOM      1  C   UNL A   1      31.772  29.461  25.578  1.00  0.00     0.002 C 
ENDROOT
BRANCH   1   2
ATOM      2  C   UNL A   1      33.147  29.325  24.908  1.00  0.00     0.021 C 
BRANCH   2   3
ATOM      3  C   UNL A   1      33.701  27.899  24.893  1.00  0.00     0.116 C 
BRANCH   3   4
ATOM      4  N   UNL A   1      33.996  27.470  23.543  1.00  0.00    -0.356 N 
ATOM      5  C   UNL A   1      33.445  26.480  22.783  1.00  0.00     0.227 C 
ATOM      6  O   UNL A   1      33.919  26.333  21.655  1.00  0.00    -0.274 OA
ATOM      7  H   UNL A   1      34.713  27.978  23.098  1.00  0.00     0.163 HD
BRANCH   5   8
ATOM      8  C   UNL A   1      32.245  25.674  23.311  1.00  0.00     0.108 C 
ATOM      9  C   UNL A   1      32.044  24.331  22.600  1.00  0.00     0.023 C 
BRANCH   8  10
ATOM     10  C   UNL A   1      30.954  26.481  23.266  1.00  0.00    -0.000 A 
ATOM     11  C   UNL A   1      30.849  27.603  22.435  1.00  0.00     0.008 A 
ATOM     12  C   UNL A   1      29.840  26.126  24.038  1.00  0.00     0.127 A 
ATOM     13  C   UNL A   1      29.663  28.344  22.390  1.00  0.00     0.004 A 
ATOM     14  C   UNL A   1      28.661  26.867  24.007  1.00  0.00     0.043 A 
ATOM     15  F   UNL A   1      29.890  25.050  24.838  1.00  0.00    -0.207 F 
ATOM     16  C   UNL A   1      28.558  27.992  23.181  1.00  0.00    -0.041 A 
BRANCH  16  17
ATOM     17  C   UNL A   1      27.276  28.787  23.122  1.00  0.00     0.072 C 
BRANCH  17  18
ATOM     18  C   UNL A   1      27.641  30.191  22.732  1.00  0.00    -0.033 A 
ATOM     19  C   UNL A   1      27.916  31.263  23.653  1.00  0.00     0.015 A 
ATOM     20  C   UNL A   1      27.821  30.625  21.429  1.00  0.00     0.068 A 
ATOM     21  C   UNL A   1      28.260  32.438  23.023  1.00  0.00     0.065 A 
ATOM     22  S   UNL A   1      28.283  32.268  21.325  1.00  0.00    -0.152 S 
ENDBRANCH  17  18
ENDBRANCH  16  17
ENDBRANCH   8  10
ENDBRANCH   5   8
ENDBRANCH   3   4
ENDBRANCH   2   3
ENDBRANCH   1   2
BRANCH   1  23
ATOM     23  C   UNL A   1      31.123  30.845  25.469  1.00  0.00     0.002 C 
BRANCH  23  24
ATOM     24  C   UNL A   1      31.195  31.699  26.738  1.00  0.00     0.021 C 
BRANCH  24  25
ATOM     25  C   UNL A   1      32.523  32.417  26.950  1.00  0.00     0.116 C 
BRANCH  25  26
ATOM     26  N   UNL A   1      32.342  33.789  27.390  1.00  0.00    -0.352 N 
ATOM     27  C   UNL A   1      33.024  34.490  28.350  1.00  0.00     0.251 C 
ATOM     28  H   UNL A   1      31.628  34.289  26.931  1.00  0.00     0.163 HD
ATOM     29  O   UNL A   1      32.614  35.593  28.712  1.00  0.00    -0.269 OA
BRANCH  27  30
ATOM     30  C   UNL A   1      34.243  33.925  28.967  1.00  0.00     0.039 A 
ATOM     31  C   UNL A   1      35.490  34.302  28.461  1.00  0.00     0.014 A 
ATOM     32  C   UNL A   1      34.165  32.996  30.010  1.00  0.00     0.014 A 
ATOM     33  C   UNL A   1      36.655  33.771  29.016  1.00  0.00     0.010 A 
ATOM     34  C   UNL A   1      35.329  32.521  30.609  1.00  0.00     0.010 A 
ATOM     35  C   UNL A   1      36.585  32.885  30.103  1.00  0.00    -0.014 A 
BRANCH  35  36
ATOM     36  C   UNL A   1      37.815  32.293  30.686  1.00  0.00     0.031 A 
ATOM     37  C   UNL A   1      38.419  31.060  30.070  1.00  0.00     0.074 A 
ATOM     38  C   UNL A   1      38.367  32.837  31.787  1.00  0.00     0.049 A 
ATOM     39  N   UNL A   1      39.471  30.377  30.446  1.00  0.00    -0.248 NA
ATOM     40  C   UNL A   1      37.735  30.504  28.892  1.00  0.00     0.031 C 
ATOM     41  C   UNL A   1      37.851  34.005  32.504  1.00  0.00     0.029 A 
ATOM     42  N   UNL A   1      39.483  32.477  32.498  1.00  0.00    -0.354 N 
ATOM     43  C   UNL A   1      39.559  29.305  29.567  1.00  0.00     0.074 A 
ATOM     44  C   UNL A   1      38.427  29.398  28.672  1.00  0.00     0.031 C 
ATOM     45  C   UNL A   1      38.668  34.282  33.534  1.00  0.00     0.029 A 
ATOM     46  C   UNL A   1      39.745  33.298  33.566  1.00  0.00     0.049 A 
ATOM     47  H   UNL A   1      40.045  31.703  32.263  1.00  0.00     0.167 HD
ATOM     48  C   UNL A   1      40.509  28.343  29.497  1.00  0.00     0.037 A 
ATOM     49  C   UNL A   1      40.746  33.264  34.466  1.00  0.00     0.037 A 
ATOM     50  C   UNL A   1      41.657  28.275  30.361  1.00  0.00     0.049 A 
ATOM     51  C   UNL A   1      41.803  32.200  34.351  1.00  0.00     0.074 A 
ATOM     52  C   UNL A   1      42.712  27.380  30.328  1.00  0.00     0.029 A 
ATOM     53  N   UNL A   1      41.900  29.142  31.416  1.00  0.00    -0.354 N 
ATOM     54  N   UNL A   1      41.911  31.233  33.472  1.00  0.00    -0.248 NA
ATOM     55  C   UNL A   1      42.882  32.230  35.348  1.00  0.00     0.031 C 
ATOM     56  C   UNL A   1      43.577  27.684  31.385  1.00  0.00     0.029 A 
ATOM     57  C   UNL A   1      43.082  28.794  32.050  1.00  0.00     0.049 A 
ATOM     58  H   UNL A   1      41.320  29.893  31.676  1.00  0.00     0.167 HD
ATOM     59  C   UNL A   1      43.087  30.565  33.786  1.00  0.00     0.074 A 
ATOM     60  C   UNL A   1      43.660  31.241  34.932  1.00  0.00     0.031 C 
ATOM     61  C   UNL A   1      43.645  29.488  33.178  1.00  0.00     0.037 A 
BRANCH  48  62
ATOM     62  C   UNL A   1      40.346  27.287  28.442  1.00  0.00     0.057 A 
ATOM     63  C   UNL A   1      39.572  26.138  28.656  1.00  0.00     0.134 A 
ATOM     64  C   UNL A   1      40.954  27.430  27.187  1.00  0.00     0.134 A 
ATOM     65  F   UNL A   1      38.974  25.933  29.840  1.00  0.00    -0.206 F 
ATOM     66  C   UNL A   1      39.433  25.156  27.674  1.00  0.00     0.040 A 
ATOM     67  C   UNL A   1      40.799  26.468  26.188  1.00  0.00     0.040 A 
ATOM     68  F   UNL A   1      41.705  28.506  26.913  1.00  0.00    -0.206 F 
ATOM     69  C   UNL A   1      40.043  25.324  26.432  1.00  0.00     0.006 A 
ENDBRANCH  48  62
BRANCH  49  70
ATOM     70  C   UNL A   1      40.828  34.297  35.528  1.00  0.00     0.057 A 
ATOM     71  C   UNL A   1      40.170  34.123  36.751  1.00  0.00     0.134 A 
ATOM     72  C   UNL A   1      41.551  35.481  35.346  1.00  0.00     0.134 A 
ATOM     73  F   UNL A   1      39.446  33.016  36.977  1.00  0.00    -0.206 F 
ATOM     74  C   UNL A   1      40.210  35.098  37.749  1.00  0.00     0.040 A 
ATOM     75  C   UNL A   1      41.620  36.454  36.344  1.00  0.00     0.040 A 
ATOM     76  F   UNL A   1      42.210  35.704  34.200  1.00  0.00    -0.206 F 
ATOM     77  C   UNL A   1      40.941  36.267  37.548  1.00  0.00     0.006 A 
ENDBRANCH  49  70
BRANCH  61  78
ATOM     78  C   UNL A   1      44.963  29.009  33.710  1.00  0.00     0.057 A 
ATOM     79  C   UNL A   1      45.050  28.024  34.701  1.00  0.00     0.134 A 
ATOM     80  C   UNL A   1      46.163  29.520  33.198  1.00  0.00     0.134 A 
ATOM     81  F   UNL A   1      43.937  27.503  35.241  1.00  0.00    -0.206 F 
ATOM     82  C   UNL A   1      46.283  27.584  35.184  1.00  0.00     0.040 A 
ATOM     83  C   UNL A   1      47.402  29.069  33.655  1.00  0.00     0.040 A 
ATOM     84  F   UNL A   1      46.150  30.460  32.241  1.00  0.00    -0.206 F 
ATOM     85  C   UNL A   1      47.464  28.102  34.656  1.00  0.00     0.006 A 
ENDBRANCH  61  78
ENDBRANCH  35  36
ENDBRANCH  27  30
ENDBRANCH  25  26
ENDBRANCH  24  25
ENDBRANCH  23  24
ENDBRANCH   1  23
TORSDOF 16
ENDMDL
MODEL 3
REMARK VINA RESULT:     -11.2      5.394      9.658
REMARK SMILES C[C@@H](C(=O)NCCCCCCNC(=O)c1ccc(-c2c3nc(c(-c4c(F)cccc4F)c4ccc([nH]4)c(-c4c(F)cccc4F)c4nc(c(-c5c(F)cccc5F)c5ccc2[nH]5)C=C4)C=C3)cc1)c1ccc(Cc2ccsc2)cc1F
REMARK SMILES IDX 8 1 7 2 6 3 5 4 3 5 4 6 2 8 1 9 69 10 70 11 80 12 71 13
REMARK SMILES IDX 79 14 81 15 72 16 73 17 74 18 75 19 78 20 76 21 77 22 9 23
REMARK SMILES IDX 10 24 11 25 12 26 13 27 14 29 15 30 16 31 68 32 17 33 67 34
REMARK SMILES IDX 18 35 19 36 20 37 61 38 21 39 66 40 60 41 62 42 22 43 65 44
REMARK SMILES IDX 59 45 58 46 23 48 49 49 32 50 48 51 33 52 36 53 47 54 63 55
REMARK SMILES IDX 34 56 35 57 46 59 64 60 37 61 24 62 25 63 30 64 26 65 27 66
REMARK SMILES IDX 29 67 31 68 28 69 50 70 51 71 56 72 52 73 53 74 55 75 57 76
REMARK SMILES IDX 54 77 38 78 39 79 44 80 40 81 41 82 43 83 45 84 42 85
REMARK H PARENT 5 7 12 28 62 47 36 58
REMARK Flexibility Score: inf
ROOT
ATOM      1  C   UNL A   1      36.216  21.759  24.459  1.00  0.00     0.002 C 
ENDROOT
BRANCH   1   2
ATOM      2  C   UNL A   1      36.314  22.848  25.537  1.00  0.00     0.021 C 
BRANCH   2   3
ATOM      3  C   UNL A   1      35.172  23.865  25.510  1.00  0.00     0.116 C 
BRANCH   3   4
ATOM      4  N   UNL A   1      34.235  23.624  26.586  1.00  0.00    -0.356 N 
ATOM      5  C   UNL A   1      32.887  23.412  26.562  1.00  0.00     0.227 C 
ATOM      6  O   UNL A   1      32.343  23.249  27.657  1.00  0.00    -0.274 OA
ATOM      7  H   UNL A   1      34.637  23.609  27.485  1.00  0.00     0.163 HD
BRANCH   5   8
ATOM      8  C   UNL A   1      32.142  23.305  25.220  1.00  0.00     0.108 C 
ATOM      9  C   UNL A   1      30.664  23.701  25.302  1.00  0.00     0.023 C 
BRANCH   8  10
ATOM     10  C   UNL A   1      32.271  21.916  24.608  1.00  0.00    -0.000 A 
ATOM     11  C   UNL A   1      32.456  20.795  25.427  1.00  0.00     0.008 A 
ATOM     12  C   UNL A   1      32.200  21.715  23.223  1.00  0.00     0.127 A 
ATOM     13  C   UNL A   1      32.573  19.519  24.868  1.00  0.00     0.004 A 
ATOM     14  C   UNL A   1      32.328  20.448  22.659  1.00  0.00     0.043 A 
ATOM     15  F   UNL A   1      32.009  22.757  22.401  1.00  0.00    -0.207 F 
ATOM     16  C   UNL A   1      32.519  19.328  23.477  1.00  0.00    -0.041 A 
BRANCH  16  17
ATOM     17  C   UNL A   1      32.633  17.948  22.877  1.00  0.00     0.072 C 
BRANCH  17  18
ATOM     18  C   UNL A   1      33.331  17.081  23.885  1.00  0.00    -0.033 A 
ATOM     19  C   UNL A   1      32.677  16.194  24.811  1.00  0.00     0.015 A 
ATOM     20  C   UNL A   1      34.706  16.974  24.014  1.00  0.00     0.068 A 
ATOM     21  C   UNL A   1      33.562  15.491  25.598  1.00  0.00     0.065 A 
ATOM     22  S   UNL A   1      35.184  15.862  25.222  1.00  0.00    -0.152 S 
ENDBRANCH  17  18
ENDBRANCH  16  17
ENDBRANCH   8  10
ENDBRANCH   5   8
ENDBRANCH   3   4
ENDBRANCH   2   3
ENDBRANCH   1   2
BRANCH   1  23
ATOM     23  C   UNL A   1      36.157  20.321  24.983  1.00  0.00     0.002 C 
BRANCH  23  24
ATOM     24  C   UNL A   1      37.460  19.528  24.859  1.00  0.00     0.021 C 
BRANCH  24  25
ATOM     25  C   UNL A   1      38.669  20.176  25.526  1.00  0.00     0.116 C 
BRANCH  25  26
ATOM     26  N   UNL A   1      39.770  19.244  25.692  1.00  0.00    -0.352 N 
ATOM     27  C   UNL A   1      41.058  19.487  26.093  1.00  0.00     0.251 C 
ATOM     28  H   UNL A   1      39.562  18.304  25.489  1.00  0.00     0.163 HD
ATOM     29  O   UNL A   1      41.905  18.597  26.006  1.00  0.00    -0.269 OA
BRANCH  27  30
ATOM     30  C   UNL A   1      41.444  20.814  26.618  1.00  0.00     0.039 A 
ATOM     31  C   UNL A   1      41.795  21.819  25.712  1.00  0.00     0.014 A 
ATOM     32  C   UNL A   1      41.503  21.061  27.993  1.00  0.00     0.014 A 
ATOM     33  C   UNL A   1      42.177  23.077  26.183  1.00  0.00     0.010 A 
ATOM     34  C   UNL A   1      41.816  22.336  28.459  1.00  0.00     0.010 A 
ATOM     35  C   UNL A   1      42.179  23.349  27.561  1.00  0.00    -0.014 A 
BRANCH  35  36
ATOM     36  C   UNL A   1      42.609  24.673  28.076  1.00  0.00     0.031 A 
ATOM     37  C   UNL A   1      41.586  25.747  28.330  1.00  0.00     0.074 A 
ATOM     38  C   UNL A   1      43.916  24.924  28.280  1.00  0.00     0.049 A 
ATOM     39  N   UNL A   1      41.761  26.975  28.750  1.00  0.00    -0.248 NA
ATOM     40  C   UNL A   1      40.182  25.407  28.047  1.00  0.00     0.031 C 
ATOM     41  C   UNL A   1      45.008  23.982  28.028  1.00  0.00     0.029 A 
ATOM     42  N   UNL A   1      44.547  26.051  28.742  1.00  0.00    -0.354 N 
ATOM     43  C   UNL A   1      40.499  27.555  28.761  1.00  0.00     0.074 A 
ATOM     44  C   UNL A   1      39.574  26.564  28.256  1.00  0.00     0.031 C 
ATOM     45  C   UNL A   1      46.172  24.560  28.370  1.00  0.00     0.029 A 
ATOM     46  C   UNL A   1      45.910  25.919  28.835  1.00  0.00     0.049 A 
ATOM     47  H   UNL A   1      44.068  26.875  28.985  1.00  0.00     0.167 HD
ATOM     48  C   UNL A   1      40.138  28.792  29.175  1.00  0.00     0.037 A 
ATOM     49  C   UNL A   1      46.844  26.794  29.255  1.00  0.00     0.037 A 
ATOM     50  C   UNL A   1      41.052  29.763  29.716  1.00  0.00     0.049 A 
ATOM     51  C   UNL A   1      46.414  28.154  29.733  1.00  0.00     0.074 A 
ATOM     52  C   UNL A   1      40.776  31.019  30.226  1.00  0.00     0.029 A 
ATOM     53  N   UNL A   1      42.423  29.581  29.818  1.00  0.00    -0.354 N 
ATOM     54  N   UNL A   1      45.209  28.664  29.802  1.00  0.00    -0.248 NA
ATOM     55  C   UNL A   1      47.476  29.055  30.202  1.00  0.00     0.031 C 
ATOM     56  C   UNL A   1      41.985  31.612  30.606  1.00  0.00     0.029 A 
ATOM     57  C   UNL A   1      43.008  30.708  30.370  1.00  0.00     0.049 A 
ATOM     58  H   UNL A   1      42.908  28.771  29.539  1.00  0.00     0.167 HD
ATOM     59  C   UNL A   1      45.362  29.928  30.356  1.00  0.00     0.074 A 
ATOM     60  C   UNL A   1      46.777  30.104  30.611  1.00  0.00     0.031 C 
ATOM     61  C   UNL A   1      44.416  30.859  30.632  1.00  0.00     0.037 A 
BRANCH  48  62
ATOM     62  C   UNL A   1      38.687  29.163  29.061  1.00  0.00     0.057 A 
ATOM     63  C   UNL A   1      37.811  29.070  30.151  1.00  0.00     0.134 A 
ATOM     64  C   UNL A   1      38.164  29.640  27.852  1.00  0.00     0.134 A 
ATOM     65  F   UNL A   1      38.245  28.608  31.334  1.00  0.00    -0.206 F 
ATOM     66  C   UNL A   1      36.462  29.408  30.036  1.00  0.00     0.040 A 
ATOM     67  C   UNL A   1      36.822  30.007  27.732  1.00  0.00     0.040 A 
ATOM     68  F   UNL A   1      38.947  29.759  26.770  1.00  0.00    -0.206 F 
ATOM     69  C   UNL A   1      35.966  29.885  28.824  1.00  0.00     0.006 A 
ENDBRANCH  48  62
BRANCH  49  70
ATOM     70  C   UNL A   1      48.273  26.398  29.290  1.00  0.00     0.057 A 
ATOM     71  C   UNL A   1      48.818  25.775  30.420  1.00  0.00     0.134 A 
ATOM     72  C   UNL A   1      49.129  26.639  28.209  1.00  0.00     0.134 A 
ATOM     73  F   UNL A   1      48.051  25.534  31.494  1.00  0.00    -0.206 F 
ATOM     74  C   UNL A   1      50.168  25.425  30.482  1.00  0.00     0.040 A 
ATOM     75  C   UNL A   1      50.475  26.273  28.249  1.00  0.00     0.040 A 
ATOM     76  F   UNL A   1      48.665  27.225  27.096  1.00  0.00    -0.206 F 
ATOM     77  C   UNL A   1      51.000  25.671  29.392  1.00  0.00     0.006 A 
ENDBRANCH  49  70
BRANCH  61  78
ATOM     78  C   UNL A   1      44.876  32.129  31.286  1.00  0.00     0.057 A 
ATOM     79  C   UNL A   1      45.247  33.255  30.541  1.00  0.00     0.134 A 
ATOM     80  C   UNL A   1      44.916  32.234  32.682  1.00  0.00     0.134 A 
ATOM     81  F   UNL A   1      45.241  33.215  29.200  1.00  0.00    -0.206 F 
ATOM     82  C   UNL A   1      45.668  34.432  31.162  1.00  0.00     0.040 A 
ATOM     83  C   UNL A   1      45.311  33.414  33.314  1.00  0.00     0.040 A 
ATOM     84  F   UNL A   1      44.565  31.194  33.454  1.00  0.00    -0.206 F 
ATOM     85  C   UNL A   1      45.695  34.515  32.553  1.00  0.00     0.006 A 
ENDBRANCH  61  78
ENDBRANCH  35  36
ENDBRANCH  27  30
ENDBRANCH  25  26
ENDBRANCH  24  25
ENDBRANCH  23  24
ENDBRANCH   1  23
TORSDOF 16
ENDMDL
