MODEL 1
REMARK VINA RESULT:     -11.3      0.000      0.000
REMARK SMILES O=C(NCCCCCCNC(=O)[C@@H]1CC=CC[C@@H]1C(=O)N1CCN(C(=O)c2sc3cc([N+](=O)[O-])ccc3c2Cl)CC1)c1ccc(-c2c3nc(c(-c4c(F)cccc4F)c4ccc([nH]4)c(-c4c(F)cccc4F)c4nc(c(-c5c(F)cccc5F)c5ccc2[nH]5)C=C4)C=C3)cc1
REMARK SMILES IDX 7 1 6 2 5 3 4 4 3 5 1 6 2 7 42 9 43 10 95 11 44 12 94 13
REMARK SMILES IDX 45 14 46 15 47 16 88 17 48 18 93 19 87 20 89 21 49 22 92 23
REMARK SMILES IDX 86 24 85 25 50 27 76 28 59 29 75 30 60 31 63 32 74 33 90 34
REMARK SMILES IDX 61 35 62 36 73 38 91 39 64 40 51 41 52 42 57 43 53 44 54 45
REMARK SMILES IDX 56 46 58 47 55 48 77 49 78 50 83 51 79 52 80 53 82 54 84 55
REMARK SMILES IDX 81 56 65 57 66 58 71 59 67 60 68 61 70 62 72 63 69 64 8 65
REMARK SMILES IDX 9 66 10 67 11 68 12 70 13 71 14 72 18 73 15 74 17 75 16 76
REMARK SMILES IDX 19 77 20 78 21 79 22 80 41 81 23 82 40 83 24 84 25 85 26 86
REMARK SMILES IDX 27 87 28 88 38 89 29 90 37 91 39 92 30 93 36 94 31 95 35 96
REMARK SMILES IDX 32 97 33 98 34 99
REMARK H PARENT 3 8 89 26 63 37 10 69
REMARK Flexibility Score: inf
ROOT
ATOM      1  C   UNL A   1      41.997  28.084  32.807  1.00  0.00     0.002 C 
ENDROOT
BRANCH   1   2
ATOM      2  C   UNL A   1      42.323  27.073  33.924  1.00  0.00     0.002 C 
BRANCH   2   3
ATOM      3  C   UNL A   1      42.757  27.687  35.260  1.00  0.00     0.021 C 
BRANCH   3   4
ATOM      4  C   UNL A   1      43.817  26.856  35.936  1.00  0.00     0.116 C 
BRANCH   4   5
ATOM      5  N   UNL A   1      45.123  27.517  36.046  1.00  0.00    -0.352 N 
ATOM      6  O   UNL A   1      47.391  27.574  35.668  1.00  0.00    -0.269 OA
ATOM      7  C   UNL A   1      46.265  27.189  35.335  1.00  0.00     0.251 C 
ATOM      8  H   UNL A   1      45.194  28.262  36.686  1.00  0.00     0.163 HD
BRANCH   7   9
ATOM      9  C   UNL A   1      46.061  26.449  34.088  1.00  0.00     0.039 A 
ATOM     10  C   UNL A   1      45.965  25.080  33.873  1.00  0.00     0.014 A 
ATOM     11  C   UNL A   1      46.106  27.245  32.968  1.00  0.00     0.014 A 
ATOM     12  C   UNL A   1      45.934  24.673  32.530  1.00  0.00     0.010 A 
ATOM     13  C   UNL A   1      45.326  26.878  31.943  1.00  0.00     0.010 A 
ATOM     14  C   UNL A   1      45.775  25.669  31.538  1.00  0.00    -0.014 A 
BRANCH  14  15
ATOM     15  C   UNL A   1      45.603  25.511  30.111  1.00  0.00     0.031 A 
ATOM     16  C   UNL A   1      46.735  26.180  29.439  1.00  0.00     0.074 A 
ATOM     17  C   UNL A   1      44.651  24.710  29.557  1.00  0.00     0.049 A 
ATOM     18  N   UNL A   1      46.719  27.413  29.067  1.00  0.00    -0.248 NA
ATOM     19  C   UNL A   1      48.105  25.632  29.542  1.00  0.00     0.031 C 
ATOM     20  C   UNL A   1      43.642  23.824  30.172  1.00  0.00     0.029 A 
ATOM     21  N   UNL A   1      44.362  24.555  28.228  1.00  0.00    -0.354 N 
ATOM     22  C   UNL A   1      47.971  27.658  28.537  1.00  0.00     0.074 A 
ATOM     23  C   UNL A   1      48.836  26.666  29.110  1.00  0.00     0.031 C 
ATOM     24  C   UNL A   1      43.041  23.053  29.224  1.00  0.00     0.029 A 
ATOM     25  C   UNL A   1      43.489  23.491  27.918  1.00  0.00     0.049 A 
ATOM     26  H   UNL A   1      44.738  25.146  27.536  1.00  0.00     0.167 HD
ATOM     27  C   UNL A   1      48.049  28.402  27.402  1.00  0.00     0.037 A 
ATOM     28  C   UNL A   1      43.134  23.103  26.653  1.00  0.00     0.037 A 
ATOM     29  C   UNL A   1      46.786  29.084  27.182  1.00  0.00     0.049 A 
ATOM     30  C   UNL A   1      43.415  24.278  25.773  1.00  0.00     0.074 A 
ATOM     31  C   UNL A   1      46.055  30.028  27.879  1.00  0.00     0.029 A 
ATOM     32  N   UNL A   1      45.887  28.416  26.384  1.00  0.00    -0.354 N 
ATOM     33  N   UNL A   1      42.762  25.405  25.896  1.00  0.00    -0.248 NA
ATOM     34  C   UNL A   1      44.781  24.381  25.271  1.00  0.00     0.031 C 
ATOM     35  C   UNL A   1      44.698  29.591  27.793  1.00  0.00     0.029 A 
ATOM     36  C   UNL A   1      44.633  28.492  26.936  1.00  0.00     0.049 A 
ATOM     37  H   UNL A   1      46.109  27.953  25.544  1.00  0.00     0.167 HD
ATOM     38  C   UNL A   1      43.755  26.377  25.940  1.00  0.00     0.074 A 
ATOM     39  C   UNL A   1      44.987  25.673  25.556  1.00  0.00     0.031 C 
ATOM     40  C   UNL A   1      43.577  27.552  26.620  1.00  0.00     0.037 A 
BRANCH  27  41
ATOM     41  C   UNL A   1      48.980  28.093  26.256  1.00  0.00     0.057 A 
ATOM     42  C   UNL A   1      50.129  28.839  25.924  1.00  0.00     0.134 A 
ATOM     43  C   UNL A   1      48.915  26.808  25.689  1.00  0.00     0.134 A 
ATOM     44  F   UNL A   1      50.367  30.065  26.403  1.00  0.00    -0.206 F 
ATOM     45  C   UNL A   1      51.168  28.320  25.147  1.00  0.00     0.040 A 
ATOM     46  C   UNL A   1      49.967  26.264  24.948  1.00  0.00     0.040 A 
ATOM     47  F   UNL A   1      47.862  26.009  25.922  1.00  0.00    -0.206 F 
ATOM     48  C   UNL A   1      51.108  27.015  24.690  1.00  0.00     0.006 A 
ENDBRANCH  27  41
BRANCH  28  49
ATOM     49  C   UNL A   1      43.001  21.726  26.088  1.00  0.00     0.057 A 
ATOM     50  C   UNL A   1      41.808  21.007  26.261  1.00  0.00     0.134 A 
ATOM     51  C   UNL A   1      44.101  20.964  25.642  1.00  0.00     0.134 A 
ATOM     52  F   UNL A   1      40.721  21.605  26.771  1.00  0.00    -0.206 F 
ATOM     53  C   UNL A   1      41.705  19.631  26.015  1.00  0.00     0.040 A 
ATOM     54  C   UNL A   1      44.009  19.582  25.380  1.00  0.00     0.040 A 
ATOM     55  F   UNL A   1      45.312  21.526  25.507  1.00  0.00    -0.206 F 
ATOM     56  C   UNL A   1      42.807  18.909  25.575  1.00  0.00     0.006 A 
ENDBRANCH  28  49
BRANCH  40  57
ATOM     57  C   UNL A   1      42.202  27.848  27.170  1.00  0.00     0.057 A 
ATOM     58  C   UNL A   1      41.330  28.593  26.376  1.00  0.00     0.134 A 
ATOM     59  C   UNL A   1      41.755  27.541  28.468  1.00  0.00     0.134 A 
ATOM     60  F   UNL A   1      41.716  28.998  25.156  1.00  0.00    -0.206 F 
ATOM     61  C   UNL A   1      40.065  28.981  26.822  1.00  0.00     0.040 A 
ATOM     62  C   UNL A   1      40.476  27.898  28.920  1.00  0.00     0.040 A 
ATOM     63  F   UNL A   1      42.555  26.940  29.354  1.00  0.00    -0.206 F 
ATOM     64  C   UNL A   1      39.623  28.616  28.090  1.00  0.00     0.006 A 
ENDBRANCH  40  57
ENDBRANCH  14  15
ENDBRANCH   7   9
ENDBRANCH   4   5
ENDBRANCH   3   4
ENDBRANCH   2   3
ENDBRANCH   1   2
BRANCH   1  65
ATOM     65  C   UNL A   1      40.498  28.345  32.597  1.00  0.00     0.021 C 
BRANCH  65  66
ATOM     66  C   UNL A   1      40.215  29.752  32.073  1.00  0.00     0.116 C 
BRANCH  66  67
ATOM     67  N   UNL A   1      38.956  30.205  32.632  1.00  0.00    -0.356 N 
ATOM     68  C   UNL A   1      38.619  31.528  32.730  1.00  0.00     0.224 C 
ATOM     69  H   UNL A   1      38.315  29.531  32.953  1.00  0.00     0.163 HD
ATOM     70  O   UNL A   1      38.151  31.952  33.784  1.00  0.00    -0.275 OA
BRANCH  68  71
ATOM     71  C   UNL A   1      38.720  32.345  31.471  1.00  0.00     0.095 C 
ATOM     72  C   UNL A   1      38.667  33.828  31.799  1.00  0.00     0.041 C 
ATOM     73  C   UNL A   1      37.755  31.911  30.356  1.00  0.00     0.095 C 
ATOM     74  C   UNL A   1      38.802  34.639  30.549  1.00  0.00    -0.030 C 
ATOM     75  C   UNL A   1      38.144  32.703  29.075  1.00  0.00     0.041 C 
ATOM     76  C   UNL A   1      38.589  34.127  29.327  1.00  0.00    -0.030 C 
BRANCH  73  77
ATOM     77  C   UNL A   1      36.236  32.074  30.584  1.00  0.00     0.226 C 
ATOM     78  O   UNL A   1      35.785  32.765  31.497  1.00  0.00    -0.275 OA
ATOM     79  N   UNL A   1      35.416  31.616  29.559  1.00  0.00    -0.339 N 
ATOM     80  C   UNL A   1      34.206  32.361  29.191  1.00  0.00     0.141 C 
ATOM     81  C   UNL A   1      35.433  30.245  29.065  1.00  0.00     0.141 C 
ATOM     82  C   UNL A   1      33.984  32.288  27.663  1.00  0.00     0.141 C 
ATOM     83  C   UNL A   1      35.235  30.175  27.558  1.00  0.00     0.141 C 
ATOM     84  N   UNL A   1      34.022  30.896  27.182  1.00  0.00    -0.334 N 
ATOM     85  C   UNL A   1      32.959  30.369  26.451  1.00  0.00     0.265 C 
ATOM     86  O   UNL A   1      32.006  31.075  26.126  1.00  0.00    -0.268 OA
BRANCH  85  87
ATOM     87  C   UNL A   1      33.031  28.972  26.064  1.00  0.00     0.112 A 
ATOM     88  S   UNL A   1      33.802  28.580  24.595  1.00  0.00    -0.128 S 
ATOM     89  C   UNL A   1      32.522  27.851  26.685  1.00  0.00     0.072 A 
ATOM     90  C   UNL A   1      33.521  26.894  24.798  1.00  0.00     0.043 A 
ATOM     91  C   UNL A   1      32.840  26.627  25.990  1.00  0.00     0.012 A 
ATOM     92  Cl  UNL A   1      31.608  27.856  28.140  1.00  0.00    -0.082 Cl
ATOM     93  C   UNL A   1      33.902  25.869  23.907  1.00  0.00     0.105 A 
ATOM     94  C   UNL A   1      32.563  25.268  26.304  1.00  0.00     0.018 A 
ATOM     95  C   UNL A   1      33.592  24.544  24.243  1.00  0.00     0.270 A 
ATOM     96  C   UNL A   1      32.939  24.237  25.436  1.00  0.00     0.086 A 
BRANCH  95  97
ATOM     97  N   UNL A   1      33.959  23.463  23.317  1.00  0.00     0.062 N 
ATOM     98  O   UNL A   1      34.066  23.747  22.116  1.00  0.00    -0.258 OA
ATOM     99  O   UNL A   1      34.141  22.334  23.793  1.00  0.00    -0.258 OA
ENDBRANCH  95  97
ENDBRANCH  85  87
ENDBRANCH  73  77
ENDBRANCH  68  71
ENDBRANCH  66  67
ENDBRANCH  65  66
ENDBRANCH   1  65
TORSDOF 16
ENDMDL
MODEL 2
REMARK VINA RESULT:     -11.3      3.783      9.767
REMARK SMILES O=C(NCCCCCCNC(=O)[C@@H]1CC=CC[C@@H]1C(=O)N1CCN(C(=O)c2sc3cc([N+](=O)[O-])ccc3c2Cl)CC1)c1ccc(-c2c3nc(c(-c4c(F)cccc4F)c4ccc([nH]4)c(-c4c(F)cccc4F)c4nc(c(-c5c(F)cccc5F)c5ccc2[nH]5)C=C4)C=C3)cc1
REMARK SMILES IDX 7 1 6 2 5 3 4 4 3 5 1 6 2 7 42 9 43 10 95 11 44 12 94 13
REMARK SMILES IDX 45 14 46 15 47 16 88 17 48 18 93 19 87 20 89 21 49 22 92 23
REMARK SMILES IDX 86 24 85 25 50 27 76 28 59 29 75 30 60 31 63 32 74 33 90 34
REMARK SMILES IDX 61 35 62 36 73 38 91 39 64 40 51 41 52 42 57 43 53 44 54 45
REMARK SMILES IDX 56 46 58 47 55 48 77 49 78 50 83 51 79 52 80 53 82 54 84 55
REMARK SMILES IDX 81 56 65 57 66 58 71 59 67 60 68 61 70 62 72 63 69 64 8 65
REMARK SMILES IDX 9 66 10 67 11 68 12 70 13 71 14 72 18 73 15 74 17 75 16 76
REMARK SMILES IDX 19 77 20 78 21 79 22 80 41 81 23 82 40 83 24 84 25 85 26 86
REMARK SMILES IDX 27 87 28 88 38 89 29 90 37 91 39 92 30 93 36 94 31 95 35 96
REMARK SMILES IDX 32 97 33 98 34 99
REMARK H PARENT 3 8 89 26 63 37 10 69
REMARK Flexibility Score: inf
ROOT
ATOM      1  C   UNL A   1      38.210  28.888  28.279  1.00  0.00     0.002 C 
ENDROOT
BRANCH   1   2
ATOM      2  C   UNL A   1      36.799  29.401  28.629  1.00  0.00     0.002 C 
BRANCH   2   3
ATOM      3  C   UNL A   1      36.198  30.403  27.636  1.00  0.00     0.021 C 
BRANCH   3   4
ATOM      4  C   UNL A   1      34.821  30.846  28.057  1.00  0.00     0.116 C 
BRANCH   4   5
ATOM      5  N   UNL A   1      34.650  32.302  28.131  1.00  0.00    -0.352 N 
ATOM      6  O   UNL A   1      34.469  34.251  29.339  1.00  0.00    -0.269 OA
ATOM      7  C   UNL A   1      34.898  33.096  29.238  1.00  0.00     0.251 C 
ATOM      8  H   UNL A   1      34.329  32.756  27.318  1.00  0.00     0.163 HD
BRANCH   7   9
ATOM      9  C   UNL A   1      35.799  32.537  30.247  1.00  0.00     0.039 A 
ATOM     10  C   UNL A   1      35.506  31.821  31.401  1.00  0.00     0.014 A 
ATOM     11  C   UNL A   1      37.113  32.904  30.069  1.00  0.00     0.014 A 
ATOM     12  C   UNL A   1      36.592  31.565  32.253  1.00  0.00     0.010 A 
ATOM     13  C   UNL A   1      38.038  32.010  30.439  1.00  0.00     0.010 A 
ATOM     14  C   UNL A   1      37.893  31.845  31.774  1.00  0.00    -0.014 A 
BRANCH  14  15
ATOM     15  C   UNL A   1      39.169  31.574  32.397  1.00  0.00     0.031 A 
ATOM     16  C   UNL A   1      39.649  32.827  33.016  1.00  0.00     0.074 A 
ATOM     17  C   UNL A   1      39.688  30.322  32.524  1.00  0.00     0.049 A 
ATOM     18  N   UNL A   1      40.394  33.685  32.408  1.00  0.00    -0.248 NA
ATOM     19  C   UNL A   1      38.963  33.398  34.195  1.00  0.00     0.031 C 
ATOM     20  C   UNL A   1      39.151  28.999  32.146  1.00  0.00     0.029 A 
ATOM     21  N   UNL A   1      40.913  29.974  33.027  1.00  0.00    -0.354 N 
ATOM     22  C   UNL A   1      40.570  34.723  33.303  1.00  0.00     0.074 A 
ATOM     23  C   UNL A   1      39.470  34.637  34.220  1.00  0.00     0.031 C 
ATOM     24  C   UNL A   1      39.925  28.004  32.657  1.00  0.00     0.029 A 
ATOM     25  C   UNL A   1      41.103  28.595  33.259  1.00  0.00     0.049 A 
ATOM     26  H   UNL A   1      41.613  30.640  33.213  1.00  0.00     0.167 HD
ATOM     27  C   UNL A   1      41.808  35.278  33.400  1.00  0.00     0.037 A 
ATOM     28  C   UNL A   1      42.214  28.036  33.833  1.00  0.00     0.037 A 
ATOM     29  C   UNL A   1      42.610  34.873  32.259  1.00  0.00     0.049 A 
ATOM     30  C   UNL A   1      43.304  29.047  33.681  1.00  0.00     0.074 A 
ATOM     31  C   UNL A   1      42.519  35.054  30.892  1.00  0.00     0.029 A 
ATOM     32  N   UNL A   1      43.375  33.746  32.447  1.00  0.00    -0.354 N 
ATOM     33  N   UNL A   1      43.762  29.398  32.507  1.00  0.00    -0.248 NA
ATOM     34  C   UNL A   1      43.374  30.064  34.725  1.00  0.00     0.031 C 
ATOM     35  C   UNL A   1      42.862  33.789  30.323  1.00  0.00     0.029 A 
ATOM     36  C   UNL A   1      43.285  32.936  31.343  1.00  0.00     0.049 A 
ATOM     37  H   UNL A   1      43.907  33.550  33.252  1.00  0.00     0.167 HD
ATOM     38  C   UNL A   1      43.744  30.787  32.528  1.00  0.00     0.074 A 
ATOM     39  C   UNL A   1      43.484  31.137  33.932  1.00  0.00     0.031 C 
ATOM     40  C   UNL A   1      43.576  31.519  31.383  1.00  0.00     0.037 A 
BRANCH  27  41
ATOM     41  C   UNL A   1      42.450  35.679  34.704  1.00  0.00     0.057 A 
ATOM     42  C   UNL A   1      42.799  34.790  35.741  1.00  0.00     0.134 A 
ATOM     43  C   UNL A   1      43.054  36.946  34.773  1.00  0.00     0.134 A 
ATOM     44  F   UNL A   1      42.342  33.535  35.810  1.00  0.00    -0.206 F 
ATOM     45  C   UNL A   1      43.733  35.111  36.728  1.00  0.00     0.040 A 
ATOM     46  C   UNL A   1      44.022  37.262  35.731  1.00  0.00     0.040 A 
ATOM     47  F   UNL A   1      42.789  37.883  33.849  1.00  0.00    -0.206 F 
ATOM     48  C   UNL A   1      44.378  36.335  36.703  1.00  0.00     0.006 A 
ENDBRANCH  27  41
BRANCH  28  49
ATOM     49  C   UNL A   1      42.305  26.946  34.852  1.00  0.00     0.057 A 
ATOM     50  C   UNL A   1      41.843  27.165  36.159  1.00  0.00     0.134 A 
ATOM     51  C   UNL A   1      43.101  25.794  34.682  1.00  0.00     0.134 A 
ATOM     52  F   UNL A   1      41.158  28.277  36.461  1.00  0.00    -0.206 F 
ATOM     53  C   UNL A   1      42.146  26.309  37.228  1.00  0.00     0.040 A 
ATOM     54  C   UNL A   1      43.405  24.919  35.745  1.00  0.00     0.040 A 
ATOM     55  F   UNL A   1      43.658  25.518  33.493  1.00  0.00    -0.206 F 
ATOM     56  C   UNL A   1      42.932  25.182  37.027  1.00  0.00     0.006 A 
ENDBRANCH  28  49
BRANCH  40  57
ATOM     57  C   UNL A   1      43.598  30.781  30.065  1.00  0.00     0.057 A 
ATOM     58  C   UNL A   1      44.823  30.650  29.411  1.00  0.00     0.134 A 
ATOM     59  C   UNL A   1      42.468  30.312  29.370  1.00  0.00     0.134 A 
ATOM     60  F   UNL A   1      45.936  31.148  29.971  1.00  0.00    -0.206 F 
ATOM     61  C   UNL A   1      44.937  30.049  28.156  1.00  0.00     0.040 A 
ATOM     62  C   UNL A   1      42.569  29.680  28.122  1.00  0.00     0.040 A 
ATOM     63  F   UNL A   1      41.233  30.498  29.847  1.00  0.00    -0.206 F 
ATOM     64  C   UNL A   1      43.811  29.542  27.514  1.00  0.00     0.006 A 
ENDBRANCH  40  57
ENDBRANCH  14  15
ENDBRANCH   7   9
ENDBRANCH   4   5
ENDBRANCH   3   4
ENDBRANCH   2   3
ENDBRANCH   1   2
BRANCH   1  65
ATOM     65  C   UNL A   1      38.699  27.718  29.144  1.00  0.00     0.021 C 
BRANCH  65  66
ATOM     66  C   UNL A   1      40.011  27.121  28.638  1.00  0.00     0.116 C 
BRANCH  66  67
ATOM     67  N   UNL A   1      39.780  26.549  27.327  1.00  0.00    -0.356 N 
ATOM     68  C   UNL A   1      40.718  25.806  26.664  1.00  0.00     0.224 C 
ATOM     69  H   UNL A   1      38.909  26.701  26.895  1.00  0.00     0.163 HD
ATOM     70  O   UNL A   1      40.942  26.038  25.478  1.00  0.00    -0.275 OA
BRANCH  68  71
ATOM     71  C   UNL A   1      41.315  24.646  27.414  1.00  0.00     0.095 C 
ATOM     72  C   UNL A   1      42.731  24.380  26.934  1.00  0.00     0.041 C 
ATOM     73  C   UNL A   1      40.420  23.398  27.465  1.00  0.00     0.095 C 
ATOM     74  C   UNL A   1      43.334  23.249  27.706  1.00  0.00    -0.030 C 
ATOM     75  C   UNL A   1      41.083  22.394  28.452  1.00  0.00     0.041 C 
ATOM     76  C   UNL A   1      42.596  22.373  28.405  1.00  0.00    -0.030 C 
BRANCH  73  77
ATOM     77  C   UNL A   1      40.113  22.651  26.149  1.00  0.00     0.226 C 
ATOM     78  O   UNL A   1      40.982  22.041  25.527  1.00  0.00    -0.275 OA
ATOM     79  N   UNL A   1      38.766  22.488  25.844  1.00  0.00    -0.339 N 
ATOM     80  C   UNL A   1      38.291  21.237  25.240  1.00  0.00     0.141 C 
ATOM     81  C   UNL A   1      37.830  23.597  25.708  1.00  0.00     0.141 C 
ATOM     82  C   UNL A   1      36.887  20.887  25.783  1.00  0.00     0.141 C 
ATOM     83  C   UNL A   1      36.454  23.258  26.263  1.00  0.00     0.141 C 
ATOM     84  N   UNL A   1      35.962  22.026  25.653  1.00  0.00    -0.334 N 
ATOM     85  C   UNL A   1      34.748  21.880  24.984  1.00  0.00     0.265 C 
ATOM     86  O   UNL A   1      34.390  20.783  24.559  1.00  0.00    -0.268 OA
BRANCH  85  87
ATOM     87  C   UNL A   1      33.913  23.058  24.834  1.00  0.00     0.112 A 
ATOM     88  S   UNL A   1      34.064  23.976  23.405  1.00  0.00    -0.128 S 
ATOM     89  C   UNL A   1      33.004  23.620  25.704  1.00  0.00     0.072 A 
ATOM     90  C   UNL A   1      32.867  25.108  23.903  1.00  0.00     0.043 A 
ATOM     91  C   UNL A   1      32.348  24.785  25.161  1.00  0.00     0.012 A 
ATOM     92  Cl  UNL A   1      32.645  23.029  27.276  1.00  0.00    -0.082 Cl
ATOM     93  C   UNL A   1      32.430  26.237  23.179  1.00  0.00     0.105 A 
ATOM     94  C   UNL A   1      31.326  25.620  25.689  1.00  0.00     0.018 A 
ATOM     95  C   UNL A   1      31.436  27.047  23.744  1.00  0.00     0.270 A 
ATOM     96  C   UNL A   1      30.874  26.741  24.982  1.00  0.00     0.086 A 
BRANCH  95  97
ATOM     97  N   UNL A   1      30.984  28.242  23.017  1.00  0.00     0.062 N 
ATOM     98  O   UNL A   1      31.326  29.347  23.458  1.00  0.00    -0.258 OA
ATOM     99  O   UNL A   1      30.288  28.072  22.005  1.00  0.00    -0.258 OA
ENDBRANCH  95  97
ENDBRANCH  85  87
ENDBRANCH  73  77
ENDBRANCH  68  71
ENDBRANCH  66  67
ENDBRANCH  65  66
ENDBRANCH   1  65
TORSDOF 16
ENDMDL
MODEL 3
REMARK VINA RESULT:     -11.1      3.976      9.943
REMARK SMILES O=C(NCCCCCCNC(=O)[C@@H]1CC=CC[C@@H]1C(=O)N1CCN(C(=O)c2sc3cc([N+](=O)[O-])ccc3c2Cl)CC1)c1ccc(-c2c3nc(c(-c4c(F)cccc4F)c4ccc([nH]4)c(-c4c(F)cccc4F)c4nc(c(-c5c(F)cccc5F)c5ccc2[nH]5)C=C4)C=C3)cc1
REMARK SMILES IDX 7 1 6 2 5 3 4 4 3 5 1 6 2 7 42 9 43 10 95 11 44 12 94 13
REMARK SMILES IDX 45 14 46 15 47 16 88 17 48 18 93 19 87 20 89 21 49 22 92 23
REMARK SMILES IDX 86 24 85 25 50 27 76 28 59 29 75 30 60 31 63 32 74 33 90 34
REMARK SMILES IDX 61 35 62 36 73 38 91 39 64 40 51 41 52 42 57 43 53 44 54 45
REMARK SMILES IDX 56 46 58 47 55 48 77 49 78 50 83 51 79 52 80 53 82 54 84 55
REMARK SMILES IDX 81 56 65 57 66 58 71 59 67 60 68 61 70 62 72 63 69 64 8 65
REMARK SMILES IDX 9 66 10 67 11 68 12 70 13 71 14 72 18 73 15 74 17 75 16 76
REMARK SMILES IDX 19 77 20 78 21 79 22 80 41 81 23 82 40 83 24 84 25 85 26 86
REMARK SMILES IDX 27 87 28 88 38 89 29 90 37 91 39 92 30 93 36 94 31 95 35 96
REMARK SMILES IDX 32 97 33 98 34 99
REMARK H PARENT 3 8 89 26 63 37 10 69
REMARK Flexibility Score: inf
ROOT
ATOM      1  C   UNL A   1      38.543  28.964  28.365  1.00  0.00     0.002 C 
ENDROOT
BRANCH   1   2
ATOM      2  C   UNL A   1      37.030  29.201  28.533  1.00  0.00     0.002 C 
BRANCH   2   3
ATOM      3  C   UNL A   1      36.401  30.176  27.531  1.00  0.00     0.021 C 
BRANCH   3   4
ATOM      4  C   UNL A   1      35.041  30.640  27.984  1.00  0.00     0.116 C 
BRANCH   4   5
ATOM      5  N   UNL A   1      34.880  32.099  28.018  1.00  0.00    -0.352 N 
ATOM      6  O   UNL A   1      34.666  34.077  29.173  1.00  0.00    -0.269 OA
ATOM      7  C   UNL A   1      35.088  32.916  29.117  1.00  0.00     0.251 C 
ATOM      8  H   UNL A   1      34.598  32.537  27.182  1.00  0.00     0.163 HD
BRANCH   7   9
ATOM      9  C   UNL A   1      35.940  32.373  30.175  1.00  0.00     0.039 A 
ATOM     10  C   UNL A   1      35.597  31.643  31.306  1.00  0.00     0.014 A 
ATOM     11  C   UNL A   1      37.253  32.773  30.078  1.00  0.00     0.014 A 
ATOM     12  C   UNL A   1      36.635  31.408  32.221  1.00  0.00     0.010 A 
ATOM     13  C   UNL A   1      38.176  31.899  30.500  1.00  0.00     0.010 A 
ATOM     14  C   UNL A   1      37.955  31.723  31.822  1.00  0.00    -0.014 A 
BRANCH  14  15
ATOM     15  C   UNL A   1      39.198  31.480  32.520  1.00  0.00     0.031 A 
ATOM     16  C   UNL A   1      39.560  32.712  33.250  1.00  0.00     0.074 A 
ATOM     17  C   UNL A   1      39.778  30.251  32.606  1.00  0.00     0.049 A 
ATOM     18  N   UNL A   1      40.295  33.647  32.753  1.00  0.00    -0.248 NA
ATOM     19  C   UNL A   1      38.760  33.167  34.408  1.00  0.00     0.031 C 
ATOM     20  C   UNL A   1      39.346  28.929  32.108  1.00  0.00     0.029 A 
ATOM     21  N   UNL A   1      40.983  29.936  33.176  1.00  0.00    -0.354 N 
ATOM     22  C   UNL A   1      40.347  34.631  33.722  1.00  0.00     0.074 A 
ATOM     23  C   UNL A   1      39.192  34.426  34.548  1.00  0.00     0.031 C 
ATOM     24  C   UNL A   1      40.139  27.945  32.612  1.00  0.00     0.029 A 
ATOM     25  C   UNL A   1      41.236  28.557  33.335  1.00  0.00     0.049 A 
ATOM     26  H   UNL A   1      41.629  30.624  33.454  1.00  0.00     0.167 HD
ATOM     27  C   UNL A   1      41.541  35.244  33.945  1.00  0.00     0.037 A 
ATOM     28  C   UNL A   1      42.334  28.021  33.954  1.00  0.00     0.037 A 
ATOM     29  C   UNL A   1      42.444  34.959  32.843  1.00  0.00     0.049 A 
ATOM     30  C   UNL A   1      43.371  29.096  33.946  1.00  0.00     0.074 A 
ATOM     31  C   UNL A   1      42.439  35.224  31.486  1.00  0.00     0.029 A 
ATOM     32  N   UNL A   1      43.257  33.864  33.016  1.00  0.00    -0.354 N 
ATOM     33  N   UNL A   1      43.890  29.548  32.833  1.00  0.00    -0.248 NA
ATOM     34  C   UNL A   1      43.309  30.044  35.053  1.00  0.00     0.031 C 
ATOM     35  C   UNL A   1      42.893  34.020  30.867  1.00  0.00     0.029 A 
ATOM     36  C   UNL A   1      43.292  33.126  31.860  1.00  0.00     0.049 A 
ATOM     37  H   UNL A   1      43.742  33.643  33.845  1.00  0.00     0.167 HD
ATOM     38  C   UNL A   1      43.790  30.930  32.939  1.00  0.00     0.074 A 
ATOM     39  C   UNL A   1      43.412  31.172  34.339  1.00  0.00     0.031 C 
ATOM     40  C   UNL A   1      43.662  31.726  31.833  1.00  0.00     0.037 A 
BRANCH  27  41
ATOM     41  C   UNL A   1      42.065  35.591  35.315  1.00  0.00     0.057 A 
ATOM     42  C   UNL A   1      42.313  34.661  36.346  1.00  0.00     0.134 A 
ATOM     43  C   UNL A   1      42.669  36.849  35.485  1.00  0.00     0.134 A 
ATOM     44  F   UNL A   1      41.844  33.409  36.327  1.00  0.00    -0.206 F 
ATOM     45  C   UNL A   1      43.157  34.936  37.424  1.00  0.00     0.040 A 
ATOM     46  C   UNL A   1      43.549  37.119  36.537  1.00  0.00     0.040 A 
ATOM     47  F   UNL A   1      42.495  37.820  34.576  1.00  0.00    -0.206 F 
ATOM     48  C   UNL A   1      43.810  36.155  37.502  1.00  0.00     0.006 A 
ENDBRANCH  27  41
BRANCH  28  49
ATOM     49  C   UNL A   1      42.416  26.872  34.906  1.00  0.00     0.057 A 
ATOM     50  C   UNL A   1      42.921  25.635  34.474  1.00  0.00     0.134 A 
ATOM     51  C   UNL A   1      41.742  26.844  36.144  1.00  0.00     0.134 A 
ATOM     52  F   UNL A   1      43.497  25.520  33.268  1.00  0.00    -0.206 F 
ATOM     53  C   UNL A   1      42.771  24.452  35.210  1.00  0.00     0.040 A 
ATOM     54  C   UNL A   1      41.592  25.663  36.900  1.00  0.00     0.040 A 
ATOM     55  F   UNL A   1      41.156  27.950  36.628  1.00  0.00    -0.206 F 
ATOM     56  C   UNL A   1      42.102  24.458  36.427  1.00  0.00     0.006 A 
ENDBRANCH  28  49
BRANCH  40  57
ATOM     57  C   UNL A   1      43.818  31.080  30.477  1.00  0.00     0.057 A 
ATOM     58  C   UNL A   1      45.105  30.979  29.948  1.00  0.00     0.134 A 
ATOM     59  C   UNL A   1      42.766  30.672  29.637  1.00  0.00     0.134 A 
ATOM     60  F   UNL A   1      46.155  31.425  30.654  1.00  0.00    -0.206 F 
ATOM     61  C   UNL A   1      45.348  30.464  28.673  1.00  0.00     0.040 A 
ATOM     62  C   UNL A   1      42.994  30.126  28.365  1.00  0.00     0.040 A 
ATOM     63  F   UNL A   1      41.488  30.840  29.993  1.00  0.00    -0.206 F 
ATOM     64  C   UNL A   1      44.293  30.015  27.883  1.00  0.00     0.006 A 
ENDBRANCH  40  57
ENDBRANCH  14  15
ENDBRANCH   7   9
ENDBRANCH   4   5
ENDBRANCH   3   4
ENDBRANCH   2   3
ENDBRANCH   1   2
BRANCH   1  65
ATOM     65  C   UNL A   1      39.040  27.604  28.875  1.00  0.00     0.021 C 
BRANCH  65  66
ATOM     66  C   UNL A   1      40.564  27.491  28.860  1.00  0.00     0.116 C 
BRANCH  66  67
ATOM     67  N   UNL A   1      40.984  27.132  27.520  1.00  0.00    -0.356 N 
ATOM     68  C   UNL A   1      42.288  26.872  27.195  1.00  0.00     0.224 C 
ATOM     69  H   UNL A   1      40.302  27.072  26.814  1.00  0.00     0.163 HD
ATOM     70  O   UNL A   1      42.769  27.383  26.187  1.00  0.00    -0.275 OA
BRANCH  68  71
ATOM     71  C   UNL A   1      43.002  25.849  28.036  1.00  0.00     0.095 C 
ATOM     72  C   UNL A   1      44.482  25.827  27.694  1.00  0.00     0.041 C 
ATOM     73  C   UNL A   1      42.336  24.464  28.049  1.00  0.00     0.095 C 
ATOM     74  C   UNL A   1      45.196  24.833  28.556  1.00  0.00    -0.030 C 
ATOM     75  C   UNL A   1      43.066  23.611  29.126  1.00  0.00     0.041 C 
ATOM     76  C   UNL A   1      44.557  23.854  29.216  1.00  0.00    -0.030 C 
BRANCH  73  77
ATOM     77  C   UNL A   1      42.288  23.651  26.737  1.00  0.00     0.226 C 
ATOM     78  O   UNL A   1      43.312  23.298  26.152  1.00  0.00    -0.275 OA
ATOM     79  N   UNL A   1      41.049  23.122  26.396  1.00  0.00    -0.339 N 
ATOM     80  C   UNL A   1      40.955  21.785  25.799  1.00  0.00     0.141 C 
ATOM     81  C   UNL A   1      39.850  23.930  26.213  1.00  0.00     0.141 C 
ATOM     82  C   UNL A   1      39.683  21.067  26.306  1.00  0.00     0.141 C 
ATOM     83  C   UNL A   1      38.601  23.232  26.733  1.00  0.00     0.141 C 
ATOM     84  N   UNL A   1      38.486  21.907  26.130  1.00  0.00    -0.334 N 
ATOM     85  C   UNL A   1      37.381  21.429  25.428  1.00  0.00     0.265 C 
ATOM     86  O   UNL A   1      37.351  20.272  25.012  1.00  0.00    -0.268 OA
BRANCH  85  87
ATOM     87  C   UNL A   1      36.261  22.331  25.233  1.00  0.00     0.112 A 
ATOM     88  S   UNL A   1      35.185  22.573  26.533  1.00  0.00    -0.128 S 
ATOM     89  C   UNL A   1      35.869  23.031  24.113  1.00  0.00     0.072 A 
ATOM     90  C   UNL A   1      34.209  23.669  25.634  1.00  0.00     0.043 A 
ATOM     91  C   UNL A   1      34.705  23.854  24.340  1.00  0.00     0.012 A 
ATOM     92  Cl  UNL A   1      36.653  22.972  22.585  1.00  0.00    -0.082 Cl
ATOM     93  C   UNL A   1      33.045  24.321  26.090  1.00  0.00     0.105 A 
ATOM     94  C   UNL A   1      34.013  24.759  23.488  1.00  0.00     0.018 A 
ATOM     95  C   UNL A   1      32.379  25.189  25.213  1.00  0.00     0.270 A 
ATOM     96  C   UNL A   1      32.860  25.421  23.926  1.00  0.00     0.086 A 
BRANCH  95  97
ATOM     97  N   UNL A   1      31.151  25.860  25.661  1.00  0.00     0.062 N 
ATOM     98  O   UNL A   1      30.489  26.475  24.813  1.00  0.00    -0.258 OA
ATOM     99  O   UNL A   1      30.849  25.770  26.860  1.00  0.00    -0.258 OA
ENDBRANCH  95  97
ENDBRANCH  85  87
ENDBRANCH  73  77
ENDBRANCH  68  71
ENDBRANCH  66  67
ENDBRANCH  65  66
ENDBRANCH   1  65
TORSDOF 16
ENDMDL
