MODEL 1
REMARK VINA RESULT:     -11.8      0.000      0.000
REMARK SMILES COc1cc(NC(=O)c2ccc([N+](=O)[O-])cc2)c(C(=O)NCCCCCCNC(=O)c2ccc(-c3c4nc(c(-c5c(F)cccc5F)c5ccc([nH]5)c(-c5c(F)cccc5F)c5nc(c(-c6c(F)cccc6F)c6ccc3[nH]6)C=C5)C=C4)cc2)cc1OC
REMARK SMILES IDX 24 1 23 2 22 3 21 4 19 5 20 6 18 8 3 9 4 10 86 11 5 12 85 13
REMARK SMILES IDX 2 14 1 15 87 16 88 17 6 18 7 19 8 21 9 22 10 23 17 24 11 25
REMARK SMILES IDX 16 26 12 27 13 28 14 29 15 30 25 31 26 32 27 33 28 34 29 35
REMARK SMILES IDX 30 37 31 38 32 39 84 40 33 41 83 42 34 43 35 44 36 45 77 46
REMARK SMILES IDX 37 47 82 48 76 49 78 50 38 51 81 52 75 53 74 54 39 56 65 57
REMARK SMILES IDX 48 58 64 59 49 60 52 61 63 62 79 63 50 64 51 65 62 67 80 68
REMARK SMILES IDX 53 69 40 70 41 71 46 72 42 73 43 74 45 75 47 76 44 77 66 78
REMARK SMILES IDX 67 79 72 80 68 81 69 82 71 83 73 84 70 85 54 86 55 87 60 88
REMARK SMILES IDX 56 89 57 90 59 91 61 92 58 93
REMARK H PARENT 21 7 6 20 28 36 78 55 52 66
REMARK Flexibility Score: inf
ROOT
ATOM      1  C   UNL A   1      32.319  30.016  26.987  1.00  0.00     0.002 C 
ENDROOT
BRANCH   1   2
ATOM      2  C   UNL A   1      33.364  29.205  26.211  1.00  0.00     0.021 C 
BRANCH   2   3
ATOM      3  C   UNL A   1      33.504  27.772  26.732  1.00  0.00     0.116 C 
BRANCH   3   4
ATOM      4  N   UNL A   1      32.193  27.165  26.834  1.00  0.00    -0.352 N 
ATOM      5  C   UNL A   1      31.395  26.491  25.950  1.00  0.00     0.253 C 
ATOM      6  O   UNL A   1      30.269  26.200  26.362  1.00  0.00    -0.269 OA
ATOM      7  H   UNL A   1      31.792  27.257  27.728  1.00  0.00     0.163 HD
BRANCH   5   8
ATOM      8  C   UNL A   1      31.816  26.045  24.576  1.00  0.00     0.067 A 
ATOM      9  C   UNL A   1      32.784  25.177  22.074  1.00  0.00     0.162 A 
ATOM     10  C   UNL A   1      31.995  24.337  22.874  1.00  0.00     0.077 A 
ATOM     11  C   UNL A   1      33.004  26.488  22.468  1.00  0.00     0.161 A 
ATOM     12  C   UNL A   1      31.538  24.721  24.146  1.00  0.00     0.058 A 
ATOM     13  C   UNL A   1      32.461  26.915  23.684  1.00  0.00     0.066 A 
BRANCH   9  14
ATOM     14  O   UNL A   1      33.177  24.719  20.847  1.00  0.00    -0.493 OA
ATOM     15  C   UNL A   1      32.465  25.356  19.783  1.00  0.00     0.278 C 
ENDBRANCH   9  14
BRANCH  11  16
ATOM     16  O   UNL A   1      33.654  27.480  21.788  1.00  0.00    -0.493 OA
ATOM     17  C   UNL A   1      34.154  28.577  22.541  1.00  0.00     0.278 C 
ENDBRANCH  11  16
BRANCH  12  18
ATOM     18  N   UNL A   1      30.763  23.870  24.986  1.00  0.00    -0.321 N 
ATOM     19  C   UNL A   1      30.986  22.691  25.656  1.00  0.00     0.255 C 
ATOM     20  H   UNL A   1      29.847  24.207  25.116  1.00  0.00     0.170 HD
ATOM     21  O   UNL A   1      30.067  22.065  26.179  1.00  0.00    -0.269 OA
BRANCH  19  22
ATOM     22  C   UNL A   1      32.339  22.145  25.781  1.00  0.00     0.040 A 
ATOM     23  C   UNL A   1      32.736  21.137  24.895  1.00  0.00     0.021 A 
ATOM     24  C   UNL A   1      33.235  22.710  26.696  1.00  0.00     0.021 A 
ATOM     25  C   UNL A   1      34.081  20.774  24.835  1.00  0.00     0.086 A 
ATOM     26  C   UNL A   1      34.581  22.355  26.633  1.00  0.00     0.086 A 
ATOM     27  C   UNL A   1      35.003  21.417  25.676  1.00  0.00     0.269 A 
BRANCH  27  28
ATOM     28  N   UNL A   1      36.437  21.173  25.493  1.00  0.00     0.062 N 
ATOM     29  O   UNL A   1      37.224  22.064  25.842  1.00  0.00    -0.258 OA
ATOM     30  O   UNL A   1      36.774  20.073  25.031  1.00  0.00    -0.258 OA
ENDBRANCH  27  28
ENDBRANCH  19  22
ENDBRANCH  12  18
ENDBRANCH   5   8
ENDBRANCH   3   4
ENDBRANCH   2   3
ENDBRANCH   1   2
BRANCH   1  31
ATOM     31  C   UNL A   1      31.393  30.861  26.103  1.00  0.00     0.002 C 
BRANCH  31  32
ATOM     32  C   UNL A   1      31.289  32.329  26.519  1.00  0.00     0.021 C 
BRANCH  32  33
ATOM     33  C   UNL A   1      32.561  32.867  27.162  1.00  0.00     0.116 C 
BRANCH  33  34
ATOM     34  N   UNL A   1      32.378  34.234  27.629  1.00  0.00    -0.352 N 
ATOM     35  C   UNL A   1      33.024  34.881  28.650  1.00  0.00     0.251 C 
ATOM     36  H   UNL A   1      31.702  34.763  27.148  1.00  0.00     0.163 HD
ATOM     37  O   UNL A   1      32.590  35.938  29.100  1.00  0.00    -0.269 OA
BRANCH  35  38
ATOM     38  C   UNL A   1      34.249  34.281  29.208  1.00  0.00     0.039 A 
ATOM     39  C   UNL A   1      35.488  34.594  28.648  1.00  0.00     0.014 A 
ATOM     40  C   UNL A   1      34.159  33.419  30.306  1.00  0.00     0.014 A 
ATOM     41  C   UNL A   1      36.651  34.080  29.225  1.00  0.00     0.010 A 
ATOM     42  C   UNL A   1      35.318  32.977  30.926  1.00  0.00     0.010 A 
ATOM     43  C   UNL A   1      36.574  33.291  30.385  1.00  0.00    -0.014 A 
BRANCH  43  44
ATOM     44  C   UNL A   1      37.783  32.735  31.040  1.00  0.00     0.031 A 
ATOM     45  C   UNL A   1      38.457  31.535  30.438  1.00  0.00     0.074 A 
ATOM     46  C   UNL A   1      38.209  33.241  32.212  1.00  0.00     0.049 A 
ATOM     47  N   UNL A   1      39.417  30.791  30.926  1.00  0.00    -0.248 NA
ATOM     48  C   UNL A   1      37.958  31.089  29.127  1.00  0.00     0.031 C 
ATOM     49  C   UNL A   1      37.621  34.386  32.908  1.00  0.00     0.029 A 
ATOM     50  N   UNL A   1      39.228  32.837  33.039  1.00  0.00    -0.354 N 
ATOM     51  C   UNL A   1      39.616  29.779  29.996  1.00  0.00     0.074 A 
ATOM     52  C   UNL A   1      38.641  29.970  28.944  1.00  0.00     0.031 C 
ATOM     53  C   UNL A   1      38.294  34.599  34.050  1.00  0.00     0.029 A 
ATOM     54  C   UNL A   1      39.327  33.577  34.192  1.00  0.00     0.049 A 
ATOM     55  H   UNL A   1      39.829  32.088  32.826  1.00  0.00     0.167 HD
ATOM     56  C   UNL A   1      40.540  28.790  30.007  1.00  0.00     0.037 A 
ATOM     57  C   UNL A   1      40.146  33.433  35.251  1.00  0.00     0.037 A 
ATOM     58  C   UNL A   1      41.521  28.623  31.046  1.00  0.00     0.049 A 
ATOM     59  C   UNL A   1      41.152  32.314  35.253  1.00  0.00     0.074 A 
ATOM     60  C   UNL A   1      42.535  27.686  31.130  1.00  0.00     0.029 A 
ATOM     61  N   UNL A   1      41.607  29.412  32.185  1.00  0.00    -0.354 N 
ATOM     62  N   UNL A   1      41.363  31.391  34.346  1.00  0.00    -0.248 NA
ATOM     63  C   UNL A   1      42.035  32.218  36.424  1.00  0.00     0.031 C 
ATOM     64  C   UNL A   1      43.202  27.874  32.345  1.00  0.00     0.029 A 
ATOM     65  C   UNL A   1      42.645  28.970  32.986  1.00  0.00     0.049 A 
ATOM     66  H   UNL A   1      41.017  30.173  32.391  1.00  0.00     0.167 HD
ATOM     67  C   UNL A   1      42.429  30.633  34.815  1.00  0.00     0.074 A 
ATOM     68  C   UNL A   1      42.820  31.204  36.087  1.00  0.00     0.031 C 
ATOM     69  C   UNL A   1      43.035  29.566  34.239  1.00  0.00     0.037 A 
BRANCH  56  70
ATOM     70  C   UNL A   1      40.525  27.813  28.867  1.00  0.00     0.057 A 
ATOM     71  C   UNL A   1      41.332  27.982  27.733  1.00  0.00     0.134 A 
ATOM     72  C   UNL A   1      39.706  26.679  28.911  1.00  0.00     0.134 A 
ATOM     73  F   UNL A   1      42.131  29.053  27.621  1.00  0.00    -0.206 F 
ATOM     74  C   UNL A   1      41.299  27.077  26.671  1.00  0.00     0.040 A 
ATOM     75  C   UNL A   1      39.689  25.748  27.870  1.00  0.00     0.040 A 
ATOM     76  F   UNL A   1      38.913  26.451  29.969  1.00  0.00    -0.206 F 
ATOM     77  C   UNL A   1      40.480  25.952  26.742  1.00  0.00     0.006 A 
ENDBRANCH  56  70
BRANCH  57  78
ATOM     78  C   UNL A   1      40.060  34.382  36.391  1.00  0.00     0.057 A 
ATOM     79  C   UNL A   1      40.771  35.587  36.379  1.00  0.00     0.134 A 
ATOM     80  C   UNL A   1      39.273  34.109  37.516  1.00  0.00     0.134 A 
ATOM     81  F   UNL A   1      41.555  35.899  35.336  1.00  0.00    -0.206 F 
ATOM     82  C   UNL A   1      40.720  36.478  37.452  1.00  0.00     0.040 A 
ATOM     83  C   UNL A   1      39.192  35.003  38.586  1.00  0.00     0.040 A 
ATOM     84  F   UNL A   1      38.559  32.975  37.587  1.00  0.00    -0.206 F 
ATOM     85  C   UNL A   1      39.924  36.188  38.559  1.00  0.00     0.006 A 
ENDBRANCH  57  78
BRANCH  69  86
ATOM     86  C   UNL A   1      44.228  28.980  34.939  1.00  0.00     0.057 A 
ATOM     87  C   UNL A   1      44.110  27.953  35.883  1.00  0.00     0.134 A 
ATOM     88  C   UNL A   1      45.520  29.406  34.602  1.00  0.00     0.134 A 
ATOM     89  F   UNL A   1      42.902  27.509  36.258  1.00  0.00    -0.206 F 
ATOM     90  C   UNL A   1      45.236  27.380  36.477  1.00  0.00     0.040 A 
ATOM     91  C   UNL A   1      46.653  28.820  35.167  1.00  0.00     0.040 A 
ATOM     92  F   UNL A   1      45.702  30.379  33.697  1.00  0.00    -0.206 F 
ATOM     93  C   UNL A   1      46.512  27.806  36.111  1.00  0.00     0.006 A 
ENDBRANCH  69  86
ENDBRANCH  43  44
ENDBRANCH  35  38
ENDBRANCH  33  34
ENDBRANCH  32  33
ENDBRANCH  31  32
ENDBRANCH   1  31
TORSDOF 18
ENDMDL
MODEL 2
REMARK VINA RESULT:     -11.8      2.223      6.713
REMARK SMILES COc1cc(NC(=O)c2ccc([N+](=O)[O-])cc2)c(C(=O)NCCCCCCNC(=O)c2ccc(-c3c4nc(c(-c5c(F)cccc5F)c5ccc([nH]5)c(-c5c(F)cccc5F)c5nc(c(-c6c(F)cccc6F)c6ccc3[nH]6)C=C5)C=C4)cc2)cc1OC
REMARK SMILES IDX 24 1 23 2 22 3 21 4 19 5 20 6 18 8 3 9 4 10 86 11 5 12 85 13
REMARK SMILES IDX 2 14 1 15 87 16 88 17 6 18 7 19 8 21 9 22 10 23 17 24 11 25
REMARK SMILES IDX 16 26 12 27 13 28 14 29 15 30 25 31 26 32 27 33 28 34 29 35
REMARK SMILES IDX 30 37 31 38 32 39 84 40 33 41 83 42 34 43 35 44 36 45 77 46
REMARK SMILES IDX 37 47 82 48 76 49 78 50 38 51 81 52 75 53 74 54 39 56 65 57
REMARK SMILES IDX 48 58 64 59 49 60 52 61 63 62 79 63 50 64 51 65 62 67 80 68
REMARK SMILES IDX 53 69 40 70 41 71 46 72 42 73 43 74 45 75 47 76 44 77 66 78
REMARK SMILES IDX 67 79 72 80 68 81 69 82 71 83 73 84 70 85 54 86 55 87 60 88
REMARK SMILES IDX 56 89 57 90 59 91 61 92 58 93
REMARK H PARENT 21 7 6 20 28 36 78 55 52 66
REMARK Flexibility Score: inf
ROOT
ATOM      1  C   UNL A   1      33.796  30.384  27.510  1.00  0.00     0.002 C 
ENDROOT
BRANCH   1   2
ATOM      2  C   UNL A   1      34.396  29.031  27.108  1.00  0.00     0.021 C 
BRANCH   2   3
ATOM      3  C   UNL A   1      33.558  28.305  26.051  1.00  0.00     0.116 C 
BRANCH   3   4
ATOM      4  N   UNL A   1      34.078  28.604  24.733  1.00  0.00    -0.352 N 
ATOM      5  C   UNL A   1      33.497  28.775  23.506  1.00  0.00     0.253 C 
ATOM      6  O   UNL A   1      34.277  28.920  22.561  1.00  0.00    -0.269 OA
ATOM      7  H   UNL A   1      35.057  28.706  24.717  1.00  0.00     0.163 HD
BRANCH   5   8
ATOM      8  C   UNL A   1      32.016  28.855  23.258  1.00  0.00     0.067 A 
ATOM      9  C   UNL A   1      29.276  29.143  22.657  1.00  0.00     0.162 A 
ATOM     10  C   UNL A   1      30.011  28.052  22.170  1.00  0.00     0.077 A 
ATOM     11  C   UNL A   1      29.875  30.036  23.532  1.00  0.00     0.161 A 
ATOM     12  C   UNL A   1      31.387  27.905  22.411  1.00  0.00     0.058 A 
ATOM     13  C   UNL A   1      31.218  29.838  23.865  1.00  0.00     0.066 A 
BRANCH   9  14
ATOM     14  O   UNL A   1      27.938  29.197  22.377  1.00  0.00    -0.493 OA
ATOM     15  C   UNL A   1      27.161  28.466  23.330  1.00  0.00     0.278 C 
ENDBRANCH   9  14
BRANCH  11  16
ATOM     16  O   UNL A   1      29.306  31.093  24.186  1.00  0.00    -0.493 OA
ATOM     17  C   UNL A   1      28.897  32.208  23.403  1.00  0.00     0.278 C 
ENDBRANCH  11  16
BRANCH  12  18
ATOM     18  N   UNL A   1      32.157  26.821  21.898  1.00  0.00    -0.321 N 
ATOM     19  C   UNL A   1      32.717  25.683  22.429  1.00  0.00     0.255 C 
ATOM     20  H   UNL A   1      32.332  26.909  20.934  1.00  0.00     0.170 HD
ATOM     21  O   UNL A   1      33.500  24.991  21.783  1.00  0.00    -0.269 OA
BRANCH  19  22
ATOM     22  C   UNL A   1      32.385  25.248  23.787  1.00  0.00     0.040 A 
ATOM     23  C   UNL A   1      31.043  24.999  24.099  1.00  0.00     0.021 A 
ATOM     24  C   UNL A   1      33.410  24.983  24.702  1.00  0.00     0.021 A 
ATOM     25  C   UNL A   1      30.730  24.358  25.297  1.00  0.00     0.086 A 
ATOM     26  C   UNL A   1      33.102  24.336  25.897  1.00  0.00     0.086 A 
ATOM     27  C   UNL A   1      31.767  23.992  26.170  1.00  0.00     0.269 A 
BRANCH  27  28
ATOM     28  N   UNL A   1      31.464  23.161  27.340  1.00  0.00     0.062 N 
ATOM     29  O   UNL A   1      30.273  22.958  27.611  1.00  0.00    -0.258 OA
ATOM     30  O   UNL A   1      32.424  22.685  27.963  1.00  0.00    -0.258 OA
ENDBRANCH  27  28
ENDBRANCH  19  22
ENDBRANCH  12  18
ENDBRANCH   5   8
ENDBRANCH   3   4
ENDBRANCH   2   3
ENDBRANCH   1   2
BRANCH   1  31
ATOM     31  C   UNL A   1      32.281  30.491  27.298  1.00  0.00     0.002 C 
BRANCH  31  32
ATOM     32  C   UNL A   1      31.768  31.920  27.115  1.00  0.00     0.021 C 
BRANCH  32  33
ATOM     33  C   UNL A   1      32.881  32.942  26.926  1.00  0.00     0.116 C 
BRANCH  33  34
ATOM     34  N   UNL A   1      32.592  34.174  27.647  1.00  0.00    -0.352 N 
ATOM     35  C   UNL A   1      33.166  34.642  28.801  1.00  0.00     0.251 C 
ATOM     36  H   UNL A   1      31.894  34.746  27.255  1.00  0.00     0.163 HD
ATOM     37  O   UNL A   1      32.650  35.559  29.434  1.00  0.00    -0.269 OA
BRANCH  35  38
ATOM     38  C   UNL A   1      34.414  34.019  29.277  1.00  0.00     0.039 A 
ATOM     39  C   UNL A   1      34.381  33.157  30.374  1.00  0.00     0.014 A 
ATOM     40  C   UNL A   1      35.616  34.282  28.612  1.00  0.00     0.014 A 
ATOM     41  C   UNL A   1      35.552  32.514  30.777  1.00  0.00     0.010 A 
ATOM     42  C   UNL A   1      36.760  33.581  28.963  1.00  0.00     0.010 A 
ATOM     43  C   UNL A   1      36.743  32.700  30.056  1.00  0.00    -0.014 A 
BRANCH  43  44
ATOM     44  C   UNL A   1      38.009  32.028  30.439  1.00  0.00     0.031 A 
ATOM     45  C   UNL A   1      38.962  32.729  31.364  1.00  0.00     0.074 A 
ATOM     46  C   UNL A   1      38.340  30.847  29.884  1.00  0.00     0.049 A 
ATOM     47  N   UNL A   1      40.185  32.404  31.696  1.00  0.00    -0.248 NA
ATOM     48  C   UNL A   1      38.489  33.987  31.966  1.00  0.00     0.031 C 
ATOM     49  C   UNL A   1      37.510  30.082  28.953  1.00  0.00     0.029 A 
ATOM     50  N   UNL A   1      39.481  30.094  30.008  1.00  0.00    -0.354 N 
ATOM     51  C   UNL A   1      40.632  33.428  32.523  1.00  0.00     0.074 A 
ATOM     52  C   UNL A   1      39.574  34.410  32.594  1.00  0.00     0.031 C 
ATOM     53  C   UNL A   1      38.165  28.964  28.598  1.00  0.00     0.029 A 
ATOM     54  C   UNL A   1      39.477  28.958  29.236  1.00  0.00     0.049 A 
ATOM     55  H   UNL A   1      40.231  30.345  30.595  1.00  0.00     0.167 HD
ATOM     56  C   UNL A   1      41.813  33.530  33.178  1.00  0.00     0.037 A 
ATOM     57  C   UNL A   1      40.434  28.029  29.048  1.00  0.00     0.037 A 
ATOM     58  C   UNL A   1      42.850  32.536  33.118  1.00  0.00     0.049 A 
ATOM     59  C   UNL A   1      41.747  28.174  29.770  1.00  0.00     0.074 A 
ATOM     60  C   UNL A   1      44.064  32.517  33.783  1.00  0.00     0.029 A 
ATOM     61  N   UNL A   1      42.797  31.384  32.346  1.00  0.00    -0.354 N 
ATOM     62  N   UNL A   1      42.142  29.121  30.586  1.00  0.00    -0.248 NA
ATOM     63  C   UNL A   1      42.747  27.119  29.547  1.00  0.00     0.031 C 
ATOM     64  C   UNL A   1      44.766  31.380  33.372  1.00  0.00     0.029 A 
ATOM     65  C   UNL A   1      43.964  30.658  32.503  1.00  0.00     0.049 A 
ATOM     66  H   UNL A   1      42.041  31.123  31.772  1.00  0.00     0.167 HD
ATOM     67  C   UNL A   1      43.415  28.755  31.007  1.00  0.00     0.074 A 
ATOM     68  C   UNL A   1      43.726  27.501  30.355  1.00  0.00     0.031 C 
ATOM     69  C   UNL A   1      44.247  29.397  31.863  1.00  0.00     0.037 A 
BRANCH  56  70
ATOM     70  C   UNL A   1      42.042  34.763  34.004  1.00  0.00     0.057 A 
ATOM     71  C   UNL A   1      41.728  34.810  35.370  1.00  0.00     0.134 A 
ATOM     72  C   UNL A   1      42.601  35.911  33.432  1.00  0.00     0.134 A 
ATOM     73  F   UNL A   1      41.179  33.749  35.979  1.00  0.00    -0.206 F 
ATOM     74  C   UNL A   1      41.930  35.966  36.127  1.00  0.00     0.040 A 
ATOM     75  C   UNL A   1      42.839  37.062  34.186  1.00  0.00     0.040 A 
ATOM     76  F   UNL A   1      42.932  35.934  32.132  1.00  0.00    -0.206 F 
ATOM     77  C   UNL A   1      42.494  37.094  35.535  1.00  0.00     0.006 A 
ENDBRANCH  56  70
BRANCH  57  78
ATOM     78  C   UNL A   1      40.181  26.872  28.152  1.00  0.00     0.057 A 
ATOM     79  C   UNL A   1      40.677  26.853  26.844  1.00  0.00     0.134 A 
ATOM     80  C   UNL A   1      39.438  25.764  28.577  1.00  0.00     0.134 A 
ATOM     81  F   UNL A   1      41.383  27.892  26.374  1.00  0.00    -0.206 F 
ATOM     82  C   UNL A   1      40.427  25.783  25.982  1.00  0.00     0.040 A 
ATOM     83  C   UNL A   1      39.203  24.675  27.734  1.00  0.00     0.040 A 
ATOM     84  F   UNL A   1      38.942  25.715  29.822  1.00  0.00    -0.206 F 
ATOM     85  C   UNL A   1      39.691  24.687  26.429  1.00  0.00     0.006 A 
ENDBRANCH  57  78
BRANCH  69  86
ATOM     86  C   UNL A   1      45.548  28.729  32.204  1.00  0.00     0.057 A 
ATOM     87  C   UNL A   1      46.734  29.008  31.514  1.00  0.00     0.134 A 
ATOM     88  C   UNL A   1      45.622  27.846  33.289  1.00  0.00     0.134 A 
ATOM     89  F   UNL A   1      46.728  29.835  30.459  1.00  0.00    -0.206 F 
ATOM     90  C   UNL A   1      47.945  28.423  31.886  1.00  0.00     0.040 A 
ATOM     91  C   UNL A   1      46.832  27.278  33.688  1.00  0.00     0.040 A 
ATOM     92  F   UNL A   1      44.524  27.543  33.998  1.00  0.00    -0.206 F 
ATOM     93  C   UNL A   1      47.998  27.563  32.982  1.00  0.00     0.006 A 
ENDBRANCH  69  86
ENDBRANCH  43  44
ENDBRANCH  35  38
ENDBRANCH  33  34
ENDBRANCH  32  33
ENDBRANCH  31  32
ENDBRANCH   1  31
TORSDOF 18
ENDMDL
MODEL 3
REMARK VINA RESULT:     -11.7      1.535      3.022
REMARK SMILES COc1cc(NC(=O)c2ccc([N+](=O)[O-])cc2)c(C(=O)NCCCCCCNC(=O)c2ccc(-c3c4nc(c(-c5c(F)cccc5F)c5ccc([nH]5)c(-c5c(F)cccc5F)c5nc(c(-c6c(F)cccc6F)c6ccc3[nH]6)C=C5)C=C4)cc2)cc1OC
REMARK SMILES IDX 24 1 23 2 22 3 21 4 19 5 20 6 18 8 3 9 4 10 86 11 5 12 85 13
REMARK SMILES IDX 2 14 1 15 87 16 88 17 6 18 7 19 8 21 9 22 10 23 17 24 11 25
REMARK SMILES IDX 16 26 12 27 13 28 14 29 15 30 25 31 26 32 27 33 28 34 29 35
REMARK SMILES IDX 30 37 31 38 32 39 84 40 33 41 83 42 34 43 35 44 36 45 77 46
REMARK SMILES IDX 37 47 82 48 76 49 78 50 38 51 81 52 75 53 74 54 39 56 65 57
REMARK SMILES IDX 48 58 64 59 49 60 52 61 63 62 79 63 50 64 51 65 62 67 80 68
REMARK SMILES IDX 53 69 40 70 41 71 46 72 42 73 43 74 45 75 47 76 44 77 66 78
REMARK SMILES IDX 67 79 72 80 68 81 69 82 71 83 73 84 70 85 54 86 55 87 60 88
REMARK SMILES IDX 56 89 57 90 59 91 61 92 58 93
REMARK H PARENT 21 7 6 20 28 36 78 55 52 66
REMARK Flexibility Score: inf
ROOT
ATOM      1  C   UNL A   1      32.931  29.294  26.200  1.00  0.00     0.002 C 
ENDROOT
BRANCH   1   2
ATOM      2  C   UNL A   1      33.918  28.912  25.090  1.00  0.00     0.021 C 
BRANCH   2   3
ATOM      3  C   UNL A   1      33.307  29.034  23.690  1.00  0.00     0.116 C 
BRANCH   3   4
ATOM      4  N   UNL A   1      33.607  27.840  22.927  1.00  0.00    -0.352 N 
ATOM      5  C   UNL A   1      33.362  26.508  23.125  1.00  0.00     0.253 C 
ATOM      6  O   UNL A   1      33.866  25.744  22.297  1.00  0.00    -0.269 OA
ATOM      7  H   UNL A   1      34.089  28.027  22.089  1.00  0.00     0.163 HD
BRANCH   5   8
ATOM      8  C   UNL A   1      32.496  25.944  24.217  1.00  0.00     0.067 A 
ATOM      9  C   UNL A   1      30.811  24.750  26.137  1.00  0.00     0.162 A 
ATOM     10  C   UNL A   1      32.198  24.539  26.163  1.00  0.00     0.077 A 
ATOM     11  C   UNL A   1      30.271  25.641  25.223  1.00  0.00     0.161 A 
ATOM     12  C   UNL A   1      33.058  25.080  25.192  1.00  0.00     0.058 A 
ATOM     13  C   UNL A   1      31.134  26.269  24.320  1.00  0.00     0.066 A 
BRANCH   9  14
ATOM     14  O   UNL A   1      30.054  24.188  27.128  1.00  0.00    -0.493 OA
ATOM     15  C   UNL A   1      29.788  22.804  26.881  1.00  0.00     0.278 C 
ENDBRANCH   9  14
BRANCH  11  16
ATOM     16  O   UNL A   1      28.973  26.053  25.106  1.00  0.00    -0.493 OA
ATOM     17  C   UNL A   1      28.562  26.589  23.855  1.00  0.00     0.278 C 
ENDBRANCH  11  16
BRANCH  12  18
ATOM     18  N   UNL A   1      34.465  24.851  25.183  1.00  0.00    -0.321 N 
ATOM     19  C   UNL A   1      35.275  23.745  25.074  1.00  0.00     0.255 C 
ATOM     20  H   UNL A   1      34.980  25.684  25.278  1.00  0.00     0.170 HD
ATOM     21  O   UNL A   1      36.484  23.813  25.278  1.00  0.00    -0.269 OA
BRANCH  19  22
ATOM     22  C   UNL A   1      34.720  22.444  24.697  1.00  0.00     0.040 A 
ATOM     23  C   UNL A   1      35.102  21.316  25.433  1.00  0.00     0.021 A 
ATOM     24  C   UNL A   1      33.745  22.368  23.695  1.00  0.00     0.021 A 
ATOM     25  C   UNL A   1      34.411  20.119  25.252  1.00  0.00     0.086 A 
ATOM     26  C   UNL A   1      33.048  21.174  23.517  1.00  0.00     0.086 A 
ATOM     27  C   UNL A   1      33.359  20.067  24.325  1.00  0.00     0.269 A 
BRANCH  27  28
ATOM     28  N   UNL A   1      32.513  18.871  24.260  1.00  0.00     0.062 N 
ATOM     29  O   UNL A   1      32.222  18.430  23.140  1.00  0.00    -0.258 OA
ATOM     30  O   UNL A   1      32.173  18.355  25.335  1.00  0.00    -0.258 OA
ENDBRANCH  27  28
ENDBRANCH  19  22
ENDBRANCH  12  18
ENDBRANCH   5   8
ENDBRANCH   3   4
ENDBRANCH   2   3
ENDBRANCH   1   2
BRANCH   1  31
ATOM     31  C   UNL A   1      31.712  30.088  25.715  1.00  0.00     0.002 C 
BRANCH  31  32
ATOM     32  C   UNL A   1      31.449  31.379  26.490  1.00  0.00     0.021 C 
BRANCH  32  33
ATOM     33  C   UNL A   1      32.714  32.016  27.050  1.00  0.00     0.116 C 
BRANCH  33  34
ATOM     34  N   UNL A   1      32.516  33.434  27.316  1.00  0.00    -0.352 N 
ATOM     35  C   UNL A   1      33.112  34.214  28.273  1.00  0.00     0.251 C 
ATOM     36  H   UNL A   1      31.871  33.893  26.732  1.00  0.00     0.163 HD
ATOM     37  O   UNL A   1      32.662  35.323  28.551  1.00  0.00    -0.269 OA
BRANCH  35  38
ATOM     38  C   UNL A   1      34.300  33.696  28.974  1.00  0.00     0.039 A 
ATOM     39  C   UNL A   1      34.150  32.713  29.952  1.00  0.00     0.014 A 
ATOM     40  C   UNL A   1      35.568  34.181  28.637  1.00  0.00     0.014 A 
ATOM     41  C   UNL A   1      35.284  32.174  30.563  1.00  0.00     0.010 A 
ATOM     42  C   UNL A   1      36.695  33.587  29.184  1.00  0.00     0.010 A 
ATOM     43  C   UNL A   1      36.565  32.588  30.162  1.00  0.00    -0.014 A 
BRANCH  43  44
ATOM     44  C   UNL A   1      37.798  32.034  30.772  1.00  0.00     0.031 A 
ATOM     45  C   UNL A   1      38.538  30.936  30.063  1.00  0.00     0.074 A 
ATOM     46  C   UNL A   1      38.190  32.444  31.993  1.00  0.00     0.049 A 
ATOM     47  N   UNL A   1      39.533  30.199  30.487  1.00  0.00    -0.248 NA
ATOM     48  C   UNL A   1      38.071  30.595  28.709  1.00  0.00     0.031 C 
ATOM     49  C   UNL A   1      37.539  33.483  32.791  1.00  0.00     0.029 A 
ATOM     50  N   UNL A   1      39.225  32.015  32.787  1.00  0.00    -0.354 N 
ATOM     51  C   UNL A   1      39.791  29.295  29.464  1.00  0.00     0.074 A 
ATOM     52  C   UNL A   1      38.814  29.537  28.426  1.00  0.00     0.031 C 
ATOM     53  C   UNL A   1      38.194  33.618  33.955  1.00  0.00     0.029 A 
ATOM     54  C   UNL A   1      39.278  32.643  34.007  1.00  0.00     0.049 A 
ATOM     55  H   UNL A   1      39.866  31.323  32.508  1.00  0.00     0.167 HD
ATOM     56  C   UNL A   1      40.767  28.359  29.388  1.00  0.00     0.037 A 
ATOM     57  C   UNL A   1      40.098  32.439  35.056  1.00  0.00     0.037 A 
ATOM     58  C   UNL A   1      41.749  28.143  30.416  1.00  0.00     0.049 A 
ATOM     59  C   UNL A   1      41.162  31.379  34.959  1.00  0.00     0.074 A 
ATOM     60  C   UNL A   1      42.812  27.256  30.419  1.00  0.00     0.029 A 
ATOM     61  N   UNL A   1      41.787  28.820  31.627  1.00  0.00    -0.354 N 
ATOM     62  N   UNL A   1      41.427  30.561  33.969  1.00  0.00    -0.248 NA
ATOM     63  C   UNL A   1      42.043  31.214  36.125  1.00  0.00     0.031 C 
ATOM     64  C   UNL A   1      43.461  27.359  31.653  1.00  0.00     0.029 A 
ATOM     65  C   UNL A   1      42.843  28.356  32.393  1.00  0.00     0.049 A 
ATOM     66  H   UNL A   1      41.157  29.524  31.901  1.00  0.00     0.167 HD
ATOM     67  C   UNL A   1      42.530  29.818  34.373  1.00  0.00     0.074 A 
ATOM     68  C   UNL A   1      42.882  30.281  35.699  1.00  0.00     0.031 C 
ATOM     69  C   UNL A   1      43.195  28.846  33.702  1.00  0.00     0.037 A 
BRANCH  56  70
ATOM     70  C   UNL A   1      40.810  27.500  28.158  1.00  0.00     0.057 A 
ATOM     71  C   UNL A   1      40.124  26.279  28.081  1.00  0.00     0.134 A 
ATOM     72  C   UNL A   1      41.530  27.906  27.029  1.00  0.00     0.134 A 
ATOM     73  F   UNL A   1      39.424  25.825  29.131  1.00  0.00    -0.206 F 
ATOM     74  C   UNL A   1      40.182  25.478  26.939  1.00  0.00     0.040 A 
ATOM     75  C   UNL A   1      41.568  27.130  25.868  1.00  0.00     0.040 A 
ATOM     76  F   UNL A   1      42.204  29.065  27.030  1.00  0.00    -0.206 F 
ATOM     77  C   UNL A   1      40.901  25.908  25.826  1.00  0.00     0.006 A 
ENDBRANCH  56  70
BRANCH  57  78
ATOM     78  C   UNL A   1      39.956  33.266  36.282  1.00  0.00     0.057 A 
ATOM     79  C   UNL A   1      39.080  32.889  37.306  1.00  0.00     0.134 A 
ATOM     80  C   UNL A   1      40.684  34.448  36.458  1.00  0.00     0.134 A 
ATOM     81  F   UNL A   1      38.343  31.775  37.190  1.00  0.00    -0.206 F 
ATOM     82  C   UNL A   1      38.917  33.668  38.453  1.00  0.00     0.040 A 
ATOM     83  C   UNL A   1      40.551  35.223  37.612  1.00  0.00     0.040 A 
ATOM     84  F   UNL A   1      41.548  34.860  35.518  1.00  0.00    -0.206 F 
ATOM     85  C   UNL A   1      39.659  34.838  38.610  1.00  0.00     0.006 A 
ENDBRANCH  57  78
BRANCH  69  86
ATOM     86  C   UNL A   1      44.413  28.257  34.354  1.00  0.00     0.057 A 
ATOM     87  C   UNL A   1      45.681  28.837  34.227  1.00  0.00     0.134 A 
ATOM     88  C   UNL A   1      44.294  27.132  35.180  1.00  0.00     0.134 A 
ATOM     89  F   UNL A   1      45.864  29.908  33.442  1.00  0.00    -0.206 F 
ATOM     90  C   UNL A   1      46.790  28.309  34.891  1.00  0.00     0.040 A 
ATOM     91  C   UNL A   1      45.389  26.614  35.872  1.00  0.00     0.040 A 
ATOM     92  F   UNL A   1      43.105  26.535  35.352  1.00  0.00    -0.206 F 
ATOM     93  C   UNL A   1      46.643  27.201  35.724  1.00  0.00     0.006 A 
ENDBRANCH  69  86
ENDBRANCH  43  44
ENDBRANCH  35  38
ENDBRANCH  33  34
ENDBRANCH  32  33
ENDBRANCH  31  32
ENDBRANCH   1  31
TORSDOF 18
ENDMDL
