MODEL 1
REMARK VINA RESULT:     -11.3      0.000      0.000
REMARK SMILES O=C(C[C@H](NS(=O)(=O)c1cccs1)c1ccccc1Cl)NCCCCCCNC(=O)c1ccc(-c2c3nc(c(-c4c(F)cccc4F)c4ccc([nH]4)c(-c4c(F)cccc4F)c4nc(c(-c5c(F)cccc5F)c5ccc2[nH]5)C=C4)C=C3)cc1
REMARK SMILES IDX 23 1 22 2 21 3 1 4 2 5 3 7 4 8 14 9 15 10 19 11 16 12 18 13
REMARK SMILES IDX 20 14 17 15 5 16 6 18 7 19 8 20 9 21 10 22 13 23 11 24 12 25
REMARK SMILES IDX 24 26 25 27 26 28 27 29 28 30 29 31 30 33 31 34 32 35 84 36
REMARK SMILES IDX 33 37 83 38 34 39 35 40 36 41 77 42 37 43 82 44 76 45 78 46
REMARK SMILES IDX 38 47 81 48 75 49 74 50 39 52 65 53 48 54 64 55 49 56 52 57
REMARK SMILES IDX 63 58 79 59 50 60 51 61 62 63 80 64 53 65 40 66 41 67 46 68
REMARK SMILES IDX 42 69 43 70 45 71 47 72 44 73 66 74 67 75 72 76 68 77 69 78
REMARK SMILES IDX 71 79 73 80 70 81 54 82 55 83 60 84 56 85 57 86 59 87 61 88
REMARK SMILES IDX 58 89
REMARK H PARENT 21 6 5 17 28 32 78 51 52 62
REMARK Flexibility Score: inf
ROOT
ATOM      1  C   UNL A   1      34.827  22.515  23.809  1.00  0.00     0.021 C 
ENDROOT
BRANCH   1   2
ATOM      2  C   UNL A   1      34.672  24.006  23.510  1.00  0.00     0.116 C 
BRANCH   2   3
ATOM      3  N   UNL A   1      33.301  24.314  23.163  1.00  0.00    -0.356 N 
ATOM      4  O   UNL A   1      33.792  25.879  21.558  1.00  0.00    -0.275 OA
ATOM      5  C   UNL A   1      32.969  25.266  22.228  1.00  0.00     0.221 C 
ATOM      6  H   UNL A   1      32.576  23.822  23.613  1.00  0.00     0.163 HD
BRANCH   5   7
ATOM      7  C   UNL A   1      31.490  25.589  22.184  1.00  0.00     0.125 C 
BRANCH   7   8
ATOM      8  C   UNL A   1      30.986  26.260  23.476  1.00  0.00     0.111 C 
BRANCH   8   9
ATOM      9  C   UNL A   1      30.096  27.476  23.224  1.00  0.00    -0.011 A 
ATOM     10  C   UNL A   1      28.703  27.324  23.396  1.00  0.00     0.007 A 
ATOM     11  C   UNL A   1      30.563  28.720  22.757  1.00  0.00     0.045 A 
ATOM     12  C   UNL A   1      27.816  28.363  23.109  1.00  0.00     0.000 A 
ATOM     13  C   UNL A   1      29.670  29.772  22.510  1.00  0.00     0.021 A 
ATOM     14  Cl  UNL A   1      32.230  29.030  22.419  1.00  0.00    -0.084 Cl
ATOM     15  C   UNL A   1      28.300  29.591  22.676  1.00  0.00     0.002 A 
ENDBRANCH   8   9
BRANCH   8  16
ATOM     16  N   UNL A   1      30.279  25.287  24.340  1.00  0.00    -0.202 NA
ATOM     17  H   UNL A   1      30.304  24.386  23.863  1.00  0.00     0.142 HD
BRANCH  16  18
ATOM     18  S   UNL A   1      30.858  25.041  25.900  1.00  0.00     0.250 S 
ATOM     19  O   UNL A   1      29.715  24.932  26.769  1.00  0.00    -0.206 OA
ATOM     20  O   UNL A   1      31.866  23.999  25.833  1.00  0.00    -0.206 OA
BRANCH  18  21
ATOM     21  C   UNL A   1      31.747  26.491  26.414  1.00  0.00     0.134 A 
ATOM     22  C   UNL A   1      31.351  27.632  27.090  1.00  0.00     0.033 A 
ATOM     23  S   UNL A   1      33.420  26.523  26.053  1.00  0.00    -0.131 S 
ATOM     24  C   UNL A   1      32.435  28.524  27.331  1.00  0.00     0.013 A 
ATOM     25  C   UNL A   1      33.619  28.042  26.816  1.00  0.00     0.066 A 
ENDBRANCH  18  21
ENDBRANCH  16  18
ENDBRANCH   8  16
ENDBRANCH   7   8
ENDBRANCH   5   7
ENDBRANCH   2   3
ENDBRANCH   1   2
BRANCH   1  26
ATOM     26  C   UNL A   1      36.189  22.120  24.399  1.00  0.00     0.002 C 
BRANCH  26  27
ATOM     27  C   UNL A   1      36.240  20.729  25.036  1.00  0.00     0.002 C 
BRANCH  27  28
ATOM     28  C   UNL A   1      37.542  19.962  24.801  1.00  0.00     0.021 C 
BRANCH  28  29
ATOM     29  C   UNL A   1      38.720  20.422  25.654  1.00  0.00     0.116 C 
BRANCH  29  30
ATOM     30  N   UNL A   1      39.785  19.434  25.714  1.00  0.00    -0.352 N 
ATOM     31  C   UNL A   1      41.105  19.597  26.053  1.00  0.00     0.251 C 
ATOM     32  H   UNL A   1      39.521  18.515  25.479  1.00  0.00     0.163 HD
ATOM     33  O   UNL A   1      41.901  18.676  25.898  1.00  0.00    -0.269 OA
BRANCH  31  34
ATOM     34  C   UNL A   1      41.576  20.896  26.582  1.00  0.00     0.039 A 
ATOM     35  C   UNL A   1      42.062  21.852  25.686  1.00  0.00     0.014 A 
ATOM     36  C   UNL A   1      41.537  21.172  27.952  1.00  0.00     0.014 A 
ATOM     37  C   UNL A   1      42.447  23.109  26.157  1.00  0.00     0.010 A 
ATOM     38  C   UNL A   1      41.859  22.447  28.411  1.00  0.00     0.010 A 
ATOM     39  C   UNL A   1      42.315  23.427  27.518  1.00  0.00    -0.014 A 
BRANCH  39  40
ATOM     40  C   UNL A   1      42.635  24.786  28.023  1.00  0.00     0.031 A 
ATOM     41  C   UNL A   1      44.038  25.137  28.427  1.00  0.00     0.074 A 
ATOM     42  C   UNL A   1      41.644  25.683  28.190  1.00  0.00     0.049 A 
ATOM     43  N   UNL A   1      44.496  26.245  28.952  1.00  0.00    -0.248 NA
ATOM     44  C   UNL A   1      45.059  24.093  28.242  1.00  0.00     0.031 C 
ATOM     45  C   UNL A   1      40.231  25.446  27.888  1.00  0.00     0.029 A 
ATOM     46  N   UNL A   1      41.672  26.968  28.668  1.00  0.00    -0.354 N 
ATOM     47  C   UNL A   1      45.849  26.028  29.174  1.00  0.00     0.074 A 
ATOM     48  C   UNL A   1      46.129  24.666  28.773  1.00  0.00     0.031 C 
ATOM     49  C   UNL A   1      39.530  26.555  28.175  1.00  0.00     0.029 A 
ATOM     50  C   UNL A   1      40.438  27.567  28.710  1.00  0.00     0.049 A 
ATOM     51  H   UNL A   1      42.499  27.418  28.955  1.00  0.00     0.167 HD
ATOM     52  C   UNL A   1      46.780  26.891  29.647  1.00  0.00     0.037 A 
ATOM     53  C   UNL A   1      40.074  28.790  29.137  1.00  0.00     0.037 A 
ATOM     54  C   UNL A   1      46.505  28.253  30.027  1.00  0.00     0.049 A 
ATOM     55  C   UNL A   1      41.122  29.734  29.653  1.00  0.00     0.074 A 
ATOM     56  C   UNL A   1      47.392  29.226  30.453  1.00  0.00     0.029 A 
ATOM     57  N   UNL A   1      45.244  28.831  30.032  1.00  0.00    -0.354 N 
ATOM     58  N   UNL A   1      42.412  29.541  29.787  1.00  0.00    -0.248 NA
ATOM     59  C   UNL A   1      40.665  31.067  30.070  1.00  0.00     0.031 C 
ATOM     60  C   UNL A   1      46.661  30.381  30.755  1.00  0.00     0.029 A 
ATOM     61  C   UNL A   1      45.325  30.141  30.476  1.00  0.00     0.049 A 
ATOM     62  H   UNL A   1      44.413  28.377  29.761  1.00  0.00     0.167 HD
ATOM     63  C   UNL A   1      42.924  30.731  30.286  1.00  0.00     0.074 A 
ATOM     64  C   UNL A   1      41.808  31.645  30.416  1.00  0.00     0.031 C 
ATOM     65  C   UNL A   1      44.205  31.038  30.606  1.00  0.00     0.037 A 
BRANCH  52  66
ATOM     66  C   UNL A   1      48.185  26.379  29.779  1.00  0.00     0.057 A 
ATOM     67  C   UNL A   1      49.112  26.490  28.735  1.00  0.00     0.134 A 
ATOM     68  C   UNL A   1      48.619  25.779  30.967  1.00  0.00     0.134 A 
ATOM     69  F   UNL A   1      48.757  27.044  27.566  1.00  0.00    -0.206 F 
ATOM     70  C   UNL A   1      50.410  25.989  28.854  1.00  0.00     0.040 A 
ATOM     71  C   UNL A   1      49.923  25.298  31.108  1.00  0.00     0.040 A 
ATOM     72  F   UNL A   1      47.786  25.647  32.009  1.00  0.00    -0.206 F 
ATOM     73  C   UNL A   1      50.820  25.394  30.046  1.00  0.00     0.006 A 
ENDBRANCH  52  66
BRANCH  53  74
ATOM     74  C   UNL A   1      38.649  29.197  29.067  1.00  0.00     0.057 A 
ATOM     75  C   UNL A   1      38.082  29.632  27.864  1.00  0.00     0.134 A 
ATOM     76  C   UNL A   1      37.817  29.136  30.191  1.00  0.00     0.134 A 
ATOM     77  F   UNL A   1      38.835  29.726  26.758  1.00  0.00    -0.206 F 
ATOM     78  C   UNL A   1      36.739  30.001  27.782  1.00  0.00     0.040 A 
ATOM     79  C   UNL A   1      36.467  29.483  30.118  1.00  0.00     0.040 A 
ATOM     80  F   UNL A   1      38.300  28.719  31.370  1.00  0.00    -0.206 F 
ATOM     81  C   UNL A   1      35.925  29.920  28.911  1.00  0.00     0.006 A 
ENDBRANCH  53  74
BRANCH  65  82
ATOM     82  C   UNL A   1      44.471  32.426  31.112  1.00  0.00     0.057 A 
ATOM     83  C   UNL A   1      44.742  33.488  30.242  1.00  0.00     0.134 A 
ATOM     84  C   UNL A   1      44.418  32.707  32.484  1.00  0.00     0.134 A 
ATOM     85  F   UNL A   1      44.821  33.282  28.919  1.00  0.00    -0.206 F 
ATOM     86  C   UNL A   1      44.971  34.781  30.720  1.00  0.00     0.040 A 
ATOM     87  C   UNL A   1      44.621  33.998  32.971  1.00  0.00     0.040 A 
ATOM     88  F   UNL A   1      44.156  31.734  33.369  1.00  0.00    -0.206 F 
ATOM     89  C   UNL A   1      44.904  35.039  32.088  1.00  0.00     0.006 A 
ENDBRANCH  65  82
ENDBRANCH  39  40
ENDBRANCH  31  34
ENDBRANCH  29  30
ENDBRANCH  28  29
ENDBRANCH  27  28
ENDBRANCH  26  27
ENDBRANCH   1  26
TORSDOF 18
ENDMDL
MODEL 2
REMARK VINA RESULT:     -11.3      0.688      6.134
REMARK SMILES O=C(C[C@H](NS(=O)(=O)c1cccs1)c1ccccc1Cl)NCCCCCCNC(=O)c1ccc(-c2c3nc(c(-c4c(F)cccc4F)c4ccc([nH]4)c(-c4c(F)cccc4F)c4nc(c(-c5c(F)cccc5F)c5ccc2[nH]5)C=C4)C=C3)cc1
REMARK SMILES IDX 23 1 22 2 21 3 1 4 2 5 3 7 4 8 14 9 15 10 19 11 16 12 18 13
REMARK SMILES IDX 20 14 17 15 5 16 6 18 7 19 8 20 9 21 10 22 13 23 11 24 12 25
REMARK SMILES IDX 24 26 25 27 26 28 27 29 28 30 29 31 30 33 31 34 32 35 84 36
REMARK SMILES IDX 33 37 83 38 34 39 35 40 36 41 77 42 37 43 82 44 76 45 78 46
REMARK SMILES IDX 38 47 81 48 75 49 74 50 39 52 65 53 48 54 64 55 49 56 52 57
REMARK SMILES IDX 63 58 79 59 50 60 51 61 62 63 80 64 53 65 40 66 41 67 46 68
REMARK SMILES IDX 42 69 43 70 45 71 47 72 44 73 66 74 67 75 72 76 68 77 69 78
REMARK SMILES IDX 71 79 73 80 70 81 54 82 55 83 60 84 56 85 57 86 59 87 61 88
REMARK SMILES IDX 58 89
REMARK H PARENT 21 6 5 17 28 32 78 51 52 62
REMARK Flexibility Score: inf
ROOT
ATOM      1  C   UNL A   1      34.919  22.599  23.532  1.00  0.00     0.021 C 
ENDROOT
BRANCH   1   2
ATOM      2  C   UNL A   1      34.684  24.104  23.397  1.00  0.00     0.116 C 
BRANCH   2   3
ATOM      3  N   UNL A   1      33.288  24.378  23.130  1.00  0.00    -0.356 N 
ATOM      4  O   UNL A   1      33.639  25.715  21.298  1.00  0.00    -0.275 OA
ATOM      5  C   UNL A   1      32.877  25.203  22.111  1.00  0.00     0.221 C 
ATOM      6  H   UNL A   1      32.606  23.956  23.701  1.00  0.00     0.163 HD
BRANCH   5   7
ATOM      7  C   UNL A   1      31.400  25.533  22.150  1.00  0.00     0.125 C 
BRANCH   7   8
ATOM      8  C   UNL A   1      30.968  26.185  23.478  1.00  0.00     0.111 C 
BRANCH   8   9
ATOM      9  C   UNL A   1      30.048  27.391  23.293  1.00  0.00    -0.011 A 
ATOM     10  C   UNL A   1      28.659  27.194  23.449  1.00  0.00     0.007 A 
ATOM     11  C   UNL A   1      30.484  28.672  22.902  1.00  0.00     0.045 A 
ATOM     12  C   UNL A   1      27.746  28.226  23.219  1.00  0.00     0.000 A 
ATOM     13  C   UNL A   1      29.566  29.713  22.712  1.00  0.00     0.021 A 
ATOM     14  Cl  UNL A   1      32.144  29.044  22.590  1.00  0.00    -0.084 Cl
ATOM     15  C   UNL A   1      28.200  29.489  22.860  1.00  0.00     0.002 A 
ENDBRANCH   8   9
BRANCH   8  16
ATOM     16  N   UNL A   1      30.329  25.196  24.375  1.00  0.00    -0.202 NA
ATOM     17  H   UNL A   1      30.401  24.285  23.920  1.00  0.00     0.142 HD
BRANCH  16  18
ATOM     18  S   UNL A   1      30.940  25.024  25.933  1.00  0.00     0.250 S 
ATOM     19  O   UNL A   1      29.815  24.901  26.823  1.00  0.00    -0.206 OA
ATOM     20  O   UNL A   1      31.985  24.018  25.884  1.00  0.00    -0.206 OA
BRANCH  18  21
ATOM     21  C   UNL A   1      31.781  26.522  26.384  1.00  0.00     0.134 A 
ATOM     22  C   UNL A   1      31.343  27.687  26.989  1.00  0.00     0.033 A 
ATOM     23  S   UNL A   1      33.460  26.579  26.055  1.00  0.00    -0.131 S 
ATOM     24  C   UNL A   1      32.399  28.619  27.203  1.00  0.00     0.013 A 
ATOM     25  C   UNL A   1      33.605  28.141  26.738  1.00  0.00     0.066 A 
ENDBRANCH  18  21
ENDBRANCH  16  18
ENDBRANCH   8  16
ENDBRANCH   7   8
ENDBRANCH   5   7
ENDBRANCH   2   3
ENDBRANCH   1   2
BRANCH   1  26
ATOM     26  C   UNL A   1      36.325  22.213  24.013  1.00  0.00     0.002 C 
BRANCH  26  27
ATOM     27  C   UNL A   1      36.377  21.024  24.976  1.00  0.00     0.002 C 
BRANCH  27  28
ATOM     28  C   UNL A   1      37.606  20.127  24.826  1.00  0.00     0.021 C 
BRANCH  28  29
ATOM     29  C   UNL A   1      38.793  20.515  25.701  1.00  0.00     0.116 C 
BRANCH  29  30
ATOM     30  N   UNL A   1      39.800  19.468  25.770  1.00  0.00    -0.352 N 
ATOM     31  C   UNL A   1      41.133  19.563  26.084  1.00  0.00     0.251 C 
ATOM     32  H   UNL A   1      39.480  18.560  25.563  1.00  0.00     0.163 HD
ATOM     33  O   UNL A   1      41.873  18.593  25.941  1.00  0.00    -0.269 OA
BRANCH  31  34
ATOM     34  C   UNL A   1      41.687  20.845  26.572  1.00  0.00     0.039 A 
ATOM     35  C   UNL A   1      42.148  21.778  25.639  1.00  0.00     0.014 A 
ATOM     36  C   UNL A   1      41.750  21.128  27.940  1.00  0.00     0.014 A 
ATOM     37  C   UNL A   1      42.611  23.021  26.075  1.00  0.00     0.010 A 
ATOM     38  C   UNL A   1      42.150  22.391  28.367  1.00  0.00     0.010 A 
ATOM     39  C   UNL A   1      42.583  23.350  27.440  1.00  0.00    -0.014 A 
BRANCH  39  40
ATOM     40  C   UNL A   1      42.986  24.698  27.913  1.00  0.00     0.031 A 
ATOM     41  C   UNL A   1      41.949  25.748  28.191  1.00  0.00     0.074 A 
ATOM     42  C   UNL A   1      44.294  25.000  28.021  1.00  0.00     0.049 A 
ATOM     43  N   UNL A   1      42.111  26.997  28.545  1.00  0.00    -0.248 NA
ATOM     44  C   UNL A   1      40.543  25.348  28.023  1.00  0.00     0.031 C 
ATOM     45  C   UNL A   1      45.399  24.086  27.726  1.00  0.00     0.029 A 
ATOM     46  N   UNL A   1      44.915  26.166  28.392  1.00  0.00    -0.354 N 
ATOM     47  C   UNL A   1      40.835  27.536  28.626  1.00  0.00     0.074 A 
ATOM     48  C   UNL A   1      39.911  26.492  28.236  1.00  0.00     0.031 C 
ATOM     49  C   UNL A   1      46.563  24.721  27.943  1.00  0.00     0.029 A 
ATOM     50  C   UNL A   1      46.286  26.094  28.359  1.00  0.00     0.049 A 
ATOM     51  H   UNL A   1      44.425  26.976  28.657  1.00  0.00     0.167 HD
ATOM     52  C   UNL A   1      40.462  28.781  29.011  1.00  0.00     0.037 A 
ATOM     53  C   UNL A   1      47.216  27.028  28.625  1.00  0.00     0.037 A 
ATOM     54  C   UNL A   1      41.381  29.813  29.418  1.00  0.00     0.049 A 
ATOM     55  C   UNL A   1      46.783  28.400  29.055  1.00  0.00     0.074 A 
ATOM     56  C   UNL A   1      41.098  31.082  29.890  1.00  0.00     0.029 A 
ATOM     57  N   UNL A   1      42.763  29.693  29.393  1.00  0.00    -0.354 N 
ATOM     58  N   UNL A   1      45.569  28.874  29.200  1.00  0.00    -0.248 NA
ATOM     59  C   UNL A   1      47.847  29.364  29.366  1.00  0.00     0.031 C 
ATOM     60  C   UNL A   1      42.310  31.746  30.113  1.00  0.00     0.029 A 
ATOM     61  C   UNL A   1      43.348  30.875  29.820  1.00  0.00     0.049 A 
ATOM     62  H   UNL A   1      43.255  28.889  29.113  1.00  0.00     0.167 HD
ATOM     63  C   UNL A   1      45.722  30.183  29.637  1.00  0.00     0.074 A 
ATOM     64  C   UNL A   1      47.147  30.424  29.747  1.00  0.00     0.031 C 
ATOM     65  C   UNL A   1      44.767  31.103  29.920  1.00  0.00     0.037 A 
BRANCH  52  66
ATOM     66  C   UNL A   1      38.993  29.089  29.008  1.00  0.00     0.057 A 
ATOM     67  C   UNL A   1      38.209  28.960  30.162  1.00  0.00     0.134 A 
ATOM     68  C   UNL A   1      38.357  29.528  27.841  1.00  0.00     0.134 A 
ATOM     69  F   UNL A   1      38.755  28.533  31.311  1.00  0.00    -0.206 F 
ATOM     70  C   UNL A   1      36.838  29.224  30.147  1.00  0.00     0.040 A 
ATOM     71  C   UNL A   1      36.991  29.820  27.820  1.00  0.00     0.040 A 
ATOM     72  F   UNL A   1      39.048  29.679  26.701  1.00  0.00    -0.206 F 
ATOM     73  C   UNL A   1      36.226  29.658  28.973  1.00  0.00     0.006 A 
ENDBRANCH  52  66
BRANCH  53  74
ATOM     74  C   UNL A   1      48.655  26.682  28.514  1.00  0.00     0.057 A 
ATOM     75  C   UNL A   1      49.365  26.196  29.617  1.00  0.00     0.134 A 
ATOM     76  C   UNL A   1      49.344  26.806  27.303  1.00  0.00     0.134 A 
ATOM     77  F   UNL A   1      48.761  26.072  30.808  1.00  0.00    -0.206 F 
ATOM     78  C   UNL A   1      50.714  25.851  29.523  1.00  0.00     0.040 A 
ATOM     79  C   UNL A   1      50.688  26.445  27.188  1.00  0.00     0.040 A 
ATOM     80  F   UNL A   1      48.716  27.257  26.208  1.00  0.00    -0.206 F 
ATOM     81  C   UNL A   1      51.377  25.969  28.302  1.00  0.00     0.006 A 
ENDBRANCH  53  74
BRANCH  65  82
ATOM     82  C   UNL A   1      45.232  32.449  30.394  1.00  0.00     0.057 A 
ATOM     83  C   UNL A   1      45.446  33.509  29.506  1.00  0.00     0.134 A 
ATOM     84  C   UNL A   1      45.433  32.693  31.759  1.00  0.00     0.134 A 
ATOM     85  F   UNL A   1      45.285  33.335  28.186  1.00  0.00    -0.206 F 
ATOM     86  C   UNL A   1      45.863  34.764  29.957  1.00  0.00     0.040 A 
ATOM     87  C   UNL A   1      45.826  33.949  32.223  1.00  0.00     0.040 A 
ATOM     88  F   UNL A   1      45.239  31.721  32.661  1.00  0.00    -0.206 F 
ATOM     89  C   UNL A   1      46.047  34.988  31.321  1.00  0.00     0.006 A 
ENDBRANCH  65  82
ENDBRANCH  39  40
ENDBRANCH  31  34
ENDBRANCH  29  30
ENDBRANCH  28  29
ENDBRANCH  27  28
ENDBRANCH  26  27
ENDBRANCH   1  26
TORSDOF 18
ENDMDL
MODEL 3
REMARK VINA RESULT:     -11.1      2.561      7.734
REMARK SMILES O=C(C[C@H](NS(=O)(=O)c1cccs1)c1ccccc1Cl)NCCCCCCNC(=O)c1ccc(-c2c3nc(c(-c4c(F)cccc4F)c4ccc([nH]4)c(-c4c(F)cccc4F)c4nc(c(-c5c(F)cccc5F)c5ccc2[nH]5)C=C4)C=C3)cc1
REMARK SMILES IDX 23 1 22 2 21 3 1 4 2 5 3 7 4 8 14 9 15 10 19 11 16 12 18 13
REMARK SMILES IDX 20 14 17 15 5 16 6 18 7 19 8 20 9 21 10 22 13 23 11 24 12 25
REMARK SMILES IDX 24 26 25 27 26 28 27 29 28 30 29 31 30 33 31 34 32 35 84 36
REMARK SMILES IDX 33 37 83 38 34 39 35 40 36 41 77 42 37 43 82 44 76 45 78 46
REMARK SMILES IDX 38 47 81 48 75 49 74 50 39 52 65 53 48 54 64 55 49 56 52 57
REMARK SMILES IDX 63 58 79 59 50 60 51 61 62 63 80 64 53 65 40 66 41 67 46 68
REMARK SMILES IDX 42 69 43 70 45 71 47 72 44 73 66 74 67 75 72 76 68 77 69 78
REMARK SMILES IDX 71 79 73 80 70 81 54 82 55 83 60 84 56 85 57 86 59 87 61 88
REMARK SMILES IDX 58 89
REMARK H PARENT 21 6 5 17 28 32 78 51 52 62
REMARK Flexibility Score: inf
ROOT
ATOM      1  C   UNL A   1      31.505  26.871  25.292  1.00  0.00     0.021 C 
ENDROOT
BRANCH   1   2
ATOM      2  C   UNL A   1      30.224  26.185  25.766  1.00  0.00     0.116 C 
BRANCH   2   3
ATOM      3  N   UNL A   1      30.211  24.796  25.358  1.00  0.00    -0.356 N 
ATOM      4  O   UNL A   1      31.220  23.967  27.245  1.00  0.00    -0.275 OA
ATOM      5  C   UNL A   1      30.751  23.793  26.126  1.00  0.00     0.221 C 
ATOM      6  H   UNL A   1      29.797  24.561  24.496  1.00  0.00     0.163 HD
BRANCH   5   7
ATOM      7  C   UNL A   1      30.836  22.458  25.415  1.00  0.00     0.125 C 
BRANCH   7   8
ATOM      8  C   UNL A   1      32.076  22.341  24.508  1.00  0.00     0.111 C 
BRANCH   8   9
ATOM      9  C   UNL A   1      32.531  20.900  24.281  1.00  0.00    -0.011 A 
ATOM     10  C   UNL A   1      32.081  20.240  23.117  1.00  0.00     0.007 A 
ATOM     11  C   UNL A   1      33.307  20.158  25.193  1.00  0.00     0.045 A 
ATOM     12  C   UNL A   1      32.387  18.898  22.877  1.00  0.00     0.000 A 
ATOM     13  C   UNL A   1      33.643  18.824  24.926  1.00  0.00     0.021 A 
ATOM     14  Cl  UNL A   1      33.858  20.804  26.699  1.00  0.00    -0.084 Cl
ATOM     15  C   UNL A   1      33.177  18.193  23.776  1.00  0.00     0.002 A 
ENDBRANCH   8   9
BRANCH   8  16
ATOM     16  N   UNL A   1      31.849  23.010  23.206  1.00  0.00    -0.202 NA
ATOM     17  H   UNL A   1      31.018  23.593  23.308  1.00  0.00     0.142 HD
BRANCH  16  18
ATOM     18  S   UNL A   1      33.072  23.988  22.591  1.00  0.00     0.250 S 
ATOM     19  O   UNL A   1      33.565  23.355  21.396  1.00  0.00    -0.206 OA
ATOM     20  O   UNL A   1      32.578  25.353  22.582  1.00  0.00    -0.206 OA
BRANCH  18  21
ATOM     21  C   UNL A   1      34.422  24.008  23.747  1.00  0.00     0.134 A 
ATOM     22  C   UNL A   1      34.617  24.693  24.933  1.00  0.00     0.033 A 
ATOM     23  S   UNL A   1      35.747  22.987  23.385  1.00  0.00    -0.131 S 
ATOM     24  C   UNL A   1      35.852  24.355  25.558  1.00  0.00     0.013 A 
ATOM     25  C   UNL A   1      36.567  23.439  24.817  1.00  0.00     0.066 A 
ENDBRANCH  18  21
ENDBRANCH  16  18
ENDBRANCH   8  16
ENDBRANCH   7   8
ENDBRANCH   5   7
ENDBRANCH   2   3
ENDBRANCH   1   2
BRANCH   1  26
ATOM     26  C   UNL A   1      31.312  28.312  24.797  1.00  0.00     0.002 C 
BRANCH  26  27
ATOM     27  C   UNL A   1      32.429  29.285  25.183  1.00  0.00     0.002 C 
BRANCH  27  28
ATOM     28  C   UNL A   1      33.713  28.624  25.687  1.00  0.00     0.021 C 
BRANCH  28  29
ATOM     29  C   UNL A   1      33.903  28.664  27.200  1.00  0.00     0.116 C 
BRANCH  29  30
ATOM     30  N   UNL A   1      33.850  30.016  27.732  1.00  0.00    -0.352 N 
ATOM     31  C   UNL A   1      34.804  30.714  28.431  1.00  0.00     0.251 C 
ATOM     32  H   UNL A   1      33.009  30.502  27.568  1.00  0.00     0.163 HD
ATOM     33  O   UNL A   1      34.528  31.796  28.941  1.00  0.00    -0.269 OA
BRANCH  31  34
ATOM     34  C   UNL A   1      36.162  30.148  28.592  1.00  0.00     0.039 A 
ATOM     35  C   UNL A   1      37.045  30.197  27.510  1.00  0.00     0.014 A 
ATOM     36  C   UNL A   1      36.563  29.575  29.802  1.00  0.00     0.014 A 
ATOM     37  C   UNL A   1      38.352  29.731  27.662  1.00  0.00     0.010 A 
ATOM     38  C   UNL A   1      37.885  29.171  29.972  1.00  0.00     0.010 A 
ATOM     39  C   UNL A   1      38.792  29.246  28.905  1.00  0.00    -0.014 A 
BRANCH  39  40
ATOM     40  C   UNL A   1      40.202  28.830  29.111  1.00  0.00     0.031 A 
ATOM     41  C   UNL A   1      41.199  29.786  29.699  1.00  0.00     0.074 A 
ATOM     42  C   UNL A   1      40.602  27.612  28.696  1.00  0.00     0.049 A 
ATOM     43  N   UNL A   1      42.484  29.628  29.891  1.00  0.00    -0.248 NA
ATOM     44  C   UNL A   1      40.689  31.107  30.099  1.00  0.00     0.031 C 
ATOM     45  C   UNL A   1      39.743  26.613  28.059  1.00  0.00     0.029 A 
ATOM     46  N   UNL A   1      41.837  27.015  28.737  1.00  0.00    -0.354 N 
ATOM     47  C   UNL A   1      42.938  30.829  30.418  1.00  0.00     0.074 A 
ATOM     48  C   UNL A   1      41.802  31.724  30.469  1.00  0.00     0.031 C 
ATOM     49  C   UNL A   1      40.474  25.521  27.781  1.00  0.00     0.029 A 
ATOM     50  C   UNL A   1      41.856  25.756  28.190  1.00  0.00     0.049 A 
ATOM     51  H   UNL A   1      42.632  27.449  29.120  1.00  0.00     0.167 HD
ATOM     52  C   UNL A   1      44.184  31.151  30.843  1.00  0.00     0.037 A 
ATOM     53  C   UNL A   1      42.873  24.890  28.030  1.00  0.00     0.037 A 
ATOM     54  C   UNL A   1      45.309  30.253  30.811  1.00  0.00     0.049 A 
ATOM     55  C   UNL A   1      44.245  25.264  28.511  1.00  0.00     0.074 A 
ATOM     56  C   UNL A   1      46.594  30.463  31.280  1.00  0.00     0.029 A 
ATOM     57  N   UNL A   1      45.284  28.975  30.271  1.00  0.00    -0.354 N 
ATOM     58  N   UNL A   1      44.646  26.377  29.077  1.00  0.00    -0.248 NA
ATOM     59  C   UNL A   1      45.305  24.260  28.339  1.00  0.00     0.031 C 
ATOM     60  C   UNL A   1      47.358  29.326  30.987  1.00  0.00     0.029 A 
ATOM     61  C   UNL A   1      46.537  28.393  30.375  1.00  0.00     0.049 A 
ATOM     62  H   UNL A   1      44.493  28.546  29.873  1.00  0.00     0.167 HD
ATOM     63  C   UNL A   1      45.997  26.202  29.346  1.00  0.00     0.074 A 
ATOM     64  C   UNL A   1      46.344  24.870  28.894  1.00  0.00     0.031 C 
ATOM     65  C   UNL A   1      46.870  27.068  29.916  1.00  0.00     0.037 A 
BRANCH  52  66
ATOM     66  C   UNL A   1      44.388  32.538  31.379  1.00  0.00     0.057 A 
ATOM     67  C   UNL A   1      44.195  32.843  32.732  1.00  0.00     0.134 A 
ATOM     68  C   UNL A   1      44.793  33.579  30.534  1.00  0.00     0.134 A 
ATOM     69  F   UNL A   1      43.796  31.894  33.593  1.00  0.00    -0.206 F 
ATOM     70  C   UNL A   1      44.361  34.141  33.220  1.00  0.00     0.040 A 
ATOM     71  C   UNL A   1      44.989  34.876  31.015  1.00  0.00     0.040 A 
ATOM     72  F   UNL A   1      45.002  33.356  29.228  1.00  0.00    -0.206 F 
ATOM     73  C   UNL A   1      44.763  35.161  32.361  1.00  0.00     0.006 A 
ENDBRANCH  52  66
BRANCH  53  74
ATOM     74  C   UNL A   1      42.619  23.570  27.403  1.00  0.00     0.057 A 
ATOM     75  C   UNL A   1      42.740  23.394  26.020  1.00  0.00     0.134 A 
ATOM     76  C   UNL A   1      42.275  22.450  28.170  1.00  0.00     0.134 A 
ATOM     77  F   UNL A   1      43.051  24.434  25.232  1.00  0.00    -0.206 F 
ATOM     78  C   UNL A   1      42.519  22.154  25.419  1.00  0.00     0.040 A 
ATOM     79  C   UNL A   1      42.072  21.200  27.585  1.00  0.00     0.040 A 
ATOM     80  F   UNL A   1      42.153  22.553  29.501  1.00  0.00    -0.206 F 
ATOM     81  C   UNL A   1      42.191  21.050  26.205  1.00  0.00     0.006 A 
ENDBRANCH  53  74
BRANCH  65  82
ATOM     82  C   UNL A   1      48.283  26.594  30.100  1.00  0.00     0.057 A 
ATOM     83  C   UNL A   1      49.276  26.852  29.148  1.00  0.00     0.134 A 
ATOM     84  C   UNL A   1      48.658  25.903  31.259  1.00  0.00     0.134 A 
ATOM     85  F   UNL A   1      48.977  27.497  28.010  1.00  0.00    -0.206 F 
ATOM     86  C   UNL A   1      50.592  26.423  29.333  1.00  0.00     0.040 A 
ATOM     87  C   UNL A   1      49.974  25.490  31.466  1.00  0.00     0.040 A 
ATOM     88  F   UNL A   1      47.755  25.630  32.212  1.00  0.00    -0.206 F 
ATOM     89  C   UNL A   1      50.945  25.745  30.499  1.00  0.00     0.006 A 
ENDBRANCH  65  82
ENDBRANCH  39  40
ENDBRANCH  31  34
ENDBRANCH  29  30
ENDBRANCH  28  29
ENDBRANCH  27  28
ENDBRANCH  26  27
ENDBRANCH   1  26
TORSDOF 18
ENDMDL
