MODEL 1
REMARK VINA RESULT:     -11.9      0.000      0.000
REMARK SMILES Cc1ccccc1OCCN1C(=O)CC[C@H](C(=O)NCCCCCCNC(=O)c2ccc(-c3c4nc(c(-c5c(F)cccc5F)c5ccc([nH]5)c(-c5c(F)cccc5F)c5nc(c(-c6c(F)cccc6F)c6ccc3[nH]6)C=C5)C=C4)cc2)[C@@H]1c1ccco1
REMARK SMILES IDX 21 1 20 2 19 3 17 4 18 5 16 7 11 8 12 9 83 10 13 11 14 12
REMARK SMILES IDX 15 13 10 14 9 15 8 16 7 17 1 18 2 19 3 20 4 21 6 22 5 23
REMARK SMILES IDX 84 24 85 25 88 26 86 27 87 28 22 29 23 30 24 31 25 32 26 33
REMARK SMILES IDX 27 34 28 36 29 37 30 38 82 39 31 40 81 41 32 42 33 43 34 44
REMARK SMILES IDX 75 45 35 46 80 47 74 48 76 49 36 50 79 51 73 52 72 53 37 55
REMARK SMILES IDX 63 56 46 57 62 58 47 59 50 60 61 61 77 62 48 63 49 64 60 66
REMARK SMILES IDX 78 67 51 68 38 69 39 70 44 71 40 72 41 73 43 74 45 75 42 76
REMARK SMILES IDX 64 77 65 78 70 79 66 80 67 81 69 82 71 83 68 84 52 85 53 86
REMARK SMILES IDX 58 87 54 88 55 89 57 90 59 91 56 92
REMARK H PARENT 19 6 26 35 76 54 50 65
REMARK Flexibility Score: inf
ROOT
ATOM      1  C   UNL A   1      35.301  29.346  27.628  1.00  0.00     0.021 C 
ENDROOT
BRANCH   1   2
ATOM      2  C   UNL A   1      34.039  29.126  26.808  1.00  0.00     0.116 C 
BRANCH   2   3
ATOM      3  N   UNL A   1      34.227  29.088  25.377  1.00  0.00    -0.356 N 
ATOM      4  C   UNL A   1      33.267  29.018  24.410  1.00  0.00     0.225 C 
ATOM      5  O   UNL A   1      33.568  29.402  23.277  1.00  0.00    -0.275 OA
ATOM      6  H   UNL A   1      35.159  29.116  25.062  1.00  0.00     0.163 HD
BRANCH   4   7
ATOM      7  C   UNL A   1      31.859  28.487  24.687  1.00  0.00     0.109 C 
ATOM      8  N   UNL A   1      30.420  26.460  25.075  1.00  0.00    -0.328 N 
ATOM      9  C   UNL A   1      29.547  26.747  24.041  1.00  0.00     0.223 C 
ATOM     10  C   UNL A   1      31.782  27.018  25.128  1.00  0.00     0.164 C 
ATOM     11  O   UNL A   1      28.536  26.080  23.810  1.00  0.00    -0.275 OA
ATOM     12  C   UNL A   1      29.899  27.890  23.123  1.00  0.00     0.101 C 
ATOM     13  C   UNL A   1      30.801  28.967  23.691  1.00  0.00     0.026 C 
BRANCH   8  14
ATOM     14  C   UNL A   1      30.075  25.349  25.973  1.00  0.00     0.162 C 
BRANCH  14  15
ATOM     15  C   UNL A   1      30.553  23.962  25.520  1.00  0.00     0.251 C 
BRANCH  15  16
ATOM     16  O   UNL A   1      31.437  23.278  26.408  1.00  0.00    -0.491 OA
BRANCH  16  17
ATOM     17  C   UNL A   1      32.288  22.327  25.915  1.00  0.00     0.122 A 
ATOM     18  C   UNL A   1      34.122  22.510  27.698  1.00  0.00     0.048 C 
ATOM     19  C   UNL A   1      33.509  21.914  26.467  1.00  0.00    -0.009 A 
ATOM     20  C   UNL A   1      34.230  20.891  25.817  1.00  0.00     0.007 A 
ATOM     21  C   UNL A   1      33.786  20.338  24.616  1.00  0.00     0.001 A 
ATOM     22  C   UNL A   1      31.878  21.798  24.681  1.00  0.00     0.047 A 
ATOM     23  C   UNL A   1      32.615  20.806  24.037  1.00  0.00     0.004 A 
ENDBRANCH  16  17
ENDBRANCH  15  16
ENDBRANCH  14  15
ENDBRANCH   8  14
BRANCH  10  24
ATOM     24  C   UNL A   1      32.732  26.064  24.459  1.00  0.00     0.127 A 
ATOM     25  C   UNL A   1      33.873  25.416  24.899  1.00  0.00     0.048 A 
ATOM     26  O   UNL A   1      32.441  25.657  23.186  1.00  0.00    -0.467 OA
ATOM     27  C   UNL A   1      34.280  24.555  23.850  1.00  0.00     0.042 A 
ATOM     28  C   UNL A   1      33.364  24.724  22.839  1.00  0.00     0.195 A 
ENDBRANCH  10  24
ENDBRANCH   4   7
ENDBRANCH   2   3
ENDBRANCH   1   2
BRANCH   1  29
ATOM     29  C   UNL A   1      35.862  30.773  27.633  1.00  0.00     0.002 C 
BRANCH  29  30
ATOM     30  C   UNL A   1      34.912  31.922  28.016  1.00  0.00     0.002 C 
BRANCH  30  31
ATOM     31  C   UNL A   1      34.851  32.337  29.486  1.00  0.00     0.021 C 
BRANCH  31  32
ATOM     32  C   UNL A   1      34.767  33.829  29.738  1.00  0.00     0.116 C 
BRANCH  32  33
ATOM     33  N   UNL A   1      33.898  34.221  30.835  1.00  0.00    -0.352 N 
ATOM     34  C   UNL A   1      34.134  34.184  32.201  1.00  0.00     0.251 C 
ATOM     35  H   UNL A   1      33.013  34.561  30.571  1.00  0.00     0.163 HD
ATOM     36  O   UNL A   1      33.246  34.488  32.980  1.00  0.00    -0.269 OA
BRANCH  34  37
ATOM     37  C   UNL A   1      35.511  33.929  32.706  1.00  0.00     0.039 A 
ATOM     38  C   UNL A   1      36.560  34.650  32.120  1.00  0.00     0.014 A 
ATOM     39  C   UNL A   1      35.792  32.847  33.532  1.00  0.00     0.014 A 
ATOM     40  C   UNL A   1      37.846  34.115  32.129  1.00  0.00     0.010 A 
ATOM     41  C   UNL A   1      37.027  32.246  33.429  1.00  0.00     0.010 A 
ATOM     42  C   UNL A   1      38.035  32.849  32.672  1.00  0.00    -0.014 A 
BRANCH  42  43
ATOM     43  C   UNL A   1      39.202  32.016  32.415  1.00  0.00     0.031 A 
ATOM     44  C   UNL A   1      39.094  30.842  31.525  1.00  0.00     0.074 A 
ATOM     45  C   UNL A   1      40.410  32.429  32.863  1.00  0.00     0.049 A 
ATOM     46  N   UNL A   1      39.971  29.900  31.469  1.00  0.00    -0.248 NA
ATOM     47  C   UNL A   1      37.957  30.618  30.635  1.00  0.00     0.031 C 
ATOM     48  C   UNL A   1      41.723  31.973  32.414  1.00  0.00     0.029 A 
ATOM     49  N   UNL A   1      40.686  33.236  33.975  1.00  0.00    -0.354 N 
ATOM     50  C   UNL A   1      39.663  29.097  30.395  1.00  0.00     0.074 A 
ATOM     51  C   UNL A   1      38.379  29.565  29.928  1.00  0.00     0.031 C 
ATOM     52  C   UNL A   1      42.630  32.256  33.361  1.00  0.00     0.029 A 
ATOM     53  C   UNL A   1      41.903  32.758  34.512  1.00  0.00     0.049 A 
ATOM     54  H   UNL A   1      40.143  33.984  34.314  1.00  0.00     0.167 HD
ATOM     55  C   UNL A   1      40.582  28.196  29.953  1.00  0.00     0.037 A 
ATOM     56  C   UNL A   1      41.968  32.218  35.765  1.00  0.00     0.037 A 
ATOM     57  C   UNL A   1      41.777  28.210  30.786  1.00  0.00     0.049 A 
ATOM     58  C   UNL A   1      42.446  30.785  35.792  1.00  0.00     0.074 A 
ATOM     59  C   UNL A   1      42.984  28.883  30.679  1.00  0.00     0.029 A 
ATOM     60  N   UNL A   1      41.702  27.731  32.085  1.00  0.00    -0.354 N 
ATOM     61  N   UNL A   1      42.435  30.000  34.751  1.00  0.00    -0.248 NA
ATOM     62  C   UNL A   1      42.959  30.113  36.984  1.00  0.00     0.031 C 
ATOM     63  C   UNL A   1      43.615  28.850  31.946  1.00  0.00     0.029 A 
ATOM     64  C   UNL A   1      42.805  28.135  32.809  1.00  0.00     0.049 A 
ATOM     65  H   UNL A   1      40.968  27.180  32.439  1.00  0.00     0.167 HD
ATOM     66  C   UNL A   1      42.899  28.758  35.102  1.00  0.00     0.074 A 
ATOM     67  C   UNL A   1      43.228  28.884  36.507  1.00  0.00     0.031 C 
ATOM     68  C   UNL A   1      42.957  27.735  34.199  1.00  0.00     0.037 A 
BRANCH  55  69
ATOM     69  C   UNL A   1      40.494  27.490  28.627  1.00  0.00     0.057 A 
ATOM     70  C   UNL A   1      39.730  26.316  28.482  1.00  0.00     0.134 A 
ATOM     71  C   UNL A   1      41.161  27.905  27.462  1.00  0.00     0.134 A 
ATOM     72  F   UNL A   1      38.983  25.833  29.484  1.00  0.00    -0.206 F 
ATOM     73  C   UNL A   1      39.706  25.565  27.302  1.00  0.00     0.040 A 
ATOM     74  C   UNL A   1      41.188  27.136  26.290  1.00  0.00     0.040 A 
ATOM     75  F   UNL A   1      41.780  29.092  27.399  1.00  0.00    -0.206 F 
ATOM     76  C   UNL A   1      40.464  25.955  26.209  1.00  0.00     0.006 A 
ENDBRANCH  55  69
BRANCH  56  77
ATOM     77  C   UNL A   1      40.990  32.825  36.704  1.00  0.00     0.057 A 
ATOM     78  C   UNL A   1      41.305  34.070  37.277  1.00  0.00     0.134 A 
ATOM     79  C   UNL A   1      39.643  32.446  36.704  1.00  0.00     0.134 A 
ATOM     80  F   UNL A   1      42.581  34.490  37.310  1.00  0.00    -0.206 F 
ATOM     81  C   UNL A   1      40.316  34.956  37.708  1.00  0.00     0.040 A 
ATOM     82  C   UNL A   1      38.644  33.323  37.144  1.00  0.00     0.040 A 
ATOM     83  F   UNL A   1      39.262  31.284  36.156  1.00  0.00    -0.206 F 
ATOM     84  C   UNL A   1      38.976  34.597  37.605  1.00  0.00     0.006 A 
ENDBRANCH  56  77
BRANCH  68  85
ATOM     85  C   UNL A   1      43.214  26.276  34.492  1.00  0.00     0.057 A 
ATOM     86  C   UNL A   1      42.301  25.427  35.127  1.00  0.00     0.134 A 
ATOM     87  C   UNL A   1      44.358  25.636  33.958  1.00  0.00     0.134 A 
ATOM     88  F   UNL A   1      41.133  25.879  35.602  1.00  0.00    -0.206 F 
ATOM     89  C   UNL A   1      42.521  24.046  35.248  1.00  0.00     0.040 A 
ATOM     90  C   UNL A   1      44.560  24.255  34.023  1.00  0.00     0.040 A 
ATOM     91  F   UNL A   1      45.320  26.321  33.320  1.00  0.00    -0.206 F 
ATOM     92  C   UNL A   1      43.642  23.454  34.680  1.00  0.00     0.006 A 
ENDBRANCH  68  85
ENDBRANCH  42  43
ENDBRANCH  34  37
ENDBRANCH  32  33
ENDBRANCH  31  32
ENDBRANCH  30  31
ENDBRANCH  29  30
ENDBRANCH   1  29
TORSDOF 18
ENDMDL
MODEL 2
REMARK VINA RESULT:     -11.9      1.631      2.843
REMARK SMILES Cc1ccccc1OCCN1C(=O)CC[C@H](C(=O)NCCCCCCNC(=O)c2ccc(-c3c4nc(c(-c5c(F)cccc5F)c5ccc([nH]5)c(-c5c(F)cccc5F)c5nc(c(-c6c(F)cccc6F)c6ccc3[nH]6)C=C5)C=C4)cc2)[C@@H]1c1ccco1
REMARK SMILES IDX 21 1 20 2 19 3 17 4 18 5 16 7 11 8 12 9 83 10 13 11 14 12
REMARK SMILES IDX 15 13 10 14 9 15 8 16 7 17 1 18 2 19 3 20 4 21 6 22 5 23
REMARK SMILES IDX 84 24 85 25 88 26 86 27 87 28 22 29 23 30 24 31 25 32 26 33
REMARK SMILES IDX 27 34 28 36 29 37 30 38 82 39 31 40 81 41 32 42 33 43 34 44
REMARK SMILES IDX 75 45 35 46 80 47 74 48 76 49 36 50 79 51 73 52 72 53 37 55
REMARK SMILES IDX 63 56 46 57 62 58 47 59 50 60 61 61 77 62 48 63 49 64 60 66
REMARK SMILES IDX 78 67 51 68 38 69 39 70 44 71 40 72 41 73 43 74 45 75 42 76
REMARK SMILES IDX 64 77 65 78 70 79 66 80 67 81 69 82 71 83 68 84 52 85 53 86
REMARK SMILES IDX 58 87 54 88 55 89 57 90 59 91 56 92
REMARK H PARENT 19 6 26 35 76 54 50 65
REMARK Flexibility Score: inf
ROOT
ATOM      1  C   UNL A   1      32.598  27.886  27.071  1.00  0.00     0.021 C 
ENDROOT
BRANCH   1   2
ATOM      2  C   UNL A   1      31.598  27.375  26.045  1.00  0.00     0.116 C 
BRANCH   2   3
ATOM      3  N   UNL A   1      30.677  26.370  26.524  1.00  0.00    -0.356 N 
ATOM      4  C   UNL A   1      30.399  25.158  25.962  1.00  0.00     0.225 C 
ATOM      5  O   UNL A   1      29.925  24.284  26.692  1.00  0.00    -0.275 OA
ATOM      6  H   UNL A   1      30.194  26.585  27.353  1.00  0.00     0.163 HD
BRANCH   4   7
ATOM      7  C   UNL A   1      30.653  24.861  24.482  1.00  0.00     0.109 C 
ATOM      8  N   UNL A   1      32.195  23.825  22.785  1.00  0.00    -0.328 N 
ATOM      9  C   UNL A   1      32.332  24.984  22.042  1.00  0.00     0.223 C 
ATOM     10  C   UNL A   1      31.768  23.845  24.194  1.00  0.00     0.164 C 
ATOM     11  O   UNL A   1      32.960  25.032  20.981  1.00  0.00    -0.275 OA
ATOM     12  C   UNL A   1      31.739  26.251  22.602  1.00  0.00     0.101 C 
ATOM     13  C   UNL A   1      30.588  26.091  23.576  1.00  0.00     0.026 C 
BRANCH   8  14
ATOM     14  C   UNL A   1      32.769  22.589  22.237  1.00  0.00     0.162 C 
BRANCH  14  15
ATOM     15  C   UNL A   1      32.033  21.295  22.614  1.00  0.00     0.251 C 
BRANCH  15  16
ATOM     16  O   UNL A   1      32.383  20.712  23.870  1.00  0.00    -0.491 OA
BRANCH  16  17
ATOM     17  C   UNL A   1      33.081  19.536  23.898  1.00  0.00     0.122 A 
ATOM     18  C   UNL A   1      35.172  20.373  25.124  1.00  0.00     0.048 C 
ATOM     19  C   UNL A   1      34.339  19.310  24.474  1.00  0.00    -0.009 A 
ATOM     20  C   UNL A   1      34.879  18.008  24.421  1.00  0.00     0.007 A 
ATOM     21  C   UNL A   1      34.221  16.973  23.758  1.00  0.00     0.001 A 
ATOM     22  C   UNL A   1      32.452  18.498  23.191  1.00  0.00     0.047 A 
ATOM     23  C   UNL A   1      33.012  17.223  23.125  1.00  0.00     0.004 A 
ENDBRANCH  16  17
ENDBRANCH  15  16
ENDBRANCH  14  15
ENDBRANCH   8  14
BRANCH  10  24
ATOM     24  C   UNL A   1      32.984  23.912  25.077  1.00  0.00     0.127 A 
ATOM     25  C   UNL A   1      34.123  24.697  25.042  1.00  0.00     0.048 A 
ATOM     26  O   UNL A   1      33.011  23.122  26.192  1.00  0.00    -0.467 OA
ATOM     27  C   UNL A   1      34.867  24.384  26.207  1.00  0.00     0.042 A 
ATOM     28  C   UNL A   1      34.137  23.435  26.883  1.00  0.00     0.195 A 
ENDBRANCH  10  24
ENDBRANCH   4   7
ENDBRANCH   2   3
ENDBRANCH   1   2
BRANCH   1  29
ATOM     29  C   UNL A   1      34.047  28.028  26.588  1.00  0.00     0.002 C 
BRANCH  29  30
ATOM     30  C   UNL A   1      34.828  29.286  27.007  1.00  0.00     0.002 C 
BRANCH  30  31
ATOM     31  C   UNL A   1      34.027  30.551  27.318  1.00  0.00     0.021 C 
BRANCH  31  32
ATOM     32  C   UNL A   1      34.819  31.686  27.936  1.00  0.00     0.116 C 
BRANCH  32  33
ATOM     33  N   UNL A   1      34.020  32.795  28.432  1.00  0.00    -0.352 N 
ATOM     34  C   UNL A   1      34.252  33.632  29.513  1.00  0.00     0.251 C 
ATOM     35  H   UNL A   1      33.194  32.978  27.928  1.00  0.00     0.163 HD
ATOM     36  O   UNL A   1      33.421  34.470  29.823  1.00  0.00    -0.269 OA
BRANCH  34  37
ATOM     37  C   UNL A   1      35.577  33.613  30.192  1.00  0.00     0.039 A 
ATOM     38  C   UNL A   1      36.658  34.194  29.516  1.00  0.00     0.014 A 
ATOM     39  C   UNL A   1      35.804  32.834  31.319  1.00  0.00     0.014 A 
ATOM     40  C   UNL A   1      37.952  33.760  29.795  1.00  0.00     0.010 A 
ATOM     41  C   UNL A   1      37.060  32.301  31.506  1.00  0.00     0.010 A 
ATOM     42  C   UNL A   1      38.122  32.717  30.699  1.00  0.00    -0.014 A 
BRANCH  42  43
ATOM     43  C   UNL A   1      39.332  31.914  30.802  1.00  0.00     0.031 A 
ATOM     44  C   UNL A   1      39.460  30.661  30.031  1.00  0.00     0.074 A 
ATOM     45  C   UNL A   1      40.395  32.417  31.474  1.00  0.00     0.049 A 
ATOM     46  N   UNL A   1      40.344  29.755  30.272  1.00  0.00    -0.248 NA
ATOM     47  C   UNL A   1      38.567  30.308  28.930  1.00  0.00     0.031 C 
ATOM     48  C   UNL A   1      41.785  31.979  31.387  1.00  0.00     0.029 A 
ATOM     49  N   UNL A   1      40.386  33.334  32.534  1.00  0.00    -0.354 N 
ATOM     50  C   UNL A   1      40.311  28.846  29.241  1.00  0.00     0.074 A 
ATOM     51  C   UNL A   1      39.164  29.214  28.447  1.00  0.00     0.031 C 
ATOM     52  C   UNL A   1      42.439  32.385  32.485  1.00  0.00     0.029 A 
ATOM     53  C   UNL A   1      41.453  32.959  33.382  1.00  0.00     0.049 A 
ATOM     54  H   UNL A   1      39.764  34.086  32.663  1.00  0.00     0.167 HD
ATOM     55  C   UNL A   1      41.326  27.947  29.115  1.00  0.00     0.037 A 
ATOM     56  C   UNL A   1      41.234  32.538  34.663  1.00  0.00     0.037 A 
ATOM     57  C   UNL A   1      42.292  28.088  30.195  1.00  0.00     0.049 A 
ATOM     58  C   UNL A   1      41.721  31.135  34.941  1.00  0.00     0.074 A 
ATOM     59  C   UNL A   1      43.477  28.799  30.304  1.00  0.00     0.029 A 
ATOM     60  N   UNL A   1      41.926  27.727  31.482  1.00  0.00    -0.354 N 
ATOM     61  N   UNL A   1      41.969  30.259  34.008  1.00  0.00    -0.248 NA
ATOM     62  C   UNL A   1      41.954  30.598  36.280  1.00  0.00     0.031 C 
ATOM     63  C   UNL A   1      43.796  28.908  31.679  1.00  0.00     0.029 A 
ATOM     64  C   UNL A   1      42.820  28.242  32.398  1.00  0.00     0.049 A 
ATOM     65  H   UNL A   1      41.140  27.179  31.710  1.00  0.00     0.167 HD
ATOM     66  C   UNL A   1      42.363  29.075  34.577  1.00  0.00     0.074 A 
ATOM     67  C   UNL A   1      42.352  29.342  36.002  1.00  0.00     0.031 C 
ATOM     68  C   UNL A   1      42.652  27.977  33.818  1.00  0.00     0.037 A 
BRANCH  55  69
ATOM     69  C   UNL A   1      41.565  27.121  27.881  1.00  0.00     0.057 A 
ATOM     70  C   UNL A   1      42.397  27.590  26.845  1.00  0.00     0.134 A 
ATOM     71  C   UNL A   1      40.982  25.865  27.642  1.00  0.00     0.134 A 
ATOM     72  F   UNL A   1      43.078  28.739  26.954  1.00  0.00    -0.206 F 
ATOM     73  C   UNL A   1      42.561  26.910  25.633  1.00  0.00     0.040 A 
ATOM     74  C   UNL A   1      41.097  25.197  26.414  1.00  0.00     0.040 A 
ATOM     75  F   UNL A   1      40.312  25.214  28.603  1.00  0.00    -0.206 F 
ATOM     76  C   UNL A   1      41.883  25.724  25.400  1.00  0.00     0.006 A 
ENDBRANCH  55  69
BRANCH  56  77
ATOM     77  C   UNL A   1      40.051  33.186  35.287  1.00  0.00     0.057 A 
ATOM     78  C   UNL A   1      38.837  32.477  35.299  1.00  0.00     0.134 A 
ATOM     79  C   UNL A   1      40.189  34.231  36.206  1.00  0.00     0.134 A 
ATOM     80  F   UNL A   1      38.641  31.463  34.439  1.00  0.00    -0.206 F 
ATOM     81  C   UNL A   1      37.859  32.707  36.269  1.00  0.00     0.040 A 
ATOM     82  C   UNL A   1      39.208  34.477  37.176  1.00  0.00     0.040 A 
ATOM     83  F   UNL A   1      41.326  34.938  36.269  1.00  0.00    -0.206 F 
ATOM     84  C   UNL A   1      38.062  33.686  37.236  1.00  0.00     0.006 A 
ENDBRANCH  56  77
BRANCH  68  85
ATOM     85  C   UNL A   1      42.862  26.564  34.305  1.00  0.00     0.057 A 
ATOM     86  C   UNL A   1      41.916  25.831  35.032  1.00  0.00     0.134 A 
ATOM     87  C   UNL A   1      43.993  25.827  33.878  1.00  0.00     0.134 A 
ATOM     88  F   UNL A   1      40.756  26.374  35.424  1.00  0.00    -0.206 F 
ATOM     89  C   UNL A   1      42.094  24.473  35.337  1.00  0.00     0.040 A 
ATOM     90  C   UNL A   1      44.153  24.462  34.129  1.00  0.00     0.040 A 
ATOM     91  F   UNL A   1      44.982  26.395  33.171  1.00  0.00    -0.206 F 
ATOM     92  C   UNL A   1      43.204  23.780  34.871  1.00  0.00     0.006 A 
ENDBRANCH  68  85
ENDBRANCH  42  43
ENDBRANCH  34  37
ENDBRANCH  32  33
ENDBRANCH  31  32
ENDBRANCH  30  31
ENDBRANCH  29  30
ENDBRANCH   1  29
TORSDOF 18
ENDMDL
MODEL 3
REMARK VINA RESULT:     -11.8      4.933     10.190
REMARK SMILES Cc1ccccc1OCCN1C(=O)CC[C@H](C(=O)NCCCCCCNC(=O)c2ccc(-c3c4nc(c(-c5c(F)cccc5F)c5ccc([nH]5)c(-c5c(F)cccc5F)c5nc(c(-c6c(F)cccc6F)c6ccc3[nH]6)C=C5)C=C4)cc2)[C@@H]1c1ccco1
REMARK SMILES IDX 21 1 20 2 19 3 17 4 18 5 16 7 11 8 12 9 83 10 13 11 14 12
REMARK SMILES IDX 15 13 10 14 9 15 8 16 7 17 1 18 2 19 3 20 4 21 6 22 5 23
REMARK SMILES IDX 84 24 85 25 88 26 86 27 87 28 22 29 23 30 24 31 25 32 26 33
REMARK SMILES IDX 27 34 28 36 29 37 30 38 82 39 31 40 81 41 32 42 33 43 34 44
REMARK SMILES IDX 75 45 35 46 80 47 74 48 76 49 36 50 79 51 73 52 72 53 37 55
REMARK SMILES IDX 63 56 46 57 62 58 47 59 50 60 61 61 77 62 48 63 49 64 60 66
REMARK SMILES IDX 78 67 51 68 38 69 39 70 44 71 40 72 41 73 43 74 45 75 42 76
REMARK SMILES IDX 64 77 65 78 70 79 66 80 67 81 69 82 71 83 68 84 52 85 53 86
REMARK SMILES IDX 58 87 54 88 55 89 57 90 59 91 56 92
REMARK H PARENT 19 6 26 35 76 54 50 65
REMARK Flexibility Score: inf
ROOT
ATOM      1  C   UNL A   1      38.145  22.724  26.015  1.00  0.00     0.021 C 
ENDROOT
BRANCH   1   2
ATOM      2  C   UNL A   1      36.869  23.551  26.063  1.00  0.00     0.116 C 
BRANCH   2   3
ATOM      3  N   UNL A   1      35.806  23.006  26.875  1.00  0.00    -0.356 N 
ATOM      4  C   UNL A   1      34.854  22.102  26.504  1.00  0.00     0.225 C 
ATOM      5  O   UNL A   1      34.303  21.453  27.398  1.00  0.00    -0.275 OA
ATOM      6  H   UNL A   1      35.764  23.324  27.805  1.00  0.00     0.163 HD
BRANCH   4   7
ATOM      7  C   UNL A   1      34.458  21.877  25.043  1.00  0.00     0.109 C 
ATOM      8  N   UNL A   1      33.111  22.698  23.084  1.00  0.00    -0.328 N 
ATOM      9  C   UNL A   1      32.432  21.505  22.910  1.00  0.00     0.223 C 
ATOM     10  C   UNL A   1      33.752  23.057  24.360  1.00  0.00     0.164 C 
ATOM     11  O   UNL A   1      31.647  21.306  21.980  1.00  0.00    -0.275 OA
ATOM     12  C   UNL A   1      32.622  20.433  23.953  1.00  0.00     0.101 C 
ATOM     13  C   UNL A   1      33.910  20.479  24.751  1.00  0.00     0.026 C 
BRANCH   8  14
ATOM     14  C   UNL A   1      32.930  23.741  22.066  1.00  0.00     0.162 C 
BRANCH  14  15
ATOM     15  C   UNL A   1      31.728  24.672  22.280  1.00  0.00     0.251 C 
BRANCH  15  16
ATOM     16  O   UNL A   1      31.874  26.012  21.805  1.00  0.00    -0.491 OA
BRANCH  16  17
ATOM     17  C   UNL A   1      32.158  27.015  22.689  1.00  0.00     0.122 A 
ATOM     18  C   UNL A   1      29.754  27.640  23.327  1.00  0.00     0.048 C 
ATOM     19  C   UNL A   1      31.243  27.775  23.432  1.00  0.00    -0.009 A 
ATOM     20  C   UNL A   1      31.742  28.752  24.318  1.00  0.00     0.007 A 
ATOM     21  C   UNL A   1      33.108  29.015  24.418  1.00  0.00     0.001 A 
ATOM     22  C   UNL A   1      33.526  27.324  22.762  1.00  0.00     0.047 A 
ATOM     23  C   UNL A   1      34.002  28.311  23.623  1.00  0.00     0.004 A 
ENDBRANCH  16  17
ENDBRANCH  15  16
ENDBRANCH  14  15
ENDBRANCH   8  14
BRANCH  10  24
ATOM     24  C   UNL A   1      32.776  23.833  25.201  1.00  0.00     0.127 A 
ATOM     25  C   UNL A   1      32.782  25.130  25.683  1.00  0.00     0.048 A 
ATOM     26  O   UNL A   1      31.597  23.229  25.538  1.00  0.00    -0.467 OA
ATOM     27  C   UNL A   1      31.534  25.330  26.324  1.00  0.00     0.042 A 
ATOM     28  C   UNL A   1      30.842  24.150  26.189  1.00  0.00     0.195 A 
ENDBRANCH  10  24
ENDBRANCH   4   7
ENDBRANCH   2   3
ENDBRANCH   1   2
BRANCH   1  29
ATOM     29  C   UNL A   1      39.355  23.306  26.757  1.00  0.00     0.002 C 
BRANCH  29  30
ATOM     30  C   UNL A   1      40.483  22.343  27.166  1.00  0.00     0.002 C 
BRANCH  30  31
ATOM     31  C   UNL A   1      41.545  22.004  26.120  1.00  0.00     0.021 C 
BRANCH  31  32
ATOM     32  C   UNL A   1      42.518  20.909  26.511  1.00  0.00     0.116 C 
BRANCH  32  33
ATOM     33  N   UNL A   1      43.239  20.302  25.404  1.00  0.00    -0.352 N 
ATOM     34  C   UNL A   1      44.218  20.847  24.588  1.00  0.00     0.251 C 
ATOM     35  H   UNL A   1      42.996  19.369  25.205  1.00  0.00     0.163 HD
ATOM     36  O   UNL A   1      44.660  20.199  23.652  1.00  0.00    -0.269 OA
BRANCH  34  37
ATOM     37  C   UNL A   1      44.840  22.151  24.948  1.00  0.00     0.039 A 
ATOM     38  C   UNL A   1      45.585  22.207  26.134  1.00  0.00     0.014 A 
ATOM     39  C   UNL A   1      44.493  23.325  24.292  1.00  0.00     0.014 A 
ATOM     40  C   UNL A   1      45.722  23.425  26.797  1.00  0.00     0.010 A 
ATOM     41  C   UNL A   1      44.506  24.504  25.005  1.00  0.00     0.010 A 
ATOM     42  C   UNL A   1      45.063  24.537  26.286  1.00  0.00    -0.014 A 
BRANCH  42  43
ATOM     43  C   UNL A   1      44.796  25.749  27.048  1.00  0.00     0.031 A 
ATOM     44  C   UNL A   1      43.444  26.345  27.045  1.00  0.00     0.074 A 
ATOM     45  C   UNL A   1      45.750  26.219  27.885  1.00  0.00     0.049 A 
ATOM     46  N   UNL A   1      43.186  27.545  27.438  1.00  0.00    -0.248 NA
ATOM     47  C   UNL A   1      42.261  25.636  26.563  1.00  0.00     0.031 C 
ATOM     48  C   UNL A   1      45.575  27.157  28.990  1.00  0.00     0.029 A 
ATOM     49  N   UNL A   1      47.140  26.068  27.777  1.00  0.00    -0.354 N 
ATOM     50  C   UNL A   1      41.820  27.685  27.502  1.00  0.00     0.074 A 
ATOM     51  C   UNL A   1      41.286  26.480  26.914  1.00  0.00     0.031 C 
ATOM     52  C   UNL A   1      46.760  27.713  29.282  1.00  0.00     0.029 A 
ATOM     53  C   UNL A   1      47.702  27.266  28.273  1.00  0.00     0.049 A 
ATOM     54  H   UNL A   1      47.626  25.287  27.426  1.00  0.00     0.167 HD
ATOM     55  C   UNL A   1      41.292  28.761  28.148  1.00  0.00     0.037 A 
ATOM     56  C   UNL A   1      48.432  28.098  27.472  1.00  0.00     0.037 A 
ATOM     57  C   UNL A   1      42.338  29.649  28.635  1.00  0.00     0.049 A 
ATOM     58  C   UNL A   1      47.856  29.490  27.347  1.00  0.00     0.074 A 
ATOM     59  C   UNL A   1      42.989  29.749  29.854  1.00  0.00     0.029 A 
ATOM     60  N   UNL A   1      43.091  30.371  27.722  1.00  0.00    -0.354 N 
ATOM     61  N   UNL A   1      46.619  29.788  27.630  1.00  0.00    -0.248 NA
ATOM     62  C   UNL A   1      48.612  30.651  26.881  1.00  0.00     0.031 C 
ATOM     63  C   UNL A   1      44.175  30.497  29.656  1.00  0.00     0.029 A 
ATOM     64  C   UNL A   1      44.226  30.872  28.326  1.00  0.00     0.049 A 
ATOM     65  H   UNL A   1      42.850  30.509  26.778  1.00  0.00     0.167 HD
ATOM     66  C   UNL A   1      46.395  31.119  27.384  1.00  0.00     0.074 A 
ATOM     67  C   UNL A   1      47.678  31.619  26.931  1.00  0.00     0.031 C 
ATOM     68  C   UNL A   1      45.165  31.683  27.568  1.00  0.00     0.037 A 
BRANCH  55  69
ATOM     69  C   UNL A   1      39.846  28.870  28.551  1.00  0.00     0.057 A 
ATOM     70  C   UNL A   1      38.874  29.329  27.639  1.00  0.00     0.134 A 
ATOM     71  C   UNL A   1      39.353  28.563  29.830  1.00  0.00     0.134 A 
ATOM     72  F   UNL A   1      39.176  29.596  26.362  1.00  0.00    -0.206 F 
ATOM     73  C   UNL A   1      37.540  29.553  27.999  1.00  0.00     0.040 A 
ATOM     74  C   UNL A   1      38.033  28.831  30.218  1.00  0.00     0.040 A 
ATOM     75  F   UNL A   1      40.121  27.954  30.744  1.00  0.00    -0.206 F 
ATOM     76  C   UNL A   1      37.121  29.336  29.302  1.00  0.00     0.006 A 
ENDBRANCH  55  69
BRANCH  56  77
ATOM     77  C   UNL A   1      49.180  27.369  26.416  1.00  0.00     0.057 A 
ATOM     78  C   UNL A   1      48.637  27.341  25.119  1.00  0.00     0.134 A 
ATOM     79  C   UNL A   1      50.547  27.100  26.541  1.00  0.00     0.134 A 
ATOM     80  F   UNL A   1      47.330  27.589  24.931  1.00  0.00    -0.206 F 
ATOM     81  C   UNL A   1      49.439  27.184  23.987  1.00  0.00     0.040 A 
ATOM     82  C   UNL A   1      51.358  26.931  25.412  1.00  0.00     0.040 A 
ATOM     83  F   UNL A   1      51.140  27.131  27.743  1.00  0.00    -0.206 F 
ATOM     84  C   UNL A   1      50.813  27.017  24.132  1.00  0.00     0.006 A 
ENDBRANCH  56  77
BRANCH  68  85
ATOM     85  C   UNL A   1      44.717  33.053  27.120  1.00  0.00     0.057 A 
ATOM     86  C   UNL A   1      44.028  33.307  25.928  1.00  0.00     0.134 A 
ATOM     87  C   UNL A   1      44.818  34.157  28.001  1.00  0.00     0.134 A 
ATOM     88  F   UNL A   1      43.778  32.336  25.040  1.00  0.00    -0.206 F 
ATOM     89  C   UNL A   1      43.502  34.571  25.621  1.00  0.00     0.040 A 
ATOM     90  C   UNL A   1      44.250  35.404  27.730  1.00  0.00     0.040 A 
ATOM     91  F   UNL A   1      45.449  34.064  29.182  1.00  0.00    -0.206 F 
ATOM     92  C   UNL A   1      43.596  35.618  26.529  1.00  0.00     0.006 A 
ENDBRANCH  68  85
ENDBRANCH  42  43
ENDBRANCH  34  37
ENDBRANCH  32  33
ENDBRANCH  31  32
ENDBRANCH  30  31
ENDBRANCH  29  30
ENDBRANCH   1  29
TORSDOF 18
ENDMDL
