MODEL 1
REMARK VINA RESULT:     -10.1      0.000      0.000
REMARK SMILES CC(C)[N@@H+]1CCC[C@H]1CC(=O)NCCCCCCNC(=O)c1ccc(-c2c3nc(c(-c4c(F)cccc4F)c4ccc([nH]4)c(-c4c(F)cccc4F)c4nc(c(-c5c(F)cccc5F)c5ccc2[nH]5)C=C4)C=C3)cc1
REMARK SMILES IDX 15 1 14 2 13 3 12 4 10 5 11 6 9 8 8 9 4 10 5 11 6 13 7 14
REMARK SMILES IDX 2 15 1 16 3 17 16 18 17 19 18 20 19 21 20 22 21 24 22 25
REMARK SMILES IDX 23 26 75 27 24 28 74 29 25 30 26 31 27 32 68 33 28 34 73 35
REMARK SMILES IDX 67 36 69 37 29 38 72 39 66 40 65 41 30 43 56 44 39 45 55 46
REMARK SMILES IDX 40 47 43 48 54 49 70 50 41 51 42 52 53 54 71 55 44 56 31 57
REMARK SMILES IDX 32 58 37 59 33 60 34 61 36 62 38 63 35 64 57 65 58 66 63 67
REMARK SMILES IDX 59 68 60 69 62 70 64 71 61 72 45 73 46 74 51 75 47 76 48 77
REMARK SMILES IDX 50 78 52 79 49 80
REMARK H PARENT 12 7 4 12 19 23 69 42 43 53
REMARK Flexibility Score: inf
ROOT
ATOM      1  C   UNL A   1      33.778  22.319  23.482  1.00  0.00     0.002 C 
ENDROOT
BRANCH   1   2
ATOM      2  C   UNL A   1      32.557  21.490  23.884  1.00  0.00     0.021 C 
BRANCH   2   3
ATOM      3  C   UNL A   1      32.501  21.122  25.366  1.00  0.00     0.116 C 
BRANCH   3   4
ATOM      4  N   UNL A   1      31.411  21.831  26.003  1.00  0.00    -0.356 N 
ATOM      5  C   UNL A   1      31.398  23.029  26.655  1.00  0.00     0.225 C 
ATOM      6  O   UNL A   1      30.363  23.331  27.254  1.00  0.00    -0.275 OA
ATOM      7  H   UNL A   1      30.540  21.376  25.957  1.00  0.00     0.163 HD
BRANCH   5   8
ATOM      8  C   UNL A   1      32.565  23.994  26.547  1.00  0.00     0.164 C 
BRANCH   8   9
ATOM      9  C   UNL A   1      32.518  25.190  25.569  1.00  0.00     0.193 C 
ATOM     10  N   UNL A   1      31.277  25.990  25.574  1.00  0.00    -0.330 N 
ATOM     11  C   UNL A   1      31.556  27.117  26.469  1.00  0.00     0.262 C 
ATOM     12  H   UNL A   1      30.485  25.450  25.924  1.00  0.00     0.348 HD
ATOM     13  C   UNL A   1      32.977  27.521  26.148  1.00  0.00     0.067 C 
ATOM     14  C   UNL A   1      33.650  26.215  25.746  1.00  0.00     0.071 C 
BRANCH  10  15
ATOM     15  C   UNL A   1      30.758  26.341  24.225  1.00  0.00     0.177 C 
ATOM     16  C   UNL A   1      31.411  25.535  23.089  1.00  0.00     0.075 C 
ATOM     17  C   UNL A   1      29.233  26.324  23.998  1.00  0.00     0.075 C 
ENDBRANCH  10  15
ENDBRANCH   8   9
ENDBRANCH   5   8
ENDBRANCH   3   4
ENDBRANCH   2   3
ENDBRANCH   1   2
BRANCH   1  18
ATOM     18  C   UNL A   1      35.016  22.102  24.356  1.00  0.00     0.002 C 
BRANCH  18  19
ATOM     19  C   UNL A   1      35.883  23.343  24.586  1.00  0.00     0.021 C 
BRANCH  19  20
ATOM     20  C   UNL A   1      36.520  23.445  25.971  1.00  0.00     0.116 C 
BRANCH  20  21
ATOM     21  N   UNL A   1      37.618  22.507  26.136  1.00  0.00    -0.352 N 
ATOM     22  C   UNL A   1      38.939  22.739  26.420  1.00  0.00     0.251 C 
ATOM     23  H   UNL A   1      37.375  21.559  26.028  1.00  0.00     0.163 HD
ATOM     24  O   UNL A   1      39.758  21.833  26.297  1.00  0.00    -0.269 OA
BRANCH  22  25
ATOM     25  C   UNL A   1      39.389  24.076  26.866  1.00  0.00     0.039 A 
ATOM     26  C   UNL A   1      39.204  24.432  28.205  1.00  0.00     0.014 A 
ATOM     27  C   UNL A   1      39.937  24.994  25.967  1.00  0.00     0.014 A 
ATOM     28  C   UNL A   1      39.608  25.693  28.650  1.00  0.00     0.010 A 
ATOM     29  C   UNL A   1      40.399  26.226  26.425  1.00  0.00     0.010 A 
ATOM     30  C   UNL A   1      40.229  26.593  27.768  1.00  0.00    -0.014 A 
BRANCH  30  31
ATOM     31  C   UNL A   1      40.684  27.925  28.237  1.00  0.00     0.031 A 
ATOM     32  C   UNL A   1      42.149  28.267  28.251  1.00  0.00     0.074 A 
ATOM     33  C   UNL A   1      39.781  28.816  28.691  1.00  0.00     0.049 A 
ATOM     34  N   UNL A   1      42.738  29.366  28.649  1.00  0.00    -0.248 NA
ATOM     35  C   UNL A   1      43.076  27.227  27.777  1.00  0.00     0.031 C 
ATOM     36  C   UNL A   1      38.338  28.589  28.774  1.00  0.00     0.029 A 
ATOM     37  N   UNL A   1      39.946  30.091  29.171  1.00  0.00    -0.354 N 
ATOM     38  C   UNL A   1      44.100  29.146  28.485  1.00  0.00     0.074 A 
ATOM     39  C   UNL A   1      44.254  27.791  28.000  1.00  0.00     0.031 C 
ATOM     40  C   UNL A   1      37.746  29.696  29.252  1.00  0.00     0.029 A 
ATOM     41  C   UNL A   1      38.769  30.698  29.535  1.00  0.00     0.049 A 
ATOM     42  H   UNL A   1      40.825  30.528  29.247  1.00  0.00     0.167 HD
ATOM     43  C   UNL A   1      45.128  30.002  28.697  1.00  0.00     0.037 A 
ATOM     44  C   UNL A   1      38.541  31.926  30.038  1.00  0.00     0.037 A 
ATOM     45  C   UNL A   1      44.974  31.358  29.152  1.00  0.00     0.049 A 
ATOM     46  C   UNL A   1      39.698  32.860  30.256  1.00  0.00     0.074 A 
ATOM     47  C   UNL A   1      45.948  32.324  29.334  1.00  0.00     0.029 A 
ATOM     48  N   UNL A   1      43.763  31.942  29.496  1.00  0.00    -0.354 N 
ATOM     49  N   UNL A   1      40.974  32.661  30.031  1.00  0.00    -0.248 NA
ATOM     50  C   UNL A   1      39.381  34.192  30.791  1.00  0.00     0.031 C 
ATOM     51  C   UNL A   1      45.333  33.481  29.824  1.00  0.00     0.029 A 
ATOM     52  C   UNL A   1      43.969  33.248  29.910  1.00  0.00     0.049 A 
ATOM     53  H   UNL A   1      42.888  31.494  29.453  1.00  0.00     0.167 HD
ATOM     54  C   UNL A   1      41.609  33.847  30.374  1.00  0.00     0.074 A 
ATOM     55  C   UNL A   1      40.576  34.766  30.808  1.00  0.00     0.031 C 
ATOM     56  C   UNL A   1      42.930  34.149  30.337  1.00  0.00     0.037 A 
BRANCH  43  57
ATOM     57  C   UNL A   1      46.515  29.494  28.431  1.00  0.00     0.057 A 
ATOM     58  C   UNL A   1      47.281  28.883  29.433  1.00  0.00     0.134 A 
ATOM     59  C   UNL A   1      47.080  29.589  27.153  1.00  0.00     0.134 A 
ATOM     60  F   UNL A   1      46.803  28.771  30.681  1.00  0.00    -0.206 F 
ATOM     61  C   UNL A   1      48.569  28.407  29.179  1.00  0.00     0.040 A 
ATOM     62  C   UNL A   1      48.357  29.094  26.882  1.00  0.00     0.040 A 
ATOM     63  F   UNL A   1      46.399  30.157  26.147  1.00  0.00    -0.206 F 
ATOM     64  C   UNL A   1      49.108  28.507  27.898  1.00  0.00     0.006 A 
ENDBRANCH  43  57
BRANCH  44  65
ATOM     65  C   UNL A   1      37.154  32.355  30.343  1.00  0.00     0.057 A 
ATOM     66  C   UNL A   1      36.566  32.063  31.580  1.00  0.00     0.134 A 
ATOM     67  C   UNL A   1      36.383  33.060  29.411  1.00  0.00     0.134 A 
ATOM     68  F   UNL A   1      37.249  31.374  32.506  1.00  0.00    -0.206 F 
ATOM     69  C   UNL A   1      35.255  32.441  31.873  1.00  0.00     0.040 A 
ATOM     70  C   UNL A   1      35.079  33.463  29.699  1.00  0.00     0.040 A 
ATOM     71  F   UNL A   1      36.893  33.375  28.211  1.00  0.00    -0.206 F 
ATOM     72  C   UNL A   1      34.509  33.148  30.931  1.00  0.00     0.006 A 
ENDBRANCH  44  65
BRANCH  56  73
ATOM     73  C   UNL A   1      43.327  35.532  30.755  1.00  0.00     0.057 A 
ATOM     74  C   UNL A   1      43.426  36.582  29.833  1.00  0.00     0.134 A 
ATOM     75  C   UNL A   1      43.585  35.826  32.100  1.00  0.00     0.134 A 
ATOM     76  F   UNL A   1      43.205  36.362  28.528  1.00  0.00    -0.206 F 
ATOM     77  C   UNL A   1      43.788  37.869  30.229  1.00  0.00     0.040 A 
ATOM     78  C   UNL A   1      43.924  37.115  32.514  1.00  0.00     0.040 A 
ATOM     79  F   UNL A   1      43.500  34.868  33.035  1.00  0.00    -0.206 F 
ATOM     80  C   UNL A   1      44.033  38.140  31.575  1.00  0.00     0.006 A 
ENDBRANCH  56  73
ENDBRANCH  30  31
ENDBRANCH  22  25
ENDBRANCH  20  21
ENDBRANCH  19  20
ENDBRANCH  18  19
ENDBRANCH   1  18
TORSDOF 15
ENDMDL
MODEL 2
REMARK VINA RESULT:     -10.1      4.065      8.604
REMARK SMILES CC(C)[N@@H+]1CCC[C@H]1CC(=O)NCCCCCCNC(=O)c1ccc(-c2c3nc(c(-c4c(F)cccc4F)c4ccc([nH]4)c(-c4c(F)cccc4F)c4nc(c(-c5c(F)cccc5F)c5ccc2[nH]5)C=C4)C=C3)cc1
REMARK SMILES IDX 15 1 14 2 13 3 12 4 10 5 11 6 9 8 8 9 4 10 5 11 6 13 7 14
REMARK SMILES IDX 2 15 1 16 3 17 16 18 17 19 18 20 19 21 20 22 21 24 22 25
REMARK SMILES IDX 23 26 75 27 24 28 74 29 25 30 26 31 27 32 68 33 28 34 73 35
REMARK SMILES IDX 67 36 69 37 29 38 72 39 66 40 65 41 30 43 56 44 39 45 55 46
REMARK SMILES IDX 40 47 43 48 54 49 70 50 41 51 42 52 53 54 71 55 44 56 31 57
REMARK SMILES IDX 32 58 37 59 33 60 34 61 36 62 38 63 35 64 57 65 58 66 63 67
REMARK SMILES IDX 59 68 60 69 62 70 64 71 61 72 45 73 46 74 51 75 47 76 48 77
REMARK SMILES IDX 50 78 52 79 49 80
REMARK H PARENT 12 7 4 12 19 23 69 42 43 53
REMARK Flexibility Score: inf
ROOT
ATOM      1  C   UNL A   1      32.251  29.872  27.221  1.00  0.00     0.002 C 
ENDROOT
BRANCH   1   2
ATOM      2  C   UNL A   1      31.650  28.516  27.591  1.00  0.00     0.021 C 
BRANCH   2   3
ATOM      3  C   UNL A   1      31.522  27.539  26.422  1.00  0.00     0.116 C 
BRANCH   3   4
ATOM      4  N   UNL A   1      31.333  26.196  26.929  1.00  0.00    -0.356 N 
ATOM      5  C   UNL A   1      31.958  25.031  26.596  1.00  0.00     0.225 C 
ATOM      6  O   UNL A   1      31.490  23.989  27.063  1.00  0.00    -0.275 OA
ATOM      7  H   UNL A   1      30.643  26.111  27.626  1.00  0.00     0.163 HD
BRANCH   5   8
ATOM      8  C   UNL A   1      33.240  25.032  25.782  1.00  0.00     0.164 C 
BRANCH   8   9
ATOM      9  C   UNL A   1      34.217  23.835  25.838  1.00  0.00     0.193 C 
ATOM     10  N   UNL A   1      33.781  22.603  25.152  1.00  0.00    -0.330 N 
ATOM     11  C   UNL A   1      34.404  22.665  23.827  1.00  0.00     0.262 C 
ATOM     12  H   UNL A   1      32.765  22.563  25.062  1.00  0.00     0.348 HD
ATOM     13  C   UNL A   1      35.795  23.203  24.080  1.00  0.00     0.067 C 
ATOM     14  C   UNL A   1      35.621  24.121  25.283  1.00  0.00     0.071 C 
BRANCH  10  15
ATOM     15  C   UNL A   1      34.007  21.349  25.921  1.00  0.00     0.177 C 
ATOM     16  C   UNL A   1      34.038  21.563  27.445  1.00  0.00     0.075 C 
ATOM     17  C   UNL A   1      33.099  20.138  25.634  1.00  0.00     0.075 C 
ENDBRANCH  10  15
ENDBRANCH   8   9
ENDBRANCH   5   8
ENDBRANCH   3   4
ENDBRANCH   2   3
ENDBRANCH   1   2
BRANCH   1  18
ATOM     18  C   UNL A   1      31.375  30.735  26.309  1.00  0.00     0.002 C 
BRANCH  18  19
ATOM     19  C   UNL A   1      31.325  32.224  26.662  1.00  0.00     0.021 C 
BRANCH  19  20
ATOM     20  C   UNL A   1      32.679  32.875  26.938  1.00  0.00     0.116 C 
BRANCH  20  21
ATOM     21  N   UNL A   1      32.544  34.134  27.649  1.00  0.00    -0.352 N 
ATOM     22  C   UNL A   1      33.182  34.582  28.777  1.00  0.00     0.251 C 
ATOM     23  H   UNL A   1      31.894  34.764  27.260  1.00  0.00     0.163 HD
ATOM     24  O   UNL A   1      32.770  35.583  29.356  1.00  0.00    -0.269 OA
BRANCH  22  25
ATOM     25  C   UNL A   1      34.361  33.865  29.309  1.00  0.00     0.039 A 
ATOM     26  C   UNL A   1      35.633  34.260  28.885  1.00  0.00     0.014 A 
ATOM     27  C   UNL A   1      34.218  32.776  30.173  1.00  0.00     0.014 A 
ATOM     28  C   UNL A   1      36.763  33.591  29.362  1.00  0.00     0.010 A 
ATOM     29  C   UNL A   1      35.347  32.151  30.698  1.00  0.00     0.010 A 
ATOM     30  C   UNL A   1      36.630  32.545  30.290  1.00  0.00    -0.014 A 
BRANCH  30  31
ATOM     31  C   UNL A   1      37.826  31.844  30.821  1.00  0.00     0.031 A 
ATOM     32  C   UNL A   1      38.390  32.216  32.165  1.00  0.00     0.074 A 
ATOM     33  C   UNL A   1      38.431  30.900  30.075  1.00  0.00     0.049 A 
ATOM     34  N   UNL A   1      39.440  31.736  32.783  1.00  0.00    -0.248 NA
ATOM     35  C   UNL A   1      37.697  33.284  32.902  1.00  0.00     0.031 C 
ATOM     36  C   UNL A   1      38.011  30.482  28.737  1.00  0.00     0.029 A 
ATOM     37  N   UNL A   1      39.531  30.122  30.337  1.00  0.00    -0.354 N 
ATOM     38  C   UNL A   1      39.539  32.450  33.970  1.00  0.00     0.074 A 
ATOM     39  C   UNL A   1      38.475  33.430  33.965  1.00  0.00     0.031 C 
ATOM     40  C   UNL A   1      38.829  29.508  28.305  1.00  0.00     0.029 A 
ATOM     41  C   UNL A   1      39.845  29.252  29.321  1.00  0.00     0.049 A 
ATOM     42  H   UNL A   1      40.047  30.183  31.173  1.00  0.00     0.167 HD
ATOM     43  C   UNL A   1      40.423  32.288  34.985  1.00  0.00     0.037 A 
ATOM     44  C   UNL A   1      40.839  28.350  29.222  1.00  0.00     0.037 A 
ATOM     45  C   UNL A   1      41.463  31.295  35.003  1.00  0.00     0.049 A 
ATOM     46  C   UNL A   1      41.801  28.184  30.365  1.00  0.00     0.074 A 
ATOM     47  C   UNL A   1      42.366  31.010  36.013  1.00  0.00     0.029 A 
ATOM     48  N   UNL A   1      41.740  30.422  33.961  1.00  0.00    -0.354 N 
ATOM     49  N   UNL A   1      41.839  28.819  31.511  1.00  0.00    -0.248 NA
ATOM     50  C   UNL A   1      42.853  27.171  30.202  1.00  0.00     0.031 C 
ATOM     51  C   UNL A   1      43.214  29.989  35.567  1.00  0.00     0.029 A 
ATOM     52  C   UNL A   1      42.813  29.612  34.296  1.00  0.00     0.049 A 
ATOM     53  H   UNL A   1      41.247  30.385  33.110  1.00  0.00     0.167 HD
ATOM     54  C   UNL A   1      42.902  28.269  32.214  1.00  0.00     0.074 A 
ATOM     55  C   UNL A   1      43.472  27.236  31.373  1.00  0.00     0.031 C 
ATOM     56  C   UNL A   1      43.367  28.589  33.447  1.00  0.00     0.037 A 
BRANCH  43  57
ATOM     57  C   UNL A   1      40.294  33.207  36.165  1.00  0.00     0.057 A 
ATOM     58  C   UNL A   1      41.050  34.383  36.269  1.00  0.00     0.134 A 
ATOM     59  C   UNL A   1      39.384  32.931  37.192  1.00  0.00     0.134 A 
ATOM     60  F   UNL A   1      41.948  34.699  35.324  1.00  0.00    -0.206 F 
ATOM     61  C   UNL A   1      40.923  35.237  37.365  1.00  0.00     0.040 A 
ATOM     62  C   UNL A   1      39.231  33.790  38.281  1.00  0.00     0.040 A 
ATOM     63  F   UNL A   1      38.625  31.825  37.152  1.00  0.00    -0.206 F 
ATOM     64  C   UNL A   1      40.007  34.944  38.373  1.00  0.00     0.006 A 
ENDBRANCH  43  57
BRANCH  44  65
ATOM     65  C   UNL A   1      40.958  27.510  28.004  1.00  0.00     0.057 A 
ATOM     66  C   UNL A   1      40.336  26.258  27.931  1.00  0.00     0.134 A 
ATOM     67  C   UNL A   1      41.694  27.933  26.892  1.00  0.00     0.134 A 
ATOM     68  F   UNL A   1      39.633  25.791  28.973  1.00  0.00    -0.206 F 
ATOM     69  C   UNL A   1      40.459  25.447  26.802  1.00  0.00     0.040 A 
ATOM     70  C   UNL A   1      41.805  27.143  25.748  1.00  0.00     0.040 A 
ATOM     71  F   UNL A   1      42.306  29.126  26.899  1.00  0.00    -0.206 F 
ATOM     72  C   UNL A   1      41.192  25.892  25.703  1.00  0.00     0.006 A 
ENDBRANCH  44  65
BRANCH  56  73
ATOM     73  C   UNL A   1      44.533  27.802  33.963  1.00  0.00     0.057 A 
ATOM     74  C   UNL A   1      45.853  28.239  33.789  1.00  0.00     0.134 A 
ATOM     75  C   UNL A   1      44.334  26.609  34.669  1.00  0.00     0.134 A 
ATOM     76  F   UNL A   1      46.110  29.367  33.110  1.00  0.00    -0.206 F 
ATOM     77  C   UNL A   1      46.934  27.506  34.279  1.00  0.00     0.040 A 
ATOM     78  C   UNL A   1      45.406  25.879  35.185  1.00  0.00     0.040 A 
ATOM     79  F   UNL A   1      43.095  26.139  34.877  1.00  0.00    -0.206 F 
ATOM     80  C   UNL A   1      46.711  26.324  34.985  1.00  0.00     0.006 A 
ENDBRANCH  56  73
ENDBRANCH  30  31
ENDBRANCH  22  25
ENDBRANCH  20  21
ENDBRANCH  19  20
ENDBRANCH  18  19
ENDBRANCH   1  18
TORSDOF 15
ENDMDL
MODEL 3
REMARK VINA RESULT:      -9.9      3.960      8.352
REMARK SMILES CC(C)[N@@H+]1CCC[C@H]1CC(=O)NCCCCCCNC(=O)c1ccc(-c2c3nc(c(-c4c(F)cccc4F)c4ccc([nH]4)c(-c4c(F)cccc4F)c4nc(c(-c5c(F)cccc5F)c5ccc2[nH]5)C=C4)C=C3)cc1
REMARK SMILES IDX 15 1 14 2 13 3 12 4 10 5 11 6 9 8 8 9 4 10 5 11 6 13 7 14
REMARK SMILES IDX 2 15 1 16 3 17 16 18 17 19 18 20 19 21 20 22 21 24 22 25
REMARK SMILES IDX 23 26 75 27 24 28 74 29 25 30 26 31 27 32 68 33 28 34 73 35
REMARK SMILES IDX 67 36 69 37 29 38 72 39 66 40 65 41 30 43 56 44 39 45 55 46
REMARK SMILES IDX 40 47 43 48 54 49 70 50 41 51 42 52 53 54 71 55 44 56 31 57
REMARK SMILES IDX 32 58 37 59 33 60 34 61 36 62 38 63 35 64 57 65 58 66 63 67
REMARK SMILES IDX 59 68 60 69 62 70 64 71 61 72 45 73 46 74 51 75 47 76 48 77
REMARK SMILES IDX 50 78 52 79 49 80
REMARK H PARENT 12 7 4 12 19 23 69 42 43 53
REMARK Flexibility Score: inf
ROOT
ATOM      1  C   UNL A   1      30.616  27.096  24.971  1.00  0.00     0.002 C 
ENDROOT
BRANCH   1   2
ATOM      2  C   UNL A   1      30.221  26.852  23.513  1.00  0.00     0.021 C 
BRANCH   2   3
ATOM      3  C   UNL A   1      31.060  27.620  22.493  1.00  0.00     0.116 C 
BRANCH   3   4
ATOM      4  N   UNL A   1      31.590  26.700  21.507  1.00  0.00    -0.356 N 
ATOM      5  C   UNL A   1      32.759  25.998  21.493  1.00  0.00     0.225 C 
ATOM      6  O   UNL A   1      33.046  25.407  20.449  1.00  0.00    -0.275 OA
ATOM      7  H   UNL A   1      31.012  26.558  20.723  1.00  0.00     0.163 HD
BRANCH   5   8
ATOM      8  C   UNL A   1      33.606  25.858  22.746  1.00  0.00     0.164 C 
BRANCH   8   9
ATOM      9  C   UNL A   1      33.626  24.537  23.547  1.00  0.00     0.193 C 
ATOM     10  N   UNL A   1      32.384  24.193  24.269  1.00  0.00    -0.330 N 
ATOM     11  C   UNL A   1      31.661  23.288  23.370  1.00  0.00     0.262 C 
ATOM     12  H   UNL A   1      31.821  25.021  24.463  1.00  0.00     0.348 HD
ATOM     13  C   UNL A   1      32.729  22.394  22.782  1.00  0.00     0.067 C 
ATOM     14  C   UNL A   1      33.963  23.285  22.722  1.00  0.00     0.071 C 
BRANCH  10  15
ATOM     15  C   UNL A   1      32.589  23.704  25.660  1.00  0.00     0.177 C 
ATOM     16  C   UNL A   1      33.972  24.054  26.234  1.00  0.00     0.075 C 
ATOM     17  C   UNL A   1      31.532  24.059  26.725  1.00  0.00     0.075 C 
ENDBRANCH  10  15
ENDBRANCH   8   9
ENDBRANCH   5   8
ENDBRANCH   3   4
ENDBRANCH   2   3
ENDBRANCH   1   2
BRANCH   1  18
ATOM     18  C   UNL A   1      31.656  28.200  25.177  1.00  0.00     0.002 C 
BRANCH  18  19
ATOM     19  C   UNL A   1      32.714  27.914  26.246  1.00  0.00     0.021 C 
BRANCH  19  20
ATOM     20  C   UNL A   1      33.999  28.732  26.127  1.00  0.00     0.116 C 
BRANCH  20  21
ATOM     21  N   UNL A   1      33.823  30.094  26.601  1.00  0.00    -0.352 N 
ATOM     22  C   UNL A   1      34.505  30.785  27.570  1.00  0.00     0.251 C 
ATOM     23  H   UNL A   1      33.104  30.600  26.157  1.00  0.00     0.163 HD
ATOM     24  O   UNL A   1      34.063  31.853  27.985  1.00  0.00    -0.269 OA
BRANCH  22  25
ATOM     25  C   UNL A   1      35.768  30.252  28.126  1.00  0.00     0.039 A 
ATOM     26  C   UNL A   1      36.940  30.387  27.376  1.00  0.00     0.014 A 
ATOM     27  C   UNL A   1      35.792  29.573  29.347  1.00  0.00     0.014 A 
ATOM     28  C   UNL A   1      38.143  29.881  27.872  1.00  0.00     0.010 A 
ATOM     29  C   UNL A   1      37.003  29.126  29.871  1.00  0.00     0.010 A 
ATOM     30  C   UNL A   1      38.189  29.265  29.134  1.00  0.00    -0.014 A 
BRANCH  30  31
ATOM     31  C   UNL A   1      39.468  28.746  29.681  1.00  0.00     0.031 A 
ATOM     32  C   UNL A   1      40.087  29.378  30.897  1.00  0.00     0.074 A 
ATOM     33  C   UNL A   1      40.095  27.730  29.057  1.00  0.00     0.049 A 
ATOM     34  N   UNL A   1      41.209  29.081  31.503  1.00  0.00    -0.248 NA
ATOM     35  C   UNL A   1      39.362  30.508  31.497  1.00  0.00     0.031 C 
ATOM     36  C   UNL A   1      39.623  27.062  27.843  1.00  0.00     0.029 A 
ATOM     37  N   UNL A   1      41.267  27.083  29.359  1.00  0.00    -0.354 N 
ATOM     38  C   UNL A   1      41.329  29.992  32.544  1.00  0.00     0.074 A 
ATOM     39  C   UNL A   1      40.193  30.885  32.459  1.00  0.00     0.031 C 
ATOM     40  C   UNL A   1      40.484  26.085  27.517  1.00  0.00     0.029 A 
ATOM     41  C   UNL A   1      41.581  26.074  28.480  1.00  0.00     0.049 A 
ATOM     42  H   UNL A   1      41.829  27.319  30.131  1.00  0.00     0.167 HD
ATOM     43  C   UNL A   1      42.286  30.065  33.500  1.00  0.00     0.037 A 
ATOM     44  C   UNL A   1      42.633  25.235  28.455  1.00  0.00     0.037 A 
ATOM     45  C   UNL A   1      43.400  29.161  33.603  1.00  0.00     0.049 A 
ATOM     46  C   UNL A   1      43.677  25.331  29.533  1.00  0.00     0.074 A 
ATOM     47  C   UNL A   1      44.386  29.112  34.573  1.00  0.00     0.029 A 
ATOM     48  N   UNL A   1      43.676  28.142  32.702  1.00  0.00    -0.354 N 
ATOM     49  N   UNL A   1      43.741  26.154  30.551  1.00  0.00    -0.248 NA
ATOM     50  C   UNL A   1      44.792  24.376  29.460  1.00  0.00     0.031 C 
ATOM     51  C   UNL A   1      45.280  28.088  34.239  1.00  0.00     0.029 A 
ATOM     52  C   UNL A   1      44.828  27.474  33.083  1.00  0.00     0.049 A 
ATOM     53  H   UNL A   1      43.133  27.927  31.909  1.00  0.00     0.167 HD
ATOM     54  C   UNL A   1      44.886  25.803  31.252  1.00  0.00     0.074 A 
ATOM     55  C   UNL A   1      45.479  24.681  30.552  1.00  0.00     0.031 C 
ATOM     56  C   UNL A   1      45.404  26.359  32.375  1.00  0.00     0.037 A 
BRANCH  43  57
ATOM     57  C   UNL A   1      42.163  31.161  34.518  1.00  0.00     0.057 A 
ATOM     58  C   UNL A   1      41.343  31.030  35.647  1.00  0.00     0.134 A 
ATOM     59  C   UNL A   1      42.896  32.347  34.387  1.00  0.00     0.134 A 
ATOM     60  F   UNL A   1      40.606  29.924  35.826  1.00  0.00    -0.206 F 
ATOM     61  C   UNL A   1      41.235  32.050  36.594  1.00  0.00     0.040 A 
ATOM     62  C   UNL A   1      42.816  33.363  35.340  1.00  0.00     0.040 A 
ATOM     63  F   UNL A   1      43.705  32.535  33.333  1.00  0.00    -0.206 F 
ATOM     64  C   UNL A   1      41.979  33.219  36.444  1.00  0.00     0.006 A 
ENDBRANCH  43  57
BRANCH  44  65
ATOM     65  C   UNL A   1      42.738  24.209  27.389  1.00  0.00     0.057 A 
ATOM     66  C   UNL A   1      43.302  24.519  26.146  1.00  0.00     0.134 A 
ATOM     67  C   UNL A   1      42.277  22.902  27.582  1.00  0.00     0.134 A 
ATOM     68  F   UNL A   1      43.744  25.761  25.896  1.00  0.00    -0.206 F 
ATOM     69  C   UNL A   1      43.386  23.571  25.125  1.00  0.00     0.040 A 
ATOM     70  C   UNL A   1      42.376  21.938  26.579  1.00  0.00     0.040 A 
ATOM     71  F   UNL A   1      41.733  22.543  28.754  1.00  0.00    -0.206 F 
ATOM     72  C   UNL A   1      42.926  22.273  25.343  1.00  0.00     0.006 A 
ENDBRANCH  44  65
BRANCH  56  73
ATOM     73  C   UNL A   1      46.659  25.751  32.923  1.00  0.00     0.057 A 
ATOM     74  C   UNL A   1      47.927  26.177  32.508  1.00  0.00     0.134 A 
ATOM     75  C   UNL A   1      46.600  24.748  33.898  1.00  0.00     0.134 A 
ATOM     76  F   UNL A   1      48.051  27.125  31.567  1.00  0.00    -0.206 F 
ATOM     77  C   UNL A   1      49.092  25.612  33.028  1.00  0.00     0.040 A 
ATOM     78  C   UNL A   1      47.758  24.191  34.444  1.00  0.00     0.040 A 
ATOM     79  F   UNL A   1      45.417  24.299  34.344  1.00  0.00    -0.206 F 
ATOM     80  C   UNL A   1      49.009  24.620  34.004  1.00  0.00     0.006 A 
ENDBRANCH  56  73
ENDBRANCH  30  31
ENDBRANCH  22  25
ENDBRANCH  20  21
ENDBRANCH  19  20
ENDBRANCH  18  19
ENDBRANCH   1  18
TORSDOF 15
ENDMDL
