MODEL 1
REMARK VINA RESULT:     -11.5      0.000      0.000
REMARK SMILES CC1=C(C)C[C@@H](C(=O)NCCCCCCNC(=O)c2ccc(-c3c4nc(c(-c5c(F)cccc5F)c5ccc([nH]5)c(-c5c(F)cccc5F)c5nc(c(-c6c(F)cccc6F)c6ccc3[nH]6)C=C5)C=C4)cc2)[C@@H](C(=O)NCC[NH+]2CCOCC2)C1
REMARK SMILES IDX 11 1 10 2 9 3 7 4 8 5 6 7 1 8 2 9 3 10 85 11 4 12 5 13 73 14
REMARK SMILES IDX 74 15 75 16 76 17 77 19 78 20 79 21 80 22 84 23 81 25 83 26
REMARK SMILES IDX 82 27 12 28 13 29 14 30 15 31 16 32 17 33 18 35 19 36 20 37
REMARK SMILES IDX 72 38 21 39 71 40 22 41 23 42 24 43 65 44 25 45 70 46 64 47
REMARK SMILES IDX 66 48 26 49 69 50 63 51 62 52 27 54 53 55 36 56 52 57 37 58
REMARK SMILES IDX 40 59 51 60 67 61 38 62 39 63 50 65 68 66 41 67 28 68 29 69
REMARK SMILES IDX 34 70 30 71 31 72 33 73 35 74 32 75 54 76 55 77 60 78 56 79
REMARK SMILES IDX 57 80 59 81 61 82 58 83 42 84 43 85 48 86 44 87 45 88 47 89
REMARK SMILES IDX 49 90 46 91
REMARK H PARENT 9 6 76 18 79 24 16 34 66 53 40 64
REMARK Flexibility Score: inf
ROOT
ATOM      1  C   UNL A   1      36.276  22.618  25.728  1.00  0.00     0.021 C 
ENDROOT
BRANCH   1   2
ATOM      2  C   UNL A   1      35.700  23.490  24.622  1.00  0.00     0.116 C 
BRANCH   2   3
ATOM      3  N   UNL A   1      35.055  24.682  25.111  1.00  0.00    -0.356 N 
ATOM      4  C   UNL A   1      33.804  25.148  24.912  1.00  0.00     0.224 C 
ATOM      5  O   UNL A   1      33.402  25.982  25.733  1.00  0.00    -0.275 OA
ATOM      6  H   UNL A   1      35.619  25.249  25.684  1.00  0.00     0.163 HD
BRANCH   4   7
ATOM      7  C   UNL A   1      32.841  24.670  23.826  1.00  0.00     0.095 C 
ATOM      8  C   UNL A   1      28.830  26.530  23.877  1.00  0.00     0.039 C 
ATOM      9  C   UNL A   1      30.180  25.899  23.630  1.00  0.00    -0.074 C 
ATOM     10  C   UNL A   1      31.226  26.517  23.045  1.00  0.00    -0.074 C 
ATOM     11  C   UNL A   1      30.272  24.483  24.176  1.00  0.00     0.045 C 
ATOM     12  C   UNL A   1      31.243  27.932  22.523  1.00  0.00     0.039 C 
ATOM     13  C   UNL A   1      32.538  25.806  22.851  1.00  0.00     0.045 C 
ATOM     14  C   UNL A   1      31.651  23.766  24.177  1.00  0.00     0.095 C 
BRANCH  14  15
ATOM     15  C   UNL A   1      31.847  22.952  25.464  1.00  0.00     0.224 C 
ATOM     16  O   UNL A   1      31.413  23.331  26.553  1.00  0.00    -0.275 OA
ATOM     17  N   UNL A   1      32.484  21.752  25.454  1.00  0.00    -0.350 N 
ATOM     18  H   UNL A   1      32.741  21.424  26.345  1.00  0.00     0.163 HD
BRANCH  17  19
ATOM     19  C   UNL A   1      32.854  20.866  24.366  1.00  0.00     0.177 C 
BRANCH  19  20
ATOM     20  C   UNL A   1      33.357  19.467  24.791  1.00  0.00     0.283 C 
BRANCH  20  21
ATOM     21  N   UNL A   1      32.440  18.345  24.494  1.00  0.00    -0.330 N 
ATOM     22  C   UNL A   1      32.528  17.240  25.486  1.00  0.00     0.291 C 
ATOM     23  C   UNL A   1      32.746  17.759  23.162  1.00  0.00     0.291 C 
ATOM     24  H   UNL A   1      31.503  18.747  24.526  1.00  0.00     0.348 HD
ATOM     25  C   UNL A   1      33.774  16.338  25.377  1.00  0.00     0.221 C 
ATOM     26  C   UNL A   1      34.038  16.926  23.124  1.00  0.00     0.221 C 
ATOM     27  O   UNL A   1      33.958  15.837  24.050  1.00  0.00    -0.370 OA
ENDBRANCH  20  21
ENDBRANCH  19  20
ENDBRANCH  17  19
ENDBRANCH  14  15
ENDBRANCH   4   7
ENDBRANCH   2   3
ENDBRANCH   1   2
BRANCH   1  28
ATOM     28  C   UNL A   1      37.509  21.799  25.348  1.00  0.00     0.002 C 
BRANCH  28  29
ATOM     29  C   UNL A   1      37.228  20.441  24.703  1.00  0.00     0.002 C 
BRANCH  29  30
ATOM     30  C   UNL A   1      38.246  19.338  25.001  1.00  0.00     0.021 C 
BRANCH  30  31
ATOM     31  C   UNL A   1      39.350  19.704  25.988  1.00  0.00     0.116 C 
BRANCH  31  32
ATOM     32  N   UNL A   1      40.500  18.825  25.892  1.00  0.00    -0.352 N 
ATOM     33  C   UNL A   1      41.835  19.111  25.999  1.00  0.00     0.251 C 
ATOM     34  H   UNL A   1      40.288  17.878  25.724  1.00  0.00     0.163 HD
ATOM     35  O   UNL A   1      42.667  18.247  25.745  1.00  0.00    -0.269 OA
BRANCH  33  36
ATOM     36  C   UNL A   1      42.283  20.465  26.393  1.00  0.00     0.039 A 
ATOM     37  C   UNL A   1      42.692  21.344  25.386  1.00  0.00     0.014 A 
ATOM     38  C   UNL A   1      42.342  20.860  27.733  1.00  0.00     0.014 A 
ATOM     39  C   UNL A   1      43.121  22.629  25.718  1.00  0.00     0.010 A 
ATOM     40  C   UNL A   1      42.710  22.166  28.059  1.00  0.00     0.010 A 
ATOM     41  C   UNL A   1      43.114  23.057  27.056  1.00  0.00    -0.014 A 
BRANCH  41  42
ATOM     42  C   UNL A   1      43.526  24.442  27.393  1.00  0.00     0.031 A 
ATOM     43  C   UNL A   1      44.957  24.874  27.260  1.00  0.00     0.074 A 
ATOM     44  C   UNL A   1      42.602  25.309  27.846  1.00  0.00     0.049 A 
ATOM     45  N   UNL A   1      45.480  26.062  27.433  1.00  0.00    -0.248 NA
ATOM     46  C   UNL A   1      45.935  23.832  26.913  1.00  0.00     0.031 C 
ATOM     47  C   UNL A   1      41.197  24.988  28.102  1.00  0.00     0.029 A 
ATOM     48  N   UNL A   1      42.705  26.638  28.168  1.00  0.00    -0.354 N 
ATOM     49  C   UNL A   1      46.844  25.910  27.224  1.00  0.00     0.074 A 
ATOM     50  C   UNL A   1      47.076  24.505  26.966  1.00  0.00     0.031 C 
ATOM     51  C   UNL A   1      40.562  26.096  28.514  1.00  0.00     0.029 A 
ATOM     52  C   UNL A   1      41.516  27.200  28.560  1.00  0.00     0.049 A 
ATOM     53  H   UNL A   1      43.551  27.140  28.123  1.00  0.00     0.167 HD
ATOM     54  C   UNL A   1      47.813  26.858  27.223  1.00  0.00     0.037 A 
ATOM     55  C   UNL A   1      41.222  28.469  28.901  1.00  0.00     0.037 A 
ATOM     56  C   UNL A   1      47.575  28.258  27.464  1.00  0.00     0.049 A 
ATOM     57  C   UNL A   1      42.294  29.517  28.827  1.00  0.00     0.074 A 
ATOM     58  C   UNL A   1      48.474  29.310  27.409  1.00  0.00     0.029 A 
ATOM     59  N   UNL A   1      46.347  28.801  27.814  1.00  0.00    -0.354 N 
ATOM     60  N   UNL A   1      43.562  29.381  28.523  1.00  0.00    -0.248 NA
ATOM     61  C   UNL A   1      41.888  30.899  29.120  1.00  0.00     0.031 C 
ATOM     62  C   UNL A   1      47.796  30.483  27.763  1.00  0.00     0.029 A 
ATOM     63  C   UNL A   1      46.467  30.169  27.997  1.00  0.00     0.049 A 
ATOM     64  H   UNL A   1      45.513  28.289  27.917  1.00  0.00     0.167 HD
ATOM     65  C   UNL A   1      44.104  30.658  28.572  1.00  0.00     0.074 A 
ATOM     66  C   UNL A   1      43.020  31.557  28.915  1.00  0.00     0.031 C 
ATOM     67  C   UNL A   1      45.383  31.050  28.354  1.00  0.00     0.037 A 
BRANCH  54  68
ATOM     68  C   UNL A   1      49.217  26.401  26.952  1.00  0.00     0.057 A 
ATOM     69  C   UNL A   1      50.073  25.995  27.984  1.00  0.00     0.134 A 
ATOM     70  C   UNL A   1      49.720  26.364  25.646  1.00  0.00     0.134 A 
ATOM     71  F   UNL A   1      49.659  26.018  29.260  1.00  0.00    -0.206 F 
ATOM     72  C   UNL A   1      51.391  25.605  27.731  1.00  0.00     0.040 A 
ATOM     73  C   UNL A   1      51.025  25.951  25.377  1.00  0.00     0.040 A 
ATOM     74  F   UNL A   1      48.952  26.733  24.609  1.00  0.00    -0.206 F 
ATOM     75  C   UNL A   1      51.868  25.580  26.423  1.00  0.00     0.006 A 
ENDBRANCH  54  68
BRANCH  55  76
ATOM     76  C   UNL A   1      39.832  28.814  29.282  1.00  0.00     0.057 A 
ATOM     77  C   UNL A   1      39.405  28.736  30.612  1.00  0.00     0.134 A 
ATOM     78  C   UNL A   1      38.910  29.270  28.331  1.00  0.00     0.134 A 
ATOM     79  F   UNL A   1      40.241  28.294  31.563  1.00  0.00    -0.206 F 
ATOM     80  C   UNL A   1      38.109  29.092  30.985  1.00  0.00     0.040 A 
ATOM     81  C   UNL A   1      37.617  29.648  28.693  1.00  0.00     0.040 A 
ATOM     82  F   UNL A   1      39.264  29.378  27.042  1.00  0.00    -0.206 F 
ATOM     83  C   UNL A   1      37.213  29.557  30.024  1.00  0.00     0.006 A 
ENDBRANCH  55  76
BRANCH  67  84
ATOM     84  C   UNL A   1      45.673  32.516  28.474  1.00  0.00     0.057 A 
ATOM     85  C   UNL A   1      45.550  33.384  27.380  1.00  0.00     0.134 A 
ATOM     86  C   UNL A   1      46.069  33.071  29.697  1.00  0.00     0.134 A 
ATOM     87  F   UNL A   1      45.188  32.914  26.177  1.00  0.00    -0.206 F 
ATOM     88  C   UNL A   1      45.840  34.745  27.492  1.00  0.00     0.040 A 
ATOM     89  C   UNL A   1      46.337  34.433  29.828  1.00  0.00     0.040 A 
ATOM     90  F   UNL A   1      46.197  32.296  30.786  1.00  0.00    -0.206 F 
ATOM     91  C   UNL A   1      46.231  35.273  28.721  1.00  0.00     0.006 A 
ENDBRANCH  67  84
ENDBRANCH  41  42
ENDBRANCH  33  36
ENDBRANCH  31  32
ENDBRANCH  30  31
ENDBRANCH  29  30
ENDBRANCH  28  29
ENDBRANCH   1  28
TORSDOF 17
ENDMDL
MODEL 2
REMARK VINA RESULT:     -11.5      5.267     10.772
REMARK SMILES CC1=C(C)C[C@@H](C(=O)NCCCCCCNC(=O)c2ccc(-c3c4nc(c(-c5c(F)cccc5F)c5ccc([nH]5)c(-c5c(F)cccc5F)c5nc(c(-c6c(F)cccc6F)c6ccc3[nH]6)C=C5)C=C4)cc2)[C@@H](C(=O)NCC[NH+]2CCOCC2)C1
REMARK SMILES IDX 11 1 10 2 9 3 7 4 8 5 6 7 1 8 2 9 3 10 85 11 4 12 5 13 73 14
REMARK SMILES IDX 74 15 75 16 76 17 77 19 78 20 79 21 80 22 84 23 81 25 83 26
REMARK SMILES IDX 82 27 12 28 13 29 14 30 15 31 16 32 17 33 18 35 19 36 20 37
REMARK SMILES IDX 72 38 21 39 71 40 22 41 23 42 24 43 65 44 25 45 70 46 64 47
REMARK SMILES IDX 66 48 26 49 69 50 63 51 62 52 27 54 53 55 36 56 52 57 37 58
REMARK SMILES IDX 40 59 51 60 67 61 38 62 39 63 50 65 68 66 41 67 28 68 29 69
REMARK SMILES IDX 34 70 30 71 31 72 33 73 35 74 32 75 54 76 55 77 60 78 56 79
REMARK SMILES IDX 57 80 59 81 61 82 58 83 42 84 43 85 48 86 44 87 45 88 47 89
REMARK SMILES IDX 49 90 46 91
REMARK H PARENT 9 6 76 18 79 24 16 34 66 53 40 64
REMARK Flexibility Score: inf
ROOT
ATOM      1  C   UNL A   1      33.388  28.982  26.186  1.00  0.00     0.021 C 
ENDROOT
BRANCH   1   2
ATOM      2  C   UNL A   1      32.856  27.566  26.347  1.00  0.00     0.116 C 
BRANCH   2   3
ATOM      3  N   UNL A   1      33.760  26.557  25.855  1.00  0.00    -0.356 N 
ATOM      4  C   UNL A   1      33.522  25.448  25.123  1.00  0.00     0.224 C 
ATOM      5  O   UNL A   1      34.500  24.970  24.535  1.00  0.00    -0.275 OA
ATOM      6  H   UNL A   1      34.705  26.700  26.090  1.00  0.00     0.163 HD
BRANCH   4   7
ATOM      7  C   UNL A   1      32.154  24.804  24.905  1.00  0.00     0.095 C 
ATOM      8  C   UNL A   1      32.154  21.077  22.528  1.00  0.00     0.039 C 
ATOM      9  C   UNL A   1      31.986  22.251  23.463  1.00  0.00    -0.074 C 
ATOM     10  C   UNL A   1      32.270  22.235  24.781  1.00  0.00    -0.074 C 
ATOM     11  C   UNL A   1      31.514  23.506  22.746  1.00  0.00     0.045 C 
ATOM     12  C   UNL A   1      32.792  21.055  25.562  1.00  0.00     0.039 C 
ATOM     13  C   UNL A   1      32.079  23.462  25.631  1.00  0.00     0.045 C 
ATOM     14  C   UNL A   1      31.478  24.849  23.527  1.00  0.00     0.095 C 
BRANCH  14  15
ATOM     15  C   UNL A   1      31.947  26.012  22.642  1.00  0.00     0.224 C 
ATOM     16  O   UNL A   1      32.773  25.861  21.740  1.00  0.00    -0.275 OA
ATOM     17  N   UNL A   1      31.445  27.266  22.794  1.00  0.00    -0.350 N 
ATOM     18  H   UNL A   1      31.960  27.966  22.332  1.00  0.00     0.163 HD
BRANCH  17  19
ATOM     19  C   UNL A   1      30.286  27.759  23.514  1.00  0.00     0.177 C 
BRANCH  19  20
ATOM     20  C   UNL A   1      29.917  29.236  23.247  1.00  0.00     0.283 C 
BRANCH  20  21
ATOM     21  N   UNL A   1      28.749  29.450  22.365  1.00  0.00    -0.330 N 
ATOM     22  C   UNL A   1      28.945  30.555  21.389  1.00  0.00     0.291 C 
ATOM     23  C   UNL A   1      27.544  29.789  23.168  1.00  0.00     0.291 C 
ATOM     24  H   UNL A   1      28.632  28.574  21.855  1.00  0.00     0.348 HD
ATOM     25  C   UNL A   1      28.855  31.983  21.965  1.00  0.00     0.221 C 
ATOM     26  C   UNL A   1      27.561  31.208  23.759  1.00  0.00     0.221 C 
ATOM     27  O   UNL A   1      27.653  32.183  22.714  1.00  0.00    -0.370 OA
ENDBRANCH  20  21
ENDBRANCH  19  20
ENDBRANCH  17  19
ENDBRANCH  14  15
ENDBRANCH   4   7
ENDBRANCH   2   3
ENDBRANCH   1   2
BRANCH   1  28
ATOM     28  C   UNL A   1      32.701  30.046  27.041  1.00  0.00     0.002 C 
BRANCH  28  29
ATOM     29  C   UNL A   1      31.465  30.699  26.420  1.00  0.00     0.002 C 
BRANCH  29  30
ATOM     30  C   UNL A   1      31.315  32.203  26.656  1.00  0.00     0.021 C 
BRANCH  30  31
ATOM     31  C   UNL A   1      32.597  32.949  27.015  1.00  0.00     0.116 C 
BRANCH  31  32
ATOM     32  N   UNL A   1      32.341  34.238  27.628  1.00  0.00    -0.352 N 
ATOM     33  C   UNL A   1      32.988  34.862  28.662  1.00  0.00     0.251 C 
ATOM     34  H   UNL A   1      31.588  34.741  27.241  1.00  0.00     0.163 HD
ATOM     35  O   UNL A   1      32.529  35.897  29.132  1.00  0.00    -0.269 OA
BRANCH  33  36
ATOM     36  C   UNL A   1      34.222  34.282  29.235  1.00  0.00     0.039 A 
ATOM     37  C   UNL A   1      34.100  33.416  30.324  1.00  0.00     0.014 A 
ATOM     38  C   UNL A   1      35.489  34.610  28.739  1.00  0.00     0.014 A 
ATOM     39  C   UNL A   1      35.242  32.849  30.892  1.00  0.00     0.010 A 
ATOM     40  C   UNL A   1      36.624  33.993  29.265  1.00  0.00     0.010 A 
ATOM     41  C   UNL A   1      36.512  33.117  30.354  1.00  0.00    -0.014 A 
BRANCH  41  42
ATOM     42  C   UNL A   1      37.714  32.471  30.934  1.00  0.00     0.031 A 
ATOM     43  C   UNL A   1      38.283  32.936  32.243  1.00  0.00     0.074 A 
ATOM     44  C   UNL A   1      38.310  31.469  30.261  1.00  0.00     0.049 A 
ATOM     45  N   UNL A   1      39.277  32.437  32.934  1.00  0.00    -0.248 NA
ATOM     46  C   UNL A   1      37.677  34.135  32.841  1.00  0.00     0.031 C 
ATOM     47  C   UNL A   1      37.905  30.983  28.940  1.00  0.00     0.029 A 
ATOM     48  N   UNL A   1      39.379  30.679  30.596  1.00  0.00    -0.354 N 
ATOM     49  C   UNL A   1      39.419  33.261  34.042  1.00  0.00     0.074 A 
ATOM     50  C   UNL A   1      38.447  34.325  33.903  1.00  0.00     0.031 C 
ATOM     51  C   UNL A   1      38.698  29.959  28.589  1.00  0.00     0.029 A 
ATOM     52  C   UNL A   1      39.670  29.724  29.654  1.00  0.00     0.049 A 
ATOM     53  H   UNL A   1      39.889  30.787  31.431  1.00  0.00     0.167 HD
ATOM     54  C   UNL A   1      40.266  33.132  35.093  1.00  0.00     0.037 A 
ATOM     55  C   UNL A   1      40.604  28.754  29.655  1.00  0.00     0.037 A 
ATOM     56  C   UNL A   1      41.220  32.063  35.236  1.00  0.00     0.049 A 
ATOM     57  C   UNL A   1      41.485  28.585  30.857  1.00  0.00     0.074 A 
ATOM     58  C   UNL A   1      42.069  31.797  36.297  1.00  0.00     0.029 A 
ATOM     59  N   UNL A   1      41.457  31.084  34.281  1.00  0.00    -0.354 N 
ATOM     60  N   UNL A   1      41.539  29.307  31.950  1.00  0.00    -0.248 NA
ATOM     61  C   UNL A   1      42.420  27.451  30.837  1.00  0.00     0.031 C 
ATOM     62  C   UNL A   1      42.846  30.680  35.967  1.00  0.00     0.029 A 
ATOM     63  C   UNL A   1      42.452  30.224  34.719  1.00  0.00     0.049 A 
ATOM     64  H   UNL A   1      40.987  31.012  33.420  1.00  0.00     0.167 HD
ATOM     65  C   UNL A   1      42.500  28.710  32.755  1.00  0.00     0.074 A 
ATOM     66  C   UNL A   1      42.987  27.552  32.031  1.00  0.00     0.031 C 
ATOM     67  C   UNL A   1      42.938  29.085  33.981  1.00  0.00     0.037 A 
BRANCH  54  68
ATOM     68  C   UNL A   1      40.189  34.179  36.166  1.00  0.00     0.057 A 
ATOM     69  C   UNL A   1      39.373  34.023  37.294  1.00  0.00     0.134 A 
ATOM     70  C   UNL A   1      40.941  35.357  36.073  1.00  0.00     0.134 A 
ATOM     71  F   UNL A   1      38.617  32.923  37.440  1.00  0.00    -0.206 F 
ATOM     72  C   UNL A   1      39.277  35.016  38.272  1.00  0.00     0.040 A 
ATOM     73  C   UNL A   1      40.875  36.344  37.057  1.00  0.00     0.040 A 
ATOM     74  F   UNL A   1      41.749  35.569  35.023  1.00  0.00    -0.206 F 
ATOM     75  C   UNL A   1      40.033  36.179  38.155  1.00  0.00     0.006 A 
ENDBRANCH  54  68
BRANCH  55  76
ATOM     76  C   UNL A   1      40.698  27.837  28.495  1.00  0.00     0.057 A 
ATOM     77  C   UNL A   1      39.978  26.638  28.459  1.00  0.00     0.134 A 
ATOM     78  C   UNL A   1      41.478  28.158  27.377  1.00  0.00     0.134 A 
ATOM     79  F   UNL A   1      39.225  26.272  29.507  1.00  0.00    -0.206 F 
ATOM     80  C   UNL A   1      40.033  25.785  27.356  1.00  0.00     0.040 A 
ATOM     81  C   UNL A   1      41.526  27.325  26.259  1.00  0.00     0.040 A 
ATOM     82  F   UNL A   1      42.181  29.300  27.347  1.00  0.00    -0.206 F 
ATOM     83  C   UNL A   1      40.804  26.133  26.248  1.00  0.00     0.006 A 
ENDBRANCH  55  76
BRANCH  67  84
ATOM     84  C   UNL A   1      43.993  28.229  34.616  1.00  0.00     0.057 A 
ATOM     85  C   UNL A   1      45.358  28.494  34.445  1.00  0.00     0.134 A 
ATOM     86  C   UNL A   1      43.642  27.134  35.415  1.00  0.00     0.134 A 
ATOM     87  F   UNL A   1      45.762  29.520  33.681  1.00  0.00    -0.206 F 
ATOM     88  C   UNL A   1      46.337  27.682  35.022  1.00  0.00     0.040 A 
ATOM     89  C   UNL A   1      44.609  26.330  36.017  1.00  0.00     0.040 A 
ATOM     90  F   UNL A   1      42.351  26.830  35.626  1.00  0.00    -0.206 F 
ATOM     91  C   UNL A   1      45.962  26.599  35.814  1.00  0.00     0.006 A 
ENDBRANCH  67  84
ENDBRANCH  41  42
ENDBRANCH  33  36
ENDBRANCH  31  32
ENDBRANCH  30  31
ENDBRANCH  29  30
ENDBRANCH  28  29
ENDBRANCH   1  28
TORSDOF 17
ENDMDL
MODEL 3
REMARK VINA RESULT:     -11.4      1.612      4.165
REMARK SMILES CC1=C(C)C[C@@H](C(=O)NCCCCCCNC(=O)c2ccc(-c3c4nc(c(-c5c(F)cccc5F)c5ccc([nH]5)c(-c5c(F)cccc5F)c5nc(c(-c6c(F)cccc6F)c6ccc3[nH]6)C=C5)C=C4)cc2)[C@@H](C(=O)NCC[NH+]2CCOCC2)C1
REMARK SMILES IDX 11 1 10 2 9 3 7 4 8 5 6 7 1 8 2 9 3 10 85 11 4 12 5 13 73 14
REMARK SMILES IDX 74 15 75 16 76 17 77 19 78 20 79 21 80 22 84 23 81 25 83 26
REMARK SMILES IDX 82 27 12 28 13 29 14 30 15 31 16 32 17 33 18 35 19 36 20 37
REMARK SMILES IDX 72 38 21 39 71 40 22 41 23 42 24 43 65 44 25 45 70 46 64 47
REMARK SMILES IDX 66 48 26 49 69 50 63 51 62 52 27 54 53 55 36 56 52 57 37 58
REMARK SMILES IDX 40 59 51 60 67 61 38 62 39 63 50 65 68 66 41 67 28 68 29 69
REMARK SMILES IDX 34 70 30 71 31 72 33 73 35 74 32 75 54 76 55 77 60 78 56 79
REMARK SMILES IDX 57 80 59 81 61 82 58 83 42 84 43 85 48 86 44 87 45 88 47 89
REMARK SMILES IDX 49 90 46 91
REMARK H PARENT 9 6 76 18 79 24 16 34 66 53 40 64
REMARK Flexibility Score: inf
ROOT
ATOM      1  C   UNL A   1      37.022  22.543  24.243  1.00  0.00     0.021 C 
ENDROOT
BRANCH   1   2
ATOM      2  C   UNL A   1      35.747  22.976  23.534  1.00  0.00     0.116 C 
BRANCH   2   3
ATOM      3  N   UNL A   1      35.370  24.338  23.818  1.00  0.00    -0.356 N 
ATOM      4  C   UNL A   1      34.211  24.847  24.287  1.00  0.00     0.224 C 
ATOM      5  O   UNL A   1      34.281  25.979  24.781  1.00  0.00    -0.275 OA
ATOM      6  H   UNL A   1      36.070  25.005  23.640  1.00  0.00     0.163 HD
BRANCH   4   7
ATOM      7  C   UNL A   1      32.872  24.114  24.330  1.00  0.00     0.095 C 
ATOM      8  C   UNL A   1      33.108  19.699  24.251  1.00  0.00     0.039 C 
ATOM      9  C   UNL A   1      32.849  21.178  24.422  1.00  0.00    -0.074 C 
ATOM     10  C   UNL A   1      33.009  21.862  25.572  1.00  0.00    -0.074 C 
ATOM     11  C   UNL A   1      32.441  21.853  23.122  1.00  0.00     0.045 C 
ATOM     12  C   UNL A   1      33.460  21.287  26.892  1.00  0.00     0.039 C 
ATOM     13  C   UNL A   1      32.734  23.340  25.641  1.00  0.00     0.045 C 
ATOM     14  C   UNL A   1      32.327  23.402  23.084  1.00  0.00     0.095 C 
BRANCH  14  15
ATOM     15  C   UNL A   1      32.872  23.961  21.762  1.00  0.00     0.224 C 
ATOM     16  O   UNL A   1      33.656  23.327  21.053  1.00  0.00    -0.275 OA
ATOM     17  N   UNL A   1      32.486  25.177  21.293  1.00  0.00    -0.350 N 
ATOM     18  H   UNL A   1      33.047  25.525  20.564  1.00  0.00     0.163 HD
BRANCH  17  19
ATOM     19  C   UNL A   1      31.394  26.054  21.673  1.00  0.00     0.177 C 
BRANCH  19  20
ATOM     20  C   UNL A   1      31.740  27.119  22.739  1.00  0.00     0.283 C 
BRANCH  20  21
ATOM     21  N   UNL A   1      30.712  27.332  23.781  1.00  0.00    -0.330 N 
ATOM     22  C   UNL A   1      29.530  28.091  23.291  1.00  0.00     0.291 C 
ATOM     23  C   UNL A   1      31.277  28.100  24.923  1.00  0.00     0.291 C 
ATOM     24  H   UNL A   1      30.415  26.398  24.062  1.00  0.00     0.348 HD
ATOM     25  C   UNL A   1      29.739  29.606  23.093  1.00  0.00     0.221 C 
ATOM     26  C   UNL A   1      31.514  29.590  24.623  1.00  0.00     0.221 C 
ATOM     27  O   UNL A   1      30.285  30.227  24.260  1.00  0.00    -0.370 OA
ENDBRANCH  20  21
ENDBRANCH  19  20
ENDBRANCH  17  19
ENDBRANCH  14  15
ENDBRANCH   4   7
ENDBRANCH   2   3
ENDBRANCH   1   2
BRANCH   1  28
ATOM     28  C   UNL A   1      36.834  21.564  25.400  1.00  0.00     0.002 C 
BRANCH  28  29
ATOM     29  C   UNL A   1      36.628  20.102  25.002  1.00  0.00     0.002 C 
BRANCH  29  30
ATOM     30  C   UNL A   1      37.885  19.229  24.993  1.00  0.00     0.021 C 
BRANCH  30  31
ATOM     31  C   UNL A   1      39.084  19.786  25.754  1.00  0.00     0.116 C 
BRANCH  31  32
ATOM     32  N   UNL A   1      40.217  18.881  25.753  1.00  0.00    -0.352 N 
ATOM     33  C   UNL A   1      41.546  19.138  25.961  1.00  0.00     0.251 C 
ATOM     34  H   UNL A   1      39.997  17.938  25.576  1.00  0.00     0.163 HD
ATOM     35  O   UNL A   1      42.375  18.253  25.779  1.00  0.00    -0.269 OA
BRANCH  33  36
ATOM     36  C   UNL A   1      41.994  20.484  26.380  1.00  0.00     0.039 A 
ATOM     37  C   UNL A   1      42.258  21.430  25.386  1.00  0.00     0.014 A 
ATOM     38  C   UNL A   1      42.192  20.809  27.726  1.00  0.00     0.014 A 
ATOM     39  C   UNL A   1      42.682  22.711  25.741  1.00  0.00     0.010 A 
ATOM     40  C   UNL A   1      42.553  22.109  28.083  1.00  0.00     0.010 A 
ATOM     41  C   UNL A   1      42.814  23.067  27.094  1.00  0.00    -0.014 A 
BRANCH  41  42
ATOM     42  C   UNL A   1      43.217  24.446  27.462  1.00  0.00     0.031 A 
ATOM     43  C   UNL A   1      44.646  24.890  27.335  1.00  0.00     0.074 A 
ATOM     44  C   UNL A   1      42.289  25.297  27.938  1.00  0.00     0.049 A 
ATOM     45  N   UNL A   1      45.161  26.078  27.534  1.00  0.00    -0.248 NA
ATOM     46  C   UNL A   1      45.629  23.863  26.961  1.00  0.00     0.031 C 
ATOM     47  C   UNL A   1      40.887  24.960  28.189  1.00  0.00     0.029 A 
ATOM     48  N   UNL A   1      42.385  26.619  28.290  1.00  0.00    -0.354 N 
ATOM     49  C   UNL A   1      46.525  25.939  27.318  1.00  0.00     0.074 A 
ATOM     50  C   UNL A   1      46.766  24.542  27.027  1.00  0.00     0.031 C 
ATOM     51  C   UNL A   1      40.246  26.055  28.629  1.00  0.00     0.029 A 
ATOM     52  C   UNL A   1      41.193  27.164  28.698  1.00  0.00     0.049 A 
ATOM     53  H   UNL A   1      43.227  27.126  28.254  1.00  0.00     0.167 HD
ATOM     54  C   UNL A   1      47.488  26.893  27.336  1.00  0.00     0.037 A 
ATOM     55  C   UNL A   1      40.892  28.423  29.068  1.00  0.00     0.037 A 
ATOM     56  C   UNL A   1      47.243  28.285  27.610  1.00  0.00     0.049 A 
ATOM     57  C   UNL A   1      41.957  29.478  29.016  1.00  0.00     0.074 A 
ATOM     58  C   UNL A   1      48.135  29.344  27.577  1.00  0.00     0.029 A 
ATOM     59  N   UNL A   1      46.012  28.812  27.976  1.00  0.00    -0.354 N 
ATOM     60  N   UNL A   1      43.225  29.358  28.705  1.00  0.00    -0.248 NA
ATOM     61  C   UNL A   1      41.544  30.850  29.342  1.00  0.00     0.031 C 
ATOM     62  C   UNL A   1      47.450  30.505  27.960  1.00  0.00     0.029 A 
ATOM     63  C   UNL A   1      46.124  30.177  28.190  1.00  0.00     0.049 A 
ATOM     64  H   UNL A   1      45.182  28.293  28.069  1.00  0.00     0.167 HD
ATOM     65  C   UNL A   1      43.760  30.637  28.783  1.00  0.00     0.074 A 
ATOM     66  C   UNL A   1      42.670  31.521  29.149  1.00  0.00     0.031 C 
ATOM     67  C   UNL A   1      45.035  31.042  28.570  1.00  0.00     0.037 A 
BRANCH  54  68
ATOM     68  C   UNL A   1      48.895  26.451  27.051  1.00  0.00     0.057 A 
ATOM     69  C   UNL A   1      49.402  26.401  25.746  1.00  0.00     0.134 A 
ATOM     70  C   UNL A   1      49.752  26.073  28.091  1.00  0.00     0.134 A 
ATOM     71  F   UNL A   1      48.630  26.738  24.702  1.00  0.00    -0.206 F 
ATOM     72  C   UNL A   1      50.699  25.954  25.482  1.00  0.00     0.040 A 
ATOM     73  C   UNL A   1      51.059  25.651  27.842  1.00  0.00     0.040 A 
ATOM     74  F   UNL A   1      49.333  26.104  29.365  1.00  0.00    -0.206 F 
ATOM     75  C   UNL A   1      51.532  25.581  26.534  1.00  0.00     0.006 A 
ENDBRANCH  54  68
BRANCH  55  76
ATOM     76  C   UNL A   1      39.501  28.750  29.461  1.00  0.00     0.057 A 
ATOM     77  C   UNL A   1      39.073  28.619  30.786  1.00  0.00     0.134 A 
ATOM     78  C   UNL A   1      38.579  29.240  28.528  1.00  0.00     0.134 A 
ATOM     79  F   UNL A   1      39.908  28.140  31.721  1.00  0.00    -0.206 F 
ATOM     80  C   UNL A   1      37.775  28.957  31.172  1.00  0.00     0.040 A 
ATOM     81  C   UNL A   1      37.285  29.602  28.903  1.00  0.00     0.040 A 
ATOM     82  F   UNL A   1      38.935  29.400  27.245  1.00  0.00    -0.206 F 
ATOM     83  C   UNL A   1      36.879  29.458  30.229  1.00  0.00     0.006 A 
ENDBRANCH  55  76
BRANCH  67  84
ATOM     84  C   UNL A   1      45.316  32.507  28.723  1.00  0.00     0.057 A 
ATOM     85  C   UNL A   1      45.754  33.050  29.939  1.00  0.00     0.134 A 
ATOM     86  C   UNL A   1      45.157  33.384  27.643  1.00  0.00     0.134 A 
ATOM     87  F   UNL A   1      45.913  32.267  31.016  1.00  0.00    -0.206 F 
ATOM     88  C   UNL A   1      45.995  34.418  30.081  1.00  0.00     0.040 A 
ATOM     89  C   UNL A   1      45.419  34.748  27.766  1.00  0.00     0.040 A 
ATOM     90  F   UNL A   1      44.748  32.926  26.449  1.00  0.00    -0.206 F 
ATOM     91  C   UNL A   1      45.831  35.270  28.991  1.00  0.00     0.006 A 
ENDBRANCH  67  84
ENDBRANCH  41  42
ENDBRANCH  33  36
ENDBRANCH  31  32
ENDBRANCH  30  31
ENDBRANCH  29  30
ENDBRANCH  28  29
ENDBRANCH   1  28
TORSDOF 17
ENDMDL
