MODEL 1
REMARK VINA RESULT:     -11.7      0.000      0.000
REMARK SMILES Cc1ncccc1NC(=O)NC[C@H]1CCC[C@H]1C(=O)NCCCCCCNC(=O)c1ccc(-c2c3nc(c(-c4c(F)cccc4F)c4ccc([nH]4)c(-c4c(F)cccc4F)c4nc(c(-c5c(F)cccc5F)c5ccc2[nH]5)C=C4)C=C3)cc1
REMARK SMILES IDX 23 1 22 2 21 3 20 4 18 5 19 6 17 8 13 9 14 10 15 11 16 12
REMARK SMILES IDX 12 13 11 14 8 15 9 16 10 18 7 20 1 21 2 22 3 23 4 24 6 25
REMARK SMILES IDX 5 26 24 27 25 28 26 29 27 30 28 31 29 33 30 34 31 35 83 36
REMARK SMILES IDX 32 37 82 38 33 39 34 40 35 41 76 42 36 43 81 44 75 45 77 46
REMARK SMILES IDX 37 47 80 48 74 49 73 50 38 52 64 53 47 54 63 55 48 56 51 57
REMARK SMILES IDX 62 58 78 59 49 60 50 61 61 63 79 64 52 65 39 66 40 67 45 68
REMARK SMILES IDX 41 69 42 70 44 71 46 72 43 73 65 74 66 75 71 76 67 77 68 78
REMARK SMILES IDX 70 79 72 80 69 81 53 82 54 83 59 84 55 85 56 86 58 87 60 88
REMARK SMILES IDX 57 89
REMARK H PARENT 20 7 8 17 11 19 27 32 77 51 51 62
REMARK Flexibility Score: inf
ROOT
ATOM      1  C   UNL A   1      32.186  29.800  26.825  1.00  0.00     0.002 C 
ENDROOT
BRANCH   1   2
ATOM      2  C   UNL A   1      33.299  29.078  26.061  1.00  0.00     0.021 C 
BRANCH   2   3
ATOM      3  C   UNL A   1      33.443  27.580  26.390  1.00  0.00     0.116 C 
BRANCH   3   4
ATOM      4  N   UNL A   1      33.651  26.796  25.176  1.00  0.00    -0.356 N 
ATOM      5  C   UNL A   1      32.959  26.328  24.122  1.00  0.00     0.223 C 
ATOM      6  O   UNL A   1      33.643  25.642  23.345  1.00  0.00    -0.275 OA
ATOM      7  H   UNL A   1      34.594  26.525  25.107  1.00  0.00     0.163 HD
BRANCH   5   8
ATOM      8  C   UNL A   1      31.478  26.483  23.789  1.00  0.00     0.083 C 
ATOM      9  C   UNL A   1      30.461  25.565  24.507  1.00  0.00     0.021 C 
ATOM     10  C   UNL A   1      29.168  26.016  23.812  1.00  0.00     0.006 C 
ATOM     11  C   UNL A   1      29.291  27.536  23.673  1.00  0.00     0.001 C 
ATOM     12  C   UNL A   1      30.802  27.846  23.646  1.00  0.00     0.014 C 
BRANCH   9  13
ATOM     13  C   UNL A   1      30.399  25.658  26.045  1.00  0.00     0.122 C 
BRANCH  13  14
ATOM     14  N   UNL A   1      29.857  24.454  26.642  1.00  0.00    -0.338 N 
ATOM     15  N   UNL A   1      30.970  22.338  26.478  1.00  0.00    -0.306 N 
ATOM     16  C   UNL A   1      30.028  23.172  26.877  1.00  0.00     0.319 C 
ATOM     17  H   UNL A   1      30.871  21.473  26.938  1.00  0.00     0.171 HD
ATOM     18  O   UNL A   1      29.166  22.683  27.626  1.00  0.00    -0.249 OA
ATOM     19  H   UNL A   1      28.992  24.700  27.041  1.00  0.00     0.165 HD
BRANCH  15  20
ATOM     20  C   UNL A   1      32.064  22.292  25.609  1.00  0.00     0.064 A 
ATOM     21  C   UNL A   1      33.642  22.185  27.617  1.00  0.00     0.069 C 
ATOM     22  C   UNL A   1      33.369  22.284  26.140  1.00  0.00     0.061 A 
ATOM     23  N   UNL A   1      34.485  22.274  25.364  1.00  0.00    -0.259 NA
ATOM     24  C   UNL A   1      34.321  22.252  24.028  1.00  0.00     0.111 A 
ATOM     25  C   UNL A   1      31.955  22.199  24.231  1.00  0.00     0.030 A 
ATOM     26  C   UNL A   1      33.086  22.199  23.421  1.00  0.00     0.022 A 
ENDBRANCH  15  20
ENDBRANCH  13  14
ENDBRANCH   9  13
ENDBRANCH   5   8
ENDBRANCH   3   4
ENDBRANCH   2   3
ENDBRANCH   1   2
BRANCH   1  27
ATOM     27  C   UNL A   1      31.329  30.750  25.985  1.00  0.00     0.002 C 
BRANCH  27  28
ATOM     28  C   UNL A   1      31.320  32.218  26.428  1.00  0.00     0.021 C 
BRANCH  28  29
ATOM     29  C   UNL A   1      32.530  32.680  27.237  1.00  0.00     0.116 C 
BRANCH  29  30
ATOM     30  N   UNL A   1      32.439  34.080  27.624  1.00  0.00    -0.352 N 
ATOM     31  C   UNL A   1      33.093  34.781  28.605  1.00  0.00     0.251 C 
ATOM     32  H   UNL A   1      31.802  34.611  27.094  1.00  0.00     0.163 HD
ATOM     33  O   UNL A   1      32.711  35.908  28.906  1.00  0.00    -0.269 OA
BRANCH  31  34
ATOM     34  C   UNL A   1      34.257  34.198  29.308  1.00  0.00     0.039 A 
ATOM     35  C   UNL A   1      34.034  33.395  30.433  1.00  0.00     0.014 A 
ATOM     36  C   UNL A   1      35.562  34.492  28.910  1.00  0.00     0.014 A 
ATOM     37  C   UNL A   1      35.119  32.848  31.126  1.00  0.00     0.010 A 
ATOM     38  C   UNL A   1      36.640  33.893  29.560  1.00  0.00     0.010 A 
ATOM     39  C   UNL A   1      36.429  33.075  30.681  1.00  0.00    -0.014 A 
BRANCH  39  40
ATOM     40  C   UNL A   1      37.602  32.497  31.386  1.00  0.00     0.031 A 
ATOM     41  C   UNL A   1      38.335  31.327  30.788  1.00  0.00     0.074 A 
ATOM     42  C   UNL A   1      37.960  32.969  32.595  1.00  0.00     0.049 A 
ATOM     43  N   UNL A   1      39.298  30.602  31.299  1.00  0.00    -0.248 NA
ATOM     44  C   UNL A   1      37.905  30.898  29.448  1.00  0.00     0.031 C 
ATOM     45  C   UNL A   1      37.312  34.076  33.297  1.00  0.00     0.029 A 
ATOM     46  N   UNL A   1      38.945  32.557  33.458  1.00  0.00    -0.354 N 
ATOM     47  C   UNL A   1      39.570  29.619  30.356  1.00  0.00     0.074 A 
ATOM     48  C   UNL A   1      38.639  29.811  29.265  1.00  0.00     0.031 C 
ATOM     49  C   UNL A   1      37.922  34.262  34.479  1.00  0.00     0.029 A 
ATOM     50  C   UNL A   1      38.975  33.264  34.635  1.00  0.00     0.049 A 
ATOM     51  H   UNL A   1      39.571  31.825  33.253  1.00  0.00     0.167 HD
ATOM     52  C   UNL A   1      40.519  28.653  30.388  1.00  0.00     0.037 A 
ATOM     53  C   UNL A   1      39.753  33.113  35.724  1.00  0.00     0.037 A 
ATOM     54  C   UNL A   1      41.460  28.479  31.463  1.00  0.00     0.049 A 
ATOM     55  C   UNL A   1      40.799  32.034  35.741  1.00  0.00     0.074 A 
ATOM     56  C   UNL A   1      42.496  27.567  31.566  1.00  0.00     0.029 A 
ATOM     57  N   UNL A   1      41.476  29.235  32.627  1.00  0.00    -0.354 N 
ATOM     58  N   UNL A   1      41.081  31.143  34.821  1.00  0.00    -0.248 NA
ATOM     59  C   UNL A   1      41.639  31.941  36.943  1.00  0.00     0.031 C 
ATOM     60  C   UNL A   1      43.113  27.745  32.808  1.00  0.00     0.029 A 
ATOM     61  C   UNL A   1      42.494  28.799  33.459  1.00  0.00     0.049 A 
ATOM     62  H   UNL A   1      40.856  29.973  32.829  1.00  0.00     0.167 HD
ATOM     63  C   UNL A   1      42.148  30.406  35.318  1.00  0.00     0.074 A 
ATOM     64  C   UNL A   1      42.467  30.959  36.619  1.00  0.00     0.031 C 
ATOM     65  C   UNL A   1      42.806  29.367  34.747  1.00  0.00     0.037 A 
BRANCH  52  66
ATOM     66  C   UNL A   1      40.578  27.706  29.222  1.00  0.00     0.057 A 
ATOM     67  C   UNL A   1      39.714  26.608  29.116  1.00  0.00     0.134 A 
ATOM     68  C   UNL A   1      41.503  27.901  28.188  1.00  0.00     0.134 A 
ATOM     69  F   UNL A   1      38.811  26.358  30.077  1.00  0.00    -0.206 F 
ATOM     70  C   UNL A   1      39.792  25.717  28.045  1.00  0.00     0.040 A 
ATOM     71  C   UNL A   1      41.571  27.034  27.097  1.00  0.00     0.040 A 
ATOM     72  F   UNL A   1      42.354  28.936  28.221  1.00  0.00    -0.206 F 
ATOM     73  C   UNL A   1      40.720  25.931  27.028  1.00  0.00     0.006 A 
ENDBRANCH  52  66
BRANCH  53  74
ATOM     74  C   UNL A   1      39.584  34.027  36.881  1.00  0.00     0.057 A 
ATOM     75  C   UNL A   1      38.849  33.637  38.006  1.00  0.00     0.134 A 
ATOM     76  C   UNL A   1      40.164  35.302  36.900  1.00  0.00     0.134 A 
ATOM     77  F   UNL A   1      38.255  32.434  38.039  1.00  0.00    -0.206 F 
ATOM     78  C   UNL A   1      38.684  34.485  39.102  1.00  0.00     0.040 A 
ATOM     79  C   UNL A   1      40.027  36.151  37.999  1.00  0.00     0.040 A 
ATOM     80  F   UNL A   1      40.889  35.730  35.857  1.00  0.00    -0.206 F 
ATOM     81  C   UNL A   1      39.280  35.743  39.103  1.00  0.00     0.006 A 
ENDBRANCH  53  74
BRANCH  65  82
ATOM     82  C   UNL A   1      43.966  28.787  35.502  1.00  0.00     0.057 A 
ATOM     83  C   UNL A   1      43.798  27.781  36.462  1.00  0.00     0.134 A 
ATOM     84  C   UNL A   1      45.274  29.206  35.224  1.00  0.00     0.134 A 
ATOM     85  F   UNL A   1      42.570  27.346  36.783  1.00  0.00    -0.206 F 
ATOM     86  C   UNL A   1      44.888  27.225  37.133  1.00  0.00     0.040 A 
ATOM     87  C   UNL A   1      46.373  28.640  35.870  1.00  0.00     0.040 A 
ATOM     88  F   UNL A   1      45.504  30.160  34.309  1.00  0.00    -0.206 F 
ATOM     89  C   UNL A   1      46.182  27.649  36.830  1.00  0.00     0.006 A 
ENDBRANCH  65  82
ENDBRANCH  39  40
ENDBRANCH  31  34
ENDBRANCH  29  30
ENDBRANCH  28  29
ENDBRANCH  27  28
ENDBRANCH   1  27
TORSDOF 16
ENDMDL
MODEL 2
REMARK VINA RESULT:     -11.6      1.887      6.682
REMARK SMILES Cc1ncccc1NC(=O)NC[C@H]1CCC[C@H]1C(=O)NCCCCCCNC(=O)c1ccc(-c2c3nc(c(-c4c(F)cccc4F)c4ccc([nH]4)c(-c4c(F)cccc4F)c4nc(c(-c5c(F)cccc5F)c5ccc2[nH]5)C=C4)C=C3)cc1
REMARK SMILES IDX 23 1 22 2 21 3 20 4 18 5 19 6 17 8 13 9 14 10 15 11 16 12
REMARK SMILES IDX 12 13 11 14 8 15 9 16 10 18 7 20 1 21 2 22 3 23 4 24 6 25
REMARK SMILES IDX 5 26 24 27 25 28 26 29 27 30 28 31 29 33 30 34 31 35 83 36
REMARK SMILES IDX 32 37 82 38 33 39 34 40 35 41 76 42 36 43 81 44 75 45 77 46
REMARK SMILES IDX 37 47 80 48 74 49 73 50 38 52 64 53 47 54 63 55 48 56 51 57
REMARK SMILES IDX 62 58 78 59 49 60 50 61 61 63 79 64 52 65 39 66 40 67 45 68
REMARK SMILES IDX 41 69 42 70 44 71 46 72 43 73 65 74 66 75 71 76 67 77 68 78
REMARK SMILES IDX 70 79 72 80 69 81 53 82 54 83 59 84 55 85 56 86 58 87 60 88
REMARK SMILES IDX 57 89
REMARK H PARENT 20 7 8 17 11 19 27 32 77 51 51 62
REMARK Flexibility Score: inf
ROOT
ATOM      1  C   UNL A   1      34.667  33.043  27.855  1.00  0.00     0.002 C 
ENDROOT
BRANCH   1   2
ATOM      2  C   UNL A   1      35.213  31.647  28.162  1.00  0.00     0.021 C 
BRANCH   2   3
ATOM      3  C   UNL A   1      34.348  30.484  27.641  1.00  0.00     0.116 C 
BRANCH   3   4
ATOM      4  N   UNL A   1      33.113  30.980  27.040  1.00  0.00    -0.356 N 
ATOM      5  C   UNL A   1      31.983  30.516  26.478  1.00  0.00     0.223 C 
ATOM      6  O   UNL A   1      31.226  31.413  26.072  1.00  0.00    -0.275 OA
ATOM      7  H   UNL A   1      33.104  31.964  27.050  1.00  0.00     0.163 HD
BRANCH   5   8
ATOM      8  C   UNL A   1      31.542  29.075  26.236  1.00  0.00     0.083 C 
ATOM      9  C   UNL A   1      31.863  28.425  24.871  1.00  0.00     0.021 C 
ATOM     10  C   UNL A   1      31.179  27.064  25.064  1.00  0.00     0.006 C 
ATOM     11  C   UNL A   1      31.475  26.662  26.511  1.00  0.00     0.001 C 
ATOM     12  C   UNL A   1      31.702  27.976  27.286  1.00  0.00     0.014 C 
BRANCH   9  13
ATOM     13  C   UNL A   1      33.352  28.317  24.481  1.00  0.00     0.122 C 
BRANCH  13  14
ATOM     14  N   UNL A   1      33.530  27.694  23.184  1.00  0.00    -0.338 N 
ATOM     15  N   UNL A   1      33.544  25.315  22.904  1.00  0.00    -0.306 N 
ATOM     16  C   UNL A   1      33.581  26.571  22.503  1.00  0.00     0.319 C 
ATOM     17  H   UNL A   1      33.475  24.715  22.126  1.00  0.00     0.171 HD
ATOM     18  O   UNL A   1      33.647  26.736  21.274  1.00  0.00    -0.249 OA
ATOM     19  H   UNL A   1      33.673  28.422  22.538  1.00  0.00     0.165 HD
BRANCH  15  20
ATOM     20  C   UNL A   1      33.570  24.563  24.083  1.00  0.00     0.064 A 
ATOM     21  C   UNL A   1      31.304  23.548  23.476  1.00  0.00     0.069 C 
ATOM     22  C   UNL A   1      32.466  23.752  24.412  1.00  0.00     0.061 A 
ATOM     23  N   UNL A   1      32.399  23.018  25.553  1.00  0.00    -0.259 NA
ATOM     24  C   UNL A   1      33.451  23.063  26.392  1.00  0.00     0.111 A 
ATOM     25  C   UNL A   1      34.651  24.518  24.948  1.00  0.00     0.030 A 
ATOM     26  C   UNL A   1      34.596  23.781  26.127  1.00  0.00     0.022 A 
ENDBRANCH  15  20
ENDBRANCH  13  14
ENDBRANCH   9  13
ENDBRANCH   5   8
ENDBRANCH   3   4
ENDBRANCH   2   3
ENDBRANCH   1   2
BRANCH   1  27
ATOM     27  C   UNL A   1      34.498  33.959  29.070  1.00  0.00     0.002 C 
BRANCH  27  28
ATOM     28  C   UNL A   1      33.164  34.709  29.167  1.00  0.00     0.021 C 
BRANCH  28  29
ATOM     29  C   UNL A   1      33.253  36.184  29.555  1.00  0.00     0.116 C 
BRANCH  29  30
ATOM     30  N   UNL A   1      32.522  36.482  30.778  1.00  0.00    -0.352 N 
ATOM     31  C   UNL A   1      32.666  35.987  32.049  1.00  0.00     0.251 C 
ATOM     32  H   UNL A   1      31.806  37.149  30.676  1.00  0.00     0.163 HD
ATOM     33  O   UNL A   1      31.804  36.213  32.893  1.00  0.00    -0.269 OA
BRANCH  31  34
ATOM     34  C   UNL A   1      33.850  35.181  32.420  1.00  0.00     0.039 A 
ATOM     35  C   UNL A   1      33.661  33.872  32.879  1.00  0.00     0.014 A 
ATOM     36  C   UNL A   1      35.135  35.728  32.385  1.00  0.00     0.014 A 
ATOM     37  C   UNL A   1      34.763  33.098  33.254  1.00  0.00     0.010 A 
ATOM     38  C   UNL A   1      36.237  34.934  32.696  1.00  0.00     0.010 A 
ATOM     39  C   UNL A   1      36.062  33.616  33.145  1.00  0.00    -0.014 A 
BRANCH  39  40
ATOM     40  C   UNL A   1      37.254  32.814  33.521  1.00  0.00     0.031 A 
ATOM     41  C   UNL A   1      37.974  33.099  34.811  1.00  0.00     0.074 A 
ATOM     42  C   UNL A   1      37.736  31.886  32.673  1.00  0.00     0.049 A 
ATOM     43  N   UNL A   1      39.098  32.603  35.262  1.00  0.00    -0.248 NA
ATOM     44  C   UNL A   1      37.361  34.102  35.696  1.00  0.00     0.031 C 
ATOM     45  C   UNL A   1      37.149  31.536  31.380  1.00  0.00     0.029 A 
ATOM     46  N   UNL A   1      38.846  31.083  32.765  1.00  0.00    -0.354 N 
ATOM     47  C   UNL A   1      39.339  33.249  36.468  1.00  0.00     0.074 A 
ATOM     48  C   UNL A   1      38.270  34.206  36.654  1.00  0.00     0.031 C 
ATOM     49  C   UNL A   1      37.899  30.583  30.802  1.00  0.00     0.029 A 
ATOM     50  C   UNL A   1      39.038  30.285  31.664  1.00  0.00     0.049 A 
ATOM     51  H   UNL A   1      39.446  31.080  33.545  1.00  0.00     0.167 HD
ATOM     52  C   UNL A   1      40.349  33.051  37.348  1.00  0.00     0.037 A 
ATOM     53  C   UNL A   1      40.031  29.422  31.375  1.00  0.00     0.037 A 
ATOM     54  C   UNL A   1      41.398  32.082  37.171  1.00  0.00     0.049 A 
ATOM     55  C   UNL A   1      41.144  29.219  32.364  1.00  0.00     0.074 A 
ATOM     56  C   UNL A   1      42.435  31.765  38.031  1.00  0.00     0.029 A 
ATOM     57  N   UNL A   1      41.542  31.270  36.055  1.00  0.00    -0.354 N 
ATOM     58  N   UNL A   1      41.333  29.798  33.525  1.00  0.00    -0.248 NA
ATOM     59  C   UNL A   1      42.180  28.239  32.007  1.00  0.00     0.031 C 
ATOM     60  C   UNL A   1      43.230  30.792  37.416  1.00  0.00     0.029 A 
ATOM     61  C   UNL A   1      42.661  30.467  36.196  1.00  0.00     0.049 A 
ATOM     62  H   UNL A   1      40.937  31.267  35.278  1.00  0.00     0.167 HD
ATOM     63  C   UNL A   1      42.488  29.233  34.050  1.00  0.00     0.074 A 
ATOM     64  C   UNL A   1      42.953  28.260  33.083  1.00  0.00     0.031 C 
ATOM     65  C   UNL A   1      43.105  29.494  35.229  1.00  0.00     0.037 A 
BRANCH  52  66
ATOM     66  C   UNL A   1      40.367  33.912  38.580  1.00  0.00     0.057 A 
ATOM     67  C   UNL A   1      39.644  33.572  39.731  1.00  0.00     0.134 A 
ATOM     68  C   UNL A   1      41.124  35.090  38.619  1.00  0.00     0.134 A 
ATOM     69  F   UNL A   1      38.889  32.462  39.758  1.00  0.00    -0.206 F 
ATOM     70  C   UNL A   1      39.642  34.390  40.862  1.00  0.00     0.040 A 
ATOM     71  C   UNL A   1      41.154  35.901  39.754  1.00  0.00     0.040 A 
ATOM     72  F   UNL A   1      41.847  35.472  37.555  1.00  0.00    -0.206 F 
ATOM     73  C   UNL A   1      40.403  35.557  40.877  1.00  0.00     0.006 A 
ENDBRANCH  52  66
BRANCH  53  74
ATOM     74  C   UNL A   1      40.001  28.666  30.098  1.00  0.00     0.057 A 
ATOM     75  C   UNL A   1      39.291  27.465  29.988  1.00  0.00     0.134 A 
ATOM     76  C   UNL A   1      40.664  29.131  28.955  1.00  0.00     0.134 A 
ATOM     77  F   UNL A   1      38.651  26.960  31.053  1.00  0.00    -0.206 F 
ATOM     78  C   UNL A   1      39.252  26.745  28.792  1.00  0.00     0.040 A 
ATOM     79  C   UNL A   1      40.614  28.434  27.747  1.00  0.00     0.040 A 
ATOM     80  F   UNL A   1      41.353  30.281  28.994  1.00  0.00    -0.206 F 
ATOM     81  C   UNL A   1      39.910  27.234  27.666  1.00  0.00     0.006 A 
ENDBRANCH  53  74
BRANCH  65  82
ATOM     82  C   UNL A   1      44.326  28.687  35.563  1.00  0.00     0.057 A 
ATOM     83  C   UNL A   1      44.244  27.469  36.249  1.00  0.00     0.134 A 
ATOM     84  C   UNL A   1      45.594  29.112  35.145  1.00  0.00     0.134 A 
ATOM     85  F   UNL A   1      43.060  27.014  36.688  1.00  0.00    -0.206 F 
ATOM     86  C   UNL A   1      45.383  26.710  36.524  1.00  0.00     0.040 A 
ATOM     87  C   UNL A   1      46.736  28.350  35.392  1.00  0.00     0.040 A 
ATOM     88  F   UNL A   1      45.739  30.266  34.476  1.00  0.00    -0.206 F 
ATOM     89  C   UNL A   1      46.633  27.147  36.087  1.00  0.00     0.006 A 
ENDBRANCH  65  82
ENDBRANCH  39  40
ENDBRANCH  31  34
ENDBRANCH  29  30
ENDBRANCH  28  29
ENDBRANCH  27  28
ENDBRANCH   1  27
TORSDOF 16
ENDMDL
MODEL 3
REMARK VINA RESULT:     -11.6      1.155      2.052
REMARK SMILES Cc1ncccc1NC(=O)NC[C@H]1CCC[C@H]1C(=O)NCCCCCCNC(=O)c1ccc(-c2c3nc(c(-c4c(F)cccc4F)c4ccc([nH]4)c(-c4c(F)cccc4F)c4nc(c(-c5c(F)cccc5F)c5ccc2[nH]5)C=C4)C=C3)cc1
REMARK SMILES IDX 23 1 22 2 21 3 20 4 18 5 19 6 17 8 13 9 14 10 15 11 16 12
REMARK SMILES IDX 12 13 11 14 8 15 9 16 10 18 7 20 1 21 2 22 3 23 4 24 6 25
REMARK SMILES IDX 5 26 24 27 25 28 26 29 27 30 28 31 29 33 30 34 31 35 83 36
REMARK SMILES IDX 32 37 82 38 33 39 34 40 35 41 76 42 36 43 81 44 75 45 77 46
REMARK SMILES IDX 37 47 80 48 74 49 73 50 38 52 64 53 47 54 63 55 48 56 51 57
REMARK SMILES IDX 62 58 78 59 49 60 50 61 61 63 79 64 52 65 39 66 40 67 45 68
REMARK SMILES IDX 41 69 42 70 44 71 46 72 43 73 65 74 66 75 71 76 67 77 68 78
REMARK SMILES IDX 70 79 72 80 69 81 53 82 54 83 59 84 55 85 56 86 58 87 60 88
REMARK SMILES IDX 57 89
REMARK H PARENT 20 7 8 17 11 19 27 32 77 51 51 62
REMARK Flexibility Score: inf
ROOT
ATOM      1  C   UNL A   1      32.063  29.817  25.269  1.00  0.00     0.002 C 
ENDROOT
BRANCH   1   2
ATOM      2  C   UNL A   1      30.892  29.181  24.515  1.00  0.00     0.021 C 
BRANCH   2   3
ATOM      3  C   UNL A   1      30.855  29.478  23.005  1.00  0.00     0.116 C 
BRANCH   3   4
ATOM      4  N   UNL A   1      30.992  28.250  22.227  1.00  0.00    -0.356 N 
ATOM      5  C   UNL A   1      31.577  27.043  22.304  1.00  0.00     0.223 C 
ATOM      6  O   UNL A   1      31.403  26.341  21.294  1.00  0.00    -0.275 OA
ATOM      7  H   UNL A   1      30.500  28.333  21.378  1.00  0.00     0.163 HD
BRANCH   5   8
ATOM      8  C   UNL A   1      32.442  26.454  23.416  1.00  0.00     0.083 C 
ATOM      9  C   UNL A   1      31.740  25.837  24.647  1.00  0.00     0.021 C 
ATOM     10  C   UNL A   1      32.970  25.471  25.491  1.00  0.00     0.006 C 
ATOM     11  C   UNL A   1      34.000  24.934  24.494  1.00  0.00     0.001 C 
ATOM     12  C   UNL A   1      33.667  25.584  23.136  1.00  0.00     0.014 C 
BRANCH   9  13
ATOM     13  C   UNL A   1      30.793  24.647  24.389  1.00  0.00     0.122 C 
BRANCH  13  14
ATOM     14  N   UNL A   1      30.275  24.088  25.622  1.00  0.00    -0.338 N 
ATOM     15  N   UNL A   1      31.340  22.254  26.736  1.00  0.00    -0.306 N 
ATOM     16  C   UNL A   1      30.441  23.208  26.584  1.00  0.00     0.319 C 
ATOM     17  H   UNL A   1      31.259  21.856  27.633  1.00  0.00     0.171 HD
ATOM     18  O   UNL A   1      29.626  23.325  27.513  1.00  0.00    -0.249 OA
ATOM     19  H   UNL A   1      29.444  24.574  25.826  1.00  0.00     0.165 HD
BRANCH  15  20
ATOM     20  C   UNL A   1      32.370  21.627  26.028  1.00  0.00     0.064 A 
ATOM     21  C   UNL A   1      34.057  22.476  27.752  1.00  0.00     0.069 C 
ATOM     22  C   UNL A   1      33.701  21.778  26.466  1.00  0.00     0.061 A 
ATOM     23  N   UNL A   1      34.762  21.230  25.816  1.00  0.00    -0.259 NA
ATOM     24  C   UNL A   1      34.513  20.497  24.714  1.00  0.00     0.111 A 
ATOM     25  C   UNL A   1      32.168  20.807  24.931  1.00  0.00     0.030 A 
ATOM     26  C   UNL A   1      33.242  20.247  24.246  1.00  0.00     0.022 A 
ENDBRANCH  15  20
ENDBRANCH  13  14
ENDBRANCH   9  13
ENDBRANCH   5   8
ENDBRANCH   3   4
ENDBRANCH   2   3
ENDBRANCH   1   2
BRANCH   1  27
ATOM     27  C   UNL A   1      31.717  30.393  26.644  1.00  0.00     0.002 C 
BRANCH  27  28
ATOM     28  C   UNL A   1      31.508  31.911  26.703  1.00  0.00     0.021 C 
BRANCH  28  29
ATOM     29  C   UNL A   1      32.768  32.754  26.891  1.00  0.00     0.116 C 
BRANCH  29  30
ATOM     30  N   UNL A   1      32.496  34.021  27.554  1.00  0.00    -0.352 N 
ATOM     31  C   UNL A   1      33.053  34.581  28.676  1.00  0.00     0.251 C 
ATOM     32  H   UNL A   1      31.798  34.566  27.125  1.00  0.00     0.163 HD
ATOM     33  O   UNL A   1      32.528  35.564  29.190  1.00  0.00    -0.269 OA
BRANCH  31  34
ATOM     34  C   UNL A   1      34.280  34.015  29.278  1.00  0.00     0.039 A 
ATOM     35  C   UNL A   1      35.524  34.390  28.756  1.00  0.00     0.014 A 
ATOM     36  C   UNL A   1      34.212  33.069  30.302  1.00  0.00     0.014 A 
ATOM     37  C   UNL A   1      36.697  33.854  29.294  1.00  0.00     0.010 A 
ATOM     38  C   UNL A   1      35.383  32.585  30.882  1.00  0.00     0.010 A 
ATOM     39  C   UNL A   1      36.636  32.964  30.377  1.00  0.00    -0.014 A 
BRANCH  39  40
ATOM     40  C   UNL A   1      37.865  32.388  30.981  1.00  0.00     0.031 A 
ATOM     41  C   UNL A   1      38.517  31.186  30.355  1.00  0.00     0.074 A 
ATOM     42  C   UNL A   1      38.348  32.893  32.132  1.00  0.00     0.049 A 
ATOM     43  N   UNL A   1      39.515  30.461  30.792  1.00  0.00    -0.248 NA
ATOM     44  C   UNL A   1      37.948  30.720  29.080  1.00  0.00     0.031 C 
ATOM     45  C   UNL A   1      37.791  34.035  32.855  1.00  0.00     0.029 A 
ATOM     46  N   UNL A   1      39.409  32.492  32.906  1.00  0.00    -0.354 N 
ATOM     47  C   UNL A   1      39.677  29.442  29.862  1.00  0.00     0.074 A 
ATOM     48  C   UNL A   1      38.644  29.615  28.863  1.00  0.00     0.031 C 
ATOM     49  C   UNL A   1      38.519  34.249  33.964  1.00  0.00     0.029 A 
ATOM     50  C   UNL A   1      39.567  33.237  34.049  1.00  0.00     0.049 A 
ATOM     51  H   UNL A   1      40.000  31.743  32.665  1.00  0.00     0.167 HD
ATOM     52  C   UNL A   1      40.611  28.460  29.833  1.00  0.00     0.037 A 
ATOM     53  C   UNL A   1      40.447  33.109  35.059  1.00  0.00     0.037 A 
ATOM     54  C   UNL A   1      41.651  28.305  30.815  1.00  0.00     0.049 A 
ATOM     55  C   UNL A   1      41.474  32.012  35.010  1.00  0.00     0.074 A 
ATOM     56  C   UNL A   1      42.679  27.379  30.845  1.00  0.00     0.029 A 
ATOM     57  N   UNL A   1      41.795  29.099  31.944  1.00  0.00    -0.354 N 
ATOM     58  N   UNL A   1      41.649  31.086  34.099  1.00  0.00    -0.248 NA
ATOM     59  C   UNL A   1      42.428  31.944  36.126  1.00  0.00     0.031 C 
ATOM     60  C   UNL A   1      43.420  27.586  32.014  1.00  0.00     0.029 A 
ATOM     61  C   UNL A   1      42.884  28.673  32.686  1.00  0.00     0.049 A 
ATOM     62  H   UNL A   1      41.209  29.855  32.181  1.00  0.00     0.167 HD
ATOM     63  C   UNL A   1      42.749  30.346  34.512  1.00  0.00     0.074 A 
ATOM     64  C   UNL A   1      43.205  30.936  35.755  1.00  0.00     0.031 C 
ATOM     65  C   UNL A   1      43.332  29.277  33.916  1.00  0.00     0.037 A 
BRANCH  52  66
ATOM     66  C   UNL A   1      40.538  27.475  28.701  1.00  0.00     0.057 A 
ATOM     67  C   UNL A   1      41.315  27.618  27.543  1.00  0.00     0.134 A 
ATOM     68  C   UNL A   1      39.690  26.363  28.774  1.00  0.00     0.134 A 
ATOM     69  F   UNL A   1      42.141  28.667  27.404  1.00  0.00    -0.206 F 
ATOM     70  C   UNL A   1      41.222  26.715  26.483  1.00  0.00     0.040 A 
ATOM     71  C   UNL A   1      39.610  25.435  27.733  1.00  0.00     0.040 A 
ATOM     72  F   UNL A   1      38.925  26.158  29.856  1.00  0.00    -0.206 F 
ATOM     73  C   UNL A   1      40.370  25.616  26.579  1.00  0.00     0.006 A 
ENDBRANCH  52  66
BRANCH  53  74
ATOM     74  C   UNL A   1      40.409  34.064  36.196  1.00  0.00     0.057 A 
ATOM     75  C   UNL A   1      39.592  33.828  37.307  1.00  0.00     0.134 A 
ATOM     76  C   UNL A   1      41.195  35.222  36.207  1.00  0.00     0.134 A 
ATOM     77  F   UNL A   1      38.802  32.744  37.346  1.00  0.00    -0.206 F 
ATOM     78  C   UNL A   1      39.547  34.716  38.383  1.00  0.00     0.040 A 
ATOM     79  C   UNL A   1      41.179  36.107  37.286  1.00  0.00     0.040 A 
ATOM     80  F   UNL A   1      42.007  35.499  35.176  1.00  0.00    -0.206 F 
ATOM     81  C   UNL A   1      40.348  35.856  38.377  1.00  0.00     0.006 A 
ENDBRANCH  53  74
BRANCH  65  82
ATOM     82  C   UNL A   1      44.553  28.701  34.571  1.00  0.00     0.057 A 
ATOM     83  C   UNL A   1      45.838  29.185  34.298  1.00  0.00     0.134 A 
ATOM     84  C   UNL A   1      44.432  27.683  35.525  1.00  0.00     0.134 A 
ATOM     85  F   UNL A   1      46.022  30.150  33.384  1.00  0.00    -0.206 F 
ATOM     86  C   UNL A   1      46.964  28.664  34.939  1.00  0.00     0.040 A 
ATOM     87  C   UNL A   1      45.547  27.171  36.190  1.00  0.00     0.040 A 
ATOM     88  F   UNL A   1      43.228  27.181  35.838  1.00  0.00    -0.206 F 
ATOM     89  C   UNL A   1      46.818  27.659  35.895  1.00  0.00     0.006 A 
ENDBRANCH  65  82
ENDBRANCH  39  40
ENDBRANCH  31  34
ENDBRANCH  29  30
ENDBRANCH  28  29
ENDBRANCH  27  28
ENDBRANCH   1  27
TORSDOF 16
ENDMDL
