MODEL 1
REMARK VINA RESULT:     -11.9      0.000      0.000
REMARK SMILES O=C(NCCCCCCNC(=O)c1[nH]ncc1C[N@H+]1CCC[C@@H](C(=O)c2ccc(Oc3ccccc3)cc2)C1)c1ccc(-c2c3nc(c(-c4c(F)cccc4F)c4ccc([nH]4)c(-c4c(F)cccc4F)c4nc(c(-c5c(F)cccc5F)c5ccc2[nH]5)C=C4)C=C3)cc1
REMARK SMILES IDX 8 1 7 2 6 3 5 4 4 5 3 6 1 7 2 8 40 10 41 11 93 12 42 13
REMARK SMILES IDX 92 14 43 15 44 16 45 17 86 18 46 19 91 20 85 21 87 22 47 23
REMARK SMILES IDX 90 24 84 25 83 26 48 28 74 29 57 30 73 31 58 32 61 33 72 34
REMARK SMILES IDX 88 35 59 36 60 37 71 39 89 40 62 41 49 42 50 43 55 44 51 45
REMARK SMILES IDX 52 46 54 47 56 48 53 49 75 50 76 51 81 52 77 53 78 54 80 55
REMARK SMILES IDX 82 56 79 57 63 58 64 59 69 60 65 61 66 62 68 63 70 64 67 65
REMARK SMILES IDX 9 66 10 67 11 68 12 70 13 71 14 72 17 73 15 74 16 76 18 77
REMARK SMILES IDX 19 78 20 79 39 80 21 82 23 83 22 84 24 85 25 86 26 87 27 88
REMARK SMILES IDX 38 89 28 90 37 91 29 92 30 93 31 94 32 95 36 96 33 97 35 98
REMARK SMILES IDX 34 99
REMARK H PARENT 3 9 87 27 61 38 10 69 14 75 19 81
REMARK Flexibility Score: inf
ROOT
ATOM      1  C   UNL A   1      33.475  28.575  26.802  1.00  0.00     0.021 C 
ENDROOT
BRANCH   1   2
ATOM      2  C   UNL A   1      32.982  29.814  26.049  1.00  0.00     0.002 C 
BRANCH   2   3
ATOM      3  C   UNL A   1      31.568  30.293  26.389  1.00  0.00     0.002 C 
BRANCH   3   4
ATOM      4  C   UNL A   1      31.410  31.788  26.667  1.00  0.00     0.021 C 
BRANCH   4   5
ATOM      5  C   UNL A   1      32.707  32.579  26.785  1.00  0.00     0.116 C 
BRANCH   5   6
ATOM      6  N   UNL A   1      32.521  33.883  27.397  1.00  0.00    -0.352 N 
ATOM      7  O   UNL A   1      32.811  35.523  28.915  1.00  0.00    -0.269 OA
ATOM      8  C   UNL A   1      33.191  34.451  28.453  1.00  0.00     0.251 C 
ATOM      9  H   UNL A   1      31.814  34.439  26.997  1.00  0.00     0.163 HD
BRANCH   8  10
ATOM     10  C   UNL A   1      34.352  33.760  29.056  1.00  0.00     0.039 A 
ATOM     11  C   UNL A   1      35.657  34.199  28.820  1.00  0.00     0.014 A 
ATOM     12  C   UNL A   1      34.121  32.666  29.895  1.00  0.00     0.014 A 
ATOM     13  C   UNL A   1      36.734  33.473  29.325  1.00  0.00     0.010 A 
ATOM     14  C   UNL A   1      35.200  31.978  30.456  1.00  0.00     0.010 A 
ATOM     15  C   UNL A   1      36.515  32.362  30.155  1.00  0.00    -0.014 A 
BRANCH  15  16
ATOM     16  C   UNL A   1      37.674  31.647  30.746  1.00  0.00     0.031 A 
ATOM     17  C   UNL A   1      38.065  31.855  32.180  1.00  0.00     0.074 A 
ATOM     18  C   UNL A   1      38.372  30.794  29.971  1.00  0.00     0.049 A 
ATOM     19  N   UNL A   1      39.049  31.313  32.853  1.00  0.00    -0.248 NA
ATOM     20  C   UNL A   1      37.251  32.799  32.963  1.00  0.00     0.031 C 
ATOM     21  C   UNL A   1      38.097  30.521  28.559  1.00  0.00     0.029 A 
ATOM     22  N   UNL A   1      39.447  29.995  30.262  1.00  0.00    -0.354 N 
ATOM     23  C   UNL A   1      38.986  31.859  34.128  1.00  0.00     0.074 A 
ATOM     24  C   UNL A   1      37.878  32.792  34.132  1.00  0.00     0.031 C 
ATOM     25  C   UNL A   1      38.957  29.592  28.117  1.00  0.00     0.029 A 
ATOM     26  C   UNL A   1      39.874  29.242  29.196  1.00  0.00     0.049 A 
ATOM     27  H   UNL A   1      39.872  29.964  31.150  1.00  0.00     0.167 HD
ATOM     28  C   UNL A   1      39.777  31.601  35.198  1.00  0.00     0.037 A 
ATOM     29  C   UNL A   1      40.896  28.375  29.094  1.00  0.00     0.037 A 
ATOM     30  C   UNL A   1      40.869  30.662  35.196  1.00  0.00     0.049 A 
ATOM     31  C   UNL A   1      41.763  28.117  30.290  1.00  0.00     0.074 A 
ATOM     32  C   UNL A   1      41.701  30.304  36.242  1.00  0.00     0.029 A 
ATOM     33  N   UNL A   1      41.281  29.932  34.091  1.00  0.00    -0.354 N 
ATOM     34  N   UNL A   1      41.671  28.619  31.497  1.00  0.00    -0.248 NA
ATOM     35  C   UNL A   1      42.878  27.178  30.109  1.00  0.00     0.031 C 
ATOM     36  C   UNL A   1      42.640  29.383  35.761  1.00  0.00     0.029 A 
ATOM     37  C   UNL A   1      42.368  29.140  34.425  1.00  0.00     0.049 A 
ATOM     38  H   UNL A   1      40.862  29.971  33.201  1.00  0.00     0.167 HD
ATOM     39  C   UNL A   1      42.707  28.048  32.223  1.00  0.00     0.074 A 
ATOM     40  C   UNL A   1      43.403  27.150  31.326  1.00  0.00     0.031 C 
ATOM     41  C   UNL A   1      43.052  28.254  33.517  1.00  0.00     0.037 A 
BRANCH  28  42
ATOM     42  C   UNL A   1      39.499  32.357  36.463  1.00  0.00     0.057 A 
ATOM     43  C   UNL A   1      40.216  33.509  36.809  1.00  0.00     0.134 A 
ATOM     44  C   UNL A   1      38.471  31.951  37.325  1.00  0.00     0.134 A 
ATOM     45  F   UNL A   1      41.220  33.943  36.033  1.00  0.00    -0.206 F 
ATOM     46  C   UNL A   1      39.932  34.222  37.976  1.00  0.00     0.040 A 
ATOM     47  C   UNL A   1      38.164  32.666  38.483  1.00  0.00     0.040 A 
ATOM     48  F   UNL A   1      37.742  30.859  37.049  1.00  0.00    -0.206 F 
ATOM     49  C   UNL A   1      38.900  33.804  38.814  1.00  0.00     0.006 A 
ENDBRANCH  28  42
BRANCH  29  50
ATOM     50  C   UNL A   1      41.148  27.689  27.804  1.00  0.00     0.057 A 
ATOM     51  C   UNL A   1      42.010  28.240  26.851  1.00  0.00     0.134 A 
ATOM     52  C   UNL A   1      40.554  26.456  27.508  1.00  0.00     0.134 A 
ATOM     53  F   UNL A   1      42.594  29.426  27.074  1.00  0.00    -0.206 F 
ATOM     54  C   UNL A   1      42.269  27.592  25.641  1.00  0.00     0.040 A 
ATOM     55  C   UNL A   1      40.822  25.787  26.313  1.00  0.00     0.040 A 
ATOM     56  F   UNL A   1      39.726  25.875  28.387  1.00  0.00    -0.206 F 
ATOM     57  C   UNL A   1      41.679  26.358  25.375  1.00  0.00     0.006 A 
ENDBRANCH  29  50
BRANCH  41  58
ATOM     58  C   UNL A   1      44.223  27.480  34.038  1.00  0.00     0.057 A 
ATOM     59  C   UNL A   1      44.069  26.202  34.593  1.00  0.00     0.134 A 
ATOM     60  C   UNL A   1      45.518  28.006  33.964  1.00  0.00     0.134 A 
ATOM     61  F   UNL A   1      42.851  25.652  34.706  1.00  0.00    -0.206 F 
ATOM     62  C   UNL A   1      45.164  25.483  35.074  1.00  0.00     0.040 A 
ATOM     63  C   UNL A   1      46.622  27.286  34.423  1.00  0.00     0.040 A 
ATOM     64  F   UNL A   1      45.730  29.221  33.439  1.00  0.00    -0.206 F 
ATOM     65  C   UNL A   1      46.446  26.024  34.985  1.00  0.00     0.006 A 
ENDBRANCH  41  58
ENDBRANCH  15  16
ENDBRANCH   8  10
ENDBRANCH   5   6
ENDBRANCH   4   5
ENDBRANCH   3   4
ENDBRANCH   2   3
ENDBRANCH   1   2
BRANCH   1  66
ATOM     66  C   UNL A   1      33.265  27.244  26.088  1.00  0.00     0.116 C 
BRANCH  66  67
ATOM     67  N   UNL A   1      32.049  26.562  26.510  1.00  0.00    -0.351 N 
ATOM     68  C   UNL A   1      30.896  26.365  25.810  1.00  0.00     0.269 C 
ATOM     69  H   UNL A   1      32.063  26.193  27.422  1.00  0.00     0.163 HD
ATOM     70  O   UNL A   1      29.905  25.939  26.410  1.00  0.00    -0.268 OA
BRANCH  68  71
ATOM     71  C   UNL A   1      30.849  26.734  24.428  1.00  0.00     0.131 A 
ATOM     72  N   UNL A   1      30.454  27.982  24.030  1.00  0.00    -0.272 N 
ATOM     73  C   UNL A   1      31.103  26.031  23.249  1.00  0.00     0.057 A 
ATOM     74  N   UNL A   1      30.637  28.216  22.723  1.00  0.00    -0.183 NA
ATOM     75  H   UNL A   1      30.070  28.647  24.647  1.00  0.00     0.190 HD
ATOM     76  C   UNL A   1      31.021  27.031  22.249  1.00  0.00     0.145 A 
BRANCH  73  77
ATOM     77  C   UNL A   1      31.455  24.587  23.085  1.00  0.00     0.303 C 
BRANCH  77  78
ATOM     78  N   UNL A   1      32.389  24.056  24.086  1.00  0.00    -0.330 N 
ATOM     79  C   UNL A   1      31.826  22.968  24.895  1.00  0.00     0.262 C 
ATOM     80  C   UNL A   1      33.705  23.716  23.541  1.00  0.00     0.274 C 
ATOM     81  H   UNL A   1      32.543  24.834  24.726  1.00  0.00     0.348 HD
ATOM     82  C   UNL A   1      32.770  22.603  26.046  1.00  0.00     0.062 C 
ATOM     83  C   UNL A   1      34.705  23.381  24.653  1.00  0.00     0.116 C 
ATOM     84  C   UNL A   1      34.166  22.253  25.536  1.00  0.00     0.023 C 
BRANCH  83  85
ATOM     85  C   UNL A   1      36.008  22.984  23.975  1.00  0.00     0.171 C 
ATOM     86  O   UNL A   1      36.190  23.080  22.763  1.00  0.00    -0.294 OA
BRANCH  85  87
ATOM     87  C   UNL A   1      37.151  22.595  24.835  1.00  0.00     0.018 A 
ATOM     88  C   UNL A   1      37.678  23.546  25.715  1.00  0.00     0.015 A 
ATOM     89  C   UNL A   1      37.696  21.311  24.777  1.00  0.00     0.015 A 
ATOM     90  C   UNL A   1      38.748  23.205  26.543  1.00  0.00     0.048 A 
ATOM     91  C   UNL A   1      38.767  20.974  25.610  1.00  0.00     0.048 A 
ATOM     92  C   UNL A   1      39.309  21.927  26.479  1.00  0.00     0.127 A 
BRANCH  92  93
ATOM     93  O   UNL A   1      40.352  21.692  27.348  1.00  0.00    -0.457 OA
BRANCH  93  94
ATOM     94  C   UNL A   1      41.563  22.294  27.103  1.00  0.00     0.127 A 
ATOM     95  C   UNL A   1      42.172  22.958  28.167  1.00  0.00     0.047 A 
ATOM     96  C   UNL A   1      42.144  22.316  25.832  1.00  0.00     0.047 A 
ATOM     97  C   UNL A   1      43.393  23.602  27.976  1.00  0.00     0.004 A 
ATOM     98  C   UNL A   1      43.371  22.953  25.645  1.00  0.00     0.004 A 
ATOM     99  C   UNL A   1      43.997  23.591  26.717  1.00  0.00     0.000 A 
ENDBRANCH  93  94
ENDBRANCH  92  93
ENDBRANCH  85  87
ENDBRANCH  83  85
ENDBRANCH  77  78
ENDBRANCH  73  77
ENDBRANCH  68  71
ENDBRANCH  66  67
ENDBRANCH   1  66
TORSDOF 19
ENDMDL
MODEL 2
REMARK VINA RESULT:     -11.7      0.526      5.876
REMARK SMILES O=C(NCCCCCCNC(=O)c1[nH]ncc1C[N@H+]1CCC[C@@H](C(=O)c2ccc(Oc3ccccc3)cc2)C1)c1ccc(-c2c3nc(c(-c4c(F)cccc4F)c4ccc([nH]4)c(-c4c(F)cccc4F)c4nc(c(-c5c(F)cccc5F)c5ccc2[nH]5)C=C4)C=C3)cc1
REMARK SMILES IDX 8 1 7 2 6 3 5 4 4 5 3 6 1 7 2 8 40 10 41 11 93 12 42 13
REMARK SMILES IDX 92 14 43 15 44 16 45 17 86 18 46 19 91 20 85 21 87 22 47 23
REMARK SMILES IDX 90 24 84 25 83 26 48 28 74 29 57 30 73 31 58 32 61 33 72 34
REMARK SMILES IDX 88 35 59 36 60 37 71 39 89 40 62 41 49 42 50 43 55 44 51 45
REMARK SMILES IDX 52 46 54 47 56 48 53 49 75 50 76 51 81 52 77 53 78 54 80 55
REMARK SMILES IDX 82 56 79 57 63 58 64 59 69 60 65 61 66 62 68 63 70 64 67 65
REMARK SMILES IDX 9 66 10 67 11 68 12 70 13 71 14 72 17 73 15 74 16 76 18 77
REMARK SMILES IDX 19 78 20 79 39 80 21 82 23 83 22 84 24 85 25 86 26 87 27 88
REMARK SMILES IDX 38 89 28 90 37 91 29 92 30 93 31 94 32 95 36 96 33 97 35 98
REMARK SMILES IDX 34 99
REMARK H PARENT 3 9 87 27 61 38 10 69 14 75 19 81
REMARK Flexibility Score: inf
ROOT
ATOM      1  C   UNL A   1      33.685  28.839  26.579  1.00  0.00     0.021 C 
ENDROOT
BRANCH   1   2
ATOM      2  C   UNL A   1      32.870  30.002  26.004  1.00  0.00     0.002 C 
BRANCH   2   3
ATOM      3  C   UNL A   1      31.727  30.524  26.879  1.00  0.00     0.002 C 
BRANCH   3   4
ATOM      4  C   UNL A   1      31.482  32.032  26.842  1.00  0.00     0.021 C 
BRANCH   4   5
ATOM      5  C   UNL A   1      32.730  32.905  26.872  1.00  0.00     0.116 C 
BRANCH   5   6
ATOM      6  N   UNL A   1      32.521  34.168  27.557  1.00  0.00    -0.352 N 
ATOM      7  O   UNL A   1      32.751  35.708  29.187  1.00  0.00    -0.269 OA
ATOM      8  C   UNL A   1      33.148  34.666  28.673  1.00  0.00     0.251 C 
ATOM      9  H   UNL A   1      31.831  34.751  27.166  1.00  0.00     0.163 HD
BRANCH   8  10
ATOM     10  C   UNL A   1      34.283  33.934  29.277  1.00  0.00     0.039 A 
ATOM     11  C   UNL A   1      34.082  32.755  30.000  1.00  0.00     0.014 A 
ATOM     12  C   UNL A   1      35.577  34.430  29.092  1.00  0.00     0.014 A 
ATOM     13  C   UNL A   1      35.158  32.140  30.635  1.00  0.00     0.010 A 
ATOM     14  C   UNL A   1      36.665  33.774  29.674  1.00  0.00     0.010 A 
ATOM     15  C   UNL A   1      36.460  32.638  30.471  1.00  0.00    -0.014 A 
BRANCH  15  16
ATOM     16  C   UNL A   1      37.604  31.924  31.092  1.00  0.00     0.031 A 
ATOM     17  C   UNL A   1      38.402  30.914  30.319  1.00  0.00     0.074 A 
ATOM     18  C   UNL A   1      37.924  32.205  32.370  1.00  0.00     0.049 A 
ATOM     19  N   UNL A   1      39.427  30.201  30.710  1.00  0.00    -0.248 NA
ATOM     20  C   UNL A   1      37.994  30.666  28.927  1.00  0.00     0.031 C 
ATOM     21  C   UNL A   1      37.213  33.156  33.227  1.00  0.00     0.029 A 
ATOM     22  N   UNL A   1      38.931  31.726  33.166  1.00  0.00    -0.354 N 
ATOM     23  C   UNL A   1      39.777  29.408  29.625  1.00  0.00     0.074 A 
ATOM     24  C   UNL A   1      38.841  29.713  28.563  1.00  0.00     0.031 C 
ATOM     25  C   UNL A   1      37.828  33.217  34.417  1.00  0.00     0.029 A 
ATOM     26  C   UNL A   1      38.942  32.275  34.425  1.00  0.00     0.049 A 
ATOM     27  H   UNL A   1      39.585  31.054  32.866  1.00  0.00     0.167 HD
ATOM     28  C   UNL A   1      40.789  28.513  29.524  1.00  0.00     0.037 A 
ATOM     29  C   UNL A   1      39.750  32.040  35.473  1.00  0.00     0.037 A 
ATOM     30  C   UNL A   1      41.729  28.223  30.576  1.00  0.00     0.049 A 
ATOM     31  C   UNL A   1      40.855  31.035  35.338  1.00  0.00     0.074 A 
ATOM     32  C   UNL A   1      42.811  27.361  30.554  1.00  0.00     0.029 A 
ATOM     33  N   UNL A   1      41.694  28.786  31.843  1.00  0.00    -0.354 N 
ATOM     34  N   UNL A   1      41.191  30.317  34.294  1.00  0.00    -0.248 NA
ATOM     35  C   UNL A   1      41.689  30.804  36.525  1.00  0.00     0.031 C 
ATOM     36  C   UNL A   1      43.411  27.376  31.819  1.00  0.00     0.029 A 
ATOM     37  C   UNL A   1      42.725  28.276  32.616  1.00  0.00     0.049 A 
ATOM     38  H   UNL A   1      41.035  29.451  32.147  1.00  0.00     0.167 HD
ATOM     39  C   UNL A   1      42.282  29.557  34.694  1.00  0.00     0.074 A 
ATOM     40  C   UNL A   1      42.562  29.916  36.070  1.00  0.00     0.031 C 
ATOM     41  C   UNL A   1      42.986  28.642  33.985  1.00  0.00     0.037 A 
BRANCH  28  42
ATOM     42  C   UNL A   1      40.929  27.769  28.229  1.00  0.00     0.057 A 
ATOM     43  C   UNL A   1      40.211  26.595  27.970  1.00  0.00     0.134 A 
ATOM     44  C   UNL A   1      41.759  28.258  27.211  1.00  0.00     0.134 A 
ATOM     45  F   UNL A   1      39.408  26.068  28.907  1.00  0.00    -0.206 F 
ATOM     46  C   UNL A   1      40.327  25.923  26.751  1.00  0.00     0.040 A 
ATOM     47  C   UNL A   1      41.868  27.607  25.982  1.00  0.00     0.040 A 
ATOM     48  F   UNL A   1      42.470  29.381  27.393  1.00  0.00    -0.206 F 
ATOM     49  C   UNL A   1      41.153  26.433  25.750  1.00  0.00     0.006 A 
ENDBRANCH  28  42
BRANCH  29  50
ATOM     50  C   UNL A   1      39.537  32.776  36.742  1.00  0.00     0.057 A 
ATOM     51  C   UNL A   1      40.302  33.903  37.059  1.00  0.00     0.134 A 
ATOM     52  C   UNL A   1      38.547  32.387  37.652  1.00  0.00     0.134 A 
ATOM     53  F   UNL A   1      41.275  34.313  36.232  1.00  0.00    -0.206 F 
ATOM     54  C   UNL A   1      40.095  34.615  38.242  1.00  0.00     0.040 A 
ATOM     55  C   UNL A   1      38.314  33.102  38.827  1.00  0.00     0.040 A 
ATOM     56  F   UNL A   1      37.776  31.319  37.398  1.00  0.00    -0.206 F 
ATOM     57  C   UNL A   1      39.093  34.217  39.126  1.00  0.00     0.006 A 
ENDBRANCH  29  50
BRANCH  41  58
ATOM     58  C   UNL A   1      44.135  27.982  34.683  1.00  0.00     0.057 A 
ATOM     59  C   UNL A   1      45.409  28.565  34.711  1.00  0.00     0.134 A 
ATOM     60  C   UNL A   1      43.961  26.764  35.351  1.00  0.00     0.134 A 
ATOM     61  F   UNL A   1      45.641  29.723  34.075  1.00  0.00    -0.206 F 
ATOM     62  C   UNL A   1      46.476  27.947  35.365  1.00  0.00     0.040 A 
ATOM     63  C   UNL A   1      45.016  26.148  36.027  1.00  0.00     0.040 A 
ATOM     64  F   UNL A   1      42.764  26.160  35.365  1.00  0.00    -0.206 F 
ATOM     65  C   UNL A   1      46.279  26.737  36.031  1.00  0.00     0.006 A 
ENDBRANCH  41  58
ENDBRANCH  15  16
ENDBRANCH   8  10
ENDBRANCH   5   6
ENDBRANCH   4   5
ENDBRANCH   3   4
ENDBRANCH   2   3
ENDBRANCH   1   2
BRANCH   1  66
ATOM     66  C   UNL A   1      33.509  27.500  25.872  1.00  0.00     0.116 C 
BRANCH  66  67
ATOM     67  N   UNL A   1      32.388  26.729  26.392  1.00  0.00    -0.351 N 
ATOM     68  C   UNL A   1      31.162  26.523  25.831  1.00  0.00     0.269 C 
ATOM     69  H   UNL A   1      32.536  26.299  27.265  1.00  0.00     0.163 HD
ATOM     70  O   UNL A   1      30.277  26.006  26.519  1.00  0.00    -0.268 OA
BRANCH  68  71
ATOM     71  C   UNL A   1      30.920  26.983  24.498  1.00  0.00     0.131 A 
ATOM     72  N   UNL A   1      30.462  28.248  24.247  1.00  0.00    -0.272 N 
ATOM     73  C   UNL A   1      31.015  26.367  23.249  1.00  0.00     0.057 A 
ATOM     74  N   UNL A   1      30.459  28.574  22.947  1.00  0.00    -0.183 NA
ATOM     75  H   UNL A   1      30.161  28.862  24.956  1.00  0.00     0.190 HD
ATOM     76  C   UNL A   1      30.785  27.431  22.343  1.00  0.00     0.145 A 
BRANCH  73  77
ATOM     77  C   UNL A   1      31.355  24.945  22.938  1.00  0.00     0.303 C 
BRANCH  77  78
ATOM     78  N   UNL A   1      32.242  24.290  23.908  1.00  0.00    -0.330 N 
ATOM     79  C   UNL A   1      31.622  23.147  24.590  1.00  0.00     0.262 C 
ATOM     80  C   UNL A   1      33.564  23.962  23.369  1.00  0.00     0.274 C 
ATOM     81  H   UNL A   1      32.398  24.996  24.625  1.00  0.00     0.348 HD
ATOM     82  C   UNL A   1      32.519  22.641  25.725  1.00  0.00     0.062 C 
ATOM     83  C   UNL A   1      34.519  23.489  24.470  1.00  0.00     0.116 C 
ATOM     84  C   UNL A   1      33.919  22.298  25.223  1.00  0.00     0.023 C 
BRANCH  83  85
ATOM     85  C   UNL A   1      35.830  23.118  23.794  1.00  0.00     0.171 C 
ATOM     86  O   UNL A   1      36.045  23.309  22.600  1.00  0.00    -0.294 OA
BRANCH  85  87
ATOM     87  C   UNL A   1      36.941  22.633  24.647  1.00  0.00     0.018 A 
ATOM     88  C   UNL A   1      37.521  23.522  25.557  1.00  0.00     0.015 A 
ATOM     89  C   UNL A   1      37.405  21.319  24.553  1.00  0.00     0.015 A 
ATOM     90  C   UNL A   1      38.564  23.091  26.378  1.00  0.00     0.048 A 
ATOM     91  C   UNL A   1      38.447  20.891  25.379  1.00  0.00     0.048 A 
ATOM     92  C   UNL A   1      39.043  21.782  26.278  1.00  0.00     0.127 A 
BRANCH  92  93
ATOM     93  O   UNL A   1      40.065  21.456  27.144  1.00  0.00    -0.457 OA
BRANCH  93  94
ATOM     94  C   UNL A   1      41.165  22.277  27.203  1.00  0.00     0.127 A 
ATOM     95  C   UNL A   1      41.935  22.396  26.046  1.00  0.00     0.047 A 
ATOM     96  C   UNL A   1      41.559  22.917  28.381  1.00  0.00     0.047 A 
ATOM     97  C   UNL A   1      43.073  23.201  26.050  1.00  0.00     0.004 A 
ATOM     98  C   UNL A   1      42.693  23.730  28.381  1.00  0.00     0.004 A 
ATOM     99  C   UNL A   1      43.446  23.875  27.214  1.00  0.00     0.000 A 
ENDBRANCH  93  94
ENDBRANCH  92  93
ENDBRANCH  85  87
ENDBRANCH  83  85
ENDBRANCH  77  78
ENDBRANCH  73  77
ENDBRANCH  68  71
ENDBRANCH  66  67
ENDBRANCH   1  66
TORSDOF 19
ENDMDL
MODEL 3
REMARK VINA RESULT:     -11.6      4.064     10.222
REMARK SMILES O=C(NCCCCCCNC(=O)c1[nH]ncc1C[N@H+]1CCC[C@@H](C(=O)c2ccc(Oc3ccccc3)cc2)C1)c1ccc(-c2c3nc(c(-c4c(F)cccc4F)c4ccc([nH]4)c(-c4c(F)cccc4F)c4nc(c(-c5c(F)cccc5F)c5ccc2[nH]5)C=C4)C=C3)cc1
REMARK SMILES IDX 8 1 7 2 6 3 5 4 4 5 3 6 1 7 2 8 40 10 41 11 93 12 42 13
REMARK SMILES IDX 92 14 43 15 44 16 45 17 86 18 46 19 91 20 85 21 87 22 47 23
REMARK SMILES IDX 90 24 84 25 83 26 48 28 74 29 57 30 73 31 58 32 61 33 72 34
REMARK SMILES IDX 88 35 59 36 60 37 71 39 89 40 62 41 49 42 50 43 55 44 51 45
REMARK SMILES IDX 52 46 54 47 56 48 53 49 75 50 76 51 81 52 77 53 78 54 80 55
REMARK SMILES IDX 82 56 79 57 63 58 64 59 69 60 65 61 66 62 68 63 70 64 67 65
REMARK SMILES IDX 9 66 10 67 11 68 12 70 13 71 14 72 17 73 15 74 16 76 18 77
REMARK SMILES IDX 19 78 20 79 39 80 21 82 23 83 22 84 24 85 25 86 26 87 27 88
REMARK SMILES IDX 38 89 28 90 37 91 29 92 30 93 31 94 32 95 36 96 33 97 35 98
REMARK SMILES IDX 34 99
REMARK H PARENT 3 9 87 27 61 38 10 69 14 75 19 81
REMARK Flexibility Score: inf
ROOT
ATOM      1  C   UNL A   1      37.077  22.757  24.402  1.00  0.00     0.021 C 
ENDROOT
BRANCH   1   2
ATOM      2  C   UNL A   1      37.699  23.112  25.756  1.00  0.00     0.002 C 
BRANCH   2   3
ATOM      3  C   UNL A   1      38.886  22.251  26.199  1.00  0.00     0.002 C 
BRANCH   3   4
ATOM      4  C   UNL A   1      39.089  20.939  25.442  1.00  0.00     0.021 C 
BRANCH   4   5
ATOM      5  C   UNL A   1      39.513  19.746  26.290  1.00  0.00     0.116 C 
BRANCH   5   6
ATOM      6  N   UNL A   1      40.739  19.126  25.820  1.00  0.00    -0.352 N 
ATOM      7  O   UNL A   1      42.913  19.006  25.238  1.00  0.00    -0.269 OA
ATOM      8  C   UNL A   1      42.014  19.636  25.788  1.00  0.00     0.251 C 
ATOM      9  H   UNL A   1      40.643  18.208  25.476  1.00  0.00     0.163 HD
BRANCH   8  10
ATOM     10  C   UNL A   1      42.302  20.957  26.388  1.00  0.00     0.039 A 
ATOM     11  C   UNL A   1      42.279  21.144  27.772  1.00  0.00     0.014 A 
ATOM     12  C   UNL A   1      42.626  22.023  25.543  1.00  0.00     0.014 A 
ATOM     13  C   UNL A   1      42.462  22.418  28.303  1.00  0.00     0.010 A 
ATOM     14  C   UNL A   1      42.876  23.288  26.080  1.00  0.00     0.010 A 
ATOM     15  C   UNL A   1      42.771  23.500  27.463  1.00  0.00    -0.014 A 
BRANCH  15  16
ATOM     16  C   UNL A   1      43.039  24.836  28.054  1.00  0.00     0.031 A 
ATOM     17  C   UNL A   1      44.429  25.250  28.439  1.00  0.00     0.074 A 
ATOM     18  C   UNL A   1      42.007  25.683  28.232  1.00  0.00     0.049 A 
ATOM     19  N   UNL A   1      44.836  26.376  28.967  1.00  0.00    -0.248 NA
ATOM     20  C   UNL A   1      45.504  24.272  28.208  1.00  0.00     0.031 C 
ATOM     21  C   UNL A   1      40.609  25.387  27.910  1.00  0.00     0.029 A 
ATOM     22  N   UNL A   1      41.973  26.963  28.718  1.00  0.00    -0.354 N 
ATOM     23  C   UNL A   1      46.206  26.239  29.149  1.00  0.00     0.074 A 
ATOM     24  C   UNL A   1      46.560  24.911  28.693  1.00  0.00     0.031 C 
ATOM     25  C   UNL A   1      39.861  26.468  28.174  1.00  0.00     0.029 A 
ATOM     26  C   UNL A   1      40.714  27.512  28.730  1.00  0.00     0.049 A 
ATOM     27  H   UNL A   1      42.774  27.445  29.029  1.00  0.00     0.167 HD
ATOM     28  C   UNL A   1      47.087  27.141  29.646  1.00  0.00     0.037 A 
ATOM     29  C   UNL A   1      40.291  28.717  29.151  1.00  0.00     0.037 A 
ATOM     30  C   UNL A   1      46.735  28.467  30.084  1.00  0.00     0.049 A 
ATOM     31  C   UNL A   1      41.285  29.691  29.708  1.00  0.00     0.074 A 
ATOM     32  C   UNL A   1      47.564  29.465  30.566  1.00  0.00     0.029 A 
ATOM     33  N   UNL A   1      45.446  28.978  30.098  1.00  0.00    -0.354 N 
ATOM     34  N   UNL A   1      42.582  29.557  29.844  1.00  0.00    -0.248 NA
ATOM     35  C   UNL A   1      40.758  30.981  30.173  1.00  0.00     0.031 C 
ATOM     36  C   UNL A   1      46.772  30.570  30.903  1.00  0.00     0.029 A 
ATOM     37  C   UNL A   1      45.455  30.272  30.596  1.00  0.00     0.049 A 
ATOM     38  H   UNL A   1      44.644  28.494  29.796  1.00  0.00     0.167 HD
ATOM     39  C   UNL A   1      43.028  30.748  30.400  1.00  0.00     0.074 A 
ATOM     40  C   UNL A   1      41.866  31.599  30.559  1.00  0.00     0.031 C 
ATOM     41  C   UNL A   1      44.288  31.103  30.751  1.00  0.00     0.037 A 
BRANCH  28  42
ATOM     42  C   UNL A   1      48.523  26.720  29.754  1.00  0.00     0.057 A 
ATOM     43  C   UNL A   1      49.447  26.976  28.733  1.00  0.00     0.134 A 
ATOM     44  C   UNL A   1      48.996  26.090  30.912  1.00  0.00     0.134 A 
ATOM     45  F   UNL A   1      49.056  27.565  27.593  1.00  0.00    -0.206 F 
ATOM     46  C   UNL A   1      50.788  26.604  28.854  1.00  0.00     0.040 A 
ATOM     47  C   UNL A   1      50.338  25.732  31.053  1.00  0.00     0.040 A 
ATOM     48  F   UNL A   1      48.164  25.821  31.930  1.00  0.00    -0.206 F 
ATOM     49  C   UNL A   1      51.237  25.986  30.019  1.00  0.00     0.006 A 
ENDBRANCH  28  42
BRANCH  29  50
ATOM     50  C   UNL A   1      38.852  29.061  29.057  1.00  0.00     0.057 A 
ATOM     51  C   UNL A   1      38.016  28.974  30.175  1.00  0.00     0.134 A 
ATOM     52  C   UNL A   1      38.288  29.510  27.857  1.00  0.00     0.134 A 
ATOM     53  F   UNL A   1      38.498  28.535  31.346  1.00  0.00    -0.206 F 
ATOM     54  C   UNL A   1      36.664  29.315  30.102  1.00  0.00     0.040 A 
ATOM     55  C   UNL A   1      36.944  29.876  27.776  1.00  0.00     0.040 A 
ATOM     56  F   UNL A   1      39.043  29.622  26.755  1.00  0.00    -0.206 F 
ATOM     57  C   UNL A   1      36.128  29.774  28.900  1.00  0.00     0.006 A 
ENDBRANCH  29  50
BRANCH  41  58
ATOM     58  C   UNL A   1      44.472  32.474  31.323  1.00  0.00     0.057 A 
ATOM     59  C   UNL A   1      44.710  33.585  30.503  1.00  0.00     0.134 A 
ATOM     60  C   UNL A   1      44.388  32.690  32.703  1.00  0.00     0.134 A 
ATOM     61  F   UNL A   1      44.817  33.438  29.174  1.00  0.00    -0.206 F 
ATOM     62  C   UNL A   1      44.878  34.862  31.040  1.00  0.00     0.040 A 
ATOM     63  C   UNL A   1      44.533  33.966  33.250  1.00  0.00     0.040 A 
ATOM     64  F   UNL A   1      44.156  31.668  33.540  1.00  0.00    -0.206 F 
ATOM     65  C   UNL A   1      44.783  35.056  32.418  1.00  0.00     0.006 A 
ENDBRANCH  41  58
ENDBRANCH  15  16
ENDBRANCH   8  10
ENDBRANCH   5   6
ENDBRANCH   4   5
ENDBRANCH   3   4
ENDBRANCH   2   3
ENDBRANCH   1   2
BRANCH   1  66
ATOM     66  C   UNL A   1      36.013  21.665  24.433  1.00  0.00     0.116 C 
BRANCH  66  67
ATOM     67  N   UNL A   1      35.229  21.674  25.660  1.00  0.00    -0.351 N 
ATOM     68  C   UNL A   1      34.075  21.005  25.941  1.00  0.00     0.269 C 
ATOM     69  H   UNL A   1      35.581  22.240  26.386  1.00  0.00     0.163 HD
ATOM     70  O   UNL A   1      33.455  21.298  26.966  1.00  0.00    -0.268 OA
BRANCH  68  71
ATOM     71  C   UNL A   1      33.582  20.045  25.001  1.00  0.00     0.131 A 
ATOM     72  N   UNL A   1      34.030  18.752  24.991  1.00  0.00    -0.272 N 
ATOM     73  C   UNL A   1      32.675  20.131  23.943  1.00  0.00     0.057 A 
ATOM     74  N   UNL A   1      33.342  17.947  24.171  1.00  0.00    -0.183 NA
ATOM     75  H   UNL A   1      34.789  18.442  25.537  1.00  0.00     0.190 HD
ATOM     76  C   UNL A   1      32.528  18.785  23.529  1.00  0.00     0.145 A 
BRANCH  73  77
ATOM     77  C   UNL A   1      31.969  21.341  23.420  1.00  0.00     0.303 C 
BRANCH  77  78
ATOM     78  N   UNL A   1      32.610  22.623  23.740  1.00  0.00    -0.330 N 
ATOM     79  C   UNL A   1      33.237  23.270  22.581  1.00  0.00     0.262 C 
ATOM     80  C   UNL A   1      31.749  23.542  24.487  1.00  0.00     0.274 C 
ATOM     81  H   UNL A   1      33.371  22.375  24.371  1.00  0.00     0.348 HD
ATOM     82  C   UNL A   1      34.058  24.488  23.017  1.00  0.00     0.062 C 
ATOM     83  C   UNL A   1      32.528  24.764  24.986  1.00  0.00     0.116 C 
ATOM     84  C   UNL A   1      33.212  25.476  23.816  1.00  0.00     0.023 C 
BRANCH  83  85
ATOM     85  C   UNL A   1      31.530  25.673  25.686  1.00  0.00     0.171 C 
ATOM     86  O   UNL A   1      31.535  25.867  26.899  1.00  0.00    -0.294 OA
BRANCH  85  87
ATOM     87  C   UNL A   1      30.601  26.466  24.846  1.00  0.00     0.018 A 
ATOM     88  C   UNL A   1      29.283  26.021  24.704  1.00  0.00     0.015 A 
ATOM     89  C   UNL A   1      31.022  27.634  24.206  1.00  0.00     0.015 A 
ATOM     90  C   UNL A   1      28.385  26.752  23.925  1.00  0.00     0.048 A 
ATOM     91  C   UNL A   1      30.118  28.363  23.429  1.00  0.00     0.048 A 
ATOM     92  C   UNL A   1      28.804  27.913  23.270  1.00  0.00     0.127 A 
BRANCH  92  93
ATOM     93  O   UNL A   1      27.834  28.564  22.539  1.00  0.00    -0.457 OA
BRANCH  93  94
ATOM     94  C   UNL A   1      27.919  29.928  22.400  1.00  0.00     0.127 A 
ATOM     95  C   UNL A   1      28.238  30.422  21.135  1.00  0.00     0.047 A 
ATOM     96  C   UNL A   1      27.768  30.802  23.480  1.00  0.00     0.047 A 
ATOM     97  C   UNL A   1      28.354  31.796  20.935  1.00  0.00     0.004 A 
ATOM     98  C   UNL A   1      27.875  32.178  23.276  1.00  0.00     0.004 A 
ATOM     99  C   UNL A   1      28.163  32.675  22.003  1.00  0.00     0.000 A 
ENDBRANCH  93  94
ENDBRANCH  92  93
ENDBRANCH  85  87
ENDBRANCH  83  85
ENDBRANCH  77  78
ENDBRANCH  73  77
ENDBRANCH  68  71
ENDBRANCH  66  67
ENDBRANCH   1  66
TORSDOF 19
ENDMDL
