MODEL 1
REMARK VINA RESULT:     -10.7      0.000      0.000
REMARK SMILES COCC1CCN(C(=O)NC[C@H]2CC[C@H](C(=O)NCCCCCCNC(=O)c3ccc(-c4c5nc(c(-c6c(F)cccc6F)c6ccc([nH]6)c(-c6c(F)cccc6F)c6nc(c(-c7c(F)cccc7F)c7ccc4[nH]7)C=C6)C=C5)cc3)O2)CC1
REMARK SMILES IDX 20 1 19 2 18 3 16 4 17 5 15 7 12 8 13 9 82 10 14 11 11 12
REMARK SMILES IDX 10 13 4 14 5 15 84 16 6 17 83 18 7 19 8 20 9 21 3 23 2 24
REMARK SMILES IDX 1 25 21 26 22 27 23 28 24 29 25 30 26 31 27 33 28 34 29 35
REMARK SMILES IDX 81 36 30 37 80 38 31 39 32 40 33 41 74 42 34 43 79 44 73 45
REMARK SMILES IDX 75 46 35 47 78 48 72 49 71 50 36 52 62 53 45 54 61 55 46 56
REMARK SMILES IDX 49 57 60 58 76 59 47 60 48 61 59 63 77 64 50 65 37 66 38 67
REMARK SMILES IDX 43 68 39 69 40 70 42 71 44 72 41 73 63 74 64 75 69 76 65 77
REMARK SMILES IDX 66 78 68 79 70 80 67 81 51 82 52 83 57 84 53 85 54 86 56 87
REMARK SMILES IDX 58 88 55 89
REMARK H PARENT 18 6 10 22 25 32 75 51 49 62
REMARK Flexibility Score: inf
ROOT
ATOM      1  C   UNL A   1      34.564  32.655  29.249  1.00  0.00     0.021 C 
ENDROOT
BRANCH   1   2
ATOM      2  C   UNL A   1      34.432  31.877  27.941  1.00  0.00     0.116 C 
BRANCH   2   3
ATOM      3  N   UNL A   1      33.086  31.960  27.419  1.00  0.00    -0.354 N 
ATOM      4  C   UNL A   1      32.315  31.009  26.819  1.00  0.00     0.249 C 
ATOM      5  O   UNL A   1      31.203  31.354  26.407  1.00  0.00    -0.272 OA
ATOM      6  H   UNL A   1      32.659  32.843  27.511  1.00  0.00     0.163 HD
BRANCH   4   7
ATOM      7  C   UNL A   1      32.819  29.565  26.607  1.00  0.00     0.207 C 
ATOM      8  C   UNL A   1      32.128  27.732  25.318  1.00  0.00     0.138 C 
ATOM      9  C   UNL A   1      31.421  27.625  26.662  1.00  0.00     0.037 C 
ATOM     10  O   UNL A   1      32.671  29.068  25.274  1.00  0.00    -0.363 OA
ATOM     11  C   UNL A   1      32.187  28.563  27.559  1.00  0.00     0.045 C 
BRANCH   8  12
ATOM     12  C   UNL A   1      33.260  26.729  25.013  1.00  0.00     0.149 C 
BRANCH  12  13
ATOM     13  N   UNL A   1      33.442  26.392  23.618  1.00  0.00    -0.335 N 
ATOM     14  C   UNL A   1      32.093  21.688  23.822  1.00  0.00     0.018 C 
ATOM     15  C   UNL A   1      32.569  22.185  22.441  1.00  0.00     0.027 C 
ATOM     16  C   UNL A   1      32.149  22.836  24.857  1.00  0.00     0.027 C 
ATOM     17  C   UNL A   1      33.910  22.908  22.533  1.00  0.00     0.121 C 
ATOM     18  C   UNL A   1      33.492  23.574  24.821  1.00  0.00     0.121 C 
ATOM     19  N   UNL A   1      33.767  24.030  23.463  1.00  0.00    -0.325 N 
ATOM     20  C   UNL A   1      33.668  25.276  22.909  1.00  0.00     0.317 C 
ATOM     21  O   UNL A   1      33.797  25.465  21.695  1.00  0.00    -0.249 OA
ATOM     22  H   UNL A   1      33.384  27.187  23.040  1.00  0.00     0.165 HD
BRANCH  14  23
ATOM     23  C   UNL A   1      32.874  20.459  24.331  1.00  0.00     0.163 C 
BRANCH  23  24
ATOM     24  O   UNL A   1      32.090  19.584  25.135  1.00  0.00    -0.384 OA
ATOM     25  C   UNL A   1      32.717  18.339  25.406  1.00  0.00     0.194 C 
ENDBRANCH  23  24
ENDBRANCH  14  23
ENDBRANCH  12  13
ENDBRANCH   8  12
ENDBRANCH   4   7
ENDBRANCH   2   3
ENDBRANCH   1   2
BRANCH   1  26
ATOM     26  C   UNL A   1      35.334  33.969  29.092  1.00  0.00     0.002 C 
BRANCH  26  27
ATOM     27  C   UNL A   1      34.635  35.014  28.213  1.00  0.00     0.002 C 
BRANCH  27  28
ATOM     28  C   UNL A   1      33.798  36.048  28.973  1.00  0.00     0.021 C 
BRANCH  28  29
ATOM     29  C   UNL A   1      32.659  35.452  29.795  1.00  0.00     0.116 C 
BRANCH  29  30
ATOM     30  N   UNL A   1      32.411  36.226  31.003  1.00  0.00    -0.352 N 
ATOM     31  C   UNL A   1      32.926  36.066  32.264  1.00  0.00     0.251 C 
ATOM     32  H   UNL A   1      31.779  36.974  30.899  1.00  0.00     0.163 HD
ATOM     33  O   UNL A   1      32.414  36.640  33.220  1.00  0.00    -0.269 OA
BRANCH  31  34
ATOM     34  C   UNL A   1      34.099  35.193  32.471  1.00  0.00     0.039 A 
ATOM     35  C   UNL A   1      35.376  35.701  32.223  1.00  0.00     0.014 A 
ATOM     36  C   UNL A   1      33.934  33.871  32.895  1.00  0.00     0.014 A 
ATOM     37  C   UNL A   1      36.496  34.904  32.470  1.00  0.00     0.010 A 
ATOM     38  C   UNL A   1      35.051  33.100  33.201  1.00  0.00     0.010 A 
ATOM     39  C   UNL A   1      36.341  33.612  32.998  1.00  0.00    -0.014 A 
BRANCH  39  40
ATOM     40  C   UNL A   1      37.516  32.789  33.378  1.00  0.00     0.031 A 
ATOM     41  C   UNL A   1      38.258  33.070  34.654  1.00  0.00     0.074 A 
ATOM     42  C   UNL A   1      37.962  31.844  32.528  1.00  0.00     0.049 A 
ATOM     43  N   UNL A   1      39.361  32.526  35.104  1.00  0.00    -0.248 NA
ATOM     44  C   UNL A   1      37.703  34.117  35.526  1.00  0.00     0.031 C 
ATOM     45  C   UNL A   1      37.350  31.508  31.242  1.00  0.00     0.029 A 
ATOM     46  N   UNL A   1      39.044  31.005  32.611  1.00  0.00    -0.354 N 
ATOM     47  C   UNL A   1      39.635  33.169  36.304  1.00  0.00     0.074 A 
ATOM     48  C   UNL A   1      38.612  34.176  36.489  1.00  0.00     0.031 C 
ATOM     49  C   UNL A   1      38.057  30.524  30.662  1.00  0.00     0.029 A 
ATOM     50  C   UNL A   1      39.195  30.192  31.514  1.00  0.00     0.049 A 
ATOM     51  H   UNL A   1      39.655  30.987  33.383  1.00  0.00     0.167 HD
ATOM     52  C   UNL A   1      40.640  32.930  37.180  1.00  0.00     0.037 A 
ATOM     53  C   UNL A   1      40.152  29.292  31.218  1.00  0.00     0.037 A 
ATOM     54  C   UNL A   1      41.647  31.917  36.999  1.00  0.00     0.049 A 
ATOM     55  C   UNL A   1      41.270  29.064  32.196  1.00  0.00     0.074 A 
ATOM     56  C   UNL A   1      42.670  31.554  37.858  1.00  0.00     0.029 A 
ATOM     57  N   UNL A   1      41.764  31.111  35.877  1.00  0.00    -0.354 N 
ATOM     58  N   UNL A   1      41.481  29.633  33.358  1.00  0.00    -0.248 NA
ATOM     59  C   UNL A   1      42.285  28.070  31.820  1.00  0.00     0.031 C 
ATOM     60  C   UNL A   1      43.435  30.563  37.235  1.00  0.00     0.029 A 
ATOM     61  C   UNL A   1      42.860  30.272  36.009  1.00  0.00     0.049 A 
ATOM     62  H   UNL A   1      41.158  31.130  35.101  1.00  0.00     0.167 HD
ATOM     63  C   UNL A   1      42.637  29.051  33.862  1.00  0.00     0.074 A 
ATOM     64  C   UNL A   1      43.071  28.072  32.886  1.00  0.00     0.031 C 
ATOM     65  C   UNL A   1      43.282  29.306  35.026  1.00  0.00     0.037 A 
BRANCH  52  66
ATOM     66  C   UNL A   1      40.701  33.779  38.416  1.00  0.00     0.057 A 
ATOM     67  C   UNL A   1      41.515  34.918  38.492  1.00  0.00     0.134 A 
ATOM     68  C   UNL A   1      39.904  33.482  39.529  1.00  0.00     0.134 A 
ATOM     69  F   UNL A   1      42.310  35.253  37.465  1.00  0.00    -0.206 F 
ATOM     70  C   UNL A   1      41.552  35.714  39.638  1.00  0.00     0.040 A 
ATOM     71  C   UNL A   1      39.913  34.285  40.670  1.00  0.00     0.040 A 
ATOM     72  F   UNL A   1      39.096  32.410  39.521  1.00  0.00    -0.206 F 
ATOM     73  C   UNL A   1      40.743  35.403  40.728  1.00  0.00     0.006 A 
ENDBRANCH  52  66
BRANCH  53  74
ATOM     74  C   UNL A   1      40.092  28.535  29.942  1.00  0.00     0.057 A 
ATOM     75  C   UNL A   1      39.367  27.343  29.846  1.00  0.00     0.134 A 
ATOM     76  C   UNL A   1      40.761  28.979  28.795  1.00  0.00     0.134 A 
ATOM     77  F   UNL A   1      38.721  26.857  30.915  1.00  0.00    -0.206 F 
ATOM     78  C   UNL A   1      39.325  26.607  28.661  1.00  0.00     0.040 A 
ATOM     79  C   UNL A   1      40.707  28.267  27.596  1.00  0.00     0.040 A 
ATOM     80  F   UNL A   1      41.468  30.120  28.820  1.00  0.00    -0.206 F 
ATOM     81  C   UNL A   1      39.993  27.072  27.529  1.00  0.00     0.006 A 
ENDBRANCH  53  74
BRANCH  65  82
ATOM     82  C   UNL A   1      44.515  28.501  35.316  1.00  0.00     0.057 A 
ATOM     83  C   UNL A   1      45.789  28.946  34.945  1.00  0.00     0.134 A 
ATOM     84  C   UNL A   1      44.428  27.284  36.003  1.00  0.00     0.134 A 
ATOM     85  F   UNL A   1      45.940  30.096  34.271  1.00  0.00    -0.206 F 
ATOM     86  C   UNL A   1      46.934  28.198  35.228  1.00  0.00     0.040 A 
ATOM     87  C   UNL A   1      45.567  26.540  36.316  1.00  0.00     0.040 A 
ATOM     88  F   UNL A   1      43.238  26.804  36.393  1.00  0.00    -0.206 F 
ATOM     89  C   UNL A   1      46.824  26.994  35.923  1.00  0.00     0.006 A 
ENDBRANCH  65  82
ENDBRANCH  39  40
ENDBRANCH  31  34
ENDBRANCH  29  30
ENDBRANCH  28  29
ENDBRANCH  27  28
ENDBRANCH  26  27
ENDBRANCH   1  26
TORSDOF 17
ENDMDL
MODEL 2
REMARK VINA RESULT:     -10.5      1.928      6.897
REMARK SMILES COCC1CCN(C(=O)NC[C@H]2CC[C@H](C(=O)NCCCCCCNC(=O)c3ccc(-c4c5nc(c(-c6c(F)cccc6F)c6ccc([nH]6)c(-c6c(F)cccc6F)c6nc(c(-c7c(F)cccc7F)c7ccc4[nH]7)C=C6)C=C5)cc3)O2)CC1
REMARK SMILES IDX 20 1 19 2 18 3 16 4 17 5 15 7 12 8 13 9 82 10 14 11 11 12
REMARK SMILES IDX 10 13 4 14 5 15 84 16 6 17 83 18 7 19 8 20 9 21 3 23 2 24
REMARK SMILES IDX 1 25 21 26 22 27 23 28 24 29 25 30 26 31 27 33 28 34 29 35
REMARK SMILES IDX 81 36 30 37 80 38 31 39 32 40 33 41 74 42 34 43 79 44 73 45
REMARK SMILES IDX 75 46 35 47 78 48 72 49 71 50 36 52 62 53 45 54 61 55 46 56
REMARK SMILES IDX 49 57 60 58 76 59 47 60 48 61 59 63 77 64 50 65 37 66 38 67
REMARK SMILES IDX 43 68 39 69 40 70 42 71 44 72 41 73 63 74 64 75 69 76 65 77
REMARK SMILES IDX 66 78 68 79 70 80 67 81 51 82 52 83 57 84 53 85 54 86 56 87
REMARK SMILES IDX 58 88 55 89
REMARK H PARENT 18 6 10 22 25 32 75 51 49 62
REMARK Flexibility Score: inf
ROOT
ATOM      1  C   UNL A   1      31.094  29.992  24.422  1.00  0.00     0.021 C 
ENDROOT
BRANCH   1   2
ATOM      2  C   UNL A   1      31.113  29.132  23.159  1.00  0.00     0.116 C 
BRANCH   2   3
ATOM      3  N   UNL A   1      32.424  29.130  22.549  1.00  0.00    -0.354 N 
ATOM      4  C   UNL A   1      33.295  28.103  22.341  1.00  0.00     0.249 C 
ATOM      5  O   UNL A   1      34.391  28.378  21.842  1.00  0.00    -0.272 OA
ATOM      6  H   UNL A   1      32.737  30.010  22.235  1.00  0.00     0.163 HD
BRANCH   4   7
ATOM      7  C   UNL A   1      32.961  26.654  22.756  1.00  0.00     0.207 C 
ATOM      8  C   UNL A   1      31.117  25.583  23.733  1.00  0.00     0.138 C 
ATOM      9  C   UNL A   1      32.025  26.035  24.869  1.00  0.00     0.037 C 
ATOM     10  O   UNL A   1      31.596  26.273  22.560  1.00  0.00    -0.363 OA
ATOM     11  C   UNL A   1      33.339  26.339  24.194  1.00  0.00     0.045 C 
BRANCH   8  12
ATOM     12  C   UNL A   1      31.042  24.074  23.423  1.00  0.00     0.149 C 
BRANCH  12  13
ATOM     13  N   UNL A   1      30.730  23.216  24.544  1.00  0.00    -0.335 N 
ATOM     14  C   UNL A   1      35.301  22.099  25.902  1.00  0.00     0.018 C 
ATOM     15  C   UNL A   1      34.180  21.416  26.713  1.00  0.00     0.027 C 
ATOM     16  C   UNL A   1      34.698  23.016  24.813  1.00  0.00     0.027 C 
ATOM     17  C   UNL A   1      33.152  20.749  25.803  1.00  0.00     0.121 C 
ATOM     18  C   UNL A   1      33.605  22.304  24.006  1.00  0.00     0.121 C 
ATOM     19  N   UNL A   1      32.595  21.768  24.911  1.00  0.00    -0.325 N 
ATOM     20  C   UNL A   1      31.341  22.223  25.208  1.00  0.00     0.317 C 
ATOM     21  O   UNL A   1      30.664  21.730  26.116  1.00  0.00    -0.249 OA
ATOM     22  H   UNL A   1      29.840  23.412  24.918  1.00  0.00     0.165 HD
BRANCH  14  23
ATOM     23  C   UNL A   1      36.299  21.101  25.279  1.00  0.00     0.163 C 
BRANCH  23  24
ATOM     24  O   UNL A   1      37.492  21.716  24.805  1.00  0.00    -0.384 OA
ATOM     25  C   UNL A   1      38.552  21.714  25.750  1.00  0.00     0.194 C 
ENDBRANCH  23  24
ENDBRANCH  14  23
ENDBRANCH  12  13
ENDBRANCH   8  12
ENDBRANCH   4   7
ENDBRANCH   2   3
ENDBRANCH   1   2
BRANCH   1  26
ATOM     26  C   UNL A   1      31.769  29.317  25.619  1.00  0.00     0.002 C 
BRANCH  26  27
ATOM     27  C   UNL A   1      31.749  30.145  26.911  1.00  0.00     0.002 C 
BRANCH  27  28
ATOM     28  C   UNL A   1      31.624  31.659  26.710  1.00  0.00     0.021 C 
BRANCH  28  29
ATOM     29  C   UNL A   1      32.896  32.442  27.021  1.00  0.00     0.116 C 
BRANCH  29  30
ATOM     30  N   UNL A   1      32.600  33.819  27.388  1.00  0.00    -0.352 N 
ATOM     31  C   UNL A   1      33.080  34.568  28.432  1.00  0.00     0.251 C 
ATOM     32  H   UNL A   1      31.960  34.282  26.799  1.00  0.00     0.163 HD
ATOM     33  O   UNL A   1      32.531  35.619  28.745  1.00  0.00    -0.269 OA
BRANCH  31  34
ATOM     34  C   UNL A   1      34.259  34.098  29.188  1.00  0.00     0.039 A 
ATOM     35  C   UNL A   1      34.067  33.332  30.341  1.00  0.00     0.014 A 
ATOM     36  C   UNL A   1      35.550  34.428  28.766  1.00  0.00     0.014 A 
ATOM     37  C   UNL A   1      35.173  32.835  31.031  1.00  0.00     0.010 A 
ATOM     38  C   UNL A   1      36.650  33.878  29.417  1.00  0.00     0.010 A 
ATOM     39  C   UNL A   1      36.472  33.072  30.550  1.00  0.00    -0.014 A 
BRANCH  39  40
ATOM     40  C   UNL A   1      37.657  32.458  31.198  1.00  0.00     0.031 A 
ATOM     41  C   UNL A   1      38.338  31.275  30.570  1.00  0.00     0.074 A 
ATOM     42  C   UNL A   1      38.065  32.917  32.397  1.00  0.00     0.049 A 
ATOM     43  N   UNL A   1      39.321  30.546  31.034  1.00  0.00    -0.248 NA
ATOM     44  C   UNL A   1      37.831  30.840  29.259  1.00  0.00     0.031 C 
ATOM     45  C   UNL A   1      37.458  34.032  33.126  1.00  0.00     0.029 A 
ATOM     46  N   UNL A   1      39.075  32.491  33.221  1.00  0.00    -0.354 N 
ATOM     47  C   UNL A   1      39.544  29.562  30.079  1.00  0.00     0.074 A 
ATOM     48  C   UNL A   1      38.563  29.758  29.033  1.00  0.00     0.031 C 
ATOM     49  C   UNL A   1      38.117  34.211  34.282  1.00  0.00     0.029 A 
ATOM     50  C   UNL A   1      39.161  33.198  34.396  1.00  0.00     0.049 A 
ATOM     51  H   UNL A   1      39.680  31.749  32.994  1.00  0.00     0.167 HD
ATOM     52  C   UNL A   1      40.492  28.594  30.069  1.00  0.00     0.037 A 
ATOM     53  C   UNL A   1      39.978  33.039  35.454  1.00  0.00     0.037 A 
ATOM     54  C   UNL A   1      41.474  28.413  31.105  1.00  0.00     0.049 A 
ATOM     55  C   UNL A   1      41.004  31.940  35.429  1.00  0.00     0.074 A 
ATOM     56  C   UNL A   1      42.515  27.502  31.157  1.00  0.00     0.029 A 
ATOM     57  N   UNL A   1      41.532  29.152  32.277  1.00  0.00    -0.354 N 
ATOM     58  N   UNL A   1      41.247  31.058  34.490  1.00  0.00    -0.248 NA
ATOM     59  C   UNL A   1      41.868  31.814  36.610  1.00  0.00     0.031 C 
ATOM     60  C   UNL A   1      43.172  27.657  32.382  1.00  0.00     0.029 A 
ATOM     61  C   UNL A   1      42.572  28.697  33.072  1.00  0.00     0.049 A 
ATOM     62  H   UNL A   1      40.925  29.891  32.510  1.00  0.00     0.167 HD
ATOM     63  C   UNL A   1      42.304  30.288  34.956  1.00  0.00     0.074 A 
ATOM     64  C   UNL A   1      42.667  30.819  36.254  1.00  0.00     0.031 C 
ATOM     65  C   UNL A   1      42.917  29.235  34.364  1.00  0.00     0.037 A 
BRANCH  52  66
ATOM     66  C   UNL A   1      40.511  27.655  28.899  1.00  0.00     0.057 A 
ATOM     67  C   UNL A   1      39.721  26.497  28.866  1.00  0.00     0.134 A 
ATOM     68  C   UNL A   1      41.296  27.931  27.772  1.00  0.00     0.134 A 
ATOM     69  F   UNL A   1      38.954  26.169  29.917  1.00  0.00    -0.206 F 
ATOM     70  C   UNL A   1      39.730  25.637  27.767  1.00  0.00     0.040 A 
ATOM     71  C   UNL A   1      41.293  27.093  26.656  1.00  0.00     0.040 A 
ATOM     72  F   UNL A   1      42.070  29.026  27.734  1.00  0.00    -0.206 F 
ATOM     73  C   UNL A   1      40.512  25.939  26.654  1.00  0.00     0.006 A 
ENDBRANCH  52  66
BRANCH  53  74
ATOM     74  C   UNL A   1      39.864  33.944  36.626  1.00  0.00     0.057 A 
ATOM     75  C   UNL A   1      39.080  33.596  37.731  1.00  0.00     0.134 A 
ATOM     76  C   UNL A   1      40.527  35.177  36.665  1.00  0.00     0.134 A 
ATOM     77  F   UNL A   1      38.406  32.438  37.743  1.00  0.00    -0.206 F 
ATOM     78  C   UNL A   1      38.942  34.451  38.826  1.00  0.00     0.040 A 
ATOM     79  C   UNL A   1      40.419  36.029  37.766  1.00  0.00     0.040 A 
ATOM     80  F   UNL A   1      41.300  35.565  35.640  1.00  0.00    -0.206 F 
ATOM     81  C   UNL A   1      39.617  35.669  38.847  1.00  0.00     0.006 A 
ENDBRANCH  53  74
BRANCH  65  82
ATOM     82  C   UNL A   1      44.056  28.599  35.108  1.00  0.00     0.057 A 
ATOM     83  C   UNL A   1      43.858  27.519  35.976  1.00  0.00     0.134 A 
ATOM     84  C   UNL A   1      45.369  29.053  34.928  1.00  0.00     0.134 A 
ATOM     85  F   UNL A   1      42.623  27.047  36.205  1.00  0.00    -0.206 F 
ATOM     86  C   UNL A   1      44.923  26.924  36.656  1.00  0.00     0.040 A 
ATOM     87  C   UNL A   1      46.445  28.450  35.580  1.00  0.00     0.040 A 
ATOM     88  F   UNL A   1      45.628  30.080  34.105  1.00  0.00    -0.206 F 
ATOM     89  C   UNL A   1      46.223  27.386  36.452  1.00  0.00     0.006 A 
ENDBRANCH  65  82
ENDBRANCH  39  40
ENDBRANCH  31  34
ENDBRANCH  29  30
ENDBRANCH  28  29
ENDBRANCH  27  28
ENDBRANCH  26  27
ENDBRANCH   1  26
TORSDOF 17
ENDMDL
MODEL 3
REMARK VINA RESULT:     -10.5      4.980      9.227
REMARK SMILES COCC1CCN(C(=O)NC[C@H]2CC[C@H](C(=O)NCCCCCCNC(=O)c3ccc(-c4c5nc(c(-c6c(F)cccc6F)c6ccc([nH]6)c(-c6c(F)cccc6F)c6nc(c(-c7c(F)cccc7F)c7ccc4[nH]7)C=C6)C=C5)cc3)O2)CC1
REMARK SMILES IDX 20 1 19 2 18 3 16 4 17 5 15 7 12 8 13 9 82 10 14 11 11 12
REMARK SMILES IDX 10 13 4 14 5 15 84 16 6 17 83 18 7 19 8 20 9 21 3 23 2 24
REMARK SMILES IDX 1 25 21 26 22 27 23 28 24 29 25 30 26 31 27 33 28 34 29 35
REMARK SMILES IDX 81 36 30 37 80 38 31 39 32 40 33 41 74 42 34 43 79 44 73 45
REMARK SMILES IDX 75 46 35 47 78 48 72 49 71 50 36 52 62 53 45 54 61 55 46 56
REMARK SMILES IDX 49 57 60 58 76 59 47 60 48 61 59 63 77 64 50 65 37 66 38 67
REMARK SMILES IDX 43 68 39 69 40 70 42 71 44 72 41 73 63 74 64 75 69 76 65 77
REMARK SMILES IDX 66 78 68 79 70 80 67 81 51 82 52 83 57 84 53 85 54 86 56 87
REMARK SMILES IDX 58 88 55 89
REMARK H PARENT 18 6 10 22 25 32 75 51 49 62
REMARK Flexibility Score: inf
ROOT
ATOM      1  C   UNL A   1      38.038  32.948  32.784  1.00  0.00     0.021 C 
ENDROOT
BRANCH   1   2
ATOM      2  C   UNL A   1      37.349  31.967  33.732  1.00  0.00     0.116 C 
BRANCH   2   3
ATOM      3  N   UNL A   1      37.818  32.138  35.089  1.00  0.00    -0.354 N 
ATOM      4  C   UNL A   1      38.783  31.464  35.776  1.00  0.00     0.249 C 
ATOM      5  O   UNL A   1      38.959  31.771  36.959  1.00  0.00    -0.272 OA
ATOM      6  H   UNL A   1      37.370  32.854  35.596  1.00  0.00     0.163 HD
BRANCH   4   7
ATOM      7  C   UNL A   1      39.598  30.323  35.130  1.00  0.00     0.207 C 
ATOM      8  C   UNL A   1      41.497  29.084  35.732  1.00  0.00     0.138 C 
ATOM      9  C   UNL A   1      41.985  30.298  34.955  1.00  0.00     0.037 C 
ATOM     10  O   UNL A   1      40.117  29.360  36.052  1.00  0.00    -0.363 OA
ATOM     11  C   UNL A   1      40.748  30.819  34.267  1.00  0.00     0.045 C 
BRANCH   8  12
ATOM     12  C   UNL A   1      41.578  27.704  35.046  1.00  0.00     0.149 C 
BRANCH  12  13
ATOM     13  N   UNL A   1      42.391  27.644  33.852  1.00  0.00    -0.335 N 
ATOM     14  C   UNL A   1      43.647  22.915  34.065  1.00  0.00     0.018 C 
ATOM     15  C   UNL A   1      44.263  23.716  32.898  1.00  0.00     0.027 C 
ATOM     16  C   UNL A   1      42.738  23.825  34.923  1.00  0.00     0.027 C 
ATOM     17  C   UNL A   1      44.914  25.007  33.382  1.00  0.00     0.121 C 
ATOM     18  C   UNL A   1      43.430  25.144  35.288  1.00  0.00     0.121 C 
ATOM     19  N   UNL A   1      43.899  25.805  34.075  1.00  0.00    -0.325 N 
ATOM     20  C   UNL A   1      43.388  26.873  33.393  1.00  0.00     0.317 C 
ATOM     21  O   UNL A   1      43.828  27.217  32.291  1.00  0.00    -0.249 OA
ATOM     22  H   UNL A   1      42.150  28.350  33.209  1.00  0.00     0.165 HD
BRANCH  14  23
ATOM     23  C   UNL A   1      44.701  22.213  34.946  1.00  0.00     0.163 C 
BRANCH  23  24
ATOM     24  O   UNL A   1      45.795  21.683  34.205  1.00  0.00    -0.384 OA
ATOM     25  C   UNL A   1      47.067  22.041  34.727  1.00  0.00     0.194 C 
ENDBRANCH  23  24
ENDBRANCH  14  23
ENDBRANCH  12  13
ENDBRANCH   8  12
ENDBRANCH   4   7
ENDBRANCH   2   3
ENDBRANCH   1   2
BRANCH   1  26
ATOM     26  C   UNL A   1      37.918  32.545  31.311  1.00  0.00     0.002 C 
BRANCH  26  27
ATOM     27  C   UNL A   1      37.496  33.684  30.373  1.00  0.00     0.002 C 
BRANCH  27  28
ATOM     28  C   UNL A   1      36.199  33.438  29.595  1.00  0.00     0.021 C 
BRANCH  28  29
ATOM     29  C   UNL A   1      35.226  32.483  30.280  1.00  0.00     0.116 C 
BRANCH  29  30
ATOM     30  N   UNL A   1      34.468  31.705  29.311  1.00  0.00    -0.352 N 
ATOM     31  C   UNL A   1      34.901  30.749  28.428  1.00  0.00     0.251 C 
ATOM     32  H   UNL A   1      33.502  31.894  29.285  1.00  0.00     0.163 HD
ATOM     33  O   UNL A   1      34.177  30.382  27.507  1.00  0.00    -0.269 OA
BRANCH  31  34
ATOM     34  C   UNL A   1      36.248  30.164  28.584  1.00  0.00     0.039 A 
ATOM     35  C   UNL A   1      37.167  30.287  27.538  1.00  0.00     0.014 A 
ATOM     36  C   UNL A   1      36.596  29.484  29.754  1.00  0.00     0.014 A 
ATOM     37  C   UNL A   1      38.462  29.790  27.696  1.00  0.00     0.010 A 
ATOM     38  C   UNL A   1      37.905  29.046  29.935  1.00  0.00     0.010 A 
ATOM     39  C   UNL A   1      38.850  29.201  28.911  1.00  0.00    -0.014 A 
BRANCH  39  40
ATOM     40  C   UNL A   1      40.251  28.771  29.145  1.00  0.00     0.031 A 
ATOM     41  C   UNL A   1      41.250  29.726  29.732  1.00  0.00     0.074 A 
ATOM     42  C   UNL A   1      40.638  27.544  28.748  1.00  0.00     0.049 A 
ATOM     43  N   UNL A   1      42.536  29.565  29.918  1.00  0.00    -0.248 NA
ATOM     44  C   UNL A   1      40.743  31.045  30.141  1.00  0.00     0.031 C 
ATOM     45  C   UNL A   1      39.769  26.542  28.129  1.00  0.00     0.029 A 
ATOM     46  N   UNL A   1      41.867  26.936  28.791  1.00  0.00    -0.354 N 
ATOM     47  C   UNL A   1      42.993  30.761  30.455  1.00  0.00     0.074 A 
ATOM     48  C   UNL A   1      41.857  31.657  30.521  1.00  0.00     0.031 C 
ATOM     49  C   UNL A   1      40.488  25.440  27.862  1.00  0.00     0.029 A 
ATOM     50  C   UNL A   1      41.876  25.672  28.251  1.00  0.00     0.049 A 
ATOM     51  H   UNL A   1      42.667  27.364  29.173  1.00  0.00     0.167 HD
ATOM     52  C   UNL A   1      44.242  31.079  30.871  1.00  0.00     0.037 A 
ATOM     53  C   UNL A   1      42.890  24.805  28.073  1.00  0.00     0.037 A 
ATOM     54  C   UNL A   1      45.365  30.180  30.817  1.00  0.00     0.049 A 
ATOM     55  C   UNL A   1      44.272  25.192  28.519  1.00  0.00     0.074 A 
ATOM     56  C   UNL A   1      46.657  30.385  31.271  1.00  0.00     0.029 A 
ATOM     57  N   UNL A   1      45.333  28.907  30.267  1.00  0.00    -0.354 N 
ATOM     58  N   UNL A   1      44.677  26.302  29.087  1.00  0.00    -0.248 NA
ATOM     59  C   UNL A   1      45.338  24.205  28.300  1.00  0.00     0.031 C 
ATOM     60  C   UNL A   1      47.418  29.256  30.952  1.00  0.00     0.029 A 
ATOM     61  C   UNL A   1      46.590  28.327  30.344  1.00  0.00     0.049 A 
ATOM     62  H   UNL A   1      44.536  28.478  29.880  1.00  0.00     0.167 HD
ATOM     63  C   UNL A   1      46.037  26.140  29.312  1.00  0.00     0.074 A 
ATOM     64  C   UNL A   1      46.384  24.816  28.837  1.00  0.00     0.031 C 
ATOM     65  C   UNL A   1      46.920  27.010  29.861  1.00  0.00     0.037 A 
BRANCH  52  66
ATOM     66  C   UNL A   1      44.461  32.457  31.421  1.00  0.00     0.057 A 
ATOM     67  C   UNL A   1      44.514  32.705  32.800  1.00  0.00     0.134 A 
ATOM     68  C   UNL A   1      44.664  33.546  30.564  1.00  0.00     0.134 A 
ATOM     69  F   UNL A   1      44.317  31.708  33.676  1.00  0.00    -0.206 F 
ATOM     70  C   UNL A   1      44.736  33.987  33.305  1.00  0.00     0.040 A 
ATOM     71  C   UNL A   1      44.914  34.828  31.056  1.00  0.00     0.040 A 
ATOM     72  F   UNL A   1      44.634  33.380  29.233  1.00  0.00    -0.206 F 
ATOM     73  C   UNL A   1      44.945  35.052  32.431  1.00  0.00     0.006 A 
ENDBRANCH  52  66
BRANCH  53  74
ATOM     74  C   UNL A   1      42.636  23.483  27.447  1.00  0.00     0.057 A 
ATOM     75  C   UNL A   1      42.301  22.370  28.225  1.00  0.00     0.134 A 
ATOM     76  C   UNL A   1      42.730  23.299  26.062  1.00  0.00     0.134 A 
ATOM     77  F   UNL A   1      42.215  22.479  29.558  1.00  0.00    -0.206 F 
ATOM     78  C   UNL A   1      42.088  21.116  27.651  1.00  0.00     0.040 A 
ATOM     79  C   UNL A   1      42.493  22.056  25.472  1.00  0.00     0.040 A 
ATOM     80  F   UNL A   1      43.040  24.329  25.259  1.00  0.00    -0.206 F 
ATOM     81  C   UNL A   1      42.179  20.958  26.270  1.00  0.00     0.006 A 
ENDBRANCH  53  74
BRANCH  65  82
ATOM     82  C   UNL A   1      48.342  26.549  29.994  1.00  0.00     0.057 A 
ATOM     83  C   UNL A   1      49.296  26.809  29.002  1.00  0.00     0.134 A 
ATOM     84  C   UNL A   1      48.769  25.867  31.140  1.00  0.00     0.134 A 
ATOM     85  F   UNL A   1      48.949  27.443  27.872  1.00  0.00    -0.206 F 
ATOM     86  C   UNL A   1      50.621  26.387  29.136  1.00  0.00     0.040 A 
ATOM     87  C   UNL A   1      50.096  25.465  31.299  1.00  0.00     0.040 A 
ATOM     88  F   UNL A   1      47.907  25.593  32.131  1.00  0.00    -0.206 F 
ATOM     89  C   UNL A   1      51.025  25.720  30.292  1.00  0.00     0.006 A 
ENDBRANCH  65  82
ENDBRANCH  39  40
ENDBRANCH  31  34
ENDBRANCH  29  30
ENDBRANCH  28  29
ENDBRANCH  27  28
ENDBRANCH  26  27
ENDBRANCH   1  26
TORSDOF 17
ENDMDL
