MODEL 1
REMARK VINA RESULT:     -11.9      0.000      0.000
REMARK SMILES C[C@H](c1ccncc1)N1Cc2cccc(C(=O)NCCCCCCNC(=O)c3ccc(-c4c5nc(c(-c6c(F)cccc6F)c6ccc([nH]6)c(-c6c(F)cccc6F)c6nc(c(-c7c(F)cccc7F)c7ccc4[nH]7)C=C6)C=C5)cc3)c2C1=O
REMARK SMILES IDX 21 1 20 2 19 3 18 4 16 5 17 6 15 8 9 9 10 10 83 11 11 12
REMARK SMILES IDX 82 13 84 14 12 15 13 16 14 17 2 18 1 19 3 20 4 21 8 22 5 23
REMARK SMILES IDX 7 24 6 25 22 26 23 27 24 28 25 29 26 30 27 32 28 33 29 34
REMARK SMILES IDX 81 35 30 36 80 37 31 38 32 39 33 40 74 41 34 42 79 43 73 44
REMARK SMILES IDX 75 45 35 46 78 47 72 48 71 49 36 51 62 52 45 53 61 54 46 55
REMARK SMILES IDX 49 56 60 57 76 58 47 59 48 60 59 62 77 63 50 64 37 65 38 66
REMARK SMILES IDX 43 67 39 68 40 69 42 70 44 71 41 72 63 73 64 74 69 75 65 76
REMARK SMILES IDX 66 77 68 78 70 79 67 80 51 81 52 82 57 83 53 84 54 85 56 86
REMARK SMILES IDX 58 87 55 88
REMARK H PARENT 18 7 25 31 75 50 49 61
REMARK Flexibility Score: inf
ROOT
ATOM      1  C   UNL A   1      32.073  29.787  25.907  1.00  0.00     0.002 C 
ENDROOT
BRANCH   1   2
ATOM      2  C   UNL A   1      31.779  29.175  27.278  1.00  0.00     0.021 C 
BRANCH   2   3
ATOM      3  C   UNL A   1      32.294  27.742  27.475  1.00  0.00     0.116 C 
BRANCH   3   4
ATOM      4  N   UNL A   1      31.209  26.811  27.218  1.00  0.00    -0.352 N 
ATOM      5  C   UNL A   1      30.626  26.318  26.083  1.00  0.00     0.252 C 
ATOM      6  O   UNL A   1      29.576  25.685  26.233  1.00  0.00    -0.269 OA
ATOM      7  H   UNL A   1      30.804  26.456  28.043  1.00  0.00     0.163 HD
BRANCH   5   8
ATOM      8  C   UNL A   1      31.226  26.329  24.725  1.00  0.00     0.052 A 
ATOM      9  N   UNL A   1      34.096  24.218  23.904  1.00  0.00    -0.328 N 
ATOM     10  C   UNL A   1      33.863  24.817  22.608  1.00  0.00     0.157 C 
ATOM     11  C   UNL A   1      33.383  24.860  24.901  1.00  0.00     0.255 C 
ATOM     12  C   UNL A   1      32.711  25.727  22.888  1.00  0.00    -0.015 A 
ATOM     13  C   UNL A   1      32.351  25.676  24.249  1.00  0.00     0.057 A 
ATOM     14  O   UNL A   1      33.597  24.793  26.094  1.00  0.00    -0.269 OA
ATOM     15  C   UNL A   1      32.036  26.528  21.983  1.00  0.00     0.006 A 
ATOM     16  C   UNL A   1      30.954  27.262  22.451  1.00  0.00     0.001 A 
ATOM     17  C   UNL A   1      30.547  27.148  23.792  1.00  0.00     0.015 A 
BRANCH   9  18
ATOM     18  C   UNL A   1      34.960  23.065  24.152  1.00  0.00     0.113 C 
ATOM     19  C   UNL A   1      36.106  22.933  23.149  1.00  0.00     0.036 C 
BRANCH  18  20
ATOM     20  C   UNL A   1      34.161  21.766  24.236  1.00  0.00    -0.023 A 
ATOM     21  C   UNL A   1      34.458  20.752  25.155  1.00  0.00     0.026 A 
ATOM     22  C   UNL A   1      33.058  21.568  23.395  1.00  0.00     0.026 A 
ATOM     23  C   UNL A   1      33.672  19.608  25.182  1.00  0.00     0.111 A 
ATOM     24  C   UNL A   1      32.325  20.394  23.504  1.00  0.00     0.111 A 
ATOM     25  N   UNL A   1      32.612  19.406  24.375  1.00  0.00    -0.265 NA
ENDBRANCH  18  20
ENDBRANCH   9  18
ENDBRANCH   5   8
ENDBRANCH   3   4
ENDBRANCH   2   3
ENDBRANCH   1   2
BRANCH   1  26
ATOM     26  C   UNL A   1      31.158  30.949  25.512  1.00  0.00     0.002 C 
BRANCH  26  27
ATOM     27  C   UNL A   1      31.115  32.129  26.490  1.00  0.00     0.021 C 
BRANCH  27  28
ATOM     28  C   UNL A   1      32.470  32.624  26.996  1.00  0.00     0.116 C 
BRANCH  28  29
ATOM     29  N   UNL A   1      32.412  34.001  27.453  1.00  0.00    -0.352 N 
ATOM     30  C   UNL A   1      33.104  34.625  28.460  1.00  0.00     0.251 C 
ATOM     31  H   UNL A   1      31.778  34.574  26.966  1.00  0.00     0.163 HD
ATOM     32  O   UNL A   1      32.768  35.748  28.826  1.00  0.00    -0.269 OA
BRANCH  30  33
ATOM     33  C   UNL A   1      34.250  33.960  29.122  1.00  0.00     0.039 A 
ATOM     34  C   UNL A   1      35.544  34.372  28.788  1.00  0.00     0.014 A 
ATOM     35  C   UNL A   1      34.065  32.892  30.007  1.00  0.00     0.014 A 
ATOM     36  C   UNL A   1      36.651  33.745  29.368  1.00  0.00     0.010 A 
ATOM     37  C   UNL A   1      35.169  32.297  30.621  1.00  0.00     0.010 A 
ATOM     38  C   UNL A   1      36.471  32.713  30.303  1.00  0.00    -0.014 A 
BRANCH  38  39
ATOM     39  C   UNL A   1      37.638  32.052  30.940  1.00  0.00     0.031 A 
ATOM     40  C   UNL A   1      38.393  30.972  30.215  1.00  0.00     0.074 A 
ATOM     41  C   UNL A   1      37.993  32.390  32.194  1.00  0.00     0.049 A 
ATOM     42  N   UNL A   1      39.399  30.245  30.630  1.00  0.00    -0.248 NA
ATOM     43  C   UNL A   1      37.944  30.657  28.851  1.00  0.00     0.031 C 
ATOM     44  C   UNL A   1      37.328  33.399  33.019  1.00  0.00     0.029 A 
ATOM     45  N   UNL A   1      39.001  31.913  32.996  1.00  0.00    -0.354 N 
ATOM     46  C   UNL A   1      39.692  29.375  29.588  1.00  0.00     0.074 A 
ATOM     47  C   UNL A   1      38.735  29.641  28.535  1.00  0.00     0.031 C 
ATOM     48  C   UNL A   1      37.954  33.477  34.205  1.00  0.00     0.029 A 
ATOM     49  C   UNL A   1      39.045  32.507  34.233  1.00  0.00     0.049 A 
ATOM     50  H   UNL A   1      39.630  31.212  32.712  1.00  0.00     0.167 HD
ATOM     51  C   UNL A   1      40.678  28.448  29.508  1.00  0.00     0.037 A 
ATOM     52  C   UNL A   1      39.869  32.292  35.276  1.00  0.00     0.037 A 
ATOM     53  C   UNL A   1      41.651  28.202  30.540  1.00  0.00     0.049 A 
ATOM     54  C   UNL A   1      40.958  31.263  35.162  1.00  0.00     0.074 A 
ATOM     55  C   UNL A   1      42.726  27.330  30.522  1.00  0.00     0.029 A 
ATOM     56  N   UNL A   1      41.667  28.832  31.775  1.00  0.00    -0.354 N 
ATOM     57  N   UNL A   1      41.254  30.483  34.152  1.00  0.00    -0.248 NA
ATOM     58  C   UNL A   1      41.828  31.087  36.334  1.00  0.00     0.031 C 
ATOM     59  C   UNL A   1      43.374  27.408  31.760  1.00  0.00     0.029 A 
ATOM     60  C   UNL A   1      42.722  28.353  32.535  1.00  0.00     0.049 A 
ATOM     61  H   UNL A   1      41.025  29.516  32.069  1.00  0.00     0.167 HD
ATOM     62  C   UNL A   1      42.354  29.740  34.556  1.00  0.00     0.074 A 
ATOM     63  C   UNL A   1      42.679  30.167  35.901  1.00  0.00     0.031 C 
ATOM     64  C   UNL A   1      43.034  28.788  33.872  1.00  0.00     0.037 A 
BRANCH  51  65
ATOM     65  C   UNL A   1      40.748  27.628  28.255  1.00  0.00     0.057 A 
ATOM     66  C   UNL A   1      40.064  26.413  28.129  1.00  0.00     0.134 A 
ATOM     67  C   UNL A   1      41.490  28.071  27.153  1.00  0.00     0.134 A 
ATOM     68  F   UNL A   1      39.346  25.929  29.153  1.00  0.00    -0.206 F 
ATOM     69  C   UNL A   1      40.137  25.653  26.961  1.00  0.00     0.040 A 
ATOM     70  C   UNL A   1      41.552  27.331  25.971  1.00  0.00     0.040 A 
ATOM     71  F   UNL A   1      42.163  29.231  27.206  1.00  0.00    -0.206 F 
ATOM     72  C   UNL A   1      40.879  26.114  25.875  1.00  0.00     0.006 A 
ENDBRANCH  51  65
BRANCH  52  73
ATOM     73  C   UNL A   1      39.712  33.093  36.513  1.00  0.00     0.057 A 
ATOM     74  C   UNL A   1      38.842  32.682  37.528  1.00  0.00     0.134 A 
ATOM     75  C   UNL A   1      40.435  34.275  36.715  1.00  0.00     0.134 A 
ATOM     76  F   UNL A   1      38.110  31.569  37.380  1.00  0.00    -0.206 F 
ATOM     77  C   UNL A   1      38.687  33.424  38.700  1.00  0.00     0.040 A 
ATOM     78  C   UNL A   1      40.303  35.016  37.889  1.00  0.00     0.040 A 
ATOM     79  F   UNL A   1      41.286  34.716  35.778  1.00  0.00    -0.206 F 
ATOM     80  C   UNL A   1      39.424  34.592  38.885  1.00  0.00     0.006 A 
ENDBRANCH  52  73
BRANCH  64  81
ATOM     81  C   UNL A   1      44.209  28.161  34.559  1.00  0.00     0.057 A 
ATOM     82  C   UNL A   1      45.496  28.700  34.452  1.00  0.00     0.134 A 
ATOM     83  C   UNL A   1      44.044  27.025  35.362  1.00  0.00     0.134 A 
ATOM     84  F   UNL A   1      45.721  29.778  33.687  1.00  0.00    -0.206 F 
ATOM     85  C   UNL A   1      46.585  28.121  35.109  1.00  0.00     0.040 A 
ATOM     86  C   UNL A   1      45.120  26.449  36.038  1.00  0.00     0.040 A 
ATOM     87  F   UNL A   1      42.834  26.464  35.509  1.00  0.00    -0.206 F 
ATOM     88  C   UNL A   1      46.395  26.995  35.909  1.00  0.00     0.006 A 
ENDBRANCH  64  81
ENDBRANCH  38  39
ENDBRANCH  30  33
ENDBRANCH  28  29
ENDBRANCH  27  28
ENDBRANCH  26  27
ENDBRANCH   1  26
TORSDOF 15
ENDMDL
MODEL 2
REMARK VINA RESULT:     -11.9      0.342      6.138
REMARK SMILES C[C@H](c1ccncc1)N1Cc2cccc(C(=O)NCCCCCCNC(=O)c3ccc(-c4c5nc(c(-c6c(F)cccc6F)c6ccc([nH]6)c(-c6c(F)cccc6F)c6nc(c(-c7c(F)cccc7F)c7ccc4[nH]7)C=C6)C=C5)cc3)c2C1=O
REMARK SMILES IDX 21 1 20 2 19 3 18 4 16 5 17 6 15 8 9 9 10 10 83 11 11 12
REMARK SMILES IDX 82 13 84 14 12 15 13 16 14 17 2 18 1 19 3 20 4 21 8 22 5 23
REMARK SMILES IDX 7 24 6 25 22 26 23 27 24 28 25 29 26 30 27 32 28 33 29 34
REMARK SMILES IDX 81 35 30 36 80 37 31 38 32 39 33 40 74 41 34 42 79 43 73 44
REMARK SMILES IDX 75 45 35 46 78 47 72 48 71 49 36 51 62 52 45 53 61 54 46 55
REMARK SMILES IDX 49 56 60 57 76 58 47 59 48 60 59 62 77 63 50 64 37 65 38 66
REMARK SMILES IDX 43 67 39 68 40 69 42 70 44 71 41 72 63 73 64 74 69 75 65 76
REMARK SMILES IDX 66 77 68 78 70 79 67 80 51 81 52 82 57 83 53 84 54 85 56 86
REMARK SMILES IDX 58 87 55 88
REMARK H PARENT 18 7 25 31 75 50 49 61
REMARK Flexibility Score: inf
ROOT
ATOM      1  C   UNL A   1      32.033  29.831  25.833  1.00  0.00     0.002 C 
ENDROOT
BRANCH   1   2
ATOM      2  C   UNL A   1      31.752  29.234  27.213  1.00  0.00     0.021 C 
BRANCH   2   3
ATOM      3  C   UNL A   1      32.313  27.822  27.439  1.00  0.00     0.116 C 
BRANCH   3   4
ATOM      4  N   UNL A   1      31.248  26.854  27.240  1.00  0.00    -0.352 N 
ATOM      5  C   UNL A   1      30.647  26.313  26.136  1.00  0.00     0.252 C 
ATOM      6  O   UNL A   1      29.621  25.654  26.335  1.00  0.00    -0.269 OA
ATOM      7  H   UNL A   1      30.878  26.512  28.086  1.00  0.00     0.163 HD
BRANCH   5   8
ATOM      8  C   UNL A   1      31.208  26.301  24.761  1.00  0.00     0.052 A 
ATOM      9  N   UNL A   1      34.069  24.196  23.899  1.00  0.00    -0.328 N 
ATOM     10  C   UNL A   1      33.794  24.768  22.599  1.00  0.00     0.157 C 
ATOM     11  C   UNL A   1      33.380  24.853  24.904  1.00  0.00     0.255 C 
ATOM     12  C   UNL A   1      32.643  25.674  22.894  1.00  0.00    -0.015 A 
ATOM     13  C   UNL A   1      32.323  25.647  24.266  1.00  0.00     0.057 A 
ATOM     14  O   UNL A   1      33.630  24.811  26.091  1.00  0.00    -0.269 OA
ATOM     15  C   UNL A   1      31.936  26.452  21.994  1.00  0.00     0.006 A 
ATOM     16  C   UNL A   1      30.862  27.187  22.478  1.00  0.00     0.001 A 
ATOM     17  C   UNL A   1      30.495  27.096  23.833  1.00  0.00     0.015 A 
BRANCH   9  18
ATOM     18  C   UNL A   1      34.950  23.055  24.144  1.00  0.00     0.113 C 
ATOM     19  C   UNL A   1      36.097  22.941  23.141  1.00  0.00     0.036 C 
BRANCH  18  20
ATOM     20  C   UNL A   1      34.169  21.744  24.225  1.00  0.00    -0.023 A 
ATOM     21  C   UNL A   1      34.612  20.643  24.968  1.00  0.00     0.026 A 
ATOM     22  C   UNL A   1      32.937  21.623  23.569  1.00  0.00     0.026 A 
ATOM     23  C   UNL A   1      33.836  19.494  25.008  1.00  0.00     0.111 A 
ATOM     24  C   UNL A   1      32.227  20.435  23.677  1.00  0.00     0.111 A 
ATOM     25  N   UNL A   1      32.652  19.365  24.377  1.00  0.00    -0.265 NA
ENDBRANCH  18  20
ENDBRANCH   9  18
ENDBRANCH   5   8
ENDBRANCH   3   4
ENDBRANCH   2   3
ENDBRANCH   1   2
BRANCH   1  26
ATOM     26  C   UNL A   1      31.031  30.895  25.377  1.00  0.00     0.002 C 
BRANCH  26  27
ATOM     27  C   UNL A   1      31.025  32.198  26.186  1.00  0.00     0.021 C 
BRANCH  27  28
ATOM     28  C   UNL A   1      32.359  32.596  26.818  1.00  0.00     0.116 C 
BRANCH  28  29
ATOM     29  N   UNL A   1      32.331  33.949  27.344  1.00  0.00    -0.352 N 
ATOM     30  C   UNL A   1      33.071  34.519  28.349  1.00  0.00     0.251 C 
ATOM     31  H   UNL A   1      31.680  34.549  26.914  1.00  0.00     0.163 HD
ATOM     32  O   UNL A   1      32.760  35.624  28.784  1.00  0.00    -0.269 OA
BRANCH  30  33
ATOM     33  C   UNL A   1      34.240  33.816  28.925  1.00  0.00     0.039 A 
ATOM     34  C   UNL A   1      34.014  32.787  29.844  1.00  0.00     0.014 A 
ATOM     35  C   UNL A   1      35.550  34.208  28.627  1.00  0.00     0.014 A 
ATOM     36  C   UNL A   1      35.094  32.123  30.434  1.00  0.00     0.010 A 
ATOM     37  C   UNL A   1      36.628  33.514  29.180  1.00  0.00     0.010 A 
ATOM     38  C   UNL A   1      36.410  32.470  30.093  1.00  0.00    -0.014 A 
BRANCH  38  39
ATOM     39  C   UNL A   1      37.565  31.760  30.697  1.00  0.00     0.031 A 
ATOM     40  C   UNL A   1      38.041  32.115  32.079  1.00  0.00     0.074 A 
ATOM     41  C   UNL A   1      38.220  30.824  29.985  1.00  0.00     0.049 A 
ATOM     42  N   UNL A   1      39.063  31.644  32.748  1.00  0.00    -0.248 NA
ATOM     43  C   UNL A   1      37.277  33.148  32.793  1.00  0.00     0.031 C 
ATOM     44  C   UNL A   1      37.881  30.406  28.624  1.00  0.00     0.029 A 
ATOM     45  N   UNL A   1      39.314  30.058  30.306  1.00  0.00    -0.354 N 
ATOM     46  C   UNL A   1      39.077  32.336  33.953  1.00  0.00     0.074 A 
ATOM     47  C   UNL A   1      37.982  33.282  33.908  1.00  0.00     0.031 C 
ATOM     48  C   UNL A   1      38.739  29.449  28.233  1.00  0.00     0.029 A 
ATOM     49  C   UNL A   1      39.703  29.207  29.303  1.00  0.00     0.049 A 
ATOM     50  H   UNL A   1      39.776  30.116  31.173  1.00  0.00     0.167 HD
ATOM     51  C   UNL A   1      39.915  32.186  35.007  1.00  0.00     0.037 A 
ATOM     52  C   UNL A   1      40.724  28.331  29.247  1.00  0.00     0.037 A 
ATOM     53  C   UNL A   1      40.984  31.224  35.069  1.00  0.00     0.049 A 
ATOM     54  C   UNL A   1      41.637  28.179  30.431  1.00  0.00     0.074 A 
ATOM     55  C   UNL A   1      41.844  30.956  36.120  1.00  0.00     0.029 A 
ATOM     56  N   UNL A   1      41.340  30.373  34.034  1.00  0.00    -0.354 N 
ATOM     57  N   UNL A   1      41.607  28.804  31.582  1.00  0.00    -0.248 NA
ATOM     58  C   UNL A   1      42.724  27.197  30.306  1.00  0.00     0.031 C 
ATOM     59  C   UNL A   1      42.741  29.963  35.711  1.00  0.00     0.029 A 
ATOM     60  C   UNL A   1      42.419  29.592  34.416  1.00  0.00     0.049 A 
ATOM     61  H   UNL A   1      40.893  30.331  33.158  1.00  0.00     0.167 HD
ATOM     62  C   UNL A   1      42.654  28.279  32.326  1.00  0.00     0.074 A 
ATOM     63  C   UNL A   1      43.296  27.278  31.500  1.00  0.00     0.031 C 
ATOM     64  C   UNL A   1      43.047  28.599  33.583  1.00  0.00     0.037 A 
BRANCH  51  65
ATOM     65  C   UNL A   1      39.704  33.091  36.184  1.00  0.00     0.057 A 
ATOM     66  C   UNL A   1      38.882  32.725  37.257  1.00  0.00     0.134 A 
ATOM     67  C   UNL A   1      40.349  34.332  36.256  1.00  0.00     0.134 A 
ATOM     68  F   UNL A   1      38.227  31.555  37.243  1.00  0.00    -0.206 F 
ATOM     69  C   UNL A   1      38.688  33.573  38.349  1.00  0.00     0.040 A 
ATOM     70  C   UNL A   1      40.181  35.178  37.353  1.00  0.00     0.040 A 
ATOM     71  F   UNL A   1      41.155  34.739  35.264  1.00  0.00    -0.206 F 
ATOM     72  C   UNL A   1      39.342  34.802  38.400  1.00  0.00     0.006 A 
ENDBRANCH  51  65
BRANCH  52  73
ATOM     73  C   UNL A   1      40.918  27.505  28.032  1.00  0.00     0.057 A 
ATOM     74  C   UNL A   1      41.766  27.930  27.003  1.00  0.00     0.134 A 
ATOM     75  C   UNL A   1      40.274  26.272  27.876  1.00  0.00     0.134 A 
ATOM     76  F   UNL A   1      42.391  29.113  27.091  1.00  0.00    -0.206 F 
ATOM     77  C   UNL A   1      41.961  27.163  25.855  1.00  0.00     0.040 A 
ATOM     78  C   UNL A   1      40.476  25.485  26.741  1.00  0.00     0.040 A 
ATOM     79  F   UNL A   1      39.453  25.811  28.830  1.00  0.00    -0.206 F 
ATOM     80  C   UNL A   1      41.319  25.932  25.725  1.00  0.00     0.006 A 
ENDBRANCH  52  73
BRANCH  64  81
ATOM     81  C   UNL A   1      44.212  27.843  34.147  1.00  0.00     0.057 A 
ATOM     82  C   UNL A   1      44.043  26.631  34.825  1.00  0.00     0.134 A 
ATOM     83  C   UNL A   1      45.519  28.319  33.981  1.00  0.00     0.134 A 
ATOM     84  F   UNL A   1      42.815  26.131  35.028  1.00  0.00    -0.206 F 
ATOM     85  C   UNL A   1      45.134  25.923  35.334  1.00  0.00     0.040 A 
ATOM     86  C   UNL A   1      46.618  27.612  34.469  1.00  0.00     0.040 A 
ATOM     87  F   UNL A   1      45.748  29.473  33.337  1.00  0.00    -0.206 F 
ATOM     88  C   UNL A   1      46.427  26.412  35.151  1.00  0.00     0.006 A 
ENDBRANCH  64  81
ENDBRANCH  38  39
ENDBRANCH  30  33
ENDBRANCH  28  29
ENDBRANCH  27  28
ENDBRANCH  26  27
ENDBRANCH   1  26
TORSDOF 15
ENDMDL
MODEL 3
REMARK VINA RESULT:     -11.7      3.969      7.190
REMARK SMILES C[C@H](c1ccncc1)N1Cc2cccc(C(=O)NCCCCCCNC(=O)c3ccc(-c4c5nc(c(-c6c(F)cccc6F)c6ccc([nH]6)c(-c6c(F)cccc6F)c6nc(c(-c7c(F)cccc7F)c7ccc4[nH]7)C=C6)C=C5)cc3)c2C1=O
REMARK SMILES IDX 21 1 20 2 19 3 18 4 16 5 17 6 15 8 9 9 10 10 83 11 11 12
REMARK SMILES IDX 82 13 84 14 12 15 13 16 14 17 2 18 1 19 3 20 4 21 8 22 5 23
REMARK SMILES IDX 7 24 6 25 22 26 23 27 24 28 25 29 26 30 27 32 28 33 29 34
REMARK SMILES IDX 81 35 30 36 80 37 31 38 32 39 33 40 74 41 34 42 79 43 73 44
REMARK SMILES IDX 75 45 35 46 78 47 72 48 71 49 36 51 62 52 45 53 61 54 46 55
REMARK SMILES IDX 49 56 60 57 76 58 47 59 48 60 59 62 77 63 50 64 37 65 38 66
REMARK SMILES IDX 43 67 39 68 40 69 42 70 44 71 41 72 63 73 64 74 69 75 65 76
REMARK SMILES IDX 66 77 68 78 70 79 67 80 51 81 52 82 57 83 53 84 54 85 56 86
REMARK SMILES IDX 58 87 55 88
REMARK H PARENT 18 7 25 31 75 50 49 61
REMARK Flexibility Score: inf
ROOT
ATOM      1  C   UNL A   1      34.260  24.642  23.600  1.00  0.00     0.002 C 
ENDROOT
BRANCH   1   2
ATOM      2  C   UNL A   1      33.923  25.815  22.677  1.00  0.00     0.021 C 
BRANCH   2   3
ATOM      3  C   UNL A   1      32.783  25.554  21.682  1.00  0.00     0.116 C 
BRANCH   3   4
ATOM      4  N   UNL A   1      32.002  26.770  21.531  1.00  0.00    -0.352 N 
ATOM      5  C   UNL A   1      31.262  27.539  22.388  1.00  0.00     0.252 C 
ATOM      6  O   UNL A   1      30.555  28.411  21.873  1.00  0.00    -0.269 OA
ATOM      7  H   UNL A   1      32.007  27.118  20.609  1.00  0.00     0.163 HD
BRANCH   5   8
ATOM      8  C   UNL A   1      31.366  27.533  23.869  1.00  0.00     0.052 A 
ATOM      9  N   UNL A   1      30.756  24.490  25.800  1.00  0.00    -0.328 N 
ATOM     10  C   UNL A   1      31.122  25.385  26.876  1.00  0.00     0.157 C 
ATOM     11  C   UNL A   1      30.521  25.175  24.621  1.00  0.00     0.255 C 
ATOM     12  C   UNL A   1      31.354  26.669  26.148  1.00  0.00    -0.015 A 
ATOM     13  C   UNL A   1      31.094  26.519  24.772  1.00  0.00     0.057 A 
ATOM     14  O   UNL A   1      29.918  24.756  23.654  1.00  0.00    -0.269 OA
ATOM     15  C   UNL A   1      31.775  27.873  26.685  1.00  0.00     0.006 A 
ATOM     16  C   UNL A   1      31.975  28.936  25.813  1.00  0.00     0.001 A 
ATOM     17  C   UNL A   1      31.793  28.761  24.429  1.00  0.00     0.015 A 
BRANCH   9  18
ATOM     18  C   UNL A   1      30.655  23.036  25.916  1.00  0.00     0.113 C 
ATOM     19  C   UNL A   1      29.771  22.575  27.074  1.00  0.00     0.036 C 
BRANCH  18  20
ATOM     20  C   UNL A   1      32.031  22.376  25.989  1.00  0.00    -0.023 A 
ATOM     21  C   UNL A   1      32.774  22.302  27.173  1.00  0.00     0.026 A 
ATOM     22  C   UNL A   1      32.581  21.781  24.845  1.00  0.00     0.026 A 
ATOM     23  C   UNL A   1      34.009  21.669  27.161  1.00  0.00     0.111 A 
ATOM     24  C   UNL A   1      33.820  21.161  24.935  1.00  0.00     0.111 A 
ATOM     25  N   UNL A   1      34.549  21.097  26.067  1.00  0.00    -0.265 NA
ENDBRANCH  18  20
ENDBRANCH   9  18
ENDBRANCH   5   8
ENDBRANCH   3   4
ENDBRANCH   2   3
ENDBRANCH   1   2
BRANCH   1  26
ATOM     26  C   UNL A   1      34.609  25.034  25.038  1.00  0.00     0.002 C 
BRANCH  26  27
ATOM     27  C   UNL A   1      35.760  24.253  25.684  1.00  0.00     0.021 C 
BRANCH  27  28
ATOM     28  C   UNL A   1      36.782  23.655  24.718  1.00  0.00     0.116 C 
BRANCH  28  29
ATOM     29  N   UNL A   1      37.586  22.622  25.346  1.00  0.00    -0.352 N 
ATOM     30  C   UNL A   1      38.711  22.732  26.124  1.00  0.00     0.251 C 
ATOM     31  H   UNL A   1      37.277  21.701  25.190  1.00  0.00     0.163 HD
ATOM     32  O   UNL A   1      39.364  21.729  26.397  1.00  0.00    -0.269 OA
BRANCH  30  33
ATOM     33  C   UNL A   1      39.157  24.048  26.635  1.00  0.00     0.039 A 
ATOM     34  C   UNL A   1      39.927  24.863  25.799  1.00  0.00     0.014 A 
ATOM     35  C   UNL A   1      38.888  24.453  27.947  1.00  0.00     0.014 A 
ATOM     36  C   UNL A   1      40.392  26.098  26.259  1.00  0.00     0.010 A 
ATOM     37  C   UNL A   1      39.315  25.707  28.390  1.00  0.00     0.010 A 
ATOM     38  C   UNL A   1      40.076  26.537  27.554  1.00  0.00    -0.014 A 
BRANCH  38  39
ATOM     39  C   UNL A   1      40.549  27.856  28.047  1.00  0.00     0.031 A 
ATOM     40  C   UNL A   1      42.017  28.176  28.078  1.00  0.00     0.074 A 
ATOM     41  C   UNL A   1      39.659  28.752  28.514  1.00  0.00     0.049 A 
ATOM     42  N   UNL A   1      42.620  29.248  28.524  1.00  0.00    -0.248 NA
ATOM     43  C   UNL A   1      42.927  27.147  27.555  1.00  0.00     0.031 C 
ATOM     44  C   UNL A   1      38.209  28.555  28.568  1.00  0.00     0.029 A 
ATOM     45  N   UNL A   1      39.846  30.007  29.038  1.00  0.00    -0.354 N 
ATOM     46  C   UNL A   1      43.980  29.017  28.353  1.00  0.00     0.074 A 
ATOM     47  C   UNL A   1      44.113  27.688  27.795  1.00  0.00     0.031 C 
ATOM     48  C   UNL A   1      37.637  29.656  29.082  1.00  0.00     0.029 A 
ATOM     49  C   UNL A   1      38.679  30.623  29.418  1.00  0.00     0.049 A 
ATOM     50  H   UNL A   1      40.732  30.424  29.135  1.00  0.00     0.167 HD
ATOM     51  C   UNL A   1      45.021  29.841  28.623  1.00  0.00     0.037 A 
ATOM     52  C   UNL A   1      38.471  31.830  29.978  1.00  0.00     0.037 A 
ATOM     53  C   UNL A   1      44.891  31.175  29.148  1.00  0.00     0.049 A 
ATOM     54  C   UNL A   1      39.641  32.728  30.262  1.00  0.00     0.074 A 
ATOM     55  C   UNL A   1      45.885  32.107  29.392  1.00  0.00     0.029 A 
ATOM     56  N   UNL A   1      43.690  31.766  29.511  1.00  0.00    -0.354 N 
ATOM     57  N   UNL A   1      40.916  32.515  30.049  1.00  0.00    -0.248 NA
ATOM     58  C   UNL A   1      39.341  34.035  30.864  1.00  0.00     0.031 C 
ATOM     59  C   UNL A   1      45.289  33.252  29.933  1.00  0.00     0.029 A 
ATOM     60  C   UNL A   1      43.921  33.044  29.995  1.00  0.00     0.049 A 
ATOM     61  H   UNL A   1      42.806  31.340  29.437  1.00  0.00     0.167 HD
ATOM     62  C   UNL A   1      41.568  33.666  30.469  1.00  0.00     0.074 A 
ATOM     63  C   UNL A   1      40.548  34.578  30.942  1.00  0.00     0.031 C 
ATOM     64  C   UNL A   1      42.895  33.941  30.462  1.00  0.00     0.037 A 
BRANCH  51  65
ATOM     65  C   UNL A   1      46.399  29.316  28.352  1.00  0.00     0.057 A 
ATOM     66  C   UNL A   1      47.038  29.524  27.123  1.00  0.00     0.134 A 
ATOM     67  C   UNL A   1      47.103  28.614  29.338  1.00  0.00     0.134 A 
ATOM     68  F   UNL A   1      46.413  30.177  26.134  1.00  0.00    -0.206 F 
ATOM     69  C   UNL A   1      48.320  29.029  26.876  1.00  0.00     0.040 A 
ATOM     70  C   UNL A   1      48.394  28.135  29.110  1.00  0.00     0.040 A 
ATOM     71  F   UNL A   1      46.550  28.387  30.539  1.00  0.00    -0.206 F 
ATOM     72  C   UNL A   1      49.003  28.336  27.873  1.00  0.00     0.006 A 
ENDBRANCH  51  65
BRANCH  52  73
ATOM     73  C   UNL A   1      37.088  32.271  30.279  1.00  0.00     0.057 A 
ATOM     74  C   UNL A   1      36.361  33.031  29.357  1.00  0.00     0.134 A 
ATOM     75  C   UNL A   1      36.460  31.934  31.483  1.00  0.00     0.134 A 
ATOM     76  F   UNL A   1      36.921  33.400  28.196  1.00  0.00    -0.206 F 
ATOM     77  C   UNL A   1      35.057  33.450  29.625  1.00  0.00     0.040 A 
ATOM     78  C   UNL A   1      35.150  32.330  31.756  1.00  0.00     0.040 A 
ATOM     79  F   UNL A   1      37.107  31.204  32.403  1.00  0.00    -0.206 F 
ATOM     80  C   UNL A   1      34.447  33.093  30.826  1.00  0.00     0.006 A 
ENDBRANCH  52  73
BRANCH  64  81
ATOM     81  C   UNL A   1      43.316  35.290  30.962  1.00  0.00     0.057 A 
ATOM     82  C   UNL A   1      43.584  35.520  32.317  1.00  0.00     0.134 A 
ATOM     83  C   UNL A   1      43.485  36.359  30.074  1.00  0.00     0.134 A 
ATOM     84  F   UNL A   1      43.425  34.539  33.217  1.00  0.00    -0.206 F 
ATOM     85  C   UNL A   1      43.991  36.775  32.774  1.00  0.00     0.040 A 
ATOM     86  C   UNL A   1      43.911  37.612  30.517  1.00  0.00     0.040 A 
ATOM     87  F   UNL A   1      43.250  36.201  28.763  1.00  0.00    -0.206 F 
ATOM     88  C   UNL A   1      44.161  37.823  31.871  1.00  0.00     0.006 A 
ENDBRANCH  64  81
ENDBRANCH  38  39
ENDBRANCH  30  33
ENDBRANCH  28  29
ENDBRANCH  27  28
ENDBRANCH  26  27
ENDBRANCH   1  26
TORSDOF 15
ENDMDL
