MODEL 1
REMARK VINA RESULT:     -12.9      0.000      0.000
REMARK SMILES Cc1ccc(C(=O)NC2(CC(=O)NCCCCCCNC(=O)c3ccc(-c4c5nc(c(-c6c(F)cccc6F)c6ccc([nH]6)c(-c6c(F)cccc6F)c6nc(c(-c7c(F)cccc7F)c7ccc4[nH]7)C=C6)C=C5)cc3)CCC2)cc1
REMARK SMILES IDX 16 1 15 2 14 3 13 4 11 5 12 6 10 8 9 9 77 10 79 11 78 12
REMARK SMILES IDX 8 13 6 14 7 15 5 17 1 18 2 19 3 20 81 21 4 22 80 23 17 24
REMARK SMILES IDX 18 25 19 26 20 27 21 28 22 30 23 31 24 32 76 33 25 34 75 35
REMARK SMILES IDX 26 36 27 37 28 38 69 39 29 40 74 41 68 42 70 43 30 44 73 45
REMARK SMILES IDX 67 46 66 47 31 49 57 50 40 51 56 52 41 53 44 54 55 55 71 56
REMARK SMILES IDX 42 57 43 58 54 60 72 61 45 62 32 63 33 64 38 65 34 66 35 67
REMARK SMILES IDX 37 68 39 69 36 70 58 71 59 72 64 73 60 74 61 75 63 76 65 77
REMARK SMILES IDX 62 78 46 79 47 80 52 81 48 82 49 83 51 84 53 85 50 86
REMARK H PARENT 13 7 8 16 20 29 70 48 44 59
REMARK Flexibility Score: inf
ROOT
ATOM      1  C   UNL A   1      40.585  19.903  26.071  1.00  0.00     0.002 C 
ENDROOT
BRANCH   1   2
ATOM      2  C   UNL A   1      39.835  21.174  26.407  1.00  0.00     0.021 C 
BRANCH   2   3
ATOM      3  C   UNL A   1      38.641  21.398  25.515  1.00  0.00     0.116 C 
BRANCH   3   4
ATOM      4  N   UNL A   1      37.480  22.379  26.163  1.00  0.00    -0.356 N 
ATOM      5  C   UNL A   1      35.651  22.987  25.727  1.00  0.00     0.222 C 
ATOM      6  O   UNL A   1      34.747  23.472  26.458  1.00  0.00    -0.275 OA
ATOM      7  H   UNL A   1      37.788  22.773  27.010  1.00  0.00     0.163 HD
BRANCH   5   8
ATOM      8  C   UNL A   1      34.943  22.956  23.964  1.00  0.00     0.128 C 
BRANCH   8   9
ATOM      9  C   UNL A   1      33.381  22.455  23.549  1.00  0.00     0.049 C 
ATOM     10  C   UNL A   1      32.239  22.682  24.600  1.00  0.00     0.029 C 
ATOM     11  C   UNL A   1      32.562  20.974  23.377  1.00  0.00     0.029 C 
ATOM     12  C   UNL A   1      32.103  21.140  24.806  1.00  0.00     0.005 C 
BRANCH   9  13
ATOM     13  N   UNL A   1      33.218  22.939  22.188  1.00  0.00    -0.346 N 
ATOM     14  C   UNL A   1      32.924  24.271  22.113  1.00  0.00     0.251 C 
ATOM     15  O   UNL A   1      32.903  24.905  21.072  1.00  0.00    -0.269 OA
ATOM     16  H   UNL A   1      33.311  22.362  21.396  1.00  0.00     0.164 HD
BRANCH  14  17
ATOM     17  C   UNL A   1      32.430  24.823  23.419  1.00  0.00     0.039 A 
ATOM     18  C   UNL A   1      31.572  27.968  27.287  1.00  0.00     0.044 C 
ATOM     19  C   UNL A   1      31.676  27.381  25.898  1.00  0.00    -0.051 A 
ATOM     20  C   UNL A   1      33.349  27.217  25.236  1.00  0.00     0.004 A 
ATOM     21  C   UNL A   1      30.318  26.363  25.306  1.00  0.00     0.004 A 
ATOM     22  C   UNL A   1      33.719  25.957  24.014  1.00  0.00     0.014 A 
ATOM     23  C   UNL A   1      30.658  25.042  24.082  1.00  0.00     0.014 A 
ENDBRANCH  14  17
ENDBRANCH   9  13
ENDBRANCH   8   9
ENDBRANCH   5   8
ENDBRANCH   3   4
ENDBRANCH   2   3
ENDBRANCH   1   2
BRANCH   1  24
ATOM     24  C   UNL A   1      41.641  19.475  27.104  1.00  0.00     0.002 C 
BRANCH  24  25
ATOM     25  C   UNL A   1      42.888  18.743  26.583  1.00  0.00     0.021 C 
BRANCH  25  26
ATOM     26  C   UNL A   1      43.445  19.341  25.326  1.00  0.00     0.116 C 
BRANCH  26  27
ATOM     27  N   UNL A   1      44.633  20.106  25.611  1.00  0.00    -0.352 N 
ATOM     28  C   UNL A   1      44.890  21.440  25.418  1.00  0.00     0.251 C 
ATOM     29  H   UNL A   1      45.375  19.592  26.006  1.00  0.00     0.163 HD
ATOM     30  O   UNL A   1      46.058  21.821  25.443  1.00  0.00    -0.269 OA
BRANCH  28  31
ATOM     31  C   UNL A   1      43.773  22.431  25.449  1.00  0.00     0.039 A 
ATOM     32  C   UNL A   1      44.077  23.568  24.689  1.00  0.00     0.014 A 
ATOM     33  C   UNL A   1      43.029  22.564  26.613  1.00  0.00     0.014 A 
ATOM     34  C   UNL A   1      44.040  24.805  25.302  1.00  0.00     0.010 A 
ATOM     35  C   UNL A   1      43.190  23.726  27.310  1.00  0.00     0.010 A 
ATOM     36  C   UNL A   1      43.736  24.828  26.654  1.00  0.00    -0.014 A 
BRANCH  36  37
ATOM     37  C   UNL A   1      43.676  26.021  27.453  1.00  0.00     0.031 A 
ATOM     38  C   UNL A   1      42.348  26.662  27.423  1.00  0.00     0.074 A 
ATOM     39  C   UNL A   1      44.720  26.262  28.277  1.00  0.00     0.049 A 
ATOM     40  N   UNL A   1      42.120  27.882  27.712  1.00  0.00    -0.248 NA
ATOM     41  C   UNL A   1      41.134  25.967  26.967  1.00  0.00     0.031 C 
ATOM     42  C   UNL A   1      44.823  27.155  29.420  1.00  0.00     0.029 A 
ATOM     43  N   UNL A   1      46.037  25.812  28.089  1.00  0.00    -0.354 N 
ATOM     44  C   UNL A   1      40.753  28.018  27.863  1.00  0.00     0.074 A 
ATOM     45  C   UNL A   1      40.182  26.862  27.234  1.00  0.00     0.031 C 
ATOM     46  C   UNL A   1      46.122  27.462  29.616  1.00  0.00     0.029 A 
ATOM     47  C   UNL A   1      46.878  26.859  28.528  1.00  0.00     0.049 A 
ATOM     48  H   UNL A   1      46.318  24.942  27.725  1.00  0.00     0.167 HD
ATOM     49  C   UNL A   1      40.315  29.015  28.680  1.00  0.00     0.037 A 
ATOM     50  C   UNL A   1      47.611  27.555  27.606  1.00  0.00     0.037 A 
ATOM     51  C   UNL A   1      41.481  29.759  29.151  1.00  0.00     0.049 A 
ATOM     52  C   UNL A   1      47.068  28.957  27.453  1.00  0.00     0.074 A 
ATOM     53  C   UNL A   1      42.261  29.618  30.286  1.00  0.00     0.029 A 
ATOM     54  N   UNL A   1      42.249  30.445  28.219  1.00  0.00    -0.354 N 
ATOM     55  N   UNL A   1      45.810  29.273  27.630  1.00  0.00    -0.248 NA
ATOM     56  C   UNL A   1      47.917  30.122  27.220  1.00  0.00     0.031 C 
ATOM     57  C   UNL A   1      43.545  30.154  29.992  1.00  0.00     0.029 A 
ATOM     58  C   UNL A   1      43.538  30.616  28.685  1.00  0.00     0.049 A 
ATOM     59  H   UNL A   1      41.920  30.765  27.349  1.00  0.00     0.167 HD
ATOM     60  C   UNL A   1      45.685  30.637  27.608  1.00  0.00     0.074 A 
ATOM     61  C   UNL A   1      47.025  31.121  27.329  1.00  0.00     0.031 C 
ATOM     62  C   UNL A   1      44.519  31.300  27.861  1.00  0.00     0.037 A 
BRANCH  49  63
ATOM     63  C   UNL A   1      38.942  29.181  29.288  1.00  0.00     0.057 A 
ATOM     64  C   UNL A   1      37.879  29.625  28.471  1.00  0.00     0.134 A 
ATOM     65  C   UNL A   1      38.582  28.967  30.629  1.00  0.00     0.134 A 
ATOM     66  F   UNL A   1      38.040  29.834  27.157  1.00  0.00    -0.206 F 
ATOM     67  C   UNL A   1      36.590  29.878  28.952  1.00  0.00     0.040 A 
ATOM     68  C   UNL A   1      37.294  29.225  31.128  1.00  0.00     0.040 A 
ATOM     69  F   UNL A   1      39.434  28.472  31.530  1.00  0.00    -0.206 F 
ATOM     70  C   UNL A   1      36.293  29.686  30.289  1.00  0.00     0.006 A 
ENDBRANCH  49  63
BRANCH  50  71
ATOM     71  C   UNL A   1      48.118  26.648  26.527  1.00  0.00     0.057 A 
ATOM     72  C   UNL A   1      47.530  26.806  25.254  1.00  0.00     0.134 A 
ATOM     73  C   UNL A   1      49.416  26.130  26.558  1.00  0.00     0.134 A 
ATOM     74  F   UNL A   1      46.265  27.245  25.150  1.00  0.00    -0.206 F 
ATOM     75  C   UNL A   1      48.275  26.695  24.076  1.00  0.00     0.040 A 
ATOM     76  C   UNL A   1      50.160  25.983  25.378  1.00  0.00     0.040 A 
ATOM     77  F   UNL A   1      50.040  25.915  27.725  1.00  0.00    -0.206 F 
ATOM     78  C   UNL A   1      49.616  26.339  24.143  1.00  0.00     0.006 A 
ENDBRANCH  50  71
BRANCH  62  79
ATOM     79  C   UNL A   1      44.229  32.711  27.418  1.00  0.00     0.057 A 
ATOM     80  C   UNL A   1      44.141  33.093  26.074  1.00  0.00     0.134 A 
ATOM     81  C   UNL A   1      43.841  33.703  28.349  1.00  0.00     0.134 A 
ATOM     82  F   UNL A   1      44.330  32.218  25.076  1.00  0.00    -0.206 F 
ATOM     83  C   UNL A   1      43.793  34.390  25.684  1.00  0.00     0.040 A 
ATOM     84  C   UNL A   1      43.407  34.972  27.968  1.00  0.00     0.040 A 
ATOM     85  F   UNL A   1      43.828  33.480  29.672  1.00  0.00    -0.206 F 
ATOM     86  C   UNL A   1      43.414  35.331  26.631  1.00  0.00     0.006 A 
ENDBRANCH  62  79
ENDBRANCH  36  37
ENDBRANCH  28  31
ENDBRANCH  26  27
ENDBRANCH  25  26
ENDBRANCH  24  25
ENDBRANCH   1  24
TORSDOF 16
ENDMDL
MODEL 2
REMARK VINA RESULT:     -12.2      4.297      9.779
REMARK SMILES Cc1ccc(C(=O)NC2(CC(=O)NCCCCCCNC(=O)c3ccc(-c4c5nc(c(-c6c(F)cccc6F)c6ccc([nH]6)c(-c6c(F)cccc6F)c6nc(c(-c7c(F)cccc7F)c7ccc4[nH]7)C=C6)C=C5)cc3)CCC2)cc1
REMARK SMILES IDX 16 1 15 2 14 3 13 4 11 5 12 6 10 8 9 9 77 10 79 11 78 12
REMARK SMILES IDX 8 13 6 14 7 15 5 17 1 18 2 19 3 20 81 21 4 22 80 23 17 24
REMARK SMILES IDX 18 25 19 26 20 27 21 28 22 30 23 31 24 32 76 33 25 34 75 35
REMARK SMILES IDX 26 36 27 37 28 38 69 39 29 40 74 41 68 42 70 43 30 44 73 45
REMARK SMILES IDX 67 46 66 47 31 49 57 50 40 51 56 52 41 53 44 54 55 55 71 56
REMARK SMILES IDX 42 57 43 58 54 60 72 61 45 62 32 63 33 64 38 65 34 66 35 67
REMARK SMILES IDX 37 68 39 69 36 70 58 71 59 72 64 73 60 74 61 75 63 76 65 77
REMARK SMILES IDX 62 78 46 79 47 80 52 81 48 82 49 83 51 84 53 85 50 86
REMARK H PARENT 13 7 8 16 20 29 70 48 44 59
REMARK Flexibility Score: inf
ROOT
ATOM      1  C   UNL A   1      33.077  28.780  27.344  1.00  0.00     0.002 C 
ENDROOT
BRANCH   1   2
ATOM      2  C   UNL A   1      31.733  29.172  26.767  1.00  0.00     0.021 C 
BRANCH   2   3
ATOM      3  C   UNL A   1      31.831  30.309  25.784  1.00  0.00     0.116 C 
BRANCH   3   4
ATOM      4  N   UNL A   1      30.742  30.236  24.544  1.00  0.00    -0.356 N 
ATOM      5  C   UNL A   1      30.112  28.921  23.210  1.00  0.00     0.222 C 
ATOM      6  O   UNL A   1      29.050  28.877  22.533  1.00  0.00    -0.275 OA
ATOM      7  H   UNL A   1      30.273  31.094  24.439  1.00  0.00     0.163 HD
BRANCH   5   8
ATOM      8  C   UNL A   1      31.133  27.407  22.686  1.00  0.00     0.128 C 
BRANCH   8   9
ATOM      9  C   UNL A   1      32.818  27.366  22.551  1.00  0.00     0.049 C 
ATOM     10  C   UNL A   1      33.649  27.104  23.855  1.00  0.00     0.029 C 
ATOM     11  C   UNL A   1      34.067  28.495  22.304  1.00  0.00     0.029 C 
ATOM     12  C   UNL A   1      34.213  28.559  23.806  1.00  0.00     0.005 C 
BRANCH   9  13
ATOM     13  N   UNL A   1      33.047  26.547  21.372  1.00  0.00    -0.346 N 
ATOM     14  C   UNL A   1      33.004  25.206  21.621  1.00  0.00     0.251 C 
ATOM     15  O   UNL A   1      33.012  24.351  20.751  1.00  0.00    -0.269 OA
ATOM     16  H   UNL A   1      33.216  26.924  20.478  1.00  0.00     0.164 HD
BRANCH  14  17
ATOM     17  C   UNL A   1      33.151  24.889  23.082  1.00  0.00     0.039 A 
ATOM     18  C   UNL A   1      32.667  22.625  27.579  1.00  0.00     0.044 C 
ATOM     19  C   UNL A   1      32.915  22.882  26.111  1.00  0.00    -0.051 A 
ATOM     20  C   UNL A   1      31.446  23.196  25.107  1.00  0.00     0.004 A 
ATOM     21  C   UNL A   1      34.543  23.465  25.616  1.00  0.00     0.004 A 
ATOM     22  C   UNL A   1      31.563  24.184  23.615  1.00  0.00     0.014 A 
ATOM     23  C   UNL A   1      34.703  24.505  24.117  1.00  0.00     0.014 A 
ENDBRANCH  14  17
ENDBRANCH   9  13
ENDBRANCH   8   9
ENDBRANCH   5   8
ENDBRANCH   3   4
ENDBRANCH   2   3
ENDBRANCH   1   2
BRANCH   1  24
ATOM     24  C   UNL A   1      34.138  29.892  27.343  1.00  0.00     0.002 C 
BRANCH  24  25
ATOM     25  C   UNL A   1      35.482  29.592  28.025  1.00  0.00     0.021 C 
BRANCH  25  26
ATOM     26  C   UNL A   1      35.851  30.596  29.076  1.00  0.00     0.116 C 
BRANCH  26  27
ATOM     27  N   UNL A   1      34.925  31.701  29.069  1.00  0.00    -0.352 N 
ATOM     28  C   UNL A   1      34.786  32.740  29.954  1.00  0.00     0.251 C 
ATOM     29  H   UNL A   1      34.296  31.713  28.312  1.00  0.00     0.163 HD
ATOM     30  O   UNL A   1      33.747  33.395  29.930  1.00  0.00    -0.269 OA
BRANCH  28  31
ATOM     31  C   UNL A   1      35.967  33.227  30.729  1.00  0.00     0.039 A 
ATOM     32  C   UNL A   1      36.930  33.801  29.888  1.00  0.00     0.014 A 
ATOM     33  C   UNL A   1      36.373  32.514  31.848  1.00  0.00     0.014 A 
ATOM     34  C   UNL A   1      38.215  33.295  29.908  1.00  0.00     0.010 A 
ATOM     35  C   UNL A   1      37.558  31.844  31.748  1.00  0.00     0.010 A 
ATOM     36  C   UNL A   1      38.452  32.216  30.745  1.00  0.00    -0.014 A 
BRANCH  36  37
ATOM     37  C   UNL A   1      39.721  31.553  30.876  1.00  0.00     0.031 A 
ATOM     38  C   UNL A   1      39.821  30.343  30.039  1.00  0.00     0.074 A 
ATOM     39  C   UNL A   1      40.696  32.218  31.534  1.00  0.00     0.049 A 
ATOM     40  N   UNL A   1      40.643  29.388  30.233  1.00  0.00    -0.248 NA
ATOM     41  C   UNL A   1      38.909  30.067  28.917  1.00  0.00     0.031 C 
ATOM     42  C   UNL A   1      42.133  31.994  31.551  1.00  0.00     0.029 A 
ATOM     43  N   UNL A   1      40.503  33.197  32.521  1.00  0.00    -0.354 N 
ATOM     44  C   UNL A   1      40.641  28.609  29.091  1.00  0.00     0.074 A 
ATOM     45  C   UNL A   1      39.445  28.967  28.385  1.00  0.00     0.031 C 
ATOM     46  C   UNL A   1      42.642  32.520  32.684  1.00  0.00     0.029 A 
ATOM     47  C   UNL A   1      41.521  32.998  33.480  1.00  0.00     0.049 A 
ATOM     48  H   UNL A   1      39.799  33.885  32.541  1.00  0.00     0.167 HD
ATOM     49  C   UNL A   1      41.772  27.902  28.821  1.00  0.00     0.037 A 
ATOM     50  C   UNL A   1      41.184  32.526  34.720  1.00  0.00     0.037 A 
ATOM     51  C   UNL A   1      42.714  28.119  29.917  1.00  0.00     0.049 A 
ATOM     52  C   UNL A   1      41.672  31.105  34.891  1.00  0.00     0.074 A 
ATOM     53  C   UNL A   1      43.728  29.047  30.084  1.00  0.00     0.029 A 
ATOM     54  N   UNL A   1      42.370  27.669  31.186  1.00  0.00    -0.354 N 
ATOM     55  N   UNL A   1      41.799  30.256  33.902  1.00  0.00    -0.248 NA
ATOM     56  C   UNL A   1      42.176  30.580  36.157  1.00  0.00     0.031 C 
ATOM     57  C   UNL A   1      43.929  29.214  31.481  1.00  0.00     0.029 A 
ATOM     58  C   UNL A   1      43.040  28.390  32.154  1.00  0.00     0.049 A 
ATOM     59  H   UNL A   1      41.737  26.938  31.367  1.00  0.00     0.167 HD
ATOM     60  C   UNL A   1      42.440  29.134  34.358  1.00  0.00     0.074 A 
ATOM     61  C   UNL A   1      42.636  29.377  35.776  1.00  0.00     0.031 C 
ATOM     62  C   UNL A   1      42.818  28.094  33.558  1.00  0.00     0.037 A 
BRANCH  49  63
ATOM     63  C   UNL A   1      42.176  27.259  27.515  1.00  0.00     0.057 A 
ATOM     64  C   UNL A   1      42.422  25.869  27.482  1.00  0.00     0.134 A 
ATOM     65  C   UNL A   1      42.373  27.905  26.283  1.00  0.00     0.134 A 
ATOM     66  F   UNL A   1      42.238  25.094  28.559  1.00  0.00    -0.206 F 
ATOM     67  C   UNL A   1      42.867  25.191  26.341  1.00  0.00     0.040 A 
ATOM     68  C   UNL A   1      42.829  27.239  25.132  1.00  0.00     0.040 A 
ATOM     69  F   UNL A   1      42.113  29.202  26.104  1.00  0.00    -0.206 F 
ATOM     70  C   UNL A   1      43.082  25.878  25.160  1.00  0.00     0.006 A 
ENDBRANCH  49  63
BRANCH  50  71
ATOM     71  C   UNL A   1      39.884  33.108  35.181  1.00  0.00     0.057 A 
ATOM     72  C   UNL A   1      38.811  32.202  35.320  1.00  0.00     0.134 A 
ATOM     73  C   UNL A   1      39.840  34.258  35.975  1.00  0.00     0.134 A 
ATOM     74  F   UNL A   1      38.758  31.102  34.549  1.00  0.00    -0.206 F 
ATOM     75  C   UNL A   1      37.883  32.307  36.360  1.00  0.00     0.040 A 
ATOM     76  C   UNL A   1      38.890  34.388  37.000  1.00  0.00     0.040 A 
ATOM     77  F   UNL A   1      40.799  35.190  35.885  1.00  0.00    -0.206 F 
ATOM     78  C   UNL A   1      37.960  33.377  37.243  1.00  0.00     0.006 A 
ENDBRANCH  50  71
BRANCH  62  79
ATOM     79  C   UNL A   1      43.099  26.699  34.053  1.00  0.00     0.057 A 
ATOM     80  C   UNL A   1      44.377  26.126  34.057  1.00  0.00     0.134 A 
ATOM     81  C   UNL A   1      42.104  25.948  34.723  1.00  0.00     0.134 A 
ATOM     82  F   UNL A   1      45.449  26.786  33.595  1.00  0.00    -0.206 F 
ATOM     83  C   UNL A   1      44.629  24.860  34.594  1.00  0.00     0.040 A 
ATOM     84  C   UNL A   1      42.365  24.725  35.339  1.00  0.00     0.040 A 
ATOM     85  F   UNL A   1      40.840  26.380  34.844  1.00  0.00    -0.206 F 
ATOM     86  C   UNL A   1      43.626  24.160  35.247  1.00  0.00     0.006 A 
ENDBRANCH  62  79
ENDBRANCH  36  37
ENDBRANCH  28  31
ENDBRANCH  26  27
ENDBRANCH  25  26
ENDBRANCH  24  25
ENDBRANCH   1  24
TORSDOF 16
ENDMDL
MODEL 3
REMARK VINA RESULT:     -12.1      3.508      9.144
REMARK SMILES Cc1ccc(C(=O)NC2(CC(=O)NCCCCCCNC(=O)c3ccc(-c4c5nc(c(-c6c(F)cccc6F)c6ccc([nH]6)c(-c6c(F)cccc6F)c6nc(c(-c7c(F)cccc7F)c7ccc4[nH]7)C=C6)C=C5)cc3)CCC2)cc1
REMARK SMILES IDX 16 1 15 2 14 3 13 4 11 5 12 6 10 8 9 9 77 10 79 11 78 12
REMARK SMILES IDX 8 13 6 14 7 15 5 17 1 18 2 19 3 20 81 21 4 22 80 23 17 24
REMARK SMILES IDX 18 25 19 26 20 27 21 28 22 30 23 31 24 32 76 33 25 34 75 35
REMARK SMILES IDX 26 36 27 37 28 38 69 39 29 40 74 41 68 42 70 43 30 44 73 45
REMARK SMILES IDX 67 46 66 47 31 49 57 50 40 51 56 52 41 53 44 54 55 55 71 56
REMARK SMILES IDX 42 57 43 58 54 60 72 61 45 62 32 63 33 64 38 65 34 66 35 67
REMARK SMILES IDX 37 68 39 69 36 70 58 71 59 72 64 73 60 74 61 75 63 76 65 77
REMARK SMILES IDX 62 78 46 79 47 80 52 81 48 82 49 83 51 84 53 85 50 86
REMARK H PARENT 13 7 8 16 20 29 70 48 44 59
REMARK Flexibility Score: inf
ROOT
ATOM      1  C   UNL A   1      32.364  27.977  27.268  1.00  0.00     0.002 C 
ENDROOT
BRANCH   1   2
ATOM      2  C   UNL A   1      31.374  27.102  26.529  1.00  0.00     0.021 C 
BRANCH   2   3
ATOM      3  C   UNL A   1      31.086  27.597  25.136  1.00  0.00     0.116 C 
BRANCH   3   4
ATOM      4  N   UNL A   1      30.877  26.400  24.016  1.00  0.00    -0.356 N 
ATOM      5  C   UNL A   1      30.765  24.428  23.967  1.00  0.00     0.222 C 
ATOM      6  O   UNL A   1      30.278  23.651  23.103  1.00  0.00    -0.275 OA
ATOM      7  H   UNL A   1      30.781  26.780  23.113  1.00  0.00     0.163 HD
BRANCH   5   8
ATOM      8  C   UNL A   1      31.477  23.317  25.334  1.00  0.00     0.128 C 
BRANCH   8   9
ATOM      9  C   UNL A   1      33.120  23.143  25.693  1.00  0.00     0.049 C 
ATOM     10  C   UNL A   1      33.596  21.772  26.289  1.00  0.00     0.029 C 
ATOM     11  C   UNL A   1      34.196  23.725  26.876  1.00  0.00     0.029 C 
ATOM     12  C   UNL A   1      33.917  22.461  27.653  1.00  0.00     0.005 C 
BRANCH   9  13
ATOM     13  N   UNL A   1      33.786  23.692  24.523  1.00  0.00    -0.346 N 
ATOM     14  C   UNL A   1      34.039  22.765  23.553  1.00  0.00     0.251 C 
ATOM     15  O   UNL A   1      34.443  23.043  22.436  1.00  0.00    -0.269 OA
ATOM     16  H   UNL A   1      34.030  24.642  24.438  1.00  0.00     0.164 HD
BRANCH  14  17
ATOM     17  C   UNL A   1      33.964  21.358  24.071  1.00  0.00     0.039 A 
ATOM     18  C   UNL A   1      33.167  16.370  24.326  1.00  0.00     0.044 C 
ATOM     19  C   UNL A   1      33.633  17.737  23.882  1.00  0.00    -0.051 A 
ATOM     20  C   UNL A   1      32.365  18.808  23.168  1.00  0.00     0.004 A 
ATOM     21  C   UNL A   1      35.128  18.404  24.626  1.00  0.00     0.004 A 
ATOM     22  C   UNL A   1      32.529  20.592  23.261  1.00  0.00     0.014 A 
ATOM     23  C   UNL A   1      35.321  20.220  24.771  1.00  0.00     0.014 A 
ENDBRANCH  14  17
ENDBRANCH   9  13
ENDBRANCH   8   9
ENDBRANCH   5   8
ENDBRANCH   3   4
ENDBRANCH   2   3
ENDBRANCH   1   2
BRANCH   1  24
ATOM     24  C   UNL A   1      33.463  28.603  26.393  1.00  0.00     0.002 C 
BRANCH  24  25
ATOM     25  C   UNL A   1      33.516  30.137  26.309  1.00  0.00     0.021 C 
BRANCH  25  26
ATOM     26  C   UNL A   1      33.277  30.812  27.626  1.00  0.00     0.116 C 
BRANCH  26  27
ATOM     27  N   UNL A   1      34.397  31.649  27.977  1.00  0.00    -0.352 N 
ATOM     28  C   UNL A   1      35.572  31.330  28.609  1.00  0.00     0.251 C 
ATOM     29  H   UNL A   1      34.305  32.596  27.725  1.00  0.00     0.163 HD
ATOM     30  O   UNL A   1      36.250  32.240  29.081  1.00  0.00    -0.269 OA
BRANCH  28  31
ATOM     31  C   UNL A   1      36.140  29.954  28.485  1.00  0.00     0.039 A 
ATOM     32  C   UNL A   1      36.386  29.387  29.743  1.00  0.00     0.014 A 
ATOM     33  C   UNL A   1      36.997  29.675  27.430  1.00  0.00     0.014 A 
ATOM     34  C   UNL A   1      37.664  28.952  30.037  1.00  0.00     0.010 A 
ATOM     35  C   UNL A   1      38.307  29.464  27.746  1.00  0.00     0.010 A 
ATOM     36  C   UNL A   1      38.632  29.146  29.064  1.00  0.00    -0.014 A 
BRANCH  36  37
ATOM     37  C   UNL A   1      40.013  28.775  29.208  1.00  0.00     0.031 A 
ATOM     38  C   UNL A   1      40.291  27.408  28.733  1.00  0.00     0.074 A 
ATOM     39  C   UNL A   1      40.883  29.761  29.525  1.00  0.00     0.049 A 
ATOM     40  N   UNL A   1      41.299  26.706  29.075  1.00  0.00    -0.248 NA
ATOM     41  C   UNL A   1      39.371  26.662  27.859  1.00  0.00     0.031 C 
ATOM     42  C   UNL A   1      42.333  29.799  29.417  1.00  0.00     0.029 A 
ATOM     43  N   UNL A   1      40.572  30.941  30.219  1.00  0.00    -0.354 N 
ATOM     44  C   UNL A   1      41.367  25.636  28.203  1.00  0.00     0.074 A 
ATOM     45  C   UNL A   1      40.075  25.561  27.586  1.00  0.00     0.031 C 
ATOM     46  C   UNL A   1      42.810  30.715  30.285  1.00  0.00     0.029 A 
ATOM     47  C   UNL A   1      41.679  31.209  31.056  1.00  0.00     0.049 A 
ATOM     48  H   UNL A   1      39.749  31.474  30.139  1.00  0.00     0.167 HD
ATOM     49  C   UNL A   1      42.594  25.083  27.995  1.00  0.00     0.037 A 
ATOM     50  C   UNL A   1      41.536  31.076  32.410  1.00  0.00     0.037 A 
ATOM     51  C   UNL A   1      43.552  25.771  28.858  1.00  0.00     0.049 A 
ATOM     52  C   UNL A   1      42.310  29.874  32.902  1.00  0.00     0.074 A 
ATOM     53  C   UNL A   1      44.371  26.865  28.628  1.00  0.00     0.029 A 
ATOM     54  N   UNL A   1      43.400  25.665  30.234  1.00  0.00    -0.354 N 
ATOM     55  N   UNL A   1      42.529  28.804  32.180  1.00  0.00    -0.248 NA
ATOM     56  C   UNL A   1      43.001  29.840  34.188  1.00  0.00     0.031 C 
ATOM     57  C   UNL A   1      44.637  27.469  29.887  1.00  0.00     0.029 A 
ATOM     58  C   UNL A   1      43.984  26.743  30.870  1.00  0.00     0.049 A 
ATOM     59  H   UNL A   1      42.942  24.924  30.691  1.00  0.00     0.167 HD
ATOM     60  C   UNL A   1      43.414  27.993  32.841  1.00  0.00     0.074 A 
ATOM     61  C   UNL A   1      43.663  28.674  34.099  1.00  0.00     0.031 C 
ATOM     62  C   UNL A   1      43.930  26.843  32.318  1.00  0.00     0.037 A 
BRANCH  49  63
ATOM     63  C   UNL A   1      43.019  24.161  26.877  1.00  0.00     0.057 A 
ATOM     64  C   UNL A   1      42.939  22.764  27.072  1.00  0.00     0.134 A 
ATOM     65  C   UNL A   1      43.533  24.536  25.624  1.00  0.00     0.134 A 
ATOM     66  F   UNL A   1      42.430  22.236  28.193  1.00  0.00    -0.206 F 
ATOM     67  C   UNL A   1      43.373  21.827  26.127  1.00  0.00     0.040 A 
ATOM     68  C   UNL A   1      43.980  23.606  24.670  1.00  0.00     0.040 A 
ATOM     69  F   UNL A   1      43.608  25.810  25.232  1.00  0.00    -0.206 F 
ATOM     70  C   UNL A   1      43.905  22.247  24.921  1.00  0.00     0.006 A 
ENDBRANCH  49  63
BRANCH  50  71
ATOM     71  C   UNL A   1      40.184  31.539  32.857  1.00  0.00     0.057 A 
ATOM     72  C   UNL A   1      39.299  30.535  33.304  1.00  0.00     0.134 A 
ATOM     73  C   UNL A   1      39.986  32.824  33.371  1.00  0.00     0.134 A 
ATOM     74  F   UNL A   1      39.395  29.289  32.811  1.00  0.00    -0.206 F 
ATOM     75  C   UNL A   1      38.432  30.740  34.382  1.00  0.00     0.040 A 
ATOM     76  C   UNL A   1      39.092  33.045  34.430  1.00  0.00     0.040 A 
ATOM     77  F   UNL A   1      40.758  33.846  32.976  1.00  0.00    -0.206 F 
ATOM     78  C   UNL A   1      38.372  31.988  34.987  1.00  0.00     0.006 A 
ENDBRANCH  50  71
BRANCH  62  79
ATOM     79  C   UNL A   1      44.520  25.725  33.139  1.00  0.00     0.057 A 
ATOM     80  C   UNL A   1      45.867  25.347  33.068  1.00  0.00     0.134 A 
ATOM     81  C   UNL A   1      43.779  25.111  34.175  1.00  0.00     0.134 A 
ATOM     82  F   UNL A   1      46.730  25.951  32.239  1.00  0.00    -0.206 F 
ATOM     83  C   UNL A   1      46.413  24.360  33.896  1.00  0.00     0.040 A 
ATOM     84  C   UNL A   1      44.336  24.191  35.063  1.00  0.00     0.040 A 
ATOM     85  F   UNL A   1      42.489  25.399  34.401  1.00  0.00    -0.206 F 
ATOM     86  C   UNL A   1      45.651  23.788  34.904  1.00  0.00     0.006 A 
ENDBRANCH  62  79
ENDBRANCH  36  37
ENDBRANCH  28  31
ENDBRANCH  26  27
ENDBRANCH  25  26
ENDBRANCH  24  25
ENDBRANCH   1  24
TORSDOF 16
ENDMDL
