MODEL 1
REMARK VINA RESULT:     -12.2      0.000      0.000
REMARK SMILES O=C(C[C@@H]([NH2+]Cc1cccnc1)C(=O)NCCCCCCNC(=O)c1ccc(-c2c3nc(c(-c4c(F)cccc4F)c4ccc([nH]4)c(-c4c(F)cccc4F)c4nc(c(-c5c(F)cccc5F)c5ccc2[nH]5)C=C4)C=C3)cc1)Nc1ccc2ccccc2c1
REMARK SMILES IDX 18 1 17 2 16 3 15 4 13 5 14 6 4 8 3 9 2 10 1 11 79 12 80 14
REMARK SMILES IDX 81 15 89 16 82 17 88 18 83 19 87 20 84 21 86 22 85 23 5 24
REMARK SMILES IDX 6 27 7 28 8 29 12 30 9 31 11 32 10 33 19 34 20 35 21 36
REMARK SMILES IDX 22 37 23 38 24 40 25 41 26 42 78 43 27 44 77 45 28 46 29 47
REMARK SMILES IDX 30 48 71 49 31 50 76 51 70 52 72 53 32 54 75 55 69 56 68 57
REMARK SMILES IDX 33 59 59 60 42 61 58 62 43 63 46 64 57 65 73 66 44 67 45 68
REMARK SMILES IDX 56 70 74 71 47 72 34 73 35 74 40 75 36 76 37 77 39 78 41 79
REMARK SMILES IDX 38 80 60 81 61 82 66 83 62 84 63 85 65 86 67 87 64 88 48 89
REMARK SMILES IDX 49 90 54 91 50 92 51 93 53 94 55 95 52 96
REMARK H PARENT 15 7 79 13 5 25 5 26 22 39 72 58 46 69
REMARK Flexibility Score: inf
ROOT
ATOM      1  C   UNL A   1      37.708  22.564  24.949  1.00  0.00     0.002 C 
ENDROOT
BRANCH   1   2
ATOM      2  C   UNL A   1      36.920  23.542  25.832  1.00  0.00     0.021 C 
BRANCH   2   3
ATOM      3  C   UNL A   1      35.409  23.455  25.615  1.00  0.00     0.116 C 
BRANCH   3   4
ATOM      4  N   UNL A   1      35.058  24.198  24.424  1.00  0.00    -0.351 N 
ATOM      5  C   UNL A   1      34.052  23.993  23.530  1.00  0.00     0.278 C 
ATOM      6  O   UNL A   1      34.062  24.665  22.496  1.00  0.00    -0.268 OA
ATOM      7  H   UNL A   1      35.636  24.971  24.230  1.00  0.00     0.163 HD
BRANCH   5   8
ATOM      8  C   UNL A   1      32.884  23.031  23.836  1.00  0.00     0.282 C 
BRANCH   8   9
ATOM      9  C   UNL A   1      31.563  23.624  23.300  1.00  0.00     0.175 C 
BRANCH   9  10
ATOM     10  C   UNL A   1      31.139  24.924  23.948  1.00  0.00     0.230 C 
ATOM     11  O   UNL A   1      30.646  24.951  25.070  1.00  0.00    -0.274 OA
ATOM     12  N   UNL A   1      31.370  26.020  23.135  1.00  0.00    -0.326 N 
ATOM     13  H   UNL A   1      31.922  25.896  22.329  1.00  0.00     0.169 HD
BRANCH  12  14
ATOM     14  C   UNL A   1      30.860  27.296  23.403  1.00  0.00     0.041 A 
ATOM     15  C   UNL A   1      31.558  28.083  24.318  1.00  0.00     0.027 A 
ATOM     16  C   UNL A   1      29.708  27.788  22.790  1.00  0.00     0.034 A 
ATOM     17  C   UNL A   1      31.181  29.407  24.523  1.00  0.00     0.011 A 
ATOM     18  C   UNL A   1      29.241  29.080  23.096  1.00  0.00    -0.016 A 
ATOM     19  C   UNL A   1      30.027  29.918  23.919  1.00  0.00    -0.018 A 
ATOM     20  C   UNL A   1      28.009  29.560  22.619  1.00  0.00     0.009 A 
ATOM     21  C   UNL A   1      29.626  31.243  24.144  1.00  0.00     0.009 A 
ATOM     22  C   UNL A   1      27.583  30.857  22.923  1.00  0.00     0.001 A 
ATOM     23  C   UNL A   1      28.407  31.707  23.654  1.00  0.00     0.001 A 
ENDBRANCH  12  14
ENDBRANCH   9  10
ENDBRANCH   8   9
BRANCH   8  24
ATOM     24  N   UNL A   1      33.193  21.635  23.381  1.00  0.00    -0.332 N 
ATOM     25  H   UNL A   1      34.192  21.472  23.513  1.00  0.00     0.347 HD
ATOM     26  H   UNL A   1      32.903  21.578  22.405  1.00  0.00     0.347 HD
BRANCH  24  27
ATOM     27  C   UNL A   1      32.455  20.571  24.100  1.00  0.00     0.299 C 
BRANCH  27  28
ATOM     28  C   UNL A   1      33.023  19.193  23.887  1.00  0.00     0.024 A 
ATOM     29  C   UNL A   1      34.157  18.760  24.583  1.00  0.00     0.013 A 
ATOM     30  C   UNL A   1      32.452  18.293  22.992  1.00  0.00     0.120 A 
ATOM     31  C   UNL A   1      34.680  17.492  24.340  1.00  0.00     0.021 A 
ATOM     32  N   UNL A   1      32.951  17.065  22.721  1.00  0.00    -0.264 NA
ATOM     33  C   UNL A   1      34.057  16.695  23.397  1.00  0.00     0.111 A 
ENDBRANCH  27  28
ENDBRANCH  24  27
ENDBRANCH   8  24
ENDBRANCH   5   8
ENDBRANCH   3   4
ENDBRANCH   2   3
ENDBRANCH   1   2
BRANCH   1  34
ATOM     34  C   UNL A   1      37.027  21.207  24.746  1.00  0.00     0.002 C 
BRANCH  34  35
ATOM     35  C   UNL A   1      37.948  20.002  24.945  1.00  0.00     0.021 C 
BRANCH  35  36
ATOM     36  C   UNL A   1      38.999  20.201  26.032  1.00  0.00     0.116 C 
BRANCH  36  37
ATOM     37  N   UNL A   1      40.037  19.185  25.966  1.00  0.00    -0.352 N 
ATOM     38  C   UNL A   1      41.399  19.337  26.028  1.00  0.00     0.251 C 
ATOM     39  H   UNL A   1      39.719  18.260  25.862  1.00  0.00     0.163 HD
ATOM     40  O   UNL A   1      42.142  18.410  25.729  1.00  0.00    -0.269 OA
BRANCH  38  41
ATOM     41  C   UNL A   1      41.964  20.637  26.443  1.00  0.00     0.039 A 
ATOM     42  C   UNL A   1      42.338  21.556  25.460  1.00  0.00     0.014 A 
ATOM     43  C   UNL A   1      42.117  20.948  27.797  1.00  0.00     0.014 A 
ATOM     44  C   UNL A   1      42.816  22.811  25.839  1.00  0.00     0.010 A 
ATOM     45  C   UNL A   1      42.516  22.226  28.171  1.00  0.00     0.010 A 
ATOM     46  C   UNL A   1      42.876  23.168  27.197  1.00  0.00    -0.014 A 
BRANCH  46  47
ATOM     47  C   UNL A   1      43.314  24.524  27.615  1.00  0.00     0.031 A 
ATOM     48  C   UNL A   1      42.299  25.551  28.032  1.00  0.00     0.074 A 
ATOM     49  C   UNL A   1      44.621  24.846  27.560  1.00  0.00     0.049 A 
ATOM     50  N   UNL A   1      42.481  26.803  28.370  1.00  0.00    -0.248 NA
ATOM     51  C   UNL A   1      40.890  25.126  28.044  1.00  0.00     0.031 C 
ATOM     52  C   UNL A   1      45.696  23.951  27.129  1.00  0.00     0.029 A 
ATOM     53  N   UNL A   1      45.266  26.020  27.861  1.00  0.00    -0.354 N 
ATOM     54  C   UNL A   1      41.214  27.313  28.623  1.00  0.00     0.074 A 
ATOM     55  C   UNL A   1      40.268  26.256  28.344  1.00  0.00     0.031 C 
ATOM     56  C   UNL A   1      46.869  24.599  27.218  1.00  0.00     0.029 A 
ATOM     57  C   UNL A   1      46.625  25.966  27.667  1.00  0.00     0.049 A 
ATOM     58  H   UNL A   1      44.799  26.824  28.184  1.00  0.00     0.167 HD
ATOM     59  C   UNL A   1      40.871  28.545  29.070  1.00  0.00     0.037 A 
ATOM     60  C   UNL A   1      47.567  26.915  27.823  1.00  0.00     0.037 A 
ATOM     61  C   UNL A   1      41.819  29.589  29.362  1.00  0.00     0.049 A 
ATOM     62  C   UNL A   1      47.159  28.281  28.301  1.00  0.00     0.074 A 
ATOM     63  C   UNL A   1      41.578  30.852  29.874  1.00  0.00     0.029 A 
ATOM     64  N   UNL A   1      43.188  29.495  29.161  1.00  0.00    -0.354 N 
ATOM     65  N   UNL A   1      45.965  28.729  28.605  1.00  0.00    -0.248 NA
ATOM     66  C   UNL A   1      48.231  29.273  28.463  1.00  0.00     0.031 C 
ATOM     67  C   UNL A   1      42.793  31.541  29.928  1.00  0.00     0.029 A 
ATOM     68  C   UNL A   1      43.801  30.687  29.510  1.00  0.00     0.049 A 
ATOM     69  H   UNL A   1      43.655  28.697  28.819  1.00  0.00     0.167 HD
ATOM     70  C   UNL A   1      46.144  30.041  29.024  1.00  0.00     0.074 A 
ATOM     71  C   UNL A   1      47.566  30.312  28.949  1.00  0.00     0.031 C 
ATOM     72  C   UNL A   1      45.217  30.940  29.435  1.00  0.00     0.037 A 
BRANCH  59  73
ATOM     73  C   UNL A   1      39.411  28.831  29.269  1.00  0.00     0.057 A 
ATOM     74  C   UNL A   1      38.783  28.656  30.510  1.00  0.00     0.134 A 
ATOM     75  C   UNL A   1      38.629  29.322  28.216  1.00  0.00     0.134 A 
ATOM     76  F   UNL A   1      39.470  28.177  31.559  1.00  0.00    -0.206 F 
ATOM     77  C   UNL A   1      37.425  28.932  30.688  1.00  0.00     0.040 A 
ATOM     78  C   UNL A   1      37.279  29.632  28.390  1.00  0.00     0.040 A 
ATOM     79  F   UNL A   1      39.165  29.520  27.003  1.00  0.00    -0.206 F 
ATOM     80  C   UNL A   1      36.671  29.429  29.628  1.00  0.00     0.006 A 
ENDBRANCH  59  73
BRANCH  60  81
ATOM     81  C   UNL A   1      48.991  26.605  27.537  1.00  0.00     0.057 A 
ATOM     82  C   UNL A   1      49.549  26.861  26.279  1.00  0.00     0.134 A 
ATOM     83  C   UNL A   1      49.825  26.033  28.506  1.00  0.00     0.134 A 
ATOM     84  F   UNL A   1      48.798  27.392  25.303  1.00  0.00    -0.206 F 
ATOM     85  C   UNL A   1      50.876  26.541  25.987  1.00  0.00     0.040 A 
ATOM     86  C   UNL A   1      51.162  25.733  28.237  1.00  0.00     0.040 A 
ATOM     87  F   UNL A   1      49.356  25.771  29.735  1.00  0.00    -0.206 F 
ATOM     88  C   UNL A   1      51.687  25.979  26.970  1.00  0.00     0.006 A 
ENDBRANCH  60  81
BRANCH  72  89
ATOM     89  C   UNL A   1      45.712  32.289  29.873  1.00  0.00     0.057 A 
ATOM     90  C   UNL A   1      45.808  33.370  28.987  1.00  0.00     0.134 A 
ATOM     91  C   UNL A   1      46.061  32.518  31.211  1.00  0.00     0.134 A 
ATOM     92  F   UNL A   1      45.502  33.216  27.690  1.00  0.00    -0.206 F 
ATOM     93  C   UNL A   1      46.258  34.622  29.411  1.00  0.00     0.040 A 
ATOM     94  C   UNL A   1      46.482  33.773  31.653  1.00  0.00     0.040 A 
ATOM     95  F   UNL A   1      45.983  31.529  32.114  1.00  0.00    -0.206 F 
ATOM     96  C   UNL A   1      46.588  34.828  30.749  1.00  0.00     0.006 A 
ENDBRANCH  72  89
ENDBRANCH  46  47
ENDBRANCH  38  41
ENDBRANCH  36  37
ENDBRANCH  35  36
ENDBRANCH  34  35
ENDBRANCH   1  34
TORSDOF 19
ENDMDL
MODEL 2
REMARK VINA RESULT:     -12.1      4.613     10.114
REMARK SMILES O=C(C[C@@H]([NH2+]Cc1cccnc1)C(=O)NCCCCCCNC(=O)c1ccc(-c2c3nc(c(-c4c(F)cccc4F)c4ccc([nH]4)c(-c4c(F)cccc4F)c4nc(c(-c5c(F)cccc5F)c5ccc2[nH]5)C=C4)C=C3)cc1)Nc1ccc2ccccc2c1
REMARK SMILES IDX 18 1 17 2 16 3 15 4 13 5 14 6 4 8 3 9 2 10 1 11 79 12 80 14
REMARK SMILES IDX 81 15 89 16 82 17 88 18 83 19 87 20 84 21 86 22 85 23 5 24
REMARK SMILES IDX 6 27 7 28 8 29 12 30 9 31 11 32 10 33 19 34 20 35 21 36
REMARK SMILES IDX 22 37 23 38 24 40 25 41 26 42 78 43 27 44 77 45 28 46 29 47
REMARK SMILES IDX 30 48 71 49 31 50 76 51 70 52 72 53 32 54 75 55 69 56 68 57
REMARK SMILES IDX 33 59 59 60 42 61 58 62 43 63 46 64 57 65 73 66 44 67 45 68
REMARK SMILES IDX 56 70 74 71 47 72 34 73 35 74 40 75 36 76 37 77 39 78 41 79
REMARK SMILES IDX 38 80 60 81 61 82 66 83 62 84 63 85 65 86 67 87 64 88 48 89
REMARK SMILES IDX 49 90 54 91 50 92 51 93 53 94 55 95 52 96
REMARK H PARENT 15 7 79 13 5 25 5 26 22 39 72 58 46 69
REMARK Flexibility Score: inf
ROOT
ATOM      1  C   UNL A   1      32.246  30.153  26.406  1.00  0.00     0.002 C 
ENDROOT
BRANCH   1   2
ATOM      2  C   UNL A   1      32.906  29.349  25.278  1.00  0.00     0.021 C 
BRANCH   2   3
ATOM      3  C   UNL A   1      31.944  29.031  24.132  1.00  0.00     0.116 C 
BRANCH   3   4
ATOM      4  N   UNL A   1      32.709  28.703  22.948  1.00  0.00    -0.351 N 
ATOM      5  C   UNL A   1      33.277  27.525  22.573  1.00  0.00     0.278 C 
ATOM      6  O   UNL A   1      34.028  27.540  21.595  1.00  0.00    -0.268 OA
ATOM      7  H   UNL A   1      32.838  29.447  22.316  1.00  0.00     0.163 HD
BRANCH   5   8
ATOM      8  C   UNL A   1      32.923  26.198  23.277  1.00  0.00     0.282 C 
BRANCH   8   9
ATOM      9  C   UNL A   1      32.518  25.139  22.227  1.00  0.00     0.175 C 
BRANCH   9  10
ATOM     10  C   UNL A   1      33.009  23.737  22.516  1.00  0.00     0.230 C 
ATOM     11  O   UNL A   1      34.190  23.432  22.389  1.00  0.00    -0.274 OA
ATOM     12  N   UNL A   1      31.990  22.892  22.917  1.00  0.00    -0.326 N 
ATOM     13  H   UNL A   1      31.117  23.287  23.144  1.00  0.00     0.169 HD
BRANCH  12  14
ATOM     14  C   UNL A   1      32.138  21.503  23.018  1.00  0.00     0.041 A 
ATOM     15  C   UNL A   1      31.891  20.751  21.870  1.00  0.00     0.027 A 
ATOM     16  C   UNL A   1      32.524  20.873  24.201  1.00  0.00     0.034 A 
ATOM     17  C   UNL A   1      32.154  19.384  21.869  1.00  0.00     0.011 A 
ATOM     18  C   UNL A   1      32.659  19.473  24.244  1.00  0.00    -0.016 A 
ATOM     19  C   UNL A   1      32.538  18.733  23.046  1.00  0.00    -0.018 A 
ATOM     20  C   UNL A   1      32.898  18.783  25.446  1.00  0.00     0.009 A 
ATOM     21  C   UNL A   1      32.777  17.351  23.056  1.00  0.00     0.009 A 
ATOM     22  C   UNL A   1      33.050  17.394  25.452  1.00  0.00     0.001 A 
ATOM     23  C   UNL A   1      33.025  16.684  24.254  1.00  0.00     0.001 A 
ENDBRANCH  12  14
ENDBRANCH   9  10
ENDBRANCH   8   9
BRANCH   8  24
ATOM     24  N   UNL A   1      34.005  25.778  24.228  1.00  0.00    -0.332 N 
ATOM     25  H   UNL A   1      34.832  26.346  24.038  1.00  0.00     0.347 HD
ATOM     26  H   UNL A   1      34.158  24.782  24.071  1.00  0.00     0.347 HD
BRANCH  24  27
ATOM     27  C   UNL A   1      33.664  25.929  25.661  1.00  0.00     0.299 C 
BRANCH  27  28
ATOM     28  C   UNL A   1      32.549  25.024  26.115  1.00  0.00     0.024 A 
ATOM     29  C   UNL A   1      32.800  23.701  26.499  1.00  0.00     0.013 A 
ATOM     30  C   UNL A   1      31.227  25.456  26.168  1.00  0.00     0.120 A 
ATOM     31  C   UNL A   1      31.744  22.877  26.880  1.00  0.00     0.021 A 
ATOM     32  N   UNL A   1      30.182  24.671  26.514  1.00  0.00    -0.264 NA
ATOM     33  C   UNL A   1      30.462  23.398  26.857  1.00  0.00     0.111 A 
ENDBRANCH  27  28
ENDBRANCH  24  27
ENDBRANCH   8  24
ENDBRANCH   5   8
ENDBRANCH   3   4
ENDBRANCH   2   3
ENDBRANCH   1   2
BRANCH   1  34
ATOM     34  C   UNL A   1      31.102  31.063  25.948  1.00  0.00     0.002 C 
BRANCH  34  35
ATOM     35  C   UNL A   1      31.170  32.489  26.501  1.00  0.00     0.021 C 
BRANCH  35  36
ATOM     36  C   UNL A   1      32.522  32.855  27.100  1.00  0.00     0.116 C 
BRANCH  36  37
ATOM     37  N   UNL A   1      32.526  34.211  27.625  1.00  0.00    -0.352 N 
ATOM     38  C   UNL A   1      33.280  34.741  28.643  1.00  0.00     0.251 C 
ATOM     39  H   UNL A   1      31.902  34.835  27.192  1.00  0.00     0.163 HD
ATOM     40  O   UNL A   1      33.003  35.836  29.116  1.00  0.00    -0.269 OA
BRANCH  38  41
ATOM     41  C   UNL A   1      34.421  33.969  29.176  1.00  0.00     0.039 A 
ATOM     42  C   UNL A   1      35.713  34.298  28.760  1.00  0.00     0.014 A 
ATOM     43  C   UNL A   1      34.214  32.929  30.087  1.00  0.00     0.014 A 
ATOM     44  C   UNL A   1      36.804  33.617  29.302  1.00  0.00     0.010 A 
ATOM     45  C   UNL A   1      35.306  32.308  30.685  1.00  0.00     0.010 A 
ATOM     46  C   UNL A   1      36.611  32.641  30.294  1.00  0.00    -0.014 A 
BRANCH  46  47
ATOM     47  C   UNL A   1      37.763  31.958  30.932  1.00  0.00     0.031 A 
ATOM     48  C   UNL A   1      38.501  30.873  30.198  1.00  0.00     0.074 A 
ATOM     49  C   UNL A   1      38.106  32.273  32.196  1.00  0.00     0.049 A 
ATOM     50  N   UNL A   1      39.490  30.121  30.611  1.00  0.00    -0.248 NA
ATOM     51  C   UNL A   1      38.051  30.574  28.829  1.00  0.00     0.031 C 
ATOM     52  C   UNL A   1      37.438  33.276  33.029  1.00  0.00     0.029 A 
ATOM     53  N   UNL A   1      39.097  31.776  33.005  1.00  0.00    -0.354 N 
ATOM     54  C   UNL A   1      39.771  29.257  29.560  1.00  0.00     0.074 A 
ATOM     55  C   UNL A   1      38.812  29.537  28.514  1.00  0.00     0.031 C 
ATOM     56  C   UNL A   1      38.054  33.338  34.220  1.00  0.00     0.029 A 
ATOM     57  C   UNL A   1      39.128  32.350  34.253  1.00  0.00     0.049 A 
ATOM     58  H   UNL A   1      39.725  31.075  32.719  1.00  0.00     0.167 HD
ATOM     59  C   UNL A   1      40.754  28.329  29.466  1.00  0.00     0.037 A 
ATOM     60  C   UNL A   1      39.926  32.101  35.309  1.00  0.00     0.037 A 
ATOM     61  C   UNL A   1      41.716  28.067  30.505  1.00  0.00     0.049 A 
ATOM     62  C   UNL A   1      40.997  31.053  35.187  1.00  0.00     0.074 A 
ATOM     63  C   UNL A   1      42.786  27.189  30.485  1.00  0.00     0.029 A 
ATOM     64  N   UNL A   1      41.721  28.674  31.751  1.00  0.00    -0.354 N 
ATOM     65  N   UNL A   1      41.297  30.292  34.161  1.00  0.00    -0.248 NA
ATOM     66  C   UNL A   1      41.844  30.831  36.367  1.00  0.00     0.031 C 
ATOM     67  C   UNL A   1      43.402  27.223  31.739  1.00  0.00     0.029 A 
ATOM     68  C   UNL A   1      42.757  28.169  32.520  1.00  0.00     0.049 A 
ATOM     69  H   UNL A   1      41.082  29.363  32.047  1.00  0.00     0.167 HD
ATOM     70  C   UNL A   1      42.386  29.526  34.560  1.00  0.00     0.074 A 
ATOM     71  C   UNL A   1      42.701  29.925  35.917  1.00  0.00     0.031 C 
ATOM     72  C   UNL A   1      43.063  28.579  33.866  1.00  0.00     0.037 A 
BRANCH  59  73
ATOM     73  C   UNL A   1      40.836  27.530  28.198  1.00  0.00     0.057 A 
ATOM     74  C   UNL A   1      41.607  27.950  27.105  1.00  0.00     0.134 A 
ATOM     75  C   UNL A   1      40.164  26.307  28.080  1.00  0.00     0.134 A 
ATOM     76  F   UNL A   1      42.267  29.117  27.147  1.00  0.00    -0.206 F 
ATOM     77  C   UNL A   1      41.685  27.195  25.932  1.00  0.00     0.040 A 
ATOM     78  C   UNL A   1      40.260  25.529  26.924  1.00  0.00     0.040 A 
ATOM     79  F   UNL A   1      39.413  25.840  29.088  1.00  0.00    -0.206 F 
ATOM     80  C   UNL A   1      41.015  25.977  25.843  1.00  0.00     0.006 A 
ENDBRANCH  59  73
BRANCH  60  81
ATOM     81  C   UNL A   1      39.753  32.866  36.570  1.00  0.00     0.057 A 
ATOM     82  C   UNL A   1      38.795  32.489  37.519  1.00  0.00     0.134 A 
ATOM     83  C   UNL A   1      40.528  33.998  36.853  1.00  0.00     0.134 A 
ATOM     84  F   UNL A   1      38.010  31.425  37.299  1.00  0.00    -0.206 F 
ATOM     85  C   UNL A   1      38.598  33.221  38.691  1.00  0.00     0.040 A 
ATOM     86  C   UNL A   1      40.361  34.723  38.034  1.00  0.00     0.040 A 
ATOM     87  F   UNL A   1      41.469  34.407  35.990  1.00  0.00    -0.206 F 
ATOM     88  C   UNL A   1      39.386  34.339  38.953  1.00  0.00     0.006 A 
ENDBRANCH  60  81
BRANCH  72  89
ATOM     89  C   UNL A   1      44.237  27.935  34.546  1.00  0.00     0.057 A 
ATOM     90  C   UNL A   1      45.523  28.487  34.491  1.00  0.00     0.134 A 
ATOM     91  C   UNL A   1      44.068  26.766  35.299  1.00  0.00     0.134 A 
ATOM     92  F   UNL A   1      45.757  29.599  33.777  1.00  0.00    -0.206 F 
ATOM     93  C   UNL A   1      46.603  27.885  35.139  1.00  0.00     0.040 A 
ATOM     94  C   UNL A   1      45.134  26.172  35.977  1.00  0.00     0.040 A 
ATOM     95  F   UNL A   1      42.861  26.190  35.402  1.00  0.00    -0.206 F 
ATOM     96  C   UNL A   1      46.409  26.728  35.891  1.00  0.00     0.006 A 
ENDBRANCH  72  89
ENDBRANCH  46  47
ENDBRANCH  38  41
ENDBRANCH  36  37
ENDBRANCH  35  36
ENDBRANCH  34  35
ENDBRANCH   1  34
TORSDOF 19
ENDMDL
MODEL 3
REMARK VINA RESULT:     -12.1      4.279      9.501
REMARK SMILES O=C(C[C@@H]([NH2+]Cc1cccnc1)C(=O)NCCCCCCNC(=O)c1ccc(-c2c3nc(c(-c4c(F)cccc4F)c4ccc([nH]4)c(-c4c(F)cccc4F)c4nc(c(-c5c(F)cccc5F)c5ccc2[nH]5)C=C4)C=C3)cc1)Nc1ccc2ccccc2c1
REMARK SMILES IDX 18 1 17 2 16 3 15 4 13 5 14 6 4 8 3 9 2 10 1 11 79 12 80 14
REMARK SMILES IDX 81 15 89 16 82 17 88 18 83 19 87 20 84 21 86 22 85 23 5 24
REMARK SMILES IDX 6 27 7 28 8 29 12 30 9 31 11 32 10 33 19 34 20 35 21 36
REMARK SMILES IDX 22 37 23 38 24 40 25 41 26 42 78 43 27 44 77 45 28 46 29 47
REMARK SMILES IDX 30 48 71 49 31 50 76 51 70 52 72 53 32 54 75 55 69 56 68 57
REMARK SMILES IDX 33 59 59 60 42 61 58 62 43 63 46 64 57 65 73 66 44 67 45 68
REMARK SMILES IDX 56 70 74 71 47 72 34 73 35 74 40 75 36 76 37 77 39 78 41 79
REMARK SMILES IDX 38 80 60 81 61 82 66 83 62 84 63 85 65 86 67 87 64 88 48 89
REMARK SMILES IDX 49 90 54 91 50 92 51 93 53 94 55 95 52 96
REMARK H PARENT 15 7 79 13 5 25 5 26 22 39 72 58 46 69
REMARK Flexibility Score: inf
ROOT
ATOM      1  C   UNL A   1      32.183  29.837  25.714  1.00  0.00     0.002 C 
ENDROOT
BRANCH   1   2
ATOM      2  C   UNL A   1      31.881  28.672  26.666  1.00  0.00     0.021 C 
BRANCH   2   3
ATOM      3  C   UNL A   1      32.049  27.304  26.005  1.00  0.00     0.116 C 
BRANCH   3   4
ATOM      4  N   UNL A   1      31.117  26.371  26.602  1.00  0.00    -0.351 N 
ATOM      5  C   UNL A   1      30.413  25.354  26.035  1.00  0.00     0.278 C 
ATOM      6  O   UNL A   1      29.548  24.806  26.723  1.00  0.00    -0.268 OA
ATOM      7  H   UNL A   1      30.969  26.492  27.568  1.00  0.00     0.163 HD
BRANCH   5   8
ATOM      8  C   UNL A   1      30.746  24.833  24.621  1.00  0.00     0.282 C 
BRANCH   8   9
ATOM      9  C   UNL A   1      30.942  23.301  24.659  1.00  0.00     0.175 C 
BRANCH   9  10
ATOM     10  C   UNL A   1      32.268  22.843  25.224  1.00  0.00     0.230 C 
ATOM     11  O   UNL A   1      32.345  22.294  26.318  1.00  0.00    -0.274 OA
ATOM     12  N   UNL A   1      33.328  23.121  24.379  1.00  0.00    -0.326 N 
ATOM     13  H   UNL A   1      33.128  23.410  23.459  1.00  0.00     0.169 HD
BRANCH  12  14
ATOM     14  C   UNL A   1      34.669  23.010  24.766  1.00  0.00     0.041 A 
ATOM     15  C   UNL A   1      35.301  24.169  25.213  1.00  0.00     0.027 A 
ATOM     16  C   UNL A   1      35.365  21.802  24.723  1.00  0.00     0.034 A 
ATOM     17  C   UNL A   1      36.588  24.097  25.740  1.00  0.00     0.011 A 
ATOM     18  C   UNL A   1      36.712  21.748  25.126  1.00  0.00    -0.016 A 
ATOM     19  C   UNL A   1      37.304  22.895  25.704  1.00  0.00    -0.018 A 
ATOM     20  C   UNL A   1      37.496  20.593  24.960  1.00  0.00     0.009 A 
ATOM     21  C   UNL A   1      38.610  22.823  26.207  1.00  0.00     0.009 A 
ATOM     22  C   UNL A   1      38.825  20.564  25.392  1.00  0.00     0.001 A 
ATOM     23  C   UNL A   1      39.369  21.666  26.046  1.00  0.00     0.001 A 
ENDBRANCH  12  14
ENDBRANCH   9  10
ENDBRANCH   8   9
BRANCH   8  24
ATOM     24  N   UNL A   1      29.755  25.329  23.609  1.00  0.00    -0.332 N 
ATOM     25  H   UNL A   1      29.142  24.552  23.358  1.00  0.00     0.347 HD
ATOM     26  H   UNL A   1      30.298  25.681  22.821  1.00  0.00     0.347 HD
BRANCH  24  27
ATOM     27  C   UNL A   1      28.908  26.453  24.070  1.00  0.00     0.299 C 
BRANCH  27  28
ATOM     28  C   UNL A   1      29.123  27.727  23.297  1.00  0.00     0.024 A 
ATOM     29  C   UNL A   1      28.079  28.637  23.093  1.00  0.00     0.013 A 
ATOM     30  C   UNL A   1      30.360  28.056  22.750  1.00  0.00     0.120 A 
ATOM     31  C   UNL A   1      28.298  29.790  22.344  1.00  0.00     0.021 A 
ATOM     32  N   UNL A   1      30.595  29.158  22.002  1.00  0.00    -0.264 NA
ATOM     33  C   UNL A   1      29.559  29.997  21.811  1.00  0.00     0.111 A 
ENDBRANCH  27  28
ENDBRANCH  24  27
ENDBRANCH   8  24
ENDBRANCH   5   8
ENDBRANCH   3   4
ENDBRANCH   2   3
ENDBRANCH   1   2
BRANCH   1  34
ATOM     34  C   UNL A   1      30.973  30.719  25.390  1.00  0.00     0.002 C 
BRANCH  34  35
ATOM     35  C   UNL A   1      30.991  32.091  26.066  1.00  0.00     0.021 C 
BRANCH  35  36
ATOM     36  C   UNL A   1      32.242  32.353  26.897  1.00  0.00     0.116 C 
BRANCH  36  37
ATOM     37  N   UNL A   1      32.314  33.737  27.335  1.00  0.00    -0.352 N 
ATOM     38  C   UNL A   1      33.154  34.308  28.258  1.00  0.00     0.251 C 
ATOM     39  H   UNL A   1      31.672  34.350  26.912  1.00  0.00     0.163 HD
ATOM     40  O   UNL A   1      32.937  35.437  28.681  1.00  0.00    -0.269 OA
BRANCH  38  41
ATOM     41  C   UNL A   1      34.316  33.541  28.752  1.00  0.00     0.039 A 
ATOM     42  C   UNL A   1      35.581  34.131  28.716  1.00  0.00     0.014 A 
ATOM     43  C   UNL A   1      34.153  32.246  29.254  1.00  0.00     0.014 A 
ATOM     44  C   UNL A   1      36.677  33.441  29.235  1.00  0.00     0.010 A 
ATOM     45  C   UNL A   1      35.231  31.594  29.843  1.00  0.00     0.010 A 
ATOM     46  C   UNL A   1      36.504  32.181  29.834  1.00  0.00    -0.014 A 
BRANCH  46  47
ATOM     47  C   UNL A   1      37.646  31.465  30.455  1.00  0.00     0.031 A 
ATOM     48  C   UNL A   1      38.037  31.754  31.877  1.00  0.00     0.074 A 
ATOM     49  C   UNL A   1      38.367  30.598  29.717  1.00  0.00     0.049 A 
ATOM     50  N   UNL A   1      39.039  31.277  32.572  1.00  0.00    -0.248 NA
ATOM     51  C   UNL A   1      37.211  32.729  32.607  1.00  0.00     0.031 C 
ATOM     52  C   UNL A   1      38.115  30.267  28.314  1.00  0.00     0.029 A 
ATOM     53  N   UNL A   1      39.466  29.843  30.044  1.00  0.00    -0.354 N 
ATOM     54  C   UNL A   1      38.968  31.900  33.812  1.00  0.00     0.074 A 
ATOM     55  C   UNL A   1      37.864  32.831  33.755  1.00  0.00     0.031 C 
ATOM     56  C   UNL A   1      39.016  29.358  27.908  1.00  0.00     0.029 A 
ATOM     57  C   UNL A   1      39.935  29.076  29.006  1.00  0.00     0.049 A 
ATOM     58  H   UNL A   1      39.879  29.852  30.938  1.00  0.00     0.167 HD
ATOM     59  C   UNL A   1      39.741  31.697  34.906  1.00  0.00     0.037 A 
ATOM     60  C   UNL A   1      40.994  28.247  28.943  1.00  0.00     0.037 A 
ATOM     61  C   UNL A   1      40.829  30.757  34.962  1.00  0.00     0.049 A 
ATOM     62  C   UNL A   1      41.848  28.054  30.165  1.00  0.00     0.074 A 
ATOM     63  C   UNL A   1      41.635  30.435  36.040  1.00  0.00     0.029 A 
ATOM     64  N   UNL A   1      41.269  29.992  33.892  1.00  0.00    -0.354 N 
ATOM     65  N   UNL A   1      41.727  28.596  31.353  1.00  0.00    -0.248 NA
ATOM     66  C   UNL A   1      42.983  27.129  30.040  1.00  0.00     0.031 C 
ATOM     67  C   UNL A   1      42.599  29.520  35.608  1.00  0.00     0.029 A 
ATOM     68  C   UNL A   1      42.354  29.221  34.277  1.00  0.00     0.049 A 
ATOM     69  H   UNL A   1      40.870  29.996  32.992  1.00  0.00     0.167 HD
ATOM     70  C   UNL A   1      42.748  28.056  32.125  1.00  0.00     0.074 A 
ATOM     71  C   UNL A   1      43.470  27.132  31.273  1.00  0.00     0.031 C 
ATOM     72  C   UNL A   1      43.060  28.301  33.421  1.00  0.00     0.037 A 
BRANCH  59  73
ATOM     73  C   UNL A   1      39.436  32.510  36.132  1.00  0.00     0.057 A 
ATOM     74  C   UNL A   1      40.038  33.755  36.364  1.00  0.00     0.134 A 
ATOM     75  C   UNL A   1      38.504  32.059  37.075  1.00  0.00     0.134 A 
ATOM     76  F   UNL A   1      40.949  34.241  35.508  1.00  0.00    -0.206 F 
ATOM     77  C   UNL A   1      39.743  34.508  37.503  1.00  0.00     0.040 A 
ATOM     78  C   UNL A   1      38.178  32.818  38.200  1.00  0.00     0.040 A 
ATOM     79  F   UNL A   1      37.885  30.880  36.913  1.00  0.00    -0.206 F 
ATOM     80  C   UNL A   1      38.804  34.043  38.421  1.00  0.00     0.006 A 
ENDBRANCH  59  73
BRANCH  60  81
ATOM     81  C   UNL A   1      41.300  27.525  27.681  1.00  0.00     0.057 A 
ATOM     82  C   UNL A   1      40.808  26.235  27.448  1.00  0.00     0.134 A 
ATOM     83  C   UNL A   1      42.099  28.098  26.684  1.00  0.00     0.134 A 
ATOM     84  F   UNL A   1      40.051  25.624  28.371  1.00  0.00    -0.206 F 
ATOM     85  C   UNL A   1      41.117  25.532  26.282  1.00  0.00     0.040 A 
ATOM     86  C   UNL A   1      42.394  27.419  25.501  1.00  0.00     0.040 A 
ATOM     87  F   UNL A   1      42.594  29.335  26.841  1.00  0.00    -0.206 F 
ATOM     88  C   UNL A   1      41.909  26.127  25.302  1.00  0.00     0.006 A 
ENDBRANCH  60  81
BRANCH  72  89
ATOM     89  C   UNL A   1      44.206  27.532  34.011  1.00  0.00     0.057 A 
ATOM     90  C   UNL A   1      45.514  28.035  34.019  1.00  0.00     0.134 A 
ATOM     91  C   UNL A   1      43.990  26.286  34.615  1.00  0.00     0.134 A 
ATOM     92  F   UNL A   1      45.792  29.216  33.448  1.00  0.00    -0.206 F 
ATOM     93  C   UNL A   1      46.568  27.315  34.584  1.00  0.00     0.040 A 
ATOM     94  C   UNL A   1      45.030  25.571  35.209  1.00  0.00     0.040 A 
ATOM     95  F   UNL A   1      42.761  25.750  34.650  1.00  0.00    -0.206 F 
ATOM     96  C   UNL A   1      46.326  26.083  35.188  1.00  0.00     0.006 A 
ENDBRANCH  72  89
ENDBRANCH  46  47
ENDBRANCH  38  41
ENDBRANCH  36  37
ENDBRANCH  35  36
ENDBRANCH  34  35
ENDBRANCH   1  34
TORSDOF 19
ENDMDL
