MODEL 1
REMARK VINA RESULT:     -11.3      0.000      0.000
REMARK SMILES Cc1n[nH]c(C)c1CC(=O)N1CC[C@H](C(=O)NCCCCCCNC(=O)c2ccc(-c3c4nc(c(-c5c(F)cccc5F)c5ccc([nH]5)c(-c5c(F)cccc5F)c5nc(c(-c6c(F)cccc6F)c6ccc3[nH]6)C=C5)C=C4)cc2)[C@H]1C
REMARK SMILES IDX 20 1 19 2 18 3 17 4 15 5 16 6 14 8 11 9 12 10 81 11 13 12
REMARK SMILES IDX 82 13 9 14 10 15 8 16 7 17 1 18 2 19 3 20 4 21 5 22 6 24
REMARK SMILES IDX 21 25 22 26 23 27 24 28 25 29 26 31 27 32 28 33 80 34 29 35
REMARK SMILES IDX 79 36 30 37 31 38 32 39 73 40 33 41 78 42 72 43 74 44 34 45
REMARK SMILES IDX 77 46 71 47 70 48 35 50 61 51 44 52 60 53 45 54 48 55 59 56
REMARK SMILES IDX 75 57 46 58 47 59 58 61 76 62 49 63 36 64 37 65 42 66 38 67
REMARK SMILES IDX 39 68 41 69 43 70 40 71 62 72 63 73 68 74 64 75 65 76 67 77
REMARK SMILES IDX 69 78 66 79 50 80 51 81 56 82 52 83 53 84 55 85 57 86 54 87
REMARK H PARENT 17 7 4 23 24 30 74 49 48 60
REMARK Flexibility Score: inf
ROOT
ATOM      1  C   UNL A   1      31.842  28.254  24.560  1.00  0.00     0.002 C 
ENDROOT
BRANCH   1   2
ATOM      2  C   UNL A   1      31.870  27.333  23.334  1.00  0.00     0.021 C 
BRANCH   2   3
ATOM      3  C   UNL A   1      33.274  27.009  22.822  1.00  0.00     0.116 C 
BRANCH   3   4
ATOM      4  N   UNL A   1      33.306  25.642  22.353  1.00  0.00    -0.356 N 
ATOM      5  C   UNL A   1      34.011  24.573  22.798  1.00  0.00     0.225 C 
ATOM      6  O   UNL A   1      34.037  23.589  22.053  1.00  0.00    -0.275 OA
ATOM      7  H   UNL A   1      32.720  25.456  21.584  1.00  0.00     0.163 HD
BRANCH   5   8
ATOM      8  C   UNL A   1      34.594  24.529  24.212  1.00  0.00     0.102 C 
ATOM      9  N   UNL A   1      34.460  22.338  25.150  1.00  0.00    -0.339 N 
ATOM     10  C   UNL A   1      33.156  22.971  25.301  1.00  0.00     0.120 C 
ATOM     11  C   UNL A   1      35.432  23.296  24.621  1.00  0.00     0.094 C 
ATOM     12  C   UNL A   1      33.448  24.464  25.239  1.00  0.00     0.037 C 
ATOM     13  C   UNL A   1      36.455  23.722  25.675  1.00  0.00     0.032 C 
BRANCH   9  14
ATOM     14  C   UNL A   1      34.562  20.957  25.164  1.00  0.00     0.227 C 
ATOM     15  O   UNL A   1      35.655  20.415  24.960  1.00  0.00    -0.275 OA
BRANCH  14  16
ATOM     16  C   UNL A   1      33.309  20.085  25.206  1.00  0.00     0.139 C 
BRANCH  16  17
ATOM     17  C   UNL A   1      32.954  19.257  24.015  1.00  0.00     0.005 A 
ATOM     18  C   UNL A   1      34.248  17.024  24.479  1.00  0.00     0.069 C 
ATOM     19  C   UNL A   1      33.343  17.920  23.715  1.00  0.00     0.063 A 
ATOM     20  N   UNL A   1      32.827  17.501  22.553  1.00  0.00    -0.181 NA
ATOM     21  N   UNL A   1      32.223  18.583  22.052  1.00  0.00    -0.282 N 
ATOM     22  C   UNL A   1      32.321  19.683  22.855  1.00  0.00     0.036 A 
ATOM     23  H   UNL A   1      31.752  18.588  21.187  1.00  0.00     0.190 HD
ATOM     24  C   UNL A   1      31.862  21.019  22.391  1.00  0.00     0.066 C 
ENDBRANCH  16  17
ENDBRANCH  14  16
ENDBRANCH   9  14
ENDBRANCH   5   8
ENDBRANCH   3   4
ENDBRANCH   2   3
ENDBRANCH   1   2
BRANCH   1  25
ATOM     25  C   UNL A   1      33.169  28.956  24.859  1.00  0.00     0.002 C 
BRANCH  25  26
ATOM     26  C   UNL A   1      33.991  28.318  25.982  1.00  0.00     0.021 C 
BRANCH  26  27
ATOM     27  C   UNL A   1      33.516  28.674  27.389  1.00  0.00     0.116 C 
BRANCH  27  28
ATOM     28  N   UNL A   1      33.629  30.104  27.648  1.00  0.00    -0.352 N 
ATOM     29  C   UNL A   1      34.659  30.809  28.219  1.00  0.00     0.251 C 
ATOM     30  H   UNL A   1      32.854  30.644  27.371  1.00  0.00     0.163 HD
ATOM     31  O   UNL A   1      34.492  31.971  28.580  1.00  0.00    -0.269 OA
BRANCH  29  32
ATOM     32  C   UNL A   1      35.969  30.157  28.422  1.00  0.00     0.039 A 
ATOM     33  C   UNL A   1      36.902  30.170  27.383  1.00  0.00     0.014 A 
ATOM     34  C   UNL A   1      36.277  29.543  29.639  1.00  0.00     0.014 A 
ATOM     35  C   UNL A   1      38.179  29.644  27.595  1.00  0.00     0.010 A 
ATOM     36  C   UNL A   1      37.569  29.079  29.871  1.00  0.00     0.010 A 
ATOM     37  C   UNL A   1      38.538  29.142  28.857  1.00  0.00    -0.014 A 
BRANCH  37  38
ATOM     38  C   UNL A   1      39.933  28.732  29.159  1.00  0.00     0.031 A 
ATOM     39  C   UNL A   1      40.884  29.694  29.816  1.00  0.00     0.074 A 
ATOM     40  C   UNL A   1      40.367  27.522  28.755  1.00  0.00     0.049 A 
ATOM     41  N   UNL A   1      42.164  29.556  30.052  1.00  0.00    -0.248 NA
ATOM     42  C   UNL A   1      40.330  30.987  30.247  1.00  0.00     0.031 C 
ATOM     43  C   UNL A   1      39.549  26.512  28.077  1.00  0.00     0.029 A 
ATOM     44  N   UNL A   1      41.608  26.940  28.833  1.00  0.00    -0.354 N 
ATOM     45  C   UNL A   1      42.572  30.745  30.641  1.00  0.00     0.074 A 
ATOM     46  C   UNL A   1      41.410  31.608  30.699  1.00  0.00     0.031 C 
ATOM     47  C   UNL A   1      40.306  25.435  27.813  1.00  0.00     0.029 A 
ATOM     48  C   UNL A   1      41.672  25.696  28.254  1.00  0.00     0.049 A 
ATOM     49  H   UNL A   1      42.379  27.374  29.265  1.00  0.00     0.167 HD
ATOM     50  C   UNL A   1      43.800  31.081  31.100  1.00  0.00     0.037 A 
ATOM     51  C   UNL A   1      42.719  24.867  28.074  1.00  0.00     0.037 A 
ATOM     52  C   UNL A   1      44.946  30.210  31.062  1.00  0.00     0.049 A 
ATOM     53  C   UNL A   1      44.079  25.288  28.562  1.00  0.00     0.074 A 
ATOM     54  C   UNL A   1      46.213  30.435  31.574  1.00  0.00     0.029 A 
ATOM     55  N   UNL A   1      44.971  28.958  30.469  1.00  0.00    -0.354 N 
ATOM     56  N   UNL A   1      44.431  26.383  29.191  1.00  0.00    -0.248 NA
ATOM     57  C   UNL A   1      45.190  24.359  28.310  1.00  0.00     0.031 C 
ATOM     58  C   UNL A   1      47.021  29.345  31.236  1.00  0.00     0.029 A 
ATOM     59  C   UNL A   1      46.242  28.416  30.567  1.00  0.00     0.049 A 
ATOM     60  H   UNL A   1      44.200  28.518  30.043  1.00  0.00     0.167 HD
ATOM     61  C   UNL A   1      45.793  26.259  29.437  1.00  0.00     0.074 A 
ATOM     62  C   UNL A   1      46.199  24.975  28.907  1.00  0.00     0.031 C 
ATOM     63  C   UNL A   1      46.633  27.133  30.043  1.00  0.00     0.037 A 
BRANCH  50  64
ATOM     64  C   UNL A   1      43.987  32.451  31.684  1.00  0.00     0.057 A 
ATOM     65  C   UNL A   1      43.845  32.697  33.056  1.00  0.00     0.134 A 
ATOM     66  C   UNL A   1      44.404  33.516  30.877  1.00  0.00     0.134 A 
ATOM     67  F   UNL A   1      43.440  31.722  33.884  1.00  0.00    -0.206 F 
ATOM     68  C   UNL A   1      44.103  33.956  33.601  1.00  0.00     0.040 A 
ATOM     69  C   UNL A   1      44.691  34.772  31.414  1.00  0.00     0.040 A 
ATOM     70  F   UNL A   1      44.568  33.346  29.556  1.00  0.00    -0.206 F 
ATOM     71  C   UNL A   1      44.538  34.994  32.780  1.00  0.00     0.006 A 
ENDBRANCH  50  64
BRANCH  51  72
ATOM     72  C   UNL A   1      42.542  23.561  27.386  1.00  0.00     0.057 A 
ATOM     73  C   UNL A   1      42.253  22.398  28.110  1.00  0.00     0.134 A 
ATOM     74  C   UNL A   1      42.712  23.432  26.002  1.00  0.00     0.134 A 
ATOM     75  F   UNL A   1      42.099  22.451  29.441  1.00  0.00    -0.206 F 
ATOM     76  C   UNL A   1      42.177  21.148  27.489  1.00  0.00     0.040 A 
ATOM     77  C   UNL A   1      42.607  22.194  25.364  1.00  0.00     0.040 A 
ATOM     78  F   UNL A   1      42.986  24.506  25.248  1.00  0.00    -0.206 F 
ATOM     79  C   UNL A   1      42.353  21.046  26.112  1.00  0.00     0.006 A 
ENDBRANCH  51  72
BRANCH  63  80
ATOM     80  C   UNL A   1      48.067  26.715  30.197  1.00  0.00     0.057 A 
ATOM     81  C   UNL A   1      48.491  25.901  31.256  1.00  0.00     0.134 A 
ATOM     82  C   UNL A   1      49.028  27.101  29.254  1.00  0.00     0.134 A 
ATOM     83  F   UNL A   1      47.624  25.509  32.201  1.00  0.00    -0.206 F 
ATOM     84  C   UNL A   1      49.824  25.507  31.383  1.00  0.00     0.040 A 
ATOM     85  C   UNL A   1      50.356  26.687  29.354  1.00  0.00     0.040 A 
ATOM     86  F   UNL A   1      48.686  27.872  28.210  1.00  0.00    -0.206 F 
ATOM     87  C   UNL A   1      50.759  25.894  30.426  1.00  0.00     0.006 A 
ENDBRANCH  63  80
ENDBRANCH  37  38
ENDBRANCH  29  32
ENDBRANCH  27  28
ENDBRANCH  26  27
ENDBRANCH  25  26
ENDBRANCH   1  25
TORSDOF 16
ENDMDL
MODEL 2
REMARK VINA RESULT:     -11.3      3.655      7.835
REMARK SMILES Cc1n[nH]c(C)c1CC(=O)N1CC[C@H](C(=O)NCCCCCCNC(=O)c2ccc(-c3c4nc(c(-c5c(F)cccc5F)c5ccc([nH]5)c(-c5c(F)cccc5F)c5nc(c(-c6c(F)cccc6F)c6ccc3[nH]6)C=C5)C=C4)cc2)[C@H]1C
REMARK SMILES IDX 20 1 19 2 18 3 17 4 15 5 16 6 14 8 11 9 12 10 81 11 13 12
REMARK SMILES IDX 82 13 9 14 10 15 8 16 7 17 1 18 2 19 3 20 4 21 5 22 6 24
REMARK SMILES IDX 21 25 22 26 23 27 24 28 25 29 26 31 27 32 28 33 80 34 29 35
REMARK SMILES IDX 79 36 30 37 31 38 32 39 73 40 33 41 78 42 72 43 74 44 34 45
REMARK SMILES IDX 77 46 71 47 70 48 35 50 61 51 44 52 60 53 45 54 48 55 59 56
REMARK SMILES IDX 75 57 46 58 47 59 58 61 76 62 49 63 36 64 37 65 42 66 38 67
REMARK SMILES IDX 39 68 41 69 43 70 40 71 62 72 63 73 68 74 64 75 65 76 67 77
REMARK SMILES IDX 69 78 66 79 50 80 51 81 56 82 52 83 53 84 55 85 57 86 54 87
REMARK H PARENT 17 7 4 23 24 30 74 49 48 60
REMARK Flexibility Score: inf
ROOT
ATOM      1  C   UNL A   1      32.283  29.492  27.264  1.00  0.00     0.002 C 
ENDROOT
BRANCH   1   2
ATOM      2  C   UNL A   1      31.640  28.101  27.198  1.00  0.00     0.021 C 
BRANCH   2   3
ATOM      3  C   UNL A   1      32.381  27.106  26.304  1.00  0.00     0.116 C 
BRANCH   3   4
ATOM      4  N   UNL A   1      31.997  25.761  26.667  1.00  0.00    -0.356 N 
ATOM      5  C   UNL A   1      32.187  24.584  26.021  1.00  0.00     0.225 C 
ATOM      6  O   UNL A   1      31.533  23.624  26.436  1.00  0.00    -0.275 OA
ATOM      7  H   UNL A   1      31.519  25.686  27.525  1.00  0.00     0.163 HD
BRANCH   5   8
ATOM      8  C   UNL A   1      33.272  24.421  24.955  1.00  0.00     0.102 C 
ATOM      9  N   UNL A   1      34.288  22.264  25.059  1.00  0.00    -0.339 N 
ATOM     10  C   UNL A   1      34.896  23.096  26.089  1.00  0.00     0.120 C 
ATOM     11  C   UNL A   1      33.386  23.062  24.227  1.00  0.00     0.094 C 
ATOM     12  C   UNL A   1      34.660  24.523  25.614  1.00  0.00     0.037 C 
ATOM     13  C   UNL A   1      33.950  23.298  22.825  1.00  0.00     0.032 C 
BRANCH   9  14
ATOM     14  C   UNL A   1      34.324  20.885  25.176  1.00  0.00     0.227 C 
ATOM     15  O   UNL A   1      35.395  20.280  25.046  1.00  0.00    -0.275 OA
BRANCH  14  16
ATOM     16  C   UNL A   1      33.030  20.075  25.244  1.00  0.00     0.139 C 
BRANCH  16  17
ATOM     17  C   UNL A   1      32.786  19.003  24.234  1.00  0.00     0.005 A 
ATOM     18  C   UNL A   1      31.954  20.368  22.155  1.00  0.00     0.069 C 
ATOM     19  C   UNL A   1      32.343  19.135  22.887  1.00  0.00     0.063 A 
ATOM     20  N   UNL A   1      32.240  17.947  22.278  1.00  0.00    -0.181 NA
ATOM     21  N   UNL A   1      32.488  17.059  23.246  1.00  0.00    -0.282 N 
ATOM     22  C   UNL A   1      32.759  17.632  24.455  1.00  0.00     0.036 A 
ATOM     23  H   UNL A   1      32.477  16.085  23.101  1.00  0.00     0.190 HD
ATOM     24  C   UNL A   1      32.891  16.808  25.685  1.00  0.00     0.066 C 
ENDBRANCH  16  17
ENDBRANCH  14  16
ENDBRANCH   9  14
ENDBRANCH   5   8
ENDBRANCH   3   4
ENDBRANCH   2   3
ENDBRANCH   1   2
BRANCH   1  25
ATOM     25  C   UNL A   1      31.807  30.465  26.182  1.00  0.00     0.002 C 
BRANCH  25  26
ATOM     26  C   UNL A   1      31.487  31.875  26.686  1.00  0.00     0.021 C 
BRANCH  26  27
ATOM     27  C   UNL A   1      32.676  32.609  27.299  1.00  0.00     0.116 C 
BRANCH  27  28
ATOM     28  N   UNL A   1      32.367  34.009  27.559  1.00  0.00    -0.352 N 
ATOM     29  C   UNL A   1      32.906  34.863  28.489  1.00  0.00     0.251 C 
ATOM     30  H   UNL A   1      31.671  34.400  26.984  1.00  0.00     0.163 HD
ATOM     31  O   UNL A   1      32.364  35.938  28.733  1.00  0.00    -0.269 OA
BRANCH  29  32
ATOM     32  C   UNL A   1      34.132  34.476  29.216  1.00  0.00     0.039 A 
ATOM     33  C   UNL A   1      34.018  33.919  30.492  1.00  0.00     0.014 A 
ATOM     34  C   UNL A   1      35.390  34.656  28.634  1.00  0.00     0.014 A 
ATOM     35  C   UNL A   1      35.162  33.459  31.149  1.00  0.00     0.010 A 
ATOM     36  C   UNL A   1      36.521  34.138  29.261  1.00  0.00     0.010 A 
ATOM     37  C   UNL A   1      36.415  33.518  30.516  1.00  0.00    -0.014 A 
BRANCH  37  38
ATOM     38  C   UNL A   1      37.617  32.887  31.118  1.00  0.00     0.031 A 
ATOM     39  C   UNL A   1      38.252  31.688  30.473  1.00  0.00     0.074 A 
ATOM     40  C   UNL A   1      38.078  33.343  32.300  1.00  0.00     0.049 A 
ATOM     41  N   UNL A   1      39.230  30.936  30.911  1.00  0.00    -0.248 NA
ATOM     42  C   UNL A   1      37.705  31.264  29.174  1.00  0.00     0.031 C 
ATOM     43  C   UNL A   1      37.526  34.479  33.044  1.00  0.00     0.029 A 
ATOM     44  N   UNL A   1      39.102  32.895  33.098  1.00  0.00    -0.354 N 
ATOM     45  C   UNL A   1      39.404  29.945  29.955  1.00  0.00     0.074 A 
ATOM     46  C   UNL A   1      38.410  30.169  28.927  1.00  0.00     0.031 C 
ATOM     47  C   UNL A   1      38.224  34.645  34.179  1.00  0.00     0.029 A 
ATOM     48  C   UNL A   1      39.236  33.598  34.271  1.00  0.00     0.049 A 
ATOM     49  H   UNL A   1      39.685  32.142  32.851  1.00  0.00     0.167 HD
ATOM     50  C   UNL A   1      40.317  28.945  29.934  1.00  0.00     0.037 A 
ATOM     51  C   UNL A   1      40.064  33.407  35.316  1.00  0.00     0.037 A 
ATOM     52  C   UNL A   1      41.320  28.741  30.947  1.00  0.00     0.049 A 
ATOM     53  C   UNL A   1      41.040  32.262  35.278  1.00  0.00     0.074 A 
ATOM     54  C   UNL A   1      42.337  27.802  30.972  1.00  0.00     0.029 A 
ATOM     55  N   UNL A   1      41.425  29.474  32.118  1.00  0.00    -0.354 N 
ATOM     56  N   UNL A   1      41.248  31.383  34.328  1.00  0.00    -0.248 NA
ATOM     57  C   UNL A   1      41.897  32.081  36.459  1.00  0.00     0.031 C 
ATOM     58  C   UNL A   1      43.018  27.926  32.186  1.00  0.00     0.029 A 
ATOM     59  C   UNL A   1      42.464  28.981  32.891  1.00  0.00     0.049 A 
ATOM     60  H   UNL A   1      40.847  30.233  32.364  1.00  0.00     0.167 HD
ATOM     61  C   UNL A   1      42.276  30.567  34.784  1.00  0.00     0.074 A 
ATOM     62  C   UNL A   1      42.663  31.068  36.085  1.00  0.00     0.031 C 
ATOM     63  C   UNL A   1      42.845  29.495  34.181  1.00  0.00     0.037 A 
BRANCH  50  64
ATOM     64  C   UNL A   1      40.285  27.982  28.784  1.00  0.00     0.057 A 
ATOM     65  C   UNL A   1      41.001  28.214  27.603  1.00  0.00     0.134 A 
ATOM     66  C   UNL A   1      39.603  26.764  28.896  1.00  0.00     0.134 A 
ATOM     67  F   UNL A   1      41.670  29.364  27.427  1.00  0.00    -0.206 F 
ATOM     68  C   UNL A   1      41.032  27.273  26.573  1.00  0.00     0.040 A 
ATOM     69  C   UNL A   1      39.648  25.804  27.884  1.00  0.00     0.040 A 
ATOM     70  F   UNL A   1      38.903  26.476  30.005  1.00  0.00    -0.206 F 
ATOM     71  C   UNL A   1      40.363  26.058  26.718  1.00  0.00     0.006 A 
ENDBRANCH  50  64
BRANCH  51  72
ATOM     72  C   UNL A   1      40.004  34.299  36.504  1.00  0.00     0.057 A 
ATOM     73  C   UNL A   1      39.170  34.001  37.589  1.00  0.00     0.134 A 
ATOM     74  C   UNL A   1      40.733  35.493  36.563  1.00  0.00     0.134 A 
ATOM     75  F   UNL A   1      38.430  32.883  37.585  1.00  0.00    -0.206 F 
ATOM     76  C   UNL A   1      39.032  34.876  38.669  1.00  0.00     0.040 A 
ATOM     77  C   UNL A   1      40.630  36.361  37.652  1.00  0.00     0.040 A 
ATOM     78  F   UNL A   1      41.555  35.836  35.560  1.00  0.00    -0.206 F 
ATOM     79  C   UNL A   1      39.766  36.059  38.702  1.00  0.00     0.006 A 
ENDBRANCH  51  72
BRANCH  63  80
ATOM     80  C   UNL A   1      43.971  28.814  34.906  1.00  0.00     0.057 A 
ATOM     81  C   UNL A   1      45.302  29.222  34.756  1.00  0.00     0.134 A 
ATOM     82  C   UNL A   1      43.713  27.762  35.794  1.00  0.00     0.134 A 
ATOM     83  F   UNL A   1      45.618  30.214  33.910  1.00  0.00    -0.206 F 
ATOM     84  C   UNL A   1      46.339  28.592  35.444  1.00  0.00     0.040 A 
ATOM     85  C   UNL A   1      44.739  27.145  36.511  1.00  0.00     0.040 A 
ATOM     86  F   UNL A   1      42.459  27.328  35.992  1.00  0.00    -0.206 F 
ATOM     87  C   UNL A   1      46.058  27.555  36.331  1.00  0.00     0.006 A 
ENDBRANCH  63  80
ENDBRANCH  37  38
ENDBRANCH  29  32
ENDBRANCH  27  28
ENDBRANCH  26  27
ENDBRANCH  25  26
ENDBRANCH   1  25
TORSDOF 16
ENDMDL
MODEL 3
REMARK VINA RESULT:     -11.2      2.769      7.819
REMARK SMILES Cc1n[nH]c(C)c1CC(=O)N1CC[C@H](C(=O)NCCCCCCNC(=O)c2ccc(-c3c4nc(c(-c5c(F)cccc5F)c5ccc([nH]5)c(-c5c(F)cccc5F)c5nc(c(-c6c(F)cccc6F)c6ccc3[nH]6)C=C5)C=C4)cc2)[C@H]1C
REMARK SMILES IDX 20 1 19 2 18 3 17 4 15 5 16 6 14 8 11 9 12 10 81 11 13 12
REMARK SMILES IDX 82 13 9 14 10 15 8 16 7 17 1 18 2 19 3 20 4 21 5 22 6 24
REMARK SMILES IDX 21 25 22 26 23 27 24 28 25 29 26 31 27 32 28 33 80 34 29 35
REMARK SMILES IDX 79 36 30 37 31 38 32 39 73 40 33 41 78 42 72 43 74 44 34 45
REMARK SMILES IDX 77 46 71 47 70 48 35 50 61 51 44 52 60 53 45 54 48 55 59 56
REMARK SMILES IDX 75 57 46 58 47 59 58 61 76 62 49 63 36 64 37 65 42 66 38 67
REMARK SMILES IDX 39 68 41 69 43 70 40 71 62 72 63 73 68 74 64 75 65 76 67 77
REMARK SMILES IDX 69 78 66 79 50 80 51 81 56 82 52 83 53 84 55 85 57 86 54 87
REMARK H PARENT 17 7 4 23 24 30 74 49 48 60
REMARK Flexibility Score: inf
ROOT
ATOM      1  C   UNL A   1      35.969  21.553  25.232  1.00  0.00     0.002 C 
ENDROOT
BRANCH   1   2
ATOM      2  C   UNL A   1      34.929  20.444  25.026  1.00  0.00     0.021 C 
BRANCH   2   3
ATOM      3  C   UNL A   1      33.491  20.865  25.333  1.00  0.00     0.116 C 
BRANCH   3   4
ATOM      4  N   UNL A   1      32.771  21.039  24.092  1.00  0.00    -0.356 N 
ATOM      5  C   UNL A   1      32.520  22.156  23.367  1.00  0.00     0.225 C 
ATOM      6  O   UNL A   1      31.665  22.051  22.482  1.00  0.00    -0.275 OA
ATOM      7  H   UNL A   1      32.402  20.210  23.710  1.00  0.00     0.163 HD
BRANCH   5   8
ATOM      8  C   UNL A   1      33.366  23.421  23.523  1.00  0.00     0.102 C 
ATOM      9  N   UNL A   1      32.019  25.323  24.035  1.00  0.00    -0.339 N 
ATOM     10  C   UNL A   1      31.946  25.096  22.598  1.00  0.00     0.120 C 
ATOM     11  C   UNL A   1      32.996  24.418  24.644  1.00  0.00     0.094 C 
ATOM     12  C   UNL A   1      33.206  24.306  22.273  1.00  0.00     0.037 C 
ATOM     13  C   UNL A   1      34.261  25.150  25.093  1.00  0.00     0.032 C 
BRANCH   9  14
ATOM     14  C   UNL A   1      31.014  26.029  24.674  1.00  0.00     0.227 C 
ATOM     15  O   UNL A   1      29.957  25.462  24.979  1.00  0.00    -0.275 OA
BRANCH  14  16
ATOM     16  C   UNL A   1      31.096  27.548  24.812  1.00  0.00     0.139 C 
BRANCH  16  17
ATOM     17  C   UNL A   1      30.945  28.401  23.597  1.00  0.00     0.005 A 
ATOM     18  C   UNL A   1      28.366  28.267  23.135  1.00  0.00     0.069 C 
ATOM     19  C   UNL A   1      29.755  28.731  22.886  1.00  0.00     0.063 A 
ATOM     20  N   UNL A   1      30.005  29.528  21.840  1.00  0.00    -0.181 NA
ATOM     21  N   UNL A   1      31.340  29.609  21.800  1.00  0.00    -0.282 N 
ATOM     22  C   UNL A   1      31.958  28.901  22.790  1.00  0.00     0.036 A 
ATOM     23  H   UNL A   1      31.830  30.129  21.122  1.00  0.00     0.190 HD
ATOM     24  C   UNL A   1      33.435  28.731  22.808  1.00  0.00     0.066 C 
ENDBRANCH  16  17
ENDBRANCH  14  16
ENDBRANCH   9  14
ENDBRANCH   5   8
ENDBRANCH   3   4
ENDBRANCH   2   3
ENDBRANCH   1   2
BRANCH   1  25
ATOM     25  C   UNL A   1      37.306  21.309  24.527  1.00  0.00     0.002 C 
BRANCH  25  26
ATOM     26  C   UNL A   1      38.073  20.078  25.019  1.00  0.00     0.021 C 
BRANCH  26  27
ATOM     27  C   UNL A   1      39.281  20.400  25.895  1.00  0.00     0.116 C 
BRANCH  27  28
ATOM     28  N   UNL A   1      40.220  19.286  25.944  1.00  0.00    -0.352 N 
ATOM     29  C   UNL A   1      41.585  19.302  26.089  1.00  0.00     0.251 C 
ATOM     30  H   UNL A   1      39.817  18.392  25.862  1.00  0.00     0.163 HD
ATOM     31  O   UNL A   1      42.245  18.289  25.869  1.00  0.00    -0.269 OA
BRANCH  29  32
ATOM     32  C   UNL A   1      42.265  20.550  26.490  1.00  0.00     0.039 A 
ATOM     33  C   UNL A   1      42.928  21.305  25.519  1.00  0.00     0.014 A 
ATOM     34  C   UNL A   1      42.240  20.978  27.820  1.00  0.00     0.014 A 
ATOM     35  C   UNL A   1      43.490  22.536  25.866  1.00  0.00     0.010 A 
ATOM     36  C   UNL A   1      42.743  22.234  28.151  1.00  0.00     0.010 A 
ATOM     37  C   UNL A   1      43.356  23.032  27.173  1.00  0.00    -0.014 A 
BRANCH  37  38
ATOM     38  C   UNL A   1      43.796  24.406  27.528  1.00  0.00     0.031 A 
ATOM     39  C   UNL A   1      42.789  25.452  27.914  1.00  0.00     0.074 A 
ATOM     40  C   UNL A   1      45.099  24.731  27.411  1.00  0.00     0.049 A 
ATOM     41  N   UNL A   1      42.971  26.728  28.143  1.00  0.00    -0.248 NA
ATOM     42  C   UNL A   1      41.390  25.014  28.041  1.00  0.00     0.031 C 
ATOM     43  C   UNL A   1      46.169  23.813  27.012  1.00  0.00     0.029 A 
ATOM     44  N   UNL A   1      45.745  25.929  27.594  1.00  0.00    -0.354 N 
ATOM     45  C   UNL A   1      41.714  27.247  28.422  1.00  0.00     0.074 A 
ATOM     46  C   UNL A   1      40.770  26.156  28.304  1.00  0.00     0.031 C 
ATOM     47  C   UNL A   1      47.336  24.477  26.992  1.00  0.00     0.029 A 
ATOM     48  C   UNL A   1      47.092  25.876  27.324  1.00  0.00     0.049 A 
ATOM     49  H   UNL A   1      45.287  26.748  27.890  1.00  0.00     0.167 HD
ATOM     50  C   UNL A   1      41.381  28.515  28.758  1.00  0.00     0.037 A 
ATOM     51  C   UNL A   1      48.022  26.850  27.319  1.00  0.00     0.037 A 
ATOM     52  C   UNL A   1      42.327  29.592  28.898  1.00  0.00     0.049 A 
ATOM     53  C   UNL A   1      47.611  28.258  27.658  1.00  0.00     0.074 A 
ATOM     54  C   UNL A   1      42.093  30.893  29.310  1.00  0.00     0.029 A 
ATOM     55  N   UNL A   1      43.682  29.499  28.618  1.00  0.00    -0.354 N 
ATOM     56  N   UNL A   1      46.431  28.716  28.001  1.00  0.00    -0.248 NA
ATOM     57  C   UNL A   1      48.660  29.286  27.606  1.00  0.00     0.031 C 
ATOM     58  C   UNL A   1      43.293  31.604  29.218  1.00  0.00     0.029 A 
ATOM     59  C   UNL A   1      44.287  30.731  28.809  1.00  0.00     0.049 A 
ATOM     60  H   UNL A   1      44.144  28.680  28.328  1.00  0.00     0.167 HD
ATOM     61  C   UNL A   1      46.605  30.075  28.235  1.00  0.00     0.074 A 
ATOM     62  C   UNL A   1      48.006  30.363  28.014  1.00  0.00     0.031 C 
ATOM     63  C   UNL A   1      45.685  31.002  28.595  1.00  0.00     0.037 A 
BRANCH  50  64
ATOM     64  C   UNL A   1      39.933  28.828  28.996  1.00  0.00     0.057 A 
ATOM     65  C   UNL A   1      39.070  29.181  27.951  1.00  0.00     0.134 A 
ATOM     66  C   UNL A   1      39.376  28.682  30.273  1.00  0.00     0.134 A 
ATOM     67  F   UNL A   1      39.541  29.345  26.705  1.00  0.00    -0.206 F 
ATOM     68  C   UNL A   1      37.707  29.388  28.170  1.00  0.00     0.040 A 
ATOM     69  C   UNL A   1      38.010  28.861  30.499  1.00  0.00     0.040 A 
ATOM     70  F   UNL A   1      40.146  28.338  31.316  1.00  0.00    -0.206 F 
ATOM     71  C   UNL A   1      37.172  29.215  29.445  1.00  0.00     0.006 A 
ENDBRANCH  50  64
BRANCH  51  72
ATOM     72  C   UNL A   1      49.434  26.549  26.965  1.00  0.00     0.057 A 
ATOM     73  C   UNL A   1      49.859  26.551  25.631  1.00  0.00     0.134 A 
ATOM     74  C   UNL A   1      50.377  26.200  27.940  1.00  0.00     0.134 A 
ATOM     75  F   UNL A   1      48.999  26.857  24.648  1.00  0.00    -0.206 F 
ATOM     76  C   UNL A   1      51.158  26.179  25.275  1.00  0.00     0.040 A 
ATOM     77  C   UNL A   1      51.688  25.857  27.601  1.00  0.00     0.040 A 
ATOM     78  F   UNL A   1      50.038  26.183  29.237  1.00  0.00    -0.206 F 
ATOM     79  C   UNL A   1      52.076  25.833  26.263  1.00  0.00     0.006 A 
ENDBRANCH  51  72
BRANCH  63  80
ATOM     80  C   UNL A   1      46.170  32.408  28.807  1.00  0.00     0.057 A 
ATOM     81  C   UNL A   1      46.655  32.844  30.047  1.00  0.00     0.134 A 
ATOM     82  C   UNL A   1      46.188  33.324  27.747  1.00  0.00     0.134 A 
ATOM     83  F   UNL A   1      46.652  32.021  31.106  1.00  0.00    -0.206 F 
ATOM     84  C   UNL A   1      47.116  34.148  30.230  1.00  0.00     0.040 A 
ATOM     85  C   UNL A   1      46.676  34.620  27.912  1.00  0.00     0.040 A 
ATOM     86  F   UNL A   1      45.746  32.968  26.531  1.00  0.00    -0.206 F 
ATOM     87  C   UNL A   1      47.135  35.038  29.159  1.00  0.00     0.006 A 
ENDBRANCH  63  80
ENDBRANCH  37  38
ENDBRANCH  29  32
ENDBRANCH  27  28
ENDBRANCH  26  27
ENDBRANCH  25  26
ENDBRANCH   1  25
TORSDOF 16
ENDMDL
