MODEL 1
REMARK VINA RESULT:     -11.1      0.000      0.000
REMARK SMILES C[C@@H]1CN(C(=O)C[NH+]2CCC(CC(=O)NCCCCCCNC(=O)c3ccc(-c4c5nc(c(-c6c(F)cccc6F)c6ccc([nH]6)c(-c6c(F)cccc6F)c6nc(c(-c7c(F)cccc7F)c7ccc4[nH]7)C=C6)C=C5)cc3)CC2)C[C@@H](C)O1
REMARK SMILES IDX 18 1 17 2 16 3 15 4 13 5 14 6 12 8 11 9 8 10 9 11 80 12
REMARK SMILES IDX 10 14 79 15 7 16 5 17 1 18 2 19 3 20 84 21 4 22 82 23 81 24
REMARK SMILES IDX 83 25 6 26 19 27 20 28 21 29 22 30 23 31 24 33 25 34 26 35
REMARK SMILES IDX 78 36 27 37 77 38 28 39 29 40 30 41 71 42 31 43 76 44 70 45
REMARK SMILES IDX 72 46 32 47 75 48 69 49 68 50 33 52 59 53 42 54 58 55 43 56
REMARK SMILES IDX 46 57 57 58 73 59 44 60 45 61 56 63 74 64 47 65 34 66 35 67
REMARK SMILES IDX 40 68 36 69 37 70 39 71 41 72 38 73 60 74 61 75 66 76 62 77
REMARK SMILES IDX 63 78 65 79 67 80 64 81 48 82 49 83 54 84 50 85 51 86 53 87
REMARK SMILES IDX 55 88 52 89
REMARK H PARENT 15 7 8 13 22 32 72 51 46 62
REMARK Flexibility Score: inf
ROOT
ATOM      1  C   UNL A   1      35.331  33.788  28.847  1.00  0.00     0.002 C 
ENDROOT
BRANCH   1   2
ATOM      2  C   UNL A   1      35.900  32.639  28.012  1.00  0.00     0.021 C 
BRANCH   2   3
ATOM      3  C   UNL A   1      35.127  31.321  28.136  1.00  0.00     0.116 C 
BRANCH   3   4
ATOM      4  N   UNL A   1      33.755  31.489  27.686  1.00  0.00    -0.356 N 
ATOM      5  C   UNL A   1      32.861  30.587  27.193  1.00  0.00     0.220 C 
ATOM      6  O   UNL A   1      31.790  31.012  26.755  1.00  0.00    -0.275 OA
ATOM      7  H   UNL A   1      33.413  32.411  27.749  1.00  0.00     0.163 HD
BRANCH   5   8
ATOM      8  C   UNL A   1      33.157  29.098  27.195  1.00  0.00     0.104 C 
BRANCH   8   9
ATOM      9  C   UNL A   1      32.432  28.304  26.087  1.00  0.00     0.009 C 
ATOM     10  N   UNL A   1      32.130  25.464  25.192  1.00  0.00    -0.327 N 
ATOM     11  C   UNL A   1      30.991  26.186  25.789  1.00  0.00     0.262 C 
ATOM     12  C   UNL A   1      32.902  26.413  24.394  1.00  0.00     0.262 C 
ATOM     13  H   UNL A   1      31.820  24.724  24.561  1.00  0.00     0.348 HD
ATOM     14  C   UNL A   1      31.405  27.340  26.714  1.00  0.00     0.066 C 
ATOM     15  C   UNL A   1      33.448  27.578  25.201  1.00  0.00     0.066 C 
BRANCH  10  16
ATOM     16  C   UNL A   1      32.904  24.760  26.243  1.00  0.00     0.363 C 
BRANCH  16  17
ATOM     17  C   UNL A   1      32.569  23.274  26.433  1.00  0.00     0.277 C 
ATOM     18  C   UNL A   1      35.781  21.509  25.974  1.00  0.00     0.040 C 
ATOM     19  C   UNL A   1      34.981  21.393  24.678  1.00  0.00     0.135 C 
ATOM     20  C   UNL A   1      33.974  22.547  24.474  1.00  0.00     0.151 C 
ATOM     21  O   UNL A   1      34.328  20.110  24.593  1.00  0.00    -0.372 OA
ATOM     22  N   UNL A   1      32.857  22.402  25.403  1.00  0.00    -0.333 N 
ATOM     23  C   UNL A   1      33.222  19.960  25.507  1.00  0.00     0.135 C 
ATOM     24  C   UNL A   1      32.203  21.097  25.333  1.00  0.00     0.151 C 
ATOM     25  C   UNL A   1      32.575  18.611  25.221  1.00  0.00     0.040 C 
ATOM     26  O   UNL A   1      31.967  22.903  27.447  1.00  0.00    -0.268 OA
ENDBRANCH  16  17
ENDBRANCH  10  16
ENDBRANCH   8   9
ENDBRANCH   5   8
ENDBRANCH   3   4
ENDBRANCH   2   3
ENDBRANCH   1   2
BRANCH   1  27
ATOM     27  C   UNL A   1      34.791  34.967  28.038  1.00  0.00     0.002 C 
BRANCH  27  28
ATOM     28  C   UNL A   1      33.802  35.878  28.774  1.00  0.00     0.021 C 
BRANCH  28  29
ATOM     29  C   UNL A   1      32.810  35.160  29.688  1.00  0.00     0.116 C 
BRANCH  29  30
ATOM     30  N   UNL A   1      32.381  35.998  30.797  1.00  0.00    -0.352 N 
ATOM     31  C   UNL A   1      32.797  36.004  32.105  1.00  0.00     0.251 C 
ATOM     32  H   UNL A   1      31.687  36.661  30.577  1.00  0.00     0.163 HD
ATOM     33  O   UNL A   1      32.175  36.642  32.948  1.00  0.00    -0.269 OA
BRANCH  31  34
ATOM     34  C   UNL A   1      33.992  35.232  32.505  1.00  0.00     0.039 A 
ATOM     35  C   UNL A   1      33.819  33.973  33.088  1.00  0.00     0.014 A 
ATOM     36  C   UNL A   1      35.276  35.760  32.336  1.00  0.00     0.014 A 
ATOM     37  C   UNL A   1      34.936  33.220  33.453  1.00  0.00     0.010 A 
ATOM     38  C   UNL A   1      36.390  34.982  32.642  1.00  0.00     0.010 A 
ATOM     39  C   UNL A   1      36.230  33.708  33.208  1.00  0.00    -0.014 A 
BRANCH  39  40
ATOM     40  C   UNL A   1      37.430  32.901  33.541  1.00  0.00     0.031 A 
ATOM     41  C   UNL A   1      38.204  33.175  34.799  1.00  0.00     0.074 A 
ATOM     42  C   UNL A   1      37.869  31.972  32.670  1.00  0.00     0.049 A 
ATOM     43  N   UNL A   1      39.311  32.623  35.227  1.00  0.00    -0.248 NA
ATOM     44  C   UNL A   1      37.681  34.234  35.676  1.00  0.00     0.031 C 
ATOM     45  C   UNL A   1      37.243  31.658  31.385  1.00  0.00     0.029 A 
ATOM     46  N   UNL A   1      38.956  31.138  32.725  1.00  0.00    -0.354 N 
ATOM     47  C   UNL A   1      39.628  33.281  36.408  1.00  0.00     0.074 A 
ATOM     48  C   UNL A   1      38.623  34.304  36.604  1.00  0.00     0.031 C 
ATOM     49  C   UNL A   1      37.952  30.694  30.776  1.00  0.00     0.029 A 
ATOM     50  C   UNL A   1      39.095  30.344  31.615  1.00  0.00     0.049 A 
ATOM     51  H   UNL A   1      39.577  31.112  33.488  1.00  0.00     0.167 HD
ATOM     52  C   UNL A   1      40.653  33.043  37.261  1.00  0.00     0.037 A 
ATOM     53  C   UNL A   1      40.041  29.439  31.303  1.00  0.00     0.037 A 
ATOM     54  C   UNL A   1      41.634  32.006  37.077  1.00  0.00     0.049 A 
ATOM     55  C   UNL A   1      41.150  29.164  32.278  1.00  0.00     0.074 A 
ATOM     56  C   UNL A   1      42.657  31.625  37.927  1.00  0.00     0.029 A 
ATOM     57  N   UNL A   1      41.718  31.189  35.958  1.00  0.00    -0.354 N 
ATOM     58  N   UNL A   1      41.389  29.731  33.435  1.00  0.00    -0.248 NA
ATOM     59  C   UNL A   1      42.112  28.117  31.910  1.00  0.00     0.031 C 
ATOM     60  C   UNL A   1      43.386  30.604  37.304  1.00  0.00     0.029 A 
ATOM     61  C   UNL A   1      42.790  30.321  36.085  1.00  0.00     0.049 A 
ATOM     62  H   UNL A   1      41.106  31.221  35.189  1.00  0.00     0.167 HD
ATOM     63  C   UNL A   1      42.517  29.102  33.942  1.00  0.00     0.074 A 
ATOM     64  C   UNL A   1      42.907  28.098  32.971  1.00  0.00     0.031 C 
ATOM     65  C   UNL A   1      43.171  29.333  35.106  1.00  0.00     0.037 A 
BRANCH  52  66
ATOM     66  C   UNL A   1      40.762  33.930  38.466  1.00  0.00     0.057 A 
ATOM     67  C   UNL A   1      41.574  35.073  38.475  1.00  0.00     0.134 A 
ATOM     68  C   UNL A   1      40.045  33.640  39.634  1.00  0.00     0.134 A 
ATOM     69  F   UNL A   1      42.297  35.401  37.393  1.00  0.00    -0.206 F 
ATOM     70  C   UNL A   1      41.699  35.872  39.613  1.00  0.00     0.040 A 
ATOM     71  C   UNL A   1      40.141  34.448  40.769  1.00  0.00     0.040 A 
ATOM     72  F   UNL A   1      39.243  32.567  39.693  1.00  0.00    -0.206 F 
ATOM     73  C   UNL A   1      40.978  35.562  40.764  1.00  0.00     0.006 A 
ENDBRANCH  52  66
BRANCH  53  74
ATOM     74  C   UNL A   1      39.955  28.713  30.012  1.00  0.00     0.057 A 
ATOM     75  C   UNL A   1      40.634  29.174  28.878  1.00  0.00     0.134 A 
ATOM     76  C   UNL A   1      39.228  27.524  29.892  1.00  0.00     0.134 A 
ATOM     77  F   UNL A   1      41.335  30.316  28.930  1.00  0.00    -0.206 F 
ATOM     78  C   UNL A   1      40.587  28.481  27.668  1.00  0.00     0.040 A 
ATOM     79  C   UNL A   1      39.189  26.809  28.694  1.00  0.00     0.040 A 
ATOM     80  F   UNL A   1      38.565  27.026  30.947  1.00  0.00    -0.206 F 
ATOM     81  C   UNL A   1      39.869  27.290  27.577  1.00  0.00     0.006 A 
ENDBRANCH  53  74
BRANCH  65  82
ATOM     82  C   UNL A   1      44.369  28.480  35.400  1.00  0.00     0.057 A 
ATOM     83  C   UNL A   1      45.665  28.892  35.069  1.00  0.00     0.134 A 
ATOM     84  C   UNL A   1      44.227  27.252  36.057  1.00  0.00     0.134 A 
ATOM     85  F   UNL A   1      45.867  30.052  34.426  1.00  0.00    -0.206 F 
ATOM     86  C   UNL A   1      46.778  28.104  35.365  1.00  0.00     0.040 A 
ATOM     87  C   UNL A   1      45.334  26.466  36.379  1.00  0.00     0.040 A 
ATOM     88  F   UNL A   1      43.012  26.803  36.408  1.00  0.00    -0.206 F 
ATOM     89  C   UNL A   1      46.614  26.889  36.029  1.00  0.00     0.006 A 
ENDBRANCH  65  82
ENDBRANCH  39  40
ENDBRANCH  31  34
ENDBRANCH  29  30
ENDBRANCH  28  29
ENDBRANCH  27  28
ENDBRANCH   1  27
TORSDOF 16
ENDMDL
MODEL 2
REMARK VINA RESULT:     -11.1      6.580     12.332
REMARK SMILES C[C@@H]1CN(C(=O)C[NH+]2CCC(CC(=O)NCCCCCCNC(=O)c3ccc(-c4c5nc(c(-c6c(F)cccc6F)c6ccc([nH]6)c(-c6c(F)cccc6F)c6nc(c(-c7c(F)cccc7F)c7ccc4[nH]7)C=C6)C=C5)cc3)CC2)C[C@@H](C)O1
REMARK SMILES IDX 18 1 17 2 16 3 15 4 13 5 14 6 12 8 11 9 8 10 9 11 80 12
REMARK SMILES IDX 10 14 79 15 7 16 5 17 1 18 2 19 3 20 84 21 4 22 82 23 81 24
REMARK SMILES IDX 83 25 6 26 19 27 20 28 21 29 22 30 23 31 24 33 25 34 26 35
REMARK SMILES IDX 78 36 27 37 77 38 28 39 29 40 30 41 71 42 31 43 76 44 70 45
REMARK SMILES IDX 72 46 32 47 75 48 69 49 68 50 33 52 59 53 42 54 58 55 43 56
REMARK SMILES IDX 46 57 57 58 73 59 44 60 45 61 56 63 74 64 47 65 34 66 35 67
REMARK SMILES IDX 40 68 36 69 37 70 39 71 41 72 38 73 60 74 61 75 66 76 62 77
REMARK SMILES IDX 63 78 65 79 67 80 64 81 48 82 49 83 54 84 50 85 51 86 53 87
REMARK SMILES IDX 55 88 52 89
REMARK H PARENT 15 7 8 13 22 32 72 51 46 62
REMARK Flexibility Score: inf
ROOT
ATOM      1  C   UNL A   1      41.908  21.348  26.947  1.00  0.00     0.002 C 
ENDROOT
BRANCH   1   2
ATOM      2  C   UNL A   1      41.059  22.381  27.691  1.00  0.00     0.021 C 
BRANCH   2   3
ATOM      3  C   UNL A   1      39.888  22.944  26.877  1.00  0.00     0.116 C 
BRANCH   3   4
ATOM      4  N   UNL A   1      39.280  21.901  26.067  1.00  0.00    -0.356 N 
ATOM      5  C   UNL A   1      38.067  21.845  25.448  1.00  0.00     0.220 C 
ATOM      6  O   UNL A   1      37.732  20.780  24.925  1.00  0.00    -0.275 OA
ATOM      7  H   UNL A   1      39.839  21.098  25.946  1.00  0.00     0.163 HD
BRANCH   5   8
ATOM      8  C   UNL A   1      37.156  23.057  25.383  1.00  0.00     0.104 C 
BRANCH   8   9
ATOM      9  C   UNL A   1      35.715  22.746  24.924  1.00  0.00     0.009 C 
ATOM     10  N   UNL A   1      33.301  24.221  23.950  1.00  0.00    -0.327 N 
ATOM     11  C   UNL A   1      34.064  23.349  23.038  1.00  0.00     0.262 C 
ATOM     12  C   UNL A   1      33.309  23.610  25.277  1.00  0.00     0.262 C 
ATOM     13  H   UNL A   1      32.325  24.305  23.665  1.00  0.00     0.348 HD
ATOM     14  C   UNL A   1      35.530  23.153  23.449  1.00  0.00     0.066 C 
ATOM     15  C   UNL A   1      34.703  23.427  25.850  1.00  0.00     0.066 C 
BRANCH  10  16
ATOM     16  C   UNL A   1      33.827  25.607  23.900  1.00  0.00     0.363 C 
BRANCH  16  17
ATOM     17  C   UNL A   1      33.050  26.581  23.003  1.00  0.00     0.277 C 
ATOM     18  C   UNL A   1      32.731  29.668  25.005  1.00  0.00     0.040 C 
ATOM     19  C   UNL A   1      31.413  28.901  25.096  1.00  0.00     0.135 C 
ATOM     20  C   UNL A   1      31.575  27.379  24.882  1.00  0.00     0.151 C 
ATOM     21  O   UNL A   1      30.437  29.453  24.191  1.00  0.00    -0.372 OA
ATOM     22  N   UNL A   1      31.863  27.103  23.478  1.00  0.00    -0.333 N 
ATOM     23  C   UNL A   1      30.713  29.182  22.802  1.00  0.00     0.135 C 
ATOM     24  C   UNL A   1      30.885  27.676  22.556  1.00  0.00     0.151 C 
ATOM     25  C   UNL A   1      29.546  29.729  21.989  1.00  0.00     0.040 C 
ATOM     26  O   UNL A   1      33.441  26.804  21.852  1.00  0.00    -0.268 OA
ENDBRANCH  16  17
ENDBRANCH  10  16
ENDBRANCH   8   9
ENDBRANCH   5   8
ENDBRANCH   3   4
ENDBRANCH   2   3
ENDBRANCH   1   2
BRANCH   1  27
ATOM     27  C   UNL A   1      42.019  19.988  27.637  1.00  0.00     0.002 C 
BRANCH  27  28
ATOM     28  C   UNL A   1      42.603  18.858  26.782  1.00  0.00     0.021 C 
BRANCH  28  29
ATOM     29  C   UNL A   1      42.700  19.155  25.286  1.00  0.00     0.116 C 
BRANCH  29  30
ATOM     30  N   UNL A   1      43.984  18.758  24.731  1.00  0.00    -0.352 N 
ATOM     31  C   UNL A   1      45.070  19.527  24.394  1.00  0.00     0.251 C 
ATOM     32  H   UNL A   1      44.092  17.792  24.572  1.00  0.00     0.163 HD
ATOM     33  O   UNL A   1      45.992  19.043  23.745  1.00  0.00    -0.269 OA
BRANCH  31  34
ATOM     34  C   UNL A   1      45.128  20.946  24.802  1.00  0.00     0.039 A 
ATOM     35  C   UNL A   1      45.466  21.256  26.122  1.00  0.00     0.014 A 
ATOM     36  C   UNL A   1      44.821  21.965  23.895  1.00  0.00     0.014 A 
ATOM     37  C   UNL A   1      45.548  22.591  26.521  1.00  0.00     0.010 A 
ATOM     38  C   UNL A   1      44.964  23.297  24.276  1.00  0.00     0.010 A 
ATOM     39  C   UNL A   1      45.323  23.622  25.594  1.00  0.00    -0.014 A 
BRANCH  39  40
ATOM     40  C   UNL A   1      45.456  25.047  25.984  1.00  0.00     0.031 A 
ATOM     41  C   UNL A   1      46.797  25.723  25.945  1.00  0.00     0.074 A 
ATOM     42  C   UNL A   1      44.382  25.711  26.451  1.00  0.00     0.049 A 
ATOM     43  N   UNL A   1      47.124  26.937  26.309  1.00  0.00    -0.248 NA
ATOM     44  C   UNL A   1      47.927  24.914  25.462  1.00  0.00     0.031 C 
ATOM     45  C   UNL A   1      43.039  25.147  26.600  1.00  0.00     0.029 A 
ATOM     46  N   UNL A   1      44.255  26.999  26.906  1.00  0.00    -0.354 N 
ATOM     47  C   UNL A   1      48.496  27.030  26.121  1.00  0.00     0.074 A 
ATOM     48  C   UNL A   1      48.947  25.736  25.655  1.00  0.00     0.031 C 
ATOM     49  C   UNL A   1      42.223  26.086  27.104  1.00  0.00     0.029 A 
ATOM     50  C   UNL A   1      42.989  27.306  27.338  1.00  0.00     0.049 A 
ATOM     51  H   UNL A   1      45.001  27.641  26.921  1.00  0.00     0.167 HD
ATOM     52  C   UNL A   1      49.305  28.101  26.303  1.00  0.00     0.037 A 
ATOM     53  C   UNL A   1      42.501  28.442  27.871  1.00  0.00     0.037 A 
ATOM     54  C   UNL A   1      48.848  29.395  26.739  1.00  0.00     0.049 A 
ATOM     55  C   UNL A   1      43.406  29.630  28.031  1.00  0.00     0.074 A 
ATOM     56  C   UNL A   1      49.571  30.568  26.867  1.00  0.00     0.029 A 
ATOM     57  N   UNL A   1      47.547  29.682  27.127  1.00  0.00    -0.354 N 
ATOM     58  N   UNL A   1      44.684  29.734  27.765  1.00  0.00    -0.248 NA
ATOM     59  C   UNL A   1      42.798  30.861  28.554  1.00  0.00     0.031 C 
ATOM     60  C   UNL A   1      48.716  31.555  27.372  1.00  0.00     0.029 A 
ATOM     61  C   UNL A   1      47.451  31.008  27.518  1.00  0.00     0.049 A 
ATOM     62  H   UNL A   1      46.802  29.039  27.124  1.00  0.00     0.167 HD
ATOM     63  C   UNL A   1      45.033  31.042  28.072  1.00  0.00     0.074 A 
ATOM     64  C   UNL A   1      43.825  31.699  28.530  1.00  0.00     0.031 C 
ATOM     65  C   UNL A   1      46.243  31.645  27.981  1.00  0.00     0.037 A 
BRANCH  52  66
ATOM     66  C   UNL A   1      50.768  27.909  26.034  1.00  0.00     0.057 A 
ATOM     67  C   UNL A   1      51.675  27.592  27.056  1.00  0.00     0.134 A 
ATOM     68  C   UNL A   1      51.280  28.041  24.737  1.00  0.00     0.134 A 
ATOM     69  F   UNL A   1      51.252  27.463  28.323  1.00  0.00    -0.206 F 
ATOM     70  C   UNL A   1      53.041  27.452  26.804  1.00  0.00     0.040 A 
ATOM     71  C   UNL A   1      52.641  27.875  24.468  1.00  0.00     0.040 A 
ATOM     72  F   UNL A   1      50.469  28.334  23.711  1.00  0.00    -0.206 F 
ATOM     73  C   UNL A   1      53.527  27.590  25.505  1.00  0.00     0.006 A 
ENDBRANCH  52  66
BRANCH  53  74
ATOM     74  C   UNL A   1      41.073  28.505  28.265  1.00  0.00     0.057 A 
ATOM     75  C   UNL A   1      40.665  28.151  29.557  1.00  0.00     0.134 A 
ATOM     76  C   UNL A   1      40.091  28.956  27.377  1.00  0.00     0.134 A 
ATOM     77  F   UNL A   1      41.559  27.698  30.446  1.00  0.00    -0.206 F 
ATOM     78  C   UNL A   1      39.328  28.238  29.948  1.00  0.00     0.040 A 
ATOM     79  C   UNL A   1      38.754  29.069  27.761  1.00  0.00     0.040 A 
ATOM     80  F   UNL A   1      40.423  29.320  26.129  1.00  0.00    -0.206 F 
ATOM     81  C   UNL A   1      38.370  28.706  29.050  1.00  0.00     0.006 A 
ENDBRANCH  53  74
BRANCH  65  82
ATOM     82  C   UNL A   1      46.320  33.090  28.375  1.00  0.00     0.057 A 
ATOM     83  C   UNL A   1      46.655  33.481  29.677  1.00  0.00     0.134 A 
ATOM     84  C   UNL A   1      46.095  34.101  27.432  1.00  0.00     0.134 A 
ATOM     85  F   UNL A   1      46.869  32.562  30.629  1.00  0.00    -0.206 F 
ATOM     86  C   UNL A   1      46.746  34.828  30.032  1.00  0.00     0.040 A 
ATOM     87  C   UNL A   1      46.206  35.450  27.769  1.00  0.00     0.040 A 
ATOM     88  F   UNL A   1      45.777  33.792  26.165  1.00  0.00    -0.206 F 
ATOM     89  C   UNL A   1      46.528  35.817  29.074  1.00  0.00     0.006 A 
ENDBRANCH  65  82
ENDBRANCH  39  40
ENDBRANCH  31  34
ENDBRANCH  29  30
ENDBRANCH  28  29
ENDBRANCH  27  28
ENDBRANCH   1  27
TORSDOF 16
ENDMDL
MODEL 3
REMARK VINA RESULT:     -11.0      6.457     12.044
REMARK SMILES C[C@@H]1CN(C(=O)C[NH+]2CCC(CC(=O)NCCCCCCNC(=O)c3ccc(-c4c5nc(c(-c6c(F)cccc6F)c6ccc([nH]6)c(-c6c(F)cccc6F)c6nc(c(-c7c(F)cccc7F)c7ccc4[nH]7)C=C6)C=C5)cc3)CC2)C[C@@H](C)O1
REMARK SMILES IDX 18 1 17 2 16 3 15 4 13 5 14 6 12 8 11 9 8 10 9 11 80 12
REMARK SMILES IDX 10 14 79 15 7 16 5 17 1 18 2 19 3 20 84 21 4 22 82 23 81 24
REMARK SMILES IDX 83 25 6 26 19 27 20 28 21 29 22 30 23 31 24 33 25 34 26 35
REMARK SMILES IDX 78 36 27 37 77 38 28 39 29 40 30 41 71 42 31 43 76 44 70 45
REMARK SMILES IDX 72 46 32 47 75 48 69 49 68 50 33 52 59 53 42 54 58 55 43 56
REMARK SMILES IDX 46 57 57 58 73 59 44 60 45 61 56 63 74 64 47 65 34 66 35 67
REMARK SMILES IDX 40 68 36 69 37 70 39 71 41 72 38 73 60 74 61 75 66 76 62 77
REMARK SMILES IDX 63 78 65 79 67 80 64 81 48 82 49 83 54 84 50 85 51 86 53 87
REMARK SMILES IDX 55 88 52 89
REMARK H PARENT 15 7 8 13 22 32 72 51 46 62
REMARK Flexibility Score: inf
ROOT
ATOM      1  C   UNL A   1      41.570  21.742  26.762  1.00  0.00     0.002 C 
ENDROOT
BRANCH   1   2
ATOM      2  C   UNL A   1      40.153  22.264  27.009  1.00  0.00     0.021 C 
BRANCH   2   3
ATOM      3  C   UNL A   1      39.122  21.817  25.966  1.00  0.00     0.116 C 
BRANCH   3   4
ATOM      4  N   UNL A   1      38.189  22.895  25.678  1.00  0.00    -0.356 N 
ATOM      5  C   UNL A   1      37.031  22.903  24.959  1.00  0.00     0.220 C 
ATOM      6  O   UNL A   1      36.485  23.989  24.752  1.00  0.00    -0.275 OA
ATOM      7  H   UNL A   1      38.434  23.765  26.068  1.00  0.00     0.163 HD
BRANCH   5   8
ATOM      8  C   UNL A   1      36.413  21.618  24.440  1.00  0.00     0.104 C 
BRANCH   8   9
ATOM      9  C   UNL A   1      35.465  20.919  25.438  1.00  0.00     0.009 C 
ATOM     10  N   UNL A   1      32.658  21.197  26.439  1.00  0.00    -0.327 N 
ATOM     11  C   UNL A   1      33.041  20.052  25.591  1.00  0.00     0.262 C 
ATOM     12  C   UNL A   1      33.788  21.518  27.306  1.00  0.00     0.262 C 
ATOM     13  H   UNL A   1      31.869  20.970  27.045  1.00  0.00     0.348 HD
ATOM     14  C   UNL A   1      34.254  20.326  24.691  1.00  0.00     0.066 C 
ATOM     15  C   UNL A   1      35.048  21.891  26.546  1.00  0.00     0.066 C 
BRANCH  10  16
ATOM     16  C   UNL A   1      32.176  22.322  25.600  1.00  0.00     0.363 C 
BRANCH  16  17
ATOM     17  C   UNL A   1      31.802  23.603  26.358  1.00  0.00     0.277 C 
ATOM     18  C   UNL A   1      30.071  25.709  23.867  1.00  0.00     0.040 C 
ATOM     19  C   UNL A   1      31.510  26.206  23.996  1.00  0.00     0.135 C 
ATOM     20  C   UNL A   1      32.495  25.111  24.464  1.00  0.00     0.151 C 
ATOM     21  O   UNL A   1      31.576  27.366  24.848  1.00  0.00    -0.372 OA
ATOM     22  N   UNL A   1      32.268  24.809  25.874  1.00  0.00    -0.333 N 
ATOM     23  C   UNL A   1      31.355  27.074  26.244  1.00  0.00     0.135 C 
ATOM     24  C   UNL A   1      32.317  25.985  26.740  1.00  0.00     0.151 C 
ATOM     25  C   UNL A   1      31.565  28.370  27.019  1.00  0.00     0.040 C 
ATOM     26  O   UNL A   1      31.183  23.529  27.425  1.00  0.00    -0.268 OA
ENDBRANCH  16  17
ENDBRANCH  10  16
ENDBRANCH   8   9
ENDBRANCH   5   8
ENDBRANCH   3   4
ENDBRANCH   2   3
ENDBRANCH   1   2
BRANCH   1  27
ATOM     27  C   UNL A   1      41.977  20.549  27.628  1.00  0.00     0.002 C 
BRANCH  27  28
ATOM     28  C   UNL A   1      42.421  19.297  26.863  1.00  0.00     0.021 C 
BRANCH  28  29
ATOM     29  C   UNL A   1      42.435  19.433  25.342  1.00  0.00     0.116 C 
BRANCH  29  30
ATOM     30  N   UNL A   1      43.664  18.922  24.757  1.00  0.00    -0.352 N 
ATOM     31  C   UNL A   1      44.810  19.589  24.400  1.00  0.00     0.251 C 
ATOM     32  H   UNL A   1      43.678  17.951  24.591  1.00  0.00     0.163 HD
ATOM     33  O   UNL A   1      45.669  19.026  23.729  1.00  0.00    -0.269 OA
BRANCH  31  34
ATOM     34  C   UNL A   1      45.008  20.994  24.814  1.00  0.00     0.039 A 
ATOM     35  C   UNL A   1      44.748  22.013  23.892  1.00  0.00     0.014 A 
ATOM     36  C   UNL A   1      45.478  21.305  26.094  1.00  0.00     0.014 A 
ATOM     37  C   UNL A   1      44.908  23.347  24.272  1.00  0.00     0.010 A 
ATOM     38  C   UNL A   1      45.576  22.636  26.491  1.00  0.00     0.010 A 
ATOM     39  C   UNL A   1      45.299  23.668  25.582  1.00  0.00    -0.014 A 
BRANCH  39  40
ATOM     40  C   UNL A   1      45.424  25.081  26.020  1.00  0.00     0.031 A 
ATOM     41  C   UNL A   1      46.762  25.764  26.002  1.00  0.00     0.074 A 
ATOM     42  C   UNL A   1      44.347  25.723  26.509  1.00  0.00     0.049 A 
ATOM     43  N   UNL A   1      47.083  26.967  26.406  1.00  0.00    -0.248 NA
ATOM     44  C   UNL A   1      47.896  24.978  25.491  1.00  0.00     0.031 C 
ATOM     45  C   UNL A   1      43.008  25.147  26.640  1.00  0.00     0.029 A 
ATOM     46  N   UNL A   1      44.214  26.994  27.007  1.00  0.00    -0.354 N 
ATOM     47  C   UNL A   1      48.455  27.073  26.221  1.00  0.00     0.074 A 
ATOM     48  C   UNL A   1      48.912  25.799  25.712  1.00  0.00     0.031 C 
ATOM     49  C   UNL A   1      42.187  26.064  27.176  1.00  0.00     0.029 A 
ATOM     50  C   UNL A   1      42.947  27.280  27.449  1.00  0.00     0.049 A 
ATOM     51  H   UNL A   1      44.957  27.639  27.042  1.00  0.00     0.167 HD
ATOM     52  C   UNL A   1      49.258  28.143  26.437  1.00  0.00     0.037 A 
ATOM     53  C   UNL A   1      42.453  28.395  28.020  1.00  0.00     0.037 A 
ATOM     54  C   UNL A   1      48.794  29.418  26.916  1.00  0.00     0.049 A 
ATOM     55  C   UNL A   1      43.352  29.582  28.219  1.00  0.00     0.074 A 
ATOM     56  C   UNL A   1      49.511  30.590  27.083  1.00  0.00     0.029 A 
ATOM     57  N   UNL A   1      47.492  29.686  27.314  1.00  0.00    -0.354 N 
ATOM     58  N   UNL A   1      44.630  29.702  27.956  1.00  0.00    -0.248 NA
ATOM     59  C   UNL A   1      42.738  30.791  28.783  1.00  0.00     0.031 C 
ATOM     60  C   UNL A   1      48.651  31.556  27.621  1.00  0.00     0.029 A 
ATOM     61  C   UNL A   1      47.389  30.997  27.749  1.00  0.00     0.049 A 
ATOM     62  H   UNL A   1      46.751  29.039  27.291  1.00  0.00     0.167 HD
ATOM     63  C   UNL A   1      44.972  31.000  28.305  1.00  0.00     0.074 A 
ATOM     64  C   UNL A   1      43.760  31.635  28.786  1.00  0.00     0.031 C 
ATOM     65  C   UNL A   1      46.179  31.612  28.234  1.00  0.00     0.037 A 
BRANCH  52  66
ATOM     66  C   UNL A   1      50.722  27.967  26.162  1.00  0.00     0.057 A 
ATOM     67  C   UNL A   1      51.640  27.678  27.182  1.00  0.00     0.134 A 
ATOM     68  C   UNL A   1      51.223  28.087  24.859  1.00  0.00     0.134 A 
ATOM     69  F   UNL A   1      51.227  27.562  28.453  1.00  0.00    -0.206 F 
ATOM     70  C   UNL A   1      53.006  27.554  26.922  1.00  0.00     0.040 A 
ATOM     71  C   UNL A   1      52.584  27.937  24.583  1.00  0.00     0.040 A 
ATOM     72  F   UNL A   1      50.401  28.354  23.834  1.00  0.00    -0.206 F 
ATOM     73  C   UNL A   1      53.481  27.679  25.618  1.00  0.00     0.006 A 
ENDBRANCH  52  66
BRANCH  53  74
ATOM     74  C   UNL A   1      41.025  28.437  28.417  1.00  0.00     0.057 A 
ATOM     75  C   UNL A   1      40.622  28.054  29.701  1.00  0.00     0.134 A 
ATOM     76  C   UNL A   1      40.038  28.897  27.538  1.00  0.00     0.134 A 
ATOM     77  F   UNL A   1      41.521  27.591  30.581  1.00  0.00    -0.206 F 
ATOM     78  C   UNL A   1      39.284  28.122  30.096  1.00  0.00     0.040 A 
ATOM     79  C   UNL A   1      38.701  28.990  27.926  1.00  0.00     0.040 A 
ATOM     80  F   UNL A   1      40.365  29.288  26.297  1.00  0.00    -0.206 F 
ATOM     81  C   UNL A   1      38.322  28.598  29.209  1.00  0.00     0.006 A 
ENDBRANCH  53  74
BRANCH  65  82
ATOM     82  C   UNL A   1      46.248  33.044  28.676  1.00  0.00     0.057 A 
ATOM     83  C   UNL A   1      46.013  34.101  27.789  1.00  0.00     0.134 A 
ATOM     84  C   UNL A   1      46.515  33.366  30.013  1.00  0.00     0.134 A 
ATOM     85  F   UNL A   1      45.766  33.859  26.493  1.00  0.00    -0.206 F 
ATOM     86  C   UNL A   1      46.058  35.430  28.212  1.00  0.00     0.040 A 
ATOM     87  C   UNL A   1      46.539  34.690  30.452  1.00  0.00     0.040 A 
ATOM     88  F   UNL A   1      46.742  32.399  30.915  1.00  0.00    -0.206 F 
ATOM     89  C   UNL A   1      46.315  35.728  29.550  1.00  0.00     0.006 A 
ENDBRANCH  65  82
ENDBRANCH  39  40
ENDBRANCH  31  34
ENDBRANCH  29  30
ENDBRANCH  28  29
ENDBRANCH  27  28
ENDBRANCH   1  27
TORSDOF 16
ENDMDL
