MODEL 1
REMARK VINA RESULT:      -9.1      0.000      0.000
REMARK SMILES Nc1nc(N)nc(N/C=C/C(=O)NCCCCCCNC(=O)c2ccc(-c3c4nc(c(-c5c(F)cccc5F)c5ccc([nH]5)c(-c5c(F)cccc5F)c5nc(c(-c6c(F)cccc6F)c6ccc3[nH]6)C=C5)C=C4)cc2)n1
REMARK SMILES IDX 16 1 15 2 14 3 13 4 11 5 12 6 10 8 9 9 8 10 7 12 2 13 3 14
REMARK SMILES IDX 77 15 4 16 6 17 1 18 5 21 17 24 18 25 19 26 20 27 21 28
REMARK SMILES IDX 22 30 23 31 24 32 76 33 25 34 75 35 26 36 27 37 28 38 69 39
REMARK SMILES IDX 29 40 74 41 68 42 70 43 30 44 73 45 67 46 66 47 31 49 57 50
REMARK SMILES IDX 40 51 56 52 41 53 44 54 55 55 71 56 42 57 43 58 54 60 72 61
REMARK SMILES IDX 45 62 32 63 33 64 38 65 34 66 35 67 37 68 39 69 36 70 58 71
REMARK SMILES IDX 59 72 64 73 60 74 61 75 63 76 65 77 62 78 46 79 47 80 52 81
REMARK SMILES IDX 48 82 49 83 51 84 53 85 50 86
REMARK H PARENT 13 7 8 11 1 19 1 20 5 22 5 23 20 29 70 48 44 59
REMARK Flexibility Score: inf
ROOT
ATOM      1  C   UNL A   1      32.605  35.829  32.668  1.00  0.00     0.002 C 
ENDROOT
BRANCH   1   2
ATOM      2  C   UNL A   1      33.970  36.288  33.202  1.00  0.00     0.021 C 
BRANCH   2   3
ATOM      3  C   UNL A   1      35.011  35.167  33.246  1.00  0.00     0.116 C 
BRANCH   3   4
ATOM      4  N   UNL A   1      35.253  34.751  34.617  1.00  0.00    -0.353 N 
ATOM      5  C   UNL A   1      35.982  33.734  35.145  1.00  0.00     0.245 C 
ATOM      6  O   UNL A   1      36.076  33.639  36.368  1.00  0.00    -0.270 OA
ATOM      7  H   UNL A   1      34.804  35.312  35.291  1.00  0.00     0.163 HD
BRANCH   5   8
ATOM      8  C   UNL A   1      36.751  32.791  34.300  1.00  0.00     0.089 C 
ATOM      9  C   UNL A   1      37.714  31.968  34.724  1.00  0.00     0.091 C 
BRANCH   9  10
ATOM     10  N   UNL A   1      38.411  31.046  33.991  1.00  0.00    -0.330 N 
ATOM     11  H   UNL A   1      38.052  30.814  33.103  1.00  0.00     0.169 HD
BRANCH  10  12
ATOM     12  C   UNL A   1      39.585  30.405  34.391  1.00  0.00     0.233 A 
ATOM     13  C   UNL A   1      40.969  28.659  34.205  1.00  0.00     0.226 A 
ATOM     14  N   UNL A   1      41.728  29.070  35.206  1.00  0.00    -0.177 NA
ATOM     15  N   UNL A   1      39.880  29.271  33.770  1.00  0.00    -0.177 NA
ATOM     16  C   UNL A   1      41.341  30.198  35.772  1.00  0.00     0.226 A 
ATOM     17  N   UNL A   1      40.295  30.912  35.397  1.00  0.00    -0.177 NA
BRANCH  13  18
ATOM     18  N   UNL A   1      41.344  27.509  33.567  1.00  0.00    -0.368 N 
ATOM     19  H   UNL A   1      42.076  26.959  33.933  1.00  0.00     0.159 HD
ATOM     20  H   UNL A   1      40.883  27.230  32.744  1.00  0.00     0.159 HD
ENDBRANCH  13  18
BRANCH  16  21
ATOM     21  N   UNL A   1      42.059  30.650  36.842  1.00  0.00    -0.368 N 
ATOM     22  H   UNL A   1      41.829  30.349  37.752  1.00  0.00     0.159 HD
ATOM     23  H   UNL A   1      42.805  31.277  36.706  1.00  0.00     0.159 HD
ENDBRANCH  16  21
ENDBRANCH  10  12
ENDBRANCH   9  10
ENDBRANCH   5   8
ENDBRANCH   3   4
ENDBRANCH   2   3
ENDBRANCH   1   2
BRANCH   1  24
ATOM     24  C   UNL A   1      32.232  36.384  31.286  1.00  0.00     0.002 C 
BRANCH  24  25
ATOM     25  C   UNL A   1      33.304  37.251  30.622  1.00  0.00     0.021 C 
BRANCH  25  26
ATOM     26  C   UNL A   1      33.739  36.771  29.242  1.00  0.00     0.116 C 
BRANCH  26  27
ATOM     27  N   UNL A   1      32.811  35.795  28.690  1.00  0.00    -0.352 N 
ATOM     28  C   UNL A   1      33.023  34.482  28.352  1.00  0.00     0.251 C 
ATOM     29  H   UNL A   1      31.897  36.126  28.537  1.00  0.00     0.163 HD
ATOM     30  O   UNL A   1      32.186  33.872  27.696  1.00  0.00    -0.269 OA
BRANCH  28  31
ATOM     31  C   UNL A   1      34.268  33.803  28.767  1.00  0.00     0.039 A 
ATOM     32  C   UNL A   1      35.375  33.840  27.914  1.00  0.00     0.014 A 
ATOM     33  C   UNL A   1      34.340  33.112  29.980  1.00  0.00     0.014 A 
ATOM     34  C   UNL A   1      36.570  33.230  28.303  1.00  0.00     0.010 A 
ATOM     35  C   UNL A   1      35.550  32.564  30.396  1.00  0.00     0.010 A 
ATOM     36  C   UNL A   1      36.676  32.614  29.560  1.00  0.00    -0.014 A 
BRANCH  36  37
ATOM     37  C   UNL A   1      37.956  32.016  30.016  1.00  0.00     0.031 A 
ATOM     38  C   UNL A   1      38.841  32.761  30.976  1.00  0.00     0.074 A 
ATOM     39  C   UNL A   1      38.351  30.829  29.516  1.00  0.00     0.049 A 
ATOM     40  N   UNL A   1      40.022  32.435  31.437  1.00  0.00    -0.248 NA
ATOM     41  C   UNL A   1      38.343  34.057  31.466  1.00  0.00     0.031 C 
ATOM     42  C   UNL A   1      37.604  30.029  28.544  1.00  0.00     0.029 A 
ATOM     43  N   UNL A   1      39.486  30.094  29.748  1.00  0.00    -0.354 N 
ATOM     44  C   UNL A   1      40.413  33.486  32.256  1.00  0.00     0.074 A 
ATOM     45  C   UNL A   1      39.367  34.484  32.190  1.00  0.00     0.031 C 
ATOM     46  C   UNL A   1      38.289  28.906  28.280  1.00  0.00     0.029 A 
ATOM     47  C   UNL A   1      39.539  28.923  29.033  1.00  0.00     0.049 A 
ATOM     48  H   UNL A   1      40.195  30.379  30.369  1.00  0.00     0.167 HD
ATOM     49  C   UNL A   1      41.530  33.600  33.012  1.00  0.00     0.037 A 
ATOM     50  C   UNL A   1      40.492  27.972  28.984  1.00  0.00     0.037 A 
ATOM     51  C   UNL A   1      42.557  32.595  33.095  1.00  0.00     0.049 A 
ATOM     52  C   UNL A   1      41.728  28.127  29.826  1.00  0.00     0.074 A 
ATOM     53  C   UNL A   1      43.696  32.588  33.880  1.00  0.00     0.029 A 
ATOM     54  N   UNL A   1      42.570  31.416  32.364  1.00  0.00    -0.354 N 
ATOM     55  N   UNL A   1      42.053  29.095  30.648  1.00  0.00    -0.248 NA
ATOM     56  C   UNL A   1      42.729  27.055  29.735  1.00  0.00     0.031 C 
ATOM     57  C   UNL A   1      44.421  31.427  33.593  1.00  0.00     0.029 A 
ATOM     58  C   UNL A   1      43.709  30.687  32.662  1.00  0.00     0.049 A 
ATOM     59  H   UNL A   1      41.871  31.139  31.727  1.00  0.00     0.167 HD
ATOM     60  C   UNL A   1      43.280  28.738  31.191  1.00  0.00     0.074 A 
ATOM     61  C   UNL A   1      43.634  27.457  30.617  1.00  0.00     0.031 C 
ATOM     62  C   UNL A   1      44.045  29.411  32.085  1.00  0.00     0.037 A 
BRANCH  49  63
ATOM     63  C   UNL A   1      41.699  34.856  33.816  1.00  0.00     0.057 A 
ATOM     64  C   UNL A   1      41.041  35.042  35.040  1.00  0.00     0.134 A 
ATOM     65  C   UNL A   1      42.556  35.874  33.383  1.00  0.00     0.134 A 
ATOM     66  F   UNL A   1      40.196  34.110  35.507  1.00  0.00    -0.206 F 
ATOM     67  C   UNL A   1      41.212  36.206  35.791  1.00  0.00     0.040 A 
ATOM     68  C   UNL A   1      42.756  37.031  34.139  1.00  0.00     0.040 A 
ATOM     69  F   UNL A   1      43.223  35.758  32.225  1.00  0.00    -0.206 F 
ATOM     70  C   UNL A   1      42.077  37.202  35.343  1.00  0.00     0.006 A 
ENDBRANCH  49  63
BRANCH  50  71
ATOM     71  C   UNL A   1      40.310  26.780  28.118  1.00  0.00     0.057 A 
ATOM     72  C   UNL A   1      40.925  26.701  26.863  1.00  0.00     0.134 A 
ATOM     73  C   UNL A   1      39.515  25.700  28.517  1.00  0.00     0.134 A 
ATOM     74  F   UNL A   1      41.684  27.713  26.419  1.00  0.00    -0.206 F 
ATOM     75  C   UNL A   1      40.737  25.600  26.025  1.00  0.00     0.040 A 
ATOM     76  C   UNL A   1      39.338  24.582  27.700  1.00  0.00     0.040 A 
ATOM     77  F   UNL A   1      38.906  25.711  29.711  1.00  0.00    -0.206 F 
ATOM     78  C   UNL A   1      39.945  24.534  26.447  1.00  0.00     0.006 A 
ENDBRANCH  50  71
BRANCH  62  79
ATOM     79  C   UNL A   1      45.328  28.762  32.515  1.00  0.00     0.057 A 
ATOM     80  C   UNL A   1      46.544  29.040  31.881  1.00  0.00     0.134 A 
ATOM     81  C   UNL A   1      45.350  27.878  33.602  1.00  0.00     0.134 A 
ATOM     82  F   UNL A   1      46.588  29.866  30.825  1.00  0.00    -0.206 F 
ATOM     83  C   UNL A   1      47.736  28.446  32.300  1.00  0.00     0.040 A 
ATOM     84  C   UNL A   1      46.539  27.299  34.046  1.00  0.00     0.040 A 
ATOM     85  F   UNL A   1      44.219  27.576  34.257  1.00  0.00    -0.206 F 
ATOM     86  C   UNL A   1      47.736  27.579  33.391  1.00  0.00     0.006 A 
ENDBRANCH  62  79
ENDBRANCH  36  37
ENDBRANCH  28  31
ENDBRANCH  26  27
ENDBRANCH  25  26
ENDBRANCH  24  25
ENDBRANCH   1  24
TORSDOF 17
ENDMDL
MODEL 2
REMARK VINA RESULT:      -9.0      0.279      6.397
REMARK SMILES Nc1nc(N)nc(N/C=C/C(=O)NCCCCCCNC(=O)c2ccc(-c3c4nc(c(-c5c(F)cccc5F)c5ccc([nH]5)c(-c5c(F)cccc5F)c5nc(c(-c6c(F)cccc6F)c6ccc3[nH]6)C=C5)C=C4)cc2)n1
REMARK SMILES IDX 16 1 15 2 14 3 13 4 11 5 12 6 10 8 9 9 8 10 7 12 2 13 3 14
REMARK SMILES IDX 77 15 4 16 6 17 1 18 5 21 17 24 18 25 19 26 20 27 21 28
REMARK SMILES IDX 22 30 23 31 24 32 76 33 25 34 75 35 26 36 27 37 28 38 69 39
REMARK SMILES IDX 29 40 74 41 68 42 70 43 30 44 73 45 67 46 66 47 31 49 57 50
REMARK SMILES IDX 40 51 56 52 41 53 44 54 55 55 71 56 42 57 43 58 54 60 72 61
REMARK SMILES IDX 45 62 32 63 33 64 38 65 34 66 35 67 37 68 39 69 36 70 58 71
REMARK SMILES IDX 59 72 64 73 60 74 61 75 63 76 65 77 62 78 46 79 47 80 52 81
REMARK SMILES IDX 48 82 49 83 51 84 53 85 50 86
REMARK H PARENT 13 7 8 11 1 19 1 20 5 22 5 23 20 29 70 48 44 59
REMARK Flexibility Score: inf
ROOT
ATOM      1  C   UNL A   1      32.873  35.500  32.657  1.00  0.00     0.002 C 
ENDROOT
BRANCH   1   2
ATOM      2  C   UNL A   1      34.217  36.099  33.097  1.00  0.00     0.021 C 
BRANCH   2   3
ATOM      3  C   UNL A   1      35.338  35.063  33.201  1.00  0.00     0.116 C 
BRANCH   3   4
ATOM      4  N   UNL A   1      35.462  34.583  34.566  1.00  0.00    -0.353 N 
ATOM      5  C   UNL A   1      36.251  33.630  35.129  1.00  0.00     0.245 C 
ATOM      6  O   UNL A   1      36.205  33.461  36.346  1.00  0.00    -0.270 OA
ATOM      7  H   UNL A   1      34.862  35.032  35.205  1.00  0.00     0.163 HD
BRANCH   5   8
ATOM      8  C   UNL A   1      37.238  32.856  34.342  1.00  0.00     0.089 C 
ATOM      9  C   UNL A   1      37.724  31.654  34.663  1.00  0.00     0.091 C 
BRANCH   9  10
ATOM     10  N   UNL A   1      38.593  30.882  33.942  1.00  0.00    -0.330 N 
ATOM     11  H   UNL A   1      38.373  30.721  32.995  1.00  0.00     0.169 HD
BRANCH  10  12
ATOM     12  C   UNL A   1      39.765  30.300  34.430  1.00  0.00     0.233 A 
ATOM     13  C   UNL A   1      41.200  28.584  34.414  1.00  0.00     0.226 A 
ATOM     14  N   UNL A   1      41.905  29.080  35.416  1.00  0.00    -0.177 NA
ATOM     15  N   UNL A   1      40.115  29.138  33.897  1.00  0.00    -0.177 NA
ATOM     16  C   UNL A   1      41.466  30.230  35.891  1.00  0.00     0.226 A 
ATOM     17  N   UNL A   1      40.420  30.890  35.429  1.00  0.00    -0.177 NA
BRANCH  13  18
ATOM     18  N   UNL A   1      41.630  27.407  33.869  1.00  0.00    -0.368 N 
ATOM     19  H   UNL A   1      41.881  27.368  32.917  1.00  0.00     0.159 HD
ATOM     20  H   UNL A   1      41.687  26.599  34.427  1.00  0.00     0.159 HD
ENDBRANCH  13  18
BRANCH  16  21
ATOM     21  N   UNL A   1      42.127  30.770  36.958  1.00  0.00    -0.368 N 
ATOM     22  H   UNL A   1      41.640  30.964  37.792  1.00  0.00     0.159 HD
ATOM     23  H   UNL A   1      43.090  30.965  36.895  1.00  0.00     0.159 HD
ENDBRANCH  16  21
ENDBRANCH  10  12
ENDBRANCH   9  10
ENDBRANCH   5   8
ENDBRANCH   3   4
ENDBRANCH   2   3
ENDBRANCH   1   2
BRANCH   1  24
ATOM     24  C   UNL A   1      32.317  36.057  31.340  1.00  0.00     0.002 C 
BRANCH  24  25
ATOM     25  C   UNL A   1      33.209  37.086  30.640  1.00  0.00     0.021 C 
BRANCH  25  26
ATOM     26  C   UNL A   1      33.621  36.704  29.222  1.00  0.00     0.116 C 
BRANCH  26  27
ATOM     27  N   UNL A   1      32.752  35.679  28.663  1.00  0.00    -0.352 N 
ATOM     28  C   UNL A   1      33.042  34.384  28.311  1.00  0.00     0.251 C 
ATOM     29  H   UNL A   1      31.820  35.956  28.514  1.00  0.00     0.163 HD
ATOM     30  O   UNL A   1      32.242  33.731  27.651  1.00  0.00    -0.269 OA
BRANCH  28  31
ATOM     31  C   UNL A   1      34.327  33.778  28.718  1.00  0.00     0.039 A 
ATOM     32  C   UNL A   1      35.421  33.868  27.853  1.00  0.00     0.014 A 
ATOM     33  C   UNL A   1      34.449  33.102  29.936  1.00  0.00     0.014 A 
ATOM     34  C   UNL A   1      36.651  33.328  28.233  1.00  0.00     0.010 A 
ATOM     35  C   UNL A   1      35.692  32.624  30.343  1.00  0.00     0.010 A 
ATOM     36  C   UNL A   1      36.804  32.729  29.494  1.00  0.00    -0.014 A 
BRANCH  36  37
ATOM     37  C   UNL A   1      38.120  32.206  29.940  1.00  0.00     0.031 A 
ATOM     38  C   UNL A   1      38.612  30.874  29.447  1.00  0.00     0.074 A 
ATOM     39  C   UNL A   1      38.843  32.902  30.838  1.00  0.00     0.049 A 
ATOM     40  N   UNL A   1      39.700  30.221  29.772  1.00  0.00    -0.248 NA
ATOM     41  C   UNL A   1      37.758  30.169  28.477  1.00  0.00     0.031 C 
ATOM     42  C   UNL A   1      38.453  34.185  31.427  1.00  0.00     0.029 A 
ATOM     43  N   UNL A   1      40.053  32.623  31.423  1.00  0.00    -0.354 N 
ATOM     44  C   UNL A   1      39.653  29.029  29.061  1.00  0.00     0.074 A 
ATOM     45  C   UNL A   1      38.407  29.025  28.325  1.00  0.00     0.031 C 
ATOM     46  C   UNL A   1      39.414  34.591  32.271  1.00  0.00     0.029 A 
ATOM     47  C   UNL A   1      40.469  33.583  32.312  1.00  0.00     0.049 A 
ATOM     48  H   UNL A   1      40.573  31.812  31.222  1.00  0.00     0.167 HD
ATOM     49  C   UNL A   1      40.575  28.039  29.006  1.00  0.00     0.037 A 
ATOM     50  C   UNL A   1      41.574  33.640  33.081  1.00  0.00     0.037 A 
ATOM     51  C   UNL A   1      41.826  28.058  29.719  1.00  0.00     0.049 A 
ATOM     52  C   UNL A   1      42.578  32.524  33.010  1.00  0.00     0.074 A 
ATOM     53  C   UNL A   1      42.854  27.133  29.681  1.00  0.00     0.029 A 
ATOM     54  N   UNL A   1      42.217  29.053  30.602  1.00  0.00    -0.354 N 
ATOM     55  N   UNL A   1      42.552  31.434  32.281  1.00  0.00    -0.248 NA
ATOM     56  C   UNL A   1      43.765  32.645  33.866  1.00  0.00     0.031 C 
ATOM     57  C   UNL A   1      43.848  27.545  30.574  1.00  0.00     0.029 A 
ATOM     58  C   UNL A   1      43.460  28.753  31.133  1.00  0.00     0.049 A 
ATOM     59  H   UNL A   1      41.688  29.856  30.819  1.00  0.00     0.167 HD
ATOM     60  C   UNL A   1      43.728  30.755  32.570  1.00  0.00     0.074 A 
ATOM     61  C   UNL A   1      44.452  31.563  33.529  1.00  0.00     0.031 C 
ATOM     62  C   UNL A   1      44.169  29.569  32.085  1.00  0.00     0.037 A 
BRANCH  49  63
ATOM     63  C   UNL A   1      40.268  26.852  28.140  1.00  0.00     0.057 A 
ATOM     64  C   UNL A   1      40.819  26.711  26.859  1.00  0.00     0.134 A 
ATOM     65  C   UNL A   1      39.444  25.820  28.606  1.00  0.00     0.134 A 
ATOM     66  F   UNL A   1      41.608  27.669  26.349  1.00  0.00    -0.206 F 
ATOM     67  C   UNL A   1      40.541  25.598  26.064  1.00  0.00     0.040 A 
ATOM     68  C   UNL A   1      39.181  24.690  27.829  1.00  0.00     0.040 A 
ATOM     69  F   UNL A   1      38.890  25.887  29.826  1.00  0.00    -0.206 F 
ATOM     70  C   UNL A   1      39.725  24.580  26.552  1.00  0.00     0.006 A 
ENDBRANCH  49  63
BRANCH  50  71
ATOM     71  C   UNL A   1      41.799  34.805  33.974  1.00  0.00     0.057 A 
ATOM     72  C   UNL A   1      41.247  34.843  35.260  1.00  0.00     0.134 A 
ATOM     73  C   UNL A   1      42.559  35.906  33.565  1.00  0.00     0.134 A 
ATOM     74  F   UNL A   1      40.494  33.826  35.701  1.00  0.00    -0.206 F 
ATOM     75  C   UNL A   1      41.424  35.944  36.099  1.00  0.00     0.040 A 
ATOM     76  C   UNL A   1      42.765  37.004  34.402  1.00  0.00     0.040 A 
ATOM     77  F   UNL A   1      43.121  35.926  32.348  1.00  0.00    -0.206 F 
ATOM     78  C   UNL A   1      42.190  37.027  35.671  1.00  0.00     0.006 A 
ENDBRANCH  50  71
BRANCH  62  79
ATOM     79  C   UNL A   1      45.506  29.086  32.565  1.00  0.00     0.057 A 
ATOM     80  C   UNL A   1      46.697  29.467  31.937  1.00  0.00     0.134 A 
ATOM     81  C   UNL A   1      45.602  28.261  33.693  1.00  0.00     0.134 A 
ATOM     82  F   UNL A   1      46.672  30.243  30.843  1.00  0.00    -0.206 F 
ATOM     83  C   UNL A   1      47.939  29.028  32.401  1.00  0.00     0.040 A 
ATOM     84  C   UNL A   1      46.838  27.837  34.183  1.00  0.00     0.040 A 
ATOM     85  F   UNL A   1      44.499  27.866  34.345  1.00  0.00    -0.206 F 
ATOM     86  C   UNL A   1      48.011  28.217  33.533  1.00  0.00     0.006 A 
ENDBRANCH  62  79
ENDBRANCH  36  37
ENDBRANCH  28  31
ENDBRANCH  26  27
ENDBRANCH  25  26
ENDBRANCH  24  25
ENDBRANCH   1  24
TORSDOF 17
ENDMDL
MODEL 3
REMARK VINA RESULT:      -8.9      4.815     10.616
REMARK SMILES Nc1nc(N)nc(N/C=C/C(=O)NCCCCCCNC(=O)c2ccc(-c3c4nc(c(-c5c(F)cccc5F)c5ccc([nH]5)c(-c5c(F)cccc5F)c5nc(c(-c6c(F)cccc6F)c6ccc3[nH]6)C=C5)C=C4)cc2)n1
REMARK SMILES IDX 16 1 15 2 14 3 13 4 11 5 12 6 10 8 9 9 8 10 7 12 2 13 3 14
REMARK SMILES IDX 77 15 4 16 6 17 1 18 5 21 17 24 18 25 19 26 20 27 21 28
REMARK SMILES IDX 22 30 23 31 24 32 76 33 25 34 75 35 26 36 27 37 28 38 69 39
REMARK SMILES IDX 29 40 74 41 68 42 70 43 30 44 73 45 67 46 66 47 31 49 57 50
REMARK SMILES IDX 40 51 56 52 41 53 44 54 55 55 71 56 42 57 43 58 54 60 72 61
REMARK SMILES IDX 45 62 32 63 33 64 38 65 34 66 35 67 37 68 39 69 36 70 58 71
REMARK SMILES IDX 59 72 64 73 60 74 61 75 63 76 65 77 62 78 46 79 47 80 52 81
REMARK SMILES IDX 48 82 49 83 51 84 53 85 50 86
REMARK H PARENT 13 7 8 11 1 19 1 20 5 22 5 23 20 29 70 48 44 59
REMARK Flexibility Score: inf
ROOT
ATOM      1  C   UNL A   1      42.714  23.451  29.021  1.00  0.00     0.002 C 
ENDROOT
BRANCH   1   2
ATOM      2  C   UNL A   1      43.359  24.555  28.168  1.00  0.00     0.021 C 
BRANCH   2   3
ATOM      3  C   UNL A   1      44.868  24.376  27.988  1.00  0.00     0.116 C 
BRANCH   3   4
ATOM      4  N   UNL A   1      45.313  25.025  26.767  1.00  0.00    -0.353 N 
ATOM      5  C   UNL A   1      45.553  24.548  25.517  1.00  0.00     0.245 C 
ATOM      6  O   UNL A   1      45.866  25.338  24.628  1.00  0.00    -0.270 OA
ATOM      7  H   UNL A   1      45.472  25.992  26.862  1.00  0.00     0.163 HD
BRANCH   5   8
ATOM      8  C   UNL A   1      45.352  23.124  25.163  1.00  0.00     0.089 C 
ATOM      9  C   UNL A   1      44.946  22.663  23.977  1.00  0.00     0.091 C 
BRANCH   9  10
ATOM     10  N   UNL A   1      44.799  21.359  23.591  1.00  0.00    -0.330 N 
ATOM     11  H   UNL A   1      44.801  21.174  22.623  1.00  0.00     0.169 HD
BRANCH  10  12
ATOM     12  C   UNL A   1      44.644  20.268  24.448  1.00  0.00     0.233 A 
ATOM     13  C   UNL A   1      45.537  18.474  25.440  1.00  0.00     0.226 A 
ATOM     14  N   UNL A   1      44.379  18.100  25.955  1.00  0.00    -0.177 NA
ATOM     15  N   UNL A   1      45.724  19.530  24.667  1.00  0.00    -0.177 NA
ATOM     16  C   UNL A   1      43.360  18.888  25.665  1.00  0.00     0.226 A 
ATOM     17  N   UNL A   1      43.437  19.986  24.936  1.00  0.00    -0.177 NA
BRANCH  13  18
ATOM     18  N   UNL A   1      46.629  17.705  25.734  1.00  0.00    -0.368 N 
ATOM     19  H   UNL A   1      46.995  17.090  25.058  1.00  0.00     0.159 HD
ATOM     20  H   UNL A   1      47.048  17.766  26.622  1.00  0.00     0.159 HD
ENDBRANCH  13  18
BRANCH  16  21
ATOM     21  N   UNL A   1      42.127  18.529  26.131  1.00  0.00    -0.368 N 
ATOM     22  H   UNL A   1      41.320  18.766  25.619  1.00  0.00     0.159 HD
ATOM     23  H   UNL A   1      42.045  18.034  26.978  1.00  0.00     0.159 HD
ENDBRANCH  16  21
ENDBRANCH  10  12
ENDBRANCH   9  10
ENDBRANCH   5   8
ENDBRANCH   3   4
ENDBRANCH   2   3
ENDBRANCH   1   2
BRANCH   1  24
ATOM     24  C   UNL A   1      42.661  22.069  28.358  1.00  0.00     0.002 C 
BRANCH  24  25
ATOM     25  C   UNL A   1      41.357  21.749  27.622  1.00  0.00     0.021 C 
BRANCH  25  26
ATOM     26  C   UNL A   1      41.260  22.345  26.221  1.00  0.00     0.116 C 
BRANCH  26  27
ATOM     27  N   UNL A   1      39.878  22.522  25.803  1.00  0.00    -0.352 N 
ATOM     28  C   UNL A   1      38.955  23.454  26.207  1.00  0.00     0.251 C 
ATOM     29  H   UNL A   1      39.558  21.878  25.131  1.00  0.00     0.163 HD
ATOM     30  O   UNL A   1      37.773  23.319  25.911  1.00  0.00    -0.269 OA
BRANCH  28  31
ATOM     31  C   UNL A   1      39.384  24.619  27.010  1.00  0.00     0.039 A 
ATOM     32  C   UNL A   1      40.131  25.627  26.395  1.00  0.00     0.014 A 
ATOM     33  C   UNL A   1      39.071  24.707  28.370  1.00  0.00     0.014 A 
ATOM     34  C   UNL A   1      40.518  26.749  27.130  1.00  0.00     0.010 A 
ATOM     35  C   UNL A   1      39.399  25.857  29.084  1.00  0.00     0.010 A 
ATOM     36  C   UNL A   1      40.129  26.887  28.472  1.00  0.00    -0.014 A 
BRANCH  36  37
ATOM     37  C   UNL A   1      40.478  28.102  29.250  1.00  0.00     0.031 A 
ATOM     38  C   UNL A   1      41.815  28.208  29.930  1.00  0.00     0.074 A 
ATOM     39  C   UNL A   1      39.567  29.083  29.397  1.00  0.00     0.049 A 
ATOM     40  N   UNL A   1      42.275  29.157  30.706  1.00  0.00    -0.248 NA
ATOM     41  C   UNL A   1      42.749  27.088  29.732  1.00  0.00     0.031 C 
ATOM     42  C   UNL A   1      38.219  29.078  28.825  1.00  0.00     0.029 A 
ATOM     43  N   UNL A   1      39.632  30.270  30.082  1.00  0.00    -0.354 N 
ATOM     44  C   UNL A   1      43.543  28.743  31.098  1.00  0.00     0.074 A 
ATOM     45  C   UNL A   1      43.759  27.436  30.515  1.00  0.00     0.031 C 
ATOM     46  C   UNL A   1      37.594  30.216  29.164  1.00  0.00     0.029 A 
ATOM     47  C   UNL A   1      38.480  31.013  30.007  1.00  0.00     0.049 A 
ATOM     48  H   UNL A   1      40.430  30.562  30.579  1.00  0.00     0.167 HD
ATOM     49  C   UNL A   1      44.452  29.403  31.853  1.00  0.00     0.037 A 
ATOM     50  C   UNL A   1      38.169  32.201  30.562  1.00  0.00     0.037 A 
ATOM     51  C   UNL A   1      44.244  30.714  32.409  1.00  0.00     0.049 A 
ATOM     52  C   UNL A   1      39.193  32.908  31.405  1.00  0.00     0.074 A 
ATOM     53  C   UNL A   1      45.128  31.493  33.135  1.00  0.00     0.029 A 
ATOM     54  N   UNL A   1      43.067  31.440  32.302  1.00  0.00    -0.354 N 
ATOM     55  N   UNL A   1      40.412  32.536  31.711  1.00  0.00    -0.248 NA
ATOM     56  C   UNL A   1      38.799  34.202  31.978  1.00  0.00     0.031 C 
ATOM     57  C   UNL A   1      44.472  32.671  33.505  1.00  0.00     0.029 A 
ATOM     58  C   UNL A   1      43.194  32.647  32.970  1.00  0.00     0.049 A 
ATOM     59  H   UNL A   1      42.261  31.141  31.822  1.00  0.00     0.167 HD
ATOM     60  C   UNL A   1      40.939  33.559  32.488  1.00  0.00     0.074 A 
ATOM     61  C   UNL A   1      39.912  34.574  32.594  1.00  0.00     0.031 C 
ATOM     62  C   UNL A   1      42.164  33.649  33.063  1.00  0.00     0.037 A 
BRANCH  49  63
ATOM     63  C   UNL A   1      45.761  28.718  32.118  1.00  0.00     0.057 A 
ATOM     64  C   UNL A   1      46.879  28.920  31.298  1.00  0.00     0.134 A 
ATOM     65  C   UNL A   1      45.918  27.877  33.227  1.00  0.00     0.134 A 
ATOM     66  F   UNL A   1      46.794  29.704  30.213  1.00  0.00    -0.206 F 
ATOM     67  C   UNL A   1      48.098  28.290  31.557  1.00  0.00     0.040 A 
ATOM     68  C   UNL A   1      47.139  27.264  33.511  1.00  0.00     0.040 A 
ATOM     69  F   UNL A   1      44.890  27.646  34.058  1.00  0.00    -0.206 F 
ATOM     70  C   UNL A   1      48.232  27.465  32.671  1.00  0.00     0.006 A 
ENDBRANCH  49  63
BRANCH  50  71
ATOM     71  C   UNL A   1      36.834  32.806  30.326  1.00  0.00     0.057 A 
ATOM     72  C   UNL A   1      35.787  32.616  31.235  1.00  0.00     0.134 A 
ATOM     73  C   UNL A   1      36.570  33.576  29.188  1.00  0.00     0.134 A 
ATOM     74  F   UNL A   1      35.974  31.872  32.335  1.00  0.00    -0.206 F 
ATOM     75  C   UNL A   1      34.518  33.153  31.011  1.00  0.00     0.040 A 
ATOM     76  C   UNL A   1      35.312  34.139  28.963  1.00  0.00     0.040 A 
ATOM     77  F   UNL A   1      37.533  33.801  28.283  1.00  0.00    -0.206 F 
ATOM     78  C   UNL A   1      34.280  33.921  29.873  1.00  0.00     0.006 A 
ENDBRANCH  50  71
BRANCH  62  79
ATOM     79  C   UNL A   1      42.468  34.898  33.836  1.00  0.00     0.057 A 
ATOM     80  C   UNL A   1      42.981  36.044  33.216  1.00  0.00     0.134 A 
ATOM     81  C   UNL A   1      42.207  34.966  35.211  1.00  0.00     0.134 A 
ATOM     82  F   UNL A   1      43.266  36.038  31.905  1.00  0.00    -0.206 F 
ATOM     83  C   UNL A   1      43.243  37.208  33.940  1.00  0.00     0.040 A 
ATOM     84  C   UNL A   1      42.440  36.133  35.940  1.00  0.00     0.040 A 
ATOM     85  F   UNL A   1      41.708  33.906  35.863  1.00  0.00    -0.206 F 
ATOM     86  C   UNL A   1      42.965  37.256  35.305  1.00  0.00     0.006 A 
ENDBRANCH  62  79
ENDBRANCH  36  37
ENDBRANCH  28  31
ENDBRANCH  26  27
ENDBRANCH  25  26
ENDBRANCH  24  25
ENDBRANCH   1  24
TORSDOF 17
ENDMDL
