MODEL 1
REMARK VINA RESULT:     -10.7      0.000      0.000
REMARK SMILES O=C(/C=C/c1cc(F)cc(COCc2ccco2)c1)NCCCCCCNC(=O)c1ccc(-c2c3nc(c(-c4c(F)cccc4F)c4ccc([nH]4)c(-c4c(F)cccc4F)c4nc(c(-c5c(F)cccc5F)c5ccc2[nH]5)C=C4)C=C3)cc1
REMARK SMILES IDX 22 1 21 2 20 3 1 4 2 5 3 7 4 8 5 9 6 10 19 11 7 12 10 13
REMARK SMILES IDX 8 14 9 15 11 16 12 17 13 18 14 19 15 20 18 21 16 22 17 23
REMARK SMILES IDX 23 24 24 25 25 26 26 27 27 28 28 29 29 31 30 32 31 33 83 34
REMARK SMILES IDX 32 35 82 36 33 37 34 38 35 39 76 40 36 41 81 42 75 43 77 44
REMARK SMILES IDX 37 45 80 46 74 47 73 48 38 50 64 51 47 52 63 53 48 54 51 55
REMARK SMILES IDX 62 56 78 57 49 58 50 59 61 61 79 62 52 63 39 64 40 65 45 66
REMARK SMILES IDX 41 67 42 68 44 69 46 70 43 71 65 72 66 73 71 74 67 75 68 76
REMARK SMILES IDX 70 77 72 78 69 79 53 80 54 81 59 82 55 83 56 84 58 85 60 86
REMARK SMILES IDX 57 87
REMARK H PARENT 20 6 27 30 77 49 51 60
REMARK Flexibility Score: inf
ROOT
ATOM      1  C   UNL A   1      35.174  32.586  28.998  1.00  0.00     0.021 C 
ENDROOT
BRANCH   1   2
ATOM      2  C   UNL A   1      35.618  31.871  27.720  1.00  0.00     0.116 C 
BRANCH   2   3
ATOM      3  N   UNL A   1      34.660  30.864  27.306  1.00  0.00    -0.353 N 
ATOM      4  O   UNL A   1      35.904  29.059  27.980  1.00  0.00    -0.270 OA
ATOM      5  C   UNL A   1      34.906  29.526  27.439  1.00  0.00     0.243 C 
ATOM      6  H   UNL A   1      33.804  31.154  26.917  1.00  0.00     0.163 HD
BRANCH   5   7
ATOM      7  C   UNL A   1      33.889  28.598  26.879  1.00  0.00     0.072 C 
ATOM      8  C   UNL A   1      32.577  28.836  26.731  1.00  0.00     0.014 C 
BRANCH   8   9
ATOM      9  C   UNL A   1      31.697  27.910  26.004  1.00  0.00    -0.022 A 
ATOM     10  C   UNL A   1      31.111  26.792  26.601  1.00  0.00     0.047 A 
ATOM     11  C   UNL A   1      31.474  28.145  24.640  1.00  0.00     0.014 A 
ATOM     12  C   UNL A   1      30.356  25.912  25.830  1.00  0.00     0.124 A 
ATOM     13  C   UNL A   1      30.756  27.232  23.851  1.00  0.00    -0.019 A 
ATOM     14  F   UNL A   1      29.813  24.833  26.408  1.00  0.00    -0.207 F 
ATOM     15  C   UNL A   1      30.184  26.114  24.464  1.00  0.00     0.045 A 
BRANCH  13  16
ATOM     16  C   UNL A   1      30.679  27.423  22.356  1.00  0.00     0.196 C 
BRANCH  16  17
ATOM     17  O   UNL A   1      30.100  28.671  21.972  1.00  0.00    -0.369 OA
BRANCH  17  18
ATOM     18  C   UNL A   1      28.880  29.036  22.627  1.00  0.00     0.235 C 
BRANCH  18  19
ATOM     19  C   UNL A   1      28.676  30.508  22.620  1.00  0.00     0.129 A 
ATOM     20  C   UNL A   1      28.622  31.461  23.619  1.00  0.00     0.048 A 
ATOM     21  O   UNL A   1      28.571  31.114  21.402  1.00  0.00    -0.467 OA
ATOM     22  C   UNL A   1      28.447  32.709  22.978  1.00  0.00     0.042 A 
ATOM     23  C   UNL A   1      28.440  32.446  21.629  1.00  0.00     0.195 A 
ENDBRANCH  18  19
ENDBRANCH  17  18
ENDBRANCH  16  17
ENDBRANCH  13  16
ENDBRANCH   8   9
ENDBRANCH   5   7
ENDBRANCH   2   3
ENDBRANCH   1   2
BRANCH   1  24
ATOM     24  C   UNL A   1      35.660  34.036  29.127  1.00  0.00     0.002 C 
BRANCH  24  25
ATOM     25  C   UNL A   1      34.984  35.045  28.193  1.00  0.00     0.002 C 
BRANCH  25  26
ATOM     26  C   UNL A   1      33.780  35.784  28.783  1.00  0.00     0.021 C 
BRANCH  26  27
ATOM     27  C   UNL A   1      32.889  34.949  29.699  1.00  0.00     0.116 C 
BRANCH  27  28
ATOM     28  N   UNL A   1      32.329  35.724  30.795  1.00  0.00    -0.352 N 
ATOM     29  C   UNL A   1      32.710  35.787  32.111  1.00  0.00     0.251 C 
ATOM     30  H   UNL A   1      31.560  36.289  30.556  1.00  0.00     0.163 HD
ATOM     31  O   UNL A   1      32.006  36.389  32.923  1.00  0.00    -0.269 OA
BRANCH  29  32
ATOM     32  C   UNL A   1      33.944  35.114  32.572  1.00  0.00     0.039 A 
ATOM     33  C   UNL A   1      33.838  33.855  33.171  1.00  0.00     0.014 A 
ATOM     34  C   UNL A   1      35.198  35.715  32.432  1.00  0.00     0.014 A 
ATOM     35  C   UNL A   1      34.991  33.173  33.565  1.00  0.00     0.010 A 
ATOM     36  C   UNL A   1      36.352  35.005  32.760  1.00  0.00     0.010 A 
ATOM     37  C   UNL A   1      36.261  33.725  33.324  1.00  0.00    -0.014 A 
BRANCH  37  38
ATOM     38  C   UNL A   1      37.495  32.955  33.627  1.00  0.00     0.031 A 
ATOM     39  C   UNL A   1      38.288  33.229  34.874  1.00  0.00     0.074 A 
ATOM     40  C   UNL A   1      37.932  32.036  32.745  1.00  0.00     0.049 A 
ATOM     41  N   UNL A   1      39.397  32.667  35.286  1.00  0.00    -0.248 NA
ATOM     42  C   UNL A   1      37.781  34.282  35.767  1.00  0.00     0.031 C 
ATOM     43  C   UNL A   1      37.280  31.711  31.474  1.00  0.00     0.029 A 
ATOM     44  N   UNL A   1      39.023  31.205  32.780  1.00  0.00    -0.354 N 
ATOM     45  C   UNL A   1      39.721  33.299  36.479  1.00  0.00     0.074 A 
ATOM     46  C   UNL A   1      38.724  34.324  36.697  1.00  0.00     0.031 C 
ATOM     47  C   UNL A   1      37.961  30.726  30.870  1.00  0.00     0.029 A 
ATOM     48  C   UNL A   1      39.119  30.375  31.689  1.00  0.00     0.049 A 
ATOM     49  H   UNL A   1      39.676  31.202  33.517  1.00  0.00     0.167 HD
ATOM     50  C   UNL A   1      40.742  33.032  37.327  1.00  0.00     0.037 A 
ATOM     51  C   UNL A   1      40.032  29.435  31.380  1.00  0.00     0.037 A 
ATOM     52  C   UNL A   1      41.725  32.001  37.116  1.00  0.00     0.049 A 
ATOM     53  C   UNL A   1      41.166  29.169  32.326  1.00  0.00     0.074 A 
ATOM     54  C   UNL A   1      42.762  31.617  37.948  1.00  0.00     0.029 A 
ATOM     55  N   UNL A   1      41.798  31.193  35.990  1.00  0.00    -0.354 N 
ATOM     56  N   UNL A   1      41.426  29.732  33.480  1.00  0.00    -0.248 NA
ATOM     57  C   UNL A   1      42.134  28.135  31.929  1.00  0.00     0.031 C 
ATOM     58  C   UNL A   1      43.492  30.613  37.304  1.00  0.00     0.029 A 
ATOM     59  C   UNL A   1      42.880  30.334  36.093  1.00  0.00     0.049 A 
ATOM     60  H   UNL A   1      41.173  31.227  35.230  1.00  0.00     0.167 HD
ATOM     61  C   UNL A   1      42.576  29.117  33.956  1.00  0.00     0.074 A 
ATOM     62  C   UNL A   1      42.955  28.122  32.972  1.00  0.00     0.031 C 
ATOM     63  C   UNL A   1      43.256  29.356  35.103  1.00  0.00     0.037 A 
BRANCH  50  64
ATOM     64  C   UNL A   1      40.845  33.862  38.575  1.00  0.00     0.057 A 
ATOM     65  C   UNL A   1      41.704  34.967  38.634  1.00  0.00     0.134 A 
ATOM     66  C   UNL A   1      40.132  33.536  39.737  1.00  0.00     0.134 A 
ATOM     67  F   UNL A   1      42.421  35.330  37.561  1.00  0.00    -0.206 F 
ATOM     68  C   UNL A   1      41.854  35.713  39.804  1.00  0.00     0.040 A 
ATOM     69  C   UNL A   1      40.254  34.290  40.905  1.00  0.00     0.040 A 
ATOM     70  F   UNL A   1      39.286  32.494  39.745  1.00  0.00    -0.206 F 
ATOM     71  C   UNL A   1      41.123  35.378  40.943  1.00  0.00     0.006 A 
ENDBRANCH  50  64
BRANCH  51  72
ATOM     72  C   UNL A   1      39.874  28.654  30.129  1.00  0.00     0.057 A 
ATOM     73  C   UNL A   1      39.179  27.438  30.104  1.00  0.00     0.134 A 
ATOM     74  C   UNL A   1      40.463  29.085  28.934  1.00  0.00     0.134 A 
ATOM     75  F   UNL A   1      38.601  26.968  31.218  1.00  0.00    -0.206 F 
ATOM     76  C   UNL A   1      39.097  26.668  28.944  1.00  0.00     0.040 A 
ATOM     77  C   UNL A   1      40.370  28.335  27.761  1.00  0.00     0.040 A 
ATOM     78  F   UNL A   1      41.128  30.249  28.892  1.00  0.00    -0.206 F 
ATOM     79  C   UNL A   1      39.694  27.117  27.767  1.00  0.00     0.006 A 
ENDBRANCH  51  72
BRANCH  63  80
ATOM     80  C   UNL A   1      44.483  28.533  35.367  1.00  0.00     0.057 A 
ATOM     81  C   UNL A   1      45.732  28.931  34.872  1.00  0.00     0.134 A 
ATOM     82  C   UNL A   1      44.418  27.315  36.053  1.00  0.00     0.134 A 
ATOM     83  F   UNL A   1      45.863  30.084  34.197  1.00  0.00    -0.206 F 
ATOM     84  C   UNL A   1      46.869  28.139  35.038  1.00  0.00     0.040 A 
ATOM     85  C   UNL A   1      45.553  26.525  36.248  1.00  0.00     0.040 A 
ATOM     86  F   UNL A   1      43.254  26.883  36.563  1.00  0.00    -0.206 F 
ATOM     87  C   UNL A   1      46.781  26.933  35.730  1.00  0.00     0.006 A 
ENDBRANCH  63  80
ENDBRANCH  37  38
ENDBRANCH  29  32
ENDBRANCH  27  28
ENDBRANCH  26  27
ENDBRANCH  25  26
ENDBRANCH  24  25
ENDBRANCH   1  24
TORSDOF 18
ENDMDL
MODEL 2
REMARK VINA RESULT:     -10.7      5.276     10.144
REMARK SMILES O=C(/C=C/c1cc(F)cc(COCc2ccco2)c1)NCCCCCCNC(=O)c1ccc(-c2c3nc(c(-c4c(F)cccc4F)c4ccc([nH]4)c(-c4c(F)cccc4F)c4nc(c(-c5c(F)cccc5F)c5ccc2[nH]5)C=C4)C=C3)cc1
REMARK SMILES IDX 22 1 21 2 20 3 1 4 2 5 3 7 4 8 5 9 6 10 19 11 7 12 10 13
REMARK SMILES IDX 8 14 9 15 11 16 12 17 13 18 14 19 15 20 18 21 16 22 17 23
REMARK SMILES IDX 23 24 24 25 25 26 26 27 27 28 28 29 29 31 30 32 31 33 83 34
REMARK SMILES IDX 32 35 82 36 33 37 34 38 35 39 76 40 36 41 81 42 75 43 77 44
REMARK SMILES IDX 37 45 80 46 74 47 73 48 38 50 64 51 47 52 63 53 48 54 51 55
REMARK SMILES IDX 62 56 78 57 49 58 50 59 61 61 79 62 52 63 39 64 40 65 45 66
REMARK SMILES IDX 41 67 42 68 44 69 46 70 43 71 65 72 66 73 71 74 67 75 68 76
REMARK SMILES IDX 70 77 72 78 69 79 53 80 54 81 59 82 55 83 56 84 58 85 60 86
REMARK SMILES IDX 57 87
REMARK H PARENT 20 6 27 30 77 49 51 60
REMARK Flexibility Score: inf
ROOT
ATOM      1  C   UNL A   1      33.645  20.205  25.336  1.00  0.00     0.021 C 
ENDROOT
BRANCH   1   2
ATOM      2  C   UNL A   1      32.650  20.646  24.261  1.00  0.00     0.116 C 
BRANCH   2   3
ATOM      3  N   UNL A   1      32.422  22.078  24.294  1.00  0.00    -0.353 N 
ATOM      4  O   UNL A   1      34.211  22.636  22.973  1.00  0.00    -0.270 OA
ATOM      5  C   UNL A   1      33.256  22.963  23.669  1.00  0.00     0.243 C 
ATOM      6  H   UNL A   1      31.640  22.424  24.780  1.00  0.00     0.163 HD
BRANCH   5   7
ATOM      7  C   UNL A   1      32.970  24.409  23.867  1.00  0.00     0.072 C 
ATOM      8  C   UNL A   1      33.550  25.229  24.757  1.00  0.00     0.014 C 
BRANCH   8   9
ATOM      9  C   UNL A   1      33.313  26.679  24.744  1.00  0.00    -0.022 A 
ATOM     10  C   UNL A   1      33.674  27.517  25.802  1.00  0.00     0.047 A 
ATOM     11  C   UNL A   1      32.659  27.232  23.634  1.00  0.00     0.014 A 
ATOM     12  C   UNL A   1      33.342  28.869  25.756  1.00  0.00     0.124 A 
ATOM     13  C   UNL A   1      32.280  28.583  23.610  1.00  0.00    -0.019 A 
ATOM     14  F   UNL A   1      33.676  29.661  26.784  1.00  0.00    -0.207 F 
ATOM     15  C   UNL A   1      32.641  29.406  24.681  1.00  0.00     0.045 A 
BRANCH  13  16
ATOM     16  C   UNL A   1      31.428  29.109  22.480  1.00  0.00     0.196 C 
BRANCH  16  17
ATOM     17  O   UNL A   1      30.297  28.287  22.193  1.00  0.00    -0.369 OA
BRANCH  17  18
ATOM     18  C   UNL A   1      29.058  28.675  22.798  1.00  0.00     0.235 C 
BRANCH  18  19
ATOM     19  C   UNL A   1      28.645  30.038  22.373  1.00  0.00     0.129 A 
ATOM     20  C   UNL A   1      28.524  31.241  23.040  1.00  0.00     0.048 A 
ATOM     21  O   UNL A   1      28.372  30.218  21.048  1.00  0.00    -0.467 OA
ATOM     22  C   UNL A   1      28.128  32.199  22.079  1.00  0.00     0.042 A 
ATOM     23  C   UNL A   1      28.066  31.530  20.879  1.00  0.00     0.195 A 
ENDBRANCH  18  19
ENDBRANCH  17  18
ENDBRANCH  16  17
ENDBRANCH  13  16
ENDBRANCH   8   9
ENDBRANCH   5   7
ENDBRANCH   2   3
ENDBRANCH   1   2
BRANCH   1  24
ATOM     24  C   UNL A   1      35.003  19.729  24.802  1.00  0.00     0.002 C 
BRANCH  24  25
ATOM     25  C   UNL A   1      36.201  20.611  25.166  1.00  0.00     0.002 C 
BRANCH  25  26
ATOM     26  C   UNL A   1      37.573  20.042  24.795  1.00  0.00     0.021 C 
BRANCH  26  27
ATOM     27  C   UNL A   1      38.717  20.447  25.722  1.00  0.00     0.116 C 
BRANCH  27  28
ATOM     28  N   UNL A   1      39.794  19.470  25.743  1.00  0.00    -0.352 N 
ATOM     29  C   UNL A   1      41.119  19.629  26.064  1.00  0.00     0.251 C 
ATOM     30  H   UNL A   1      39.534  18.555  25.489  1.00  0.00     0.163 HD
ATOM     31  O   UNL A   1      41.910  18.706  25.870  1.00  0.00    -0.269 OA
BRANCH  29  32
ATOM     32  C   UNL A   1      41.613  20.910  26.615  1.00  0.00     0.039 A 
ATOM     33  C   UNL A   1      42.088  21.882  25.730  1.00  0.00     0.014 A 
ATOM     34  C   UNL A   1      41.623  21.155  27.992  1.00  0.00     0.014 A 
ATOM     35  C   UNL A   1      42.507  23.121  26.219  1.00  0.00     0.010 A 
ATOM     36  C   UNL A   1      41.975  22.416  28.472  1.00  0.00     0.010 A 
ATOM     37  C   UNL A   1      42.416  23.414  27.591  1.00  0.00    -0.014 A 
BRANCH  37  38
ATOM     38  C   UNL A   1      42.744  24.769  28.104  1.00  0.00     0.031 A 
ATOM     39  C   UNL A   1      44.158  25.141  28.447  1.00  0.00     0.074 A 
ATOM     40  C   UNL A   1      41.750  25.654  28.309  1.00  0.00     0.049 A 
ATOM     41  N   UNL A   1      44.621  26.270  28.924  1.00  0.00    -0.248 NA
ATOM     42  C   UNL A   1      45.186  24.108  28.247  1.00  0.00     0.031 C 
ATOM     43  C   UNL A   1      40.329  25.399  28.062  1.00  0.00     0.029 A 
ATOM     44  N   UNL A   1      41.779  26.947  28.769  1.00  0.00    -0.354 N 
ATOM     45  C   UNL A   1      45.987  26.081  29.084  1.00  0.00     0.074 A 
ATOM     46  C   UNL A   1      46.271  24.714  28.707  1.00  0.00     0.031 C 
ATOM     47  C   UNL A   1      39.629  26.509  28.336  1.00  0.00     0.029 A 
ATOM     48  C   UNL A   1      40.543  27.543  28.815  1.00  0.00     0.049 A 
ATOM     49  H   UNL A   1      42.608  27.404  29.040  1.00  0.00     0.167 HD
ATOM     50  C   UNL A   1      46.923  26.975  29.484  1.00  0.00     0.037 A 
ATOM     51  C   UNL A   1      40.181  28.783  29.197  1.00  0.00     0.037 A 
ATOM     52  C   UNL A   1      46.641  28.340  29.844  1.00  0.00     0.049 A 
ATOM     53  C   UNL A   1      41.232  29.750  29.655  1.00  0.00     0.074 A 
ATOM     54  C   UNL A   1      47.531  29.336  30.206  1.00  0.00     0.029 A 
ATOM     55  N   UNL A   1      45.373  28.901  29.895  1.00  0.00    -0.354 N 
ATOM     56  N   UNL A   1      42.529  29.578  29.743  1.00  0.00    -0.248 NA
ATOM     57  C   UNL A   1      40.774  31.085  30.065  1.00  0.00     0.031 C 
ATOM     58  C   UNL A   1      46.799  30.484  30.523  1.00  0.00     0.029 A 
ATOM     59  C   UNL A   1      45.456  30.221  30.310  1.00  0.00     0.049 A 
ATOM     60  H   UNL A   1      44.538  28.431  29.669  1.00  0.00     0.167 HD
ATOM     61  C   UNL A   1      43.044  30.781  30.205  1.00  0.00     0.074 A 
ATOM     62  C   UNL A   1      41.921  31.684  30.362  1.00  0.00     0.031 C 
ATOM     63  C   UNL A   1      44.331  31.107  30.475  1.00  0.00     0.037 A 
BRANCH  50  64
ATOM     64  C   UNL A   1      48.350  26.507  29.544  1.00  0.00     0.057 A 
ATOM     65  C   UNL A   1      48.860  25.905  30.700  1.00  0.00     0.134 A 
ATOM     66  C   UNL A   1      49.234  26.703  28.473  1.00  0.00     0.134 A 
ATOM     67  F   UNL A   1      48.071  25.695  31.764  1.00  0.00    -0.206 F 
ATOM     68  C   UNL A   1      50.199  25.518  30.792  1.00  0.00     0.040 A 
ATOM     69  C   UNL A   1      50.567  26.296  28.543  1.00  0.00     0.040 A 
ATOM     70  F   UNL A   1      48.806  27.266  27.333  1.00  0.00    -0.206 F 
ATOM     71  C   UNL A   1      51.054  25.709  29.709  1.00  0.00     0.006 A 
ENDBRANCH  50  64
BRANCH  51  72
ATOM     72  C   UNL A   1      38.753  29.178  29.118  1.00  0.00     0.057 A 
ATOM     73  C   UNL A   1      37.908  29.106  30.233  1.00  0.00     0.134 A 
ATOM     74  C   UNL A   1      38.189  29.590  27.906  1.00  0.00     0.134 A 
ATOM     75  F   UNL A   1      38.388  28.710  31.421  1.00  0.00    -0.206 F 
ATOM     76  C   UNL A   1      36.549  29.406  30.139  1.00  0.00     0.040 A 
ATOM     77  C   UNL A   1      36.835  29.914  27.802  1.00  0.00     0.040 A 
ATOM     78  F   UNL A   1      38.952  29.695  26.808  1.00  0.00    -0.206 F 
ATOM     79  C   UNL A   1      36.009  29.812  28.919  1.00  0.00     0.006 A 
ENDBRANCH  51  72
BRANCH  63  80
ATOM     80  C   UNL A   1      44.606  32.497  30.970  1.00  0.00     0.057 A 
ATOM     81  C   UNL A   1      44.593  32.784  32.341  1.00  0.00     0.134 A 
ATOM     82  C   UNL A   1      44.817  33.564  30.088  1.00  0.00     0.134 A 
ATOM     83  F   UNL A   1      44.388  31.809  33.241  1.00  0.00    -0.206 F 
ATOM     84  C   UNL A   1      44.767  34.085  32.816  1.00  0.00     0.040 A 
ATOM     85  C   UNL A   1      45.017  34.865  30.552  1.00  0.00     0.040 A 
ATOM     86  F   UNL A   1      44.852  33.353  28.763  1.00  0.00    -0.206 F 
ATOM     87  C   UNL A   1      44.982  35.129  31.920  1.00  0.00     0.006 A 
ENDBRANCH  63  80
ENDBRANCH  37  38
ENDBRANCH  29  32
ENDBRANCH  27  28
ENDBRANCH  26  27
ENDBRANCH  25  26
ENDBRANCH  24  25
ENDBRANCH   1  24
TORSDOF 18
ENDMDL
MODEL 3
REMARK VINA RESULT:     -10.5      5.296     10.109
REMARK SMILES O=C(/C=C/c1cc(F)cc(COCc2ccco2)c1)NCCCCCCNC(=O)c1ccc(-c2c3nc(c(-c4c(F)cccc4F)c4ccc([nH]4)c(-c4c(F)cccc4F)c4nc(c(-c5c(F)cccc5F)c5ccc2[nH]5)C=C4)C=C3)cc1
REMARK SMILES IDX 22 1 21 2 20 3 1 4 2 5 3 7 4 8 5 9 6 10 19 11 7 12 10 13
REMARK SMILES IDX 8 14 9 15 11 16 12 17 13 18 14 19 15 20 18 21 16 22 17 23
REMARK SMILES IDX 23 24 24 25 25 26 26 27 27 28 28 29 29 31 30 32 31 33 83 34
REMARK SMILES IDX 32 35 82 36 33 37 34 38 35 39 76 40 36 41 81 42 75 43 77 44
REMARK SMILES IDX 37 45 80 46 74 47 73 48 38 50 64 51 47 52 63 53 48 54 51 55
REMARK SMILES IDX 62 56 78 57 49 58 50 59 61 61 79 62 52 63 39 64 40 65 45 66
REMARK SMILES IDX 41 67 42 68 44 69 46 70 43 71 65 72 66 73 71 74 67 75 68 76
REMARK SMILES IDX 70 77 72 78 69 79 53 80 54 81 59 82 55 83 56 84 58 85 60 86
REMARK SMILES IDX 57 87
REMARK H PARENT 20 6 27 30 77 49 51 60
REMARK Flexibility Score: inf
ROOT
ATOM      1  C   UNL A   1      33.682  20.146  25.277  1.00  0.00     0.021 C 
ENDROOT
BRANCH   1   2
ATOM      2  C   UNL A   1      32.657  20.569  24.223  1.00  0.00     0.116 C 
BRANCH   2   3
ATOM      3  N   UNL A   1      32.378  21.990  24.283  1.00  0.00    -0.353 N 
ATOM      4  O   UNL A   1      34.169  22.640  23.007  1.00  0.00    -0.270 OA
ATOM      5  C   UNL A   1      33.190  22.918  23.693  1.00  0.00     0.243 C 
ATOM      6  H   UNL A   1      31.576  22.297  24.763  1.00  0.00     0.163 HD
BRANCH   5   7
ATOM      7  C   UNL A   1      32.851  24.348  23.919  1.00  0.00     0.072 C 
ATOM      8  C   UNL A   1      33.327  25.145  24.888  1.00  0.00     0.014 C 
BRANCH   8   9
ATOM      9  C   UNL A   1      33.054  26.589  24.908  1.00  0.00    -0.022 A 
ATOM     10  C   UNL A   1      33.303  27.394  26.022  1.00  0.00     0.047 A 
ATOM     11  C   UNL A   1      32.482  27.169  23.766  1.00  0.00     0.014 A 
ATOM     12  C   UNL A   1      32.942  28.738  25.998  1.00  0.00     0.124 A 
ATOM     13  C   UNL A   1      32.072  28.511  23.759  1.00  0.00    -0.019 A 
ATOM     14  F   UNL A   1      33.167  29.497  27.078  1.00  0.00    -0.207 F 
ATOM     15  C   UNL A   1      32.320  29.300  24.887  1.00  0.00     0.045 A 
BRANCH  13  16
ATOM     16  C   UNL A   1      31.305  29.061  22.581  1.00  0.00     0.196 C 
BRANCH  16  17
ATOM     17  O   UNL A   1      30.167  28.275  22.229  1.00  0.00    -0.369 OA
BRANCH  17  18
ATOM     18  C   UNL A   1      28.907  28.705  22.757  1.00  0.00     0.235 C 
BRANCH  18  19
ATOM     19  C   UNL A   1      28.596  30.102  22.359  1.00  0.00     0.129 A 
ATOM     20  C   UNL A   1      28.509  31.289  23.059  1.00  0.00     0.048 A 
ATOM     21  O   UNL A   1      28.402  30.339  21.029  1.00  0.00    -0.467 OA
ATOM     22  C   UNL A   1      28.219  32.298  22.112  1.00  0.00     0.042 A 
ATOM     23  C   UNL A   1      28.181  31.671  20.889  1.00  0.00     0.195 A 
ENDBRANCH  18  19
ENDBRANCH  17  18
ENDBRANCH  16  17
ENDBRANCH  13  16
ENDBRANCH   8   9
ENDBRANCH   5   7
ENDBRANCH   2   3
ENDBRANCH   1   2
BRANCH   1  24
ATOM     24  C   UNL A   1      35.051  19.736  24.717  1.00  0.00     0.002 C 
BRANCH  24  25
ATOM     25  C   UNL A   1      36.232  20.608  25.157  1.00  0.00     0.002 C 
BRANCH  25  26
ATOM     26  C   UNL A   1      37.617  20.081  24.773  1.00  0.00     0.021 C 
BRANCH  26  27
ATOM     27  C   UNL A   1      38.745  20.461  25.729  1.00  0.00     0.116 C 
BRANCH  27  28
ATOM     28  N   UNL A   1      39.807  19.468  25.766  1.00  0.00    -0.352 N 
ATOM     29  C   UNL A   1      41.133  19.611  26.091  1.00  0.00     0.251 C 
ATOM     30  H   UNL A   1      39.534  18.555  25.522  1.00  0.00     0.163 HD
ATOM     31  O   UNL A   1      41.911  18.673  25.910  1.00  0.00    -0.269 OA
BRANCH  29  32
ATOM     32  C   UNL A   1      41.644  20.890  26.628  1.00  0.00     0.039 A 
ATOM     33  C   UNL A   1      42.029  21.890  25.729  1.00  0.00     0.014 A 
ATOM     34  C   UNL A   1      41.760  21.109  28.004  1.00  0.00     0.014 A 
ATOM     35  C   UNL A   1      42.462  23.128  26.209  1.00  0.00     0.010 A 
ATOM     36  C   UNL A   1      42.125  22.367  28.481  1.00  0.00     0.010 A 
ATOM     37  C   UNL A   1      42.474  23.391  27.590  1.00  0.00    -0.014 A 
BRANCH  37  38
ATOM     38  C   UNL A   1      42.816  24.742  28.104  1.00  0.00     0.031 A 
ATOM     39  C   UNL A   1      41.753  25.785  28.299  1.00  0.00     0.074 A 
ATOM     40  C   UNL A   1      44.105  25.046  28.351  1.00  0.00     0.049 A 
ATOM     41  N   UNL A   1      41.876  27.019  28.719  1.00  0.00    -0.248 NA
ATOM     42  C   UNL A   1      40.374  25.400  27.961  1.00  0.00     0.031 C 
ATOM     43  C   UNL A   1      45.238  24.139  28.155  1.00  0.00     0.029 A 
ATOM     44  N   UNL A   1      44.682  26.200  28.819  1.00  0.00    -0.354 N 
ATOM     45  C   UNL A   1      40.595  27.557  28.692  1.00  0.00     0.074 A 
ATOM     46  C   UNL A   1      39.720  26.535  28.162  1.00  0.00     0.031 C 
ATOM     47  C   UNL A   1      46.366  24.756  28.537  1.00  0.00     0.029 A 
ATOM     48  C   UNL A   1      46.045  26.114  28.966  1.00  0.00     0.049 A 
ATOM     49  H   UNL A   1      44.167  27.013  29.030  1.00  0.00     0.167 HD
ATOM     50  C   UNL A   1      40.184  28.782  29.096  1.00  0.00     0.037 A 
ATOM     51  C   UNL A   1      46.939  27.024  29.400  1.00  0.00     0.037 A 
ATOM     52  C   UNL A   1      41.055  29.793  29.639  1.00  0.00     0.049 A 
ATOM     53  C   UNL A   1      46.463  28.381  29.825  1.00  0.00     0.074 A 
ATOM     54  C   UNL A   1      40.721  31.043  30.130  1.00  0.00     0.029 A 
ATOM     55  N   UNL A   1      42.432  29.674  29.755  1.00  0.00    -0.354 N 
ATOM     56  N   UNL A   1      45.242  28.855  29.853  1.00  0.00    -0.248 NA
ATOM     57  C   UNL A   1      47.488  29.331  30.282  1.00  0.00     0.031 C 
ATOM     58  C   UNL A   1      41.900  31.699  30.497  1.00  0.00     0.029 A 
ATOM     59  C   UNL A   1      42.965  30.839  30.283  1.00  0.00     0.049 A 
ATOM     60  H   UNL A   1      42.954  28.879  29.500  1.00  0.00     0.167 HD
ATOM     61  C   UNL A   1      45.346  30.152  30.339  1.00  0.00     0.074 A 
ATOM     62  C   UNL A   1      46.750  30.384  30.613  1.00  0.00     0.031 C 
ATOM     63  C   UNL A   1      44.366  31.065  30.540  1.00  0.00     0.037 A 
BRANCH  50  64
ATOM     64  C   UNL A   1      38.720  29.098  28.980  1.00  0.00     0.057 A 
ATOM     65  C   UNL A   1      38.180  29.566  27.776  1.00  0.00     0.134 A 
ATOM     66  C   UNL A   1      37.854  28.989  30.076  1.00  0.00     0.134 A 
ATOM     67  F   UNL A   1      38.954  29.702  26.689  1.00  0.00    -0.206 F 
ATOM     68  C   UNL A   1      36.834  29.919  27.667  1.00  0.00     0.040 A 
ATOM     69  C   UNL A   1      36.500  29.313  29.974  1.00  0.00     0.040 A 
ATOM     70  F   UNL A   1      38.305  28.538  31.257  1.00  0.00    -0.206 F 
ATOM     71  C   UNL A   1      35.989  29.788  28.768  1.00  0.00     0.006 A 
ENDBRANCH  50  64
BRANCH  51  72
ATOM     72  C   UNL A   1      48.372  26.648  29.486  1.00  0.00     0.057 A 
ATOM     73  C   UNL A   1      49.264  26.912  28.439  1.00  0.00     0.134 A 
ATOM     74  C   UNL A   1      48.869  25.968  30.603  1.00  0.00     0.134 A 
ATOM     75  F   UNL A   1      48.846  27.552  27.338  1.00  0.00    -0.206 F 
ATOM     76  C   UNL A   1      50.593  26.490  28.490  1.00  0.00     0.040 A 
ATOM     77  C   UNL A   1      50.202  25.559  30.677  1.00  0.00     0.040 A 
ATOM     78  F   UNL A   1      48.066  25.702  31.644  1.00  0.00    -0.206 F 
ATOM     79  C   UNL A   1      51.065  25.812  29.613  1.00  0.00     0.006 A 
ENDBRANCH  51  72
BRANCH  63  80
ATOM     80  C   UNL A   1      44.767  32.406  31.082  1.00  0.00     0.057 A 
ATOM     81  C   UNL A   1      45.069  33.466  30.217  1.00  0.00     0.134 A 
ATOM     82  C   UNL A   1      44.919  32.629  32.456  1.00  0.00     0.134 A 
ATOM     83  F   UNL A   1      44.954  33.317  28.889  1.00  0.00    -0.206 F 
ATOM     84  C   UNL A   1      45.522  34.695  30.699  1.00  0.00     0.040 A 
ATOM     85  C   UNL A   1      45.346  33.862  32.952  1.00  0.00     0.040 A 
ATOM     86  F   UNL A   1      44.634  31.658  33.337  1.00  0.00    -0.206 F 
ATOM     87  C   UNL A   1      45.658  34.896  32.071  1.00  0.00     0.006 A 
ENDBRANCH  63  80
ENDBRANCH  37  38
ENDBRANCH  29  32
ENDBRANCH  27  28
ENDBRANCH  26  27
ENDBRANCH  25  26
ENDBRANCH  24  25
ENDBRANCH   1  24
TORSDOF 18
ENDMDL
