MODEL 1
REMARK VINA RESULT:     -10.6      0.000      0.000
REMARK SMILES CCC[NH2+]C[C@H]1CCC[N@@H+](Cc2ccc(C(=O)NCCCCCCNC(=O)c3ccc(-c4c5nc(c(-c6c(F)cccc6F)c6ccc([nH]6)c(-c6c(F)cccc6F)c6nc(c(-c7c(F)cccc7F)c7ccc4[nH]7)C=C6)C=C5)cc3)cc2)C1
REMARK SMILES IDX 19 1 18 2 16 3 17 4 15 6 12 7 13 8 83 9 14 10 82 11 11 12
REMARK SMILES IDX 10 13 6 14 7 15 84 16 8 17 9 18 5 20 4 21 3 24 2 25 1 26
REMARK SMILES IDX 20 27 21 28 22 29 23 30 24 31 25 32 26 33 27 35 28 36 29 37
REMARK SMILES IDX 81 38 30 39 80 40 31 41 32 42 33 43 74 44 34 45 79 46 73 47
REMARK SMILES IDX 75 48 35 49 78 50 72 51 71 52 36 54 62 55 45 56 61 57 46 58
REMARK SMILES IDX 49 59 60 60 76 61 47 62 48 63 59 65 77 66 50 67 37 68 38 69
REMARK SMILES IDX 43 70 39 71 40 72 42 73 44 74 41 75 63 76 64 77 69 78 65 79
REMARK SMILES IDX 66 80 68 81 70 82 67 83 51 84 52 85 57 86 53 87 54 88 56 89
REMARK SMILES IDX 58 90 55 91
REMARK H PARENT 18 5 10 19 4 22 4 23 25 34 75 53 49 64
REMARK Flexibility Score: inf
ROOT
ATOM      1  C   UNL A   1      34.903  30.542  27.692  1.00  0.00     0.116 C 
ENDROOT
BRANCH   1   2
ATOM      2  N   UNL A   1      33.590  30.790  27.127  1.00  0.00    -0.352 N 
ATOM      3  C   UNL A   1      32.841  30.105  26.205  1.00  0.00     0.251 C 
ATOM      4  O   UNL A   1      31.740  30.560  25.896  1.00  0.00    -0.269 OA
ATOM      5  H   UNL A   1      33.155  31.603  27.471  1.00  0.00     0.163 HD
BRANCH   3   6
ATOM      6  C   UNL A   1      33.269  28.800  25.644  1.00  0.00     0.039 A 
ATOM      7  C   UNL A   1      33.846  26.364  24.349  1.00  0.00     0.006 A 
ATOM      8  C   UNL A   1      33.891  27.571  23.642  1.00  0.00     0.010 A 
ATOM      9  C   UNL A   1      33.636  26.410  25.738  1.00  0.00     0.010 A 
ATOM     10  C   UNL A   1      33.608  28.777  24.285  1.00  0.00     0.014 A 
ATOM     11  C   UNL A   1      33.353  27.618  26.382  1.00  0.00     0.014 A 
BRANCH   7  12
ATOM     12  C   UNL A   1      33.972  25.040  23.611  1.00  0.00     0.299 C 
BRANCH  12  13
ATOM     13  N   UNL A   1      34.318  23.860  24.436  1.00  0.00    -0.331 N 
ATOM     14  C   UNL A   1      33.787  21.416  24.894  1.00  0.00     0.099 C 
ATOM     15  C   UNL A   1      35.296  21.152  25.004  1.00  0.00     0.021 C 
ATOM     16  C   UNL A   1      33.529  22.683  24.067  1.00  0.00     0.271 C 
ATOM     17  C   UNL A   1      36.044  22.414  25.428  1.00  0.00     0.062 C 
ATOM     18  C   UNL A   1      35.752  23.574  24.474  1.00  0.00     0.262 C 
ATOM     19  H   UNL A   1      34.064  24.105  25.393  1.00  0.00     0.348 HD
BRANCH  14  20
ATOM     20  C   UNL A   1      33.080  20.185  24.264  1.00  0.00     0.269 C 
BRANCH  20  21
ATOM     21  N   UNL A   1      33.721  18.896  24.529  1.00  0.00    -0.346 N 
ATOM     22  H   UNL A   1      34.672  18.934  24.161  1.00  0.00     0.346 HD
ATOM     23  H   UNL A   1      33.685  18.761  25.540  1.00  0.00     0.346 HD
BRANCH  21  24
ATOM     24  C   UNL A   1      33.052  17.740  23.938  1.00  0.00     0.260 C 
BRANCH  24  25
ATOM     25  C   UNL A   1      33.994  16.547  23.729  1.00  0.00     0.058 C 
ATOM     26  C   UNL A   1      34.785  16.146  24.969  1.00  0.00     0.010 C 
ENDBRANCH  24  25
ENDBRANCH  21  24
ENDBRANCH  20  21
ENDBRANCH  14  20
ENDBRANCH  12  13
ENDBRANCH   7  12
ENDBRANCH   3   6
ENDBRANCH   1   2
BRANCH   1  27
ATOM     27  C   UNL A   1      35.597  31.871  27.994  1.00  0.00     0.021 C 
BRANCH  27  28
ATOM     28  C   UNL A   1      34.641  32.948  28.530  1.00  0.00     0.002 C 
BRANCH  28  29
ATOM     29  C   UNL A   1      35.190  34.379  28.483  1.00  0.00     0.002 C 
BRANCH  29  30
ATOM     30  C   UNL A   1      34.155  35.472  28.758  1.00  0.00     0.021 C 
BRANCH  30  31
ATOM     31  C   UNL A   1      32.903  34.976  29.475  1.00  0.00     0.116 C 
BRANCH  31  32
ATOM     32  N   UNL A   1      32.466  35.910  30.501  1.00  0.00    -0.352 N 
ATOM     33  C   UNL A   1      32.834  35.976  31.822  1.00  0.00     0.251 C 
ATOM     34  H   UNL A   1      31.817  36.590  30.207  1.00  0.00     0.163 HD
ATOM     35  O   UNL A   1      32.208  36.673  32.610  1.00  0.00    -0.269 OA
BRANCH  33  36
ATOM     36  C   UNL A   1      33.990  35.182  32.290  1.00  0.00     0.039 A 
ATOM     37  C   UNL A   1      33.772  33.914  32.833  1.00  0.00     0.014 A 
ATOM     38  C   UNL A   1      35.286  35.694  32.187  1.00  0.00     0.014 A 
ATOM     39  C   UNL A   1      34.863  33.136  33.224  1.00  0.00     0.010 A 
ATOM     40  C   UNL A   1      36.374  34.888  32.503  1.00  0.00     0.010 A 
ATOM     41  C   UNL A   1      36.173  33.604  33.033  1.00  0.00    -0.014 A 
BRANCH  41  42
ATOM     42  C   UNL A   1      37.355  32.781  33.398  1.00  0.00     0.031 A 
ATOM     43  C   UNL A   1      38.097  33.066  34.675  1.00  0.00     0.074 A 
ATOM     44  C   UNL A   1      37.801  31.834  32.549  1.00  0.00     0.049 A 
ATOM     45  N   UNL A   1      39.210  32.540  35.120  1.00  0.00    -0.248 NA
ATOM     46  C   UNL A   1      37.529  34.101  35.557  1.00  0.00     0.031 C 
ATOM     47  C   UNL A   1      37.188  31.487  31.265  1.00  0.00     0.029 A 
ATOM     48  N   UNL A   1      38.886  30.998  32.634  1.00  0.00    -0.354 N 
ATOM     49  C   UNL A   1      39.484  33.193  36.315  1.00  0.00     0.074 A 
ATOM     50  C   UNL A   1      38.451  34.186  36.505  1.00  0.00     0.031 C 
ATOM     51  C   UNL A   1      37.896  30.499  30.692  1.00  0.00     0.029 A 
ATOM     52  C   UNL A   1      39.037  30.175  31.542  1.00  0.00     0.049 A 
ATOM     53  H   UNL A   1      39.500  30.987  33.405  1.00  0.00     0.167 HD
ATOM     54  C   UNL A   1      40.497  32.971  37.185  1.00  0.00     0.037 A 
ATOM     55  C   UNL A   1      39.997  29.275  31.254  1.00  0.00     0.037 A 
ATOM     56  C   UNL A   1      41.502  31.957  37.010  1.00  0.00     0.049 A 
ATOM     57  C   UNL A   1      41.120  29.063  32.234  1.00  0.00     0.074 A 
ATOM     58  C   UNL A   1      42.530  31.609  37.869  1.00  0.00     0.029 A 
ATOM     59  N   UNL A   1      41.607  31.131  35.902  1.00  0.00    -0.354 N 
ATOM     60  N   UNL A   1      41.327  29.638  33.395  1.00  0.00    -0.248 NA
ATOM     61  C   UNL A   1      42.141  28.072  31.868  1.00  0.00     0.031 C 
ATOM     62  C   UNL A   1      43.290  30.608  37.256  1.00  0.00     0.029 A 
ATOM     63  C   UNL A   1      42.699  30.291  36.044  1.00  0.00     0.049 A 
ATOM     64  H   UNL A   1      40.997  31.140  35.130  1.00  0.00     0.167 HD
ATOM     65  C   UNL A   1      42.474  29.049  33.912  1.00  0.00     0.074 A 
ATOM     66  C   UNL A   1      42.912  28.065  32.946  1.00  0.00     0.031 C 
ATOM     67  C   UNL A   1      43.105  29.296  35.086  1.00  0.00     0.037 A 
BRANCH  54  68
ATOM     68  C   UNL A   1      40.574  33.834  38.411  1.00  0.00     0.057 A 
ATOM     69  C   UNL A   1      41.354  34.996  38.451  1.00  0.00     0.134 A 
ATOM     70  C   UNL A   1      39.801  33.536  39.541  1.00  0.00     0.134 A 
ATOM     71  F   UNL A   1      42.127  35.334  37.407  1.00  0.00    -0.206 F 
ATOM     72  C   UNL A   1      41.377  35.822  39.576  1.00  0.00     0.040 A 
ATOM     73  C   UNL A   1      39.793  34.369  40.661  1.00  0.00     0.040 A 
ATOM     74  F   UNL A   1      39.027  32.441  39.567  1.00  0.00    -0.206 F 
ATOM     75  C   UNL A   1      40.586  35.514  40.681  1.00  0.00     0.006 A 
ENDBRANCH  54  68
BRANCH  55  76
ATOM     76  C   UNL A   1      39.947  28.495  29.990  1.00  0.00     0.057 A 
ATOM     77  C   UNL A   1      39.253  27.282  29.916  1.00  0.00     0.134 A 
ATOM     78  C   UNL A   1      40.630  28.916  28.842  1.00  0.00     0.134 A 
ATOM     79  F   UNL A   1      38.593  26.816  30.987  1.00  0.00    -0.206 F 
ATOM     80  C   UNL A   1      39.268  26.496  28.762  1.00  0.00     0.040 A 
ATOM     81  C   UNL A   1      40.630  28.155  27.671  1.00  0.00     0.040 A 
ATOM     82  F   UNL A   1      41.308  30.073  28.841  1.00  0.00    -0.206 F 
ATOM     83  C   UNL A   1      39.959  26.934  27.634  1.00  0.00     0.006 A 
ENDBRANCH  55  76
BRANCH  67  84
ATOM     84  C   UNL A   1      44.297  28.450  35.425  1.00  0.00     0.057 A 
ATOM     85  C   UNL A   1      44.177  27.230  36.102  1.00  0.00     0.134 A 
ATOM     86  C   UNL A   1      45.579  28.840  35.013  1.00  0.00     0.134 A 
ATOM     87  F   UNL A   1      42.980  26.806  36.533  1.00  0.00    -0.206 F 
ATOM     88  C   UNL A   1      45.294  26.439  36.377  1.00  0.00     0.040 A 
ATOM     89  C   UNL A   1      46.698  28.042  35.255  1.00  0.00     0.040 A 
ATOM     90  F   UNL A   1      45.761  29.992  34.351  1.00  0.00    -0.206 F 
ATOM     91  C   UNL A   1      46.556  26.840  35.944  1.00  0.00     0.006 A 
ENDBRANCH  67  84
ENDBRANCH  41  42
ENDBRANCH  33  36
ENDBRANCH  31  32
ENDBRANCH  30  31
ENDBRANCH  29  30
ENDBRANCH  28  29
ENDBRANCH  27  28
ENDBRANCH   1  27
TORSDOF 19
ENDMDL
MODEL 2
REMARK VINA RESULT:     -10.0      3.423      9.165
REMARK SMILES CCC[NH2+]C[C@H]1CCC[N@@H+](Cc2ccc(C(=O)NCCCCCCNC(=O)c3ccc(-c4c5nc(c(-c6c(F)cccc6F)c6ccc([nH]6)c(-c6c(F)cccc6F)c6nc(c(-c7c(F)cccc7F)c7ccc4[nH]7)C=C6)C=C5)cc3)cc2)C1
REMARK SMILES IDX 19 1 18 2 16 3 17 4 15 6 12 7 13 8 83 9 14 10 82 11 11 12
REMARK SMILES IDX 10 13 6 14 7 15 84 16 8 17 9 18 5 20 4 21 3 24 2 25 1 26
REMARK SMILES IDX 20 27 21 28 22 29 23 30 24 31 25 32 26 33 27 35 28 36 29 37
REMARK SMILES IDX 81 38 30 39 80 40 31 41 32 42 33 43 74 44 34 45 79 46 73 47
REMARK SMILES IDX 75 48 35 49 78 50 72 51 71 52 36 54 62 55 45 56 61 57 46 58
REMARK SMILES IDX 49 59 60 60 76 61 47 62 48 63 59 65 77 66 50 67 37 68 38 69
REMARK SMILES IDX 43 70 39 71 40 72 42 73 44 74 41 75 63 76 64 77 69 78 65 79
REMARK SMILES IDX 66 80 68 81 70 82 67 83 51 84 52 85 57 86 53 87 54 88 56 89
REMARK SMILES IDX 58 90 55 91
REMARK H PARENT 18 5 10 19 4 22 4 23 25 34 75 53 49 64
REMARK Flexibility Score: inf
ROOT
ATOM      1  C   UNL A   1      36.026  21.371  25.578  1.00  0.00     0.116 C 
ENDROOT
BRANCH   1   2
ATOM      2  N   UNL A   1      35.341  20.191  25.083  1.00  0.00    -0.352 N 
ATOM      3  C   UNL A   1      34.047  19.978  24.687  1.00  0.00     0.251 C 
ATOM      4  O   UNL A   1      33.731  18.849  24.314  1.00  0.00    -0.269 OA
ATOM      5  H   UNL A   1      35.915  19.394  25.021  1.00  0.00     0.163 HD
BRANCH   3   6
ATOM      6  C   UNL A   1      33.049  21.074  24.605  1.00  0.00     0.039 A 
ATOM      7  C   UNL A   1      31.391  23.332  24.298  1.00  0.00     0.006 A 
ATOM      8  C   UNL A   1      31.995  22.739  23.184  1.00  0.00     0.010 A 
ATOM      9  C   UNL A   1      31.526  22.701  25.547  1.00  0.00     0.010 A 
ATOM     10  C   UNL A   1      32.813  21.619  23.336  1.00  0.00     0.014 A 
ATOM     11  C   UNL A   1      32.346  21.578  25.700  1.00  0.00     0.014 A 
BRANCH   7  12
ATOM     12  C   UNL A   1      30.654  24.655  24.156  1.00  0.00     0.299 C 
BRANCH  12  13
ATOM     13  N   UNL A   1      31.480  25.833  23.808  1.00  0.00    -0.331 N 
ATOM     14  C   UNL A   1      31.629  28.370  23.903  1.00  0.00     0.099 C 
ATOM     15  C   UNL A   1      33.111  28.227  24.282  1.00  0.00     0.021 C 
ATOM     16  C   UNL A   1      30.866  27.085  24.255  1.00  0.00     0.271 C 
ATOM     17  C   UNL A   1      33.688  26.917  23.751  1.00  0.00     0.062 C 
ATOM     18  C   UNL A   1      32.874  25.717  24.238  1.00  0.00     0.262 C 
ATOM     19  H   UNL A   1      31.512  25.859  22.789  1.00  0.00     0.348 HD
BRANCH  14  20
ATOM     20  C   UNL A   1      31.014  29.598  24.628  1.00  0.00     0.269 C 
BRANCH  20  21
ATOM     21  N   UNL A   1      30.152  30.443  23.799  1.00  0.00    -0.346 N 
ATOM     22  H   UNL A   1      29.542  30.976  24.418  1.00  0.00     0.346 HD
ATOM     23  H   UNL A   1      30.775  31.028  23.242  1.00  0.00     0.346 HD
BRANCH  21  24
ATOM     24  C   UNL A   1      29.312  29.720  22.848  1.00  0.00     0.260 C 
BRANCH  24  25
ATOM     25  C   UNL A   1      27.873  30.249  22.800  1.00  0.00     0.058 C 
ATOM     26  C   UNL A   1      27.664  31.570  23.530  1.00  0.00     0.010 C 
ENDBRANCH  24  25
ENDBRANCH  21  24
ENDBRANCH  20  21
ENDBRANCH  14  20
ENDBRANCH  12  13
ENDBRANCH   7  12
ENDBRANCH   3   6
ENDBRANCH   1   2
BRANCH   1  27
ATOM     27  C   UNL A   1      37.358  21.543  24.845  1.00  0.00     0.021 C 
BRANCH  27  28
ATOM     28  C   UNL A   1      38.506  20.739  25.475  1.00  0.00     0.002 C 
BRANCH  28  29
ATOM     29  C   UNL A   1      39.615  21.588  26.107  1.00  0.00     0.002 C 
BRANCH  29  30
ATOM     30  C   UNL A   1      40.875  20.810  26.494  1.00  0.00     0.021 C 
BRANCH  30  31
ATOM     31  C   UNL A   1      41.999  21.681  27.044  1.00  0.00     0.116 C 
BRANCH  31  32
ATOM     32  N   UNL A   1      42.810  22.250  25.978  1.00  0.00    -0.352 N 
ATOM     33  C   UNL A   1      43.029  23.570  25.669  1.00  0.00     0.251 C 
ATOM     34  H   UNL A   1      43.268  21.597  25.399  1.00  0.00     0.163 HD
ATOM     35  O   UNL A   1      43.551  23.884  24.608  1.00  0.00    -0.269 OA
BRANCH  33  36
ATOM     36  C   UNL A   1      42.612  24.614  26.629  1.00  0.00     0.039 A 
ATOM     37  C   UNL A   1      41.488  24.396  27.429  1.00  0.00     0.014 A 
ATOM     38  C   UNL A   1      43.336  25.804  26.736  1.00  0.00     0.014 A 
ATOM     39  C   UNL A   1      41.122  25.352  28.377  1.00  0.00     0.010 A 
ATOM     40  C   UNL A   1      43.016  26.719  27.733  1.00  0.00     0.010 A 
ATOM     41  C   UNL A   1      41.901  26.507  28.558  1.00  0.00    -0.014 A 
BRANCH  41  42
ATOM     42  C   UNL A   1      41.563  27.521  29.589  1.00  0.00     0.031 A 
ATOM     43  C   UNL A   1      42.299  27.525  30.901  1.00  0.00     0.074 A 
ATOM     44  C   UNL A   1      40.549  28.384  29.376  1.00  0.00     0.049 A 
ATOM     45  N   UNL A   1      42.083  28.250  31.969  1.00  0.00    -0.248 NA
ATOM     46  C   UNL A   1      43.408  26.565  31.043  1.00  0.00     0.031 C 
ATOM     47  C   UNL A   1      39.737  28.456  28.159  1.00  0.00     0.029 A 
ATOM     48  N   UNL A   1      40.019  29.356  30.186  1.00  0.00    -0.354 N 
ATOM     49  C   UNL A   1      43.009  27.820  32.911  1.00  0.00     0.074 A 
ATOM     50  C   UNL A   1      43.759  26.740  32.309  1.00  0.00     0.031 C 
ATOM     51  C   UNL A   1      38.825  29.432  28.297  1.00  0.00     0.029 A 
ATOM     52  C   UNL A   1      38.954  30.022  29.625  1.00  0.00     0.049 A 
ATOM     53  H   UNL A   1      40.367  29.559  31.085  1.00  0.00     0.167 HD
ATOM     54  C   UNL A   1      43.228  28.296  34.159  1.00  0.00     0.037 A 
ATOM     55  C   UNL A   1      38.164  30.987  30.133  1.00  0.00     0.037 A 
ATOM     56  C   UNL A   1      42.503  29.395  34.740  1.00  0.00     0.049 A 
ATOM     57  C   UNL A   1      38.421  31.485  31.531  1.00  0.00     0.074 A 
ATOM     58  C   UNL A   1      42.697  29.996  35.971  1.00  0.00     0.029 A 
ATOM     59  N   UNL A   1      41.448  30.057  34.131  1.00  0.00    -0.354 N 
ATOM     60  N   UNL A   1      39.347  31.117  32.384  1.00  0.00    -0.248 NA
ATOM     61  C   UNL A   1      37.526  32.535  32.036  1.00  0.00     0.031 C 
ATOM     62  C   UNL A   1      41.723  30.986  36.132  1.00  0.00     0.029 A 
ATOM     63  C   UNL A   1      40.964  31.043  34.975  1.00  0.00     0.049 A 
ATOM     64  H   UNL A   1      41.096  29.856  33.234  1.00  0.00     0.167 HD
ATOM     65  C   UNL A   1      39.172  31.920  33.505  1.00  0.00     0.074 A 
ATOM     66  C   UNL A   1      38.058  32.799  33.221  1.00  0.00     0.031 C 
ATOM     67  C   UNL A   1      39.873  31.931  34.664  1.00  0.00     0.037 A 
BRANCH  54  68
ATOM     68  C   UNL A   1      44.294  27.640  34.986  1.00  0.00     0.057 A 
ATOM     69  C   UNL A   1      45.618  28.096  34.986  1.00  0.00     0.134 A 
ATOM     70  C   UNL A   1      43.976  26.582  35.847  1.00  0.00     0.134 A 
ATOM     71  F   UNL A   1      45.992  29.099  34.177  1.00  0.00    -0.206 F 
ATOM     72  C   UNL A   1      46.591  27.515  35.800  1.00  0.00     0.040 A 
ATOM     73  C   UNL A   1      44.933  26.010  36.687  1.00  0.00     0.040 A 
ATOM     74  F   UNL A   1      42.725  26.099  35.901  1.00  0.00    -0.206 F 
ATOM     75  C   UNL A   1      46.246  26.475  36.662  1.00  0.00     0.006 A 
ENDBRANCH  54  68
BRANCH  55  76
ATOM     76  C   UNL A   1      37.056  31.560  29.325  1.00  0.00     0.057 A 
ATOM     77  C   UNL A   1      37.155  32.840  28.766  1.00  0.00     0.134 A 
ATOM     78  C   UNL A   1      35.854  30.867  29.133  1.00  0.00     0.134 A 
ATOM     79  F   UNL A   1      38.274  33.562  28.930  1.00  0.00    -0.206 F 
ATOM     80  C   UNL A   1      36.091  33.426  28.078  1.00  0.00     0.040 A 
ATOM     81  C   UNL A   1      34.792  31.429  28.421  1.00  0.00     0.040 A 
ATOM     82  F   UNL A   1      35.694  29.634  29.634  1.00  0.00    -0.206 F 
ATOM     83  C   UNL A   1      34.904  32.718  27.904  1.00  0.00     0.006 A 
ENDBRANCH  55  76
BRANCH  67  84
ATOM     84  C   UNL A   1      39.506  32.965  35.688  1.00  0.00     0.057 A 
ATOM     85  C   UNL A   1      38.543  32.726  36.677  1.00  0.00     0.134 A 
ATOM     86  C   UNL A   1      40.172  34.197  35.717  1.00  0.00     0.134 A 
ATOM     87  F   UNL A   1      37.862  31.570  36.698  1.00  0.00    -0.206 F 
ATOM     88  C   UNL A   1      38.241  33.686  37.644  1.00  0.00     0.040 A 
ATOM     89  C   UNL A   1      39.900  35.152  36.697  1.00  0.00     0.040 A 
ATOM     90  F   UNL A   1      41.112  34.486  34.805  1.00  0.00    -0.206 F 
ATOM     91  C   UNL A   1      38.927  34.898  37.661  1.00  0.00     0.006 A 
ENDBRANCH  67  84
ENDBRANCH  41  42
ENDBRANCH  33  36
ENDBRANCH  31  32
ENDBRANCH  30  31
ENDBRANCH  29  30
ENDBRANCH  28  29
ENDBRANCH  27  28
ENDBRANCH   1  27
TORSDOF 19
ENDMDL
MODEL 3
REMARK VINA RESULT:     -10.0      1.565      6.381
REMARK SMILES CCC[NH2+]C[C@H]1CCC[N@@H+](Cc2ccc(C(=O)NCCCCCCNC(=O)c3ccc(-c4c5nc(c(-c6c(F)cccc6F)c6ccc([nH]6)c(-c6c(F)cccc6F)c6nc(c(-c7c(F)cccc7F)c7ccc4[nH]7)C=C6)C=C5)cc3)cc2)C1
REMARK SMILES IDX 19 1 18 2 16 3 17 4 15 6 12 7 13 8 83 9 14 10 82 11 11 12
REMARK SMILES IDX 10 13 6 14 7 15 84 16 8 17 9 18 5 20 4 21 3 24 2 25 1 26
REMARK SMILES IDX 20 27 21 28 22 29 23 30 24 31 25 32 26 33 27 35 28 36 29 37
REMARK SMILES IDX 81 38 30 39 80 40 31 41 32 42 33 43 74 44 34 45 79 46 73 47
REMARK SMILES IDX 75 48 35 49 78 50 72 51 71 52 36 54 62 55 45 56 61 57 46 58
REMARK SMILES IDX 49 59 60 60 76 61 47 62 48 63 59 65 77 66 50 67 37 68 38 69
REMARK SMILES IDX 43 70 39 71 40 72 42 73 44 74 41 75 63 76 64 77 69 78 65 79
REMARK SMILES IDX 66 80 68 81 70 82 67 83 51 84 52 85 57 86 53 87 54 88 56 89
REMARK SMILES IDX 58 90 55 91
REMARK H PARENT 18 5 10 19 4 22 4 23 25 34 75 53 49 64
REMARK Flexibility Score: inf
ROOT
ATOM      1  C   UNL A   1      32.615  28.896  26.703  1.00  0.00     0.116 C 
ENDROOT
BRANCH   1   2
ATOM      2  N   UNL A   1      31.678  29.567  25.820  1.00  0.00    -0.352 N 
ATOM      3  C   UNL A   1      31.070  29.175  24.656  1.00  0.00     0.251 C 
ATOM      4  O   UNL A   1      30.311  29.968  24.100  1.00  0.00    -0.269 OA
ATOM      5  H   UNL A   1      31.434  30.474  26.113  1.00  0.00     0.163 HD
BRANCH   3   6
ATOM      6  C   UNL A   1      31.220  27.807  24.101  1.00  0.00     0.039 A 
ATOM      7  C   UNL A   1      31.509  25.102  23.362  1.00  0.00     0.006 A 
ATOM      8  C   UNL A   1      30.433  25.508  24.159  1.00  0.00     0.010 A 
ATOM      9  C   UNL A   1      32.361  26.088  22.836  1.00  0.00     0.010 A 
ATOM     10  C   UNL A   1      30.289  26.848  24.522  1.00  0.00     0.014 A 
ATOM     11  C   UNL A   1      32.217  27.431  23.199  1.00  0.00     0.014 A 
BRANCH   7  12
ATOM     12  C   UNL A   1      31.768  23.623  23.121  1.00  0.00     0.299 C 
BRANCH  12  13
ATOM     13  N   UNL A   1      32.814  22.995  23.960  1.00  0.00    -0.331 N 
ATOM     14  C   UNL A   1      33.376  21.002  25.436  1.00  0.00     0.099 C 
ATOM     15  C   UNL A   1      34.762  20.958  24.776  1.00  0.00     0.021 C 
ATOM     16  C   UNL A   1      32.374  21.714  24.517  1.00  0.00     0.271 C 
ATOM     17  C   UNL A   1      35.166  22.335  24.254  1.00  0.00     0.062 C 
ATOM     18  C   UNL A   1      34.112  22.891  23.294  1.00  0.00     0.262 C 
ATOM     19  H   UNL A   1      32.961  23.630  24.744  1.00  0.00     0.348 HD
BRANCH  14  20
ATOM     20  C   UNL A   1      32.902  19.561  25.768  1.00  0.00     0.269 C 
BRANCH  20  21
ATOM     21  N   UNL A   1      33.672  18.491  25.130  1.00  0.00    -0.346 N 
ATOM     22  H   UNL A   1      34.063  18.857  24.261  1.00  0.00     0.346 HD
ATOM     23  H   UNL A   1      34.383  18.208  25.805  1.00  0.00     0.346 HD
BRANCH  21  24
ATOM     24  C   UNL A   1      32.909  17.287  24.812  1.00  0.00     0.260 C 
BRANCH  24  25
ATOM     25  C   UNL A   1      33.597  16.001  25.288  1.00  0.00     0.058 C 
ATOM     26  C   UNL A   1      35.116  16.016  25.162  1.00  0.00     0.010 C 
ENDBRANCH  24  25
ENDBRANCH  21  24
ENDBRANCH  20  21
ENDBRANCH  14  20
ENDBRANCH  12  13
ENDBRANCH   7  12
ENDBRANCH   3   6
ENDBRANCH   1   2
BRANCH   1  27
ATOM     27  C   UNL A   1      34.043  29.098  26.193  1.00  0.00     0.021 C 
BRANCH  27  28
ATOM     28  C   UNL A   1      34.941  29.851  27.187  1.00  0.00     0.002 C 
BRANCH  28  29
ATOM     29  C   UNL A   1      34.216  30.887  28.054  1.00  0.00     0.002 C 
BRANCH  29  30
ATOM     30  C   UNL A   1      33.844  32.183  27.329  1.00  0.00     0.021 C 
BRANCH  30  31
ATOM     31  C   UNL A   1      32.433  32.678  27.625  1.00  0.00     0.116 C 
BRANCH  31  32
ATOM     32  N   UNL A   1      32.387  34.126  27.755  1.00  0.00    -0.352 N 
ATOM     33  C   UNL A   1      33.103  34.941  28.598  1.00  0.00     0.251 C 
ATOM     34  H   UNL A   1      31.757  34.587  27.154  1.00  0.00     0.163 HD
ATOM     35  O   UNL A   1      32.788  36.114  28.747  1.00  0.00    -0.269 OA
BRANCH  33  36
ATOM     36  C   UNL A   1      34.253  34.381  29.338  1.00  0.00     0.039 A 
ATOM     37  C   UNL A   1      34.027  33.700  30.537  1.00  0.00     0.014 A 
ATOM     38  C   UNL A   1      35.551  34.531  28.844  1.00  0.00     0.014 A 
ATOM     39  C   UNL A   1      35.102  33.120  31.212  1.00  0.00     0.010 A 
ATOM     40  C   UNL A   1      36.609  33.886  29.476  1.00  0.00     0.010 A 
ATOM     41  C   UNL A   1      36.397  33.182  30.671  1.00  0.00    -0.014 A 
BRANCH  41  42
ATOM     42  C   UNL A   1      37.553  32.536  31.343  1.00  0.00     0.031 A 
ATOM     43  C   UNL A   1      38.251  31.379  30.679  1.00  0.00     0.074 A 
ATOM     44  C   UNL A   1      37.925  32.937  32.574  1.00  0.00     0.049 A 
ATOM     45  N   UNL A   1      39.203  30.611  31.144  1.00  0.00    -0.248 NA
ATOM     46  C   UNL A   1      37.798  31.020  29.324  1.00  0.00     0.031 C 
ATOM     47  C   UNL A   1      37.305  34.024  33.337  1.00  0.00     0.029 A 
ATOM     48  N   UNL A   1      38.906  32.466  33.409  1.00  0.00    -0.354 N 
ATOM     49  C   UNL A   1      39.445  29.669  30.152  1.00  0.00     0.074 A 
ATOM     50  C   UNL A   1      38.511  29.930  29.080  1.00  0.00     0.031 C 
ATOM     51  C   UNL A   1      37.933  34.147  34.518  1.00  0.00     0.029 A 
ATOM     52  C   UNL A   1      38.965  33.121  34.618  1.00  0.00     0.049 A 
ATOM     53  H   UNL A   1      39.512  31.728  33.167  1.00  0.00     0.167 HD
ATOM     54  C   UNL A   1      40.376  28.687  30.129  1.00  0.00     0.037 A 
ATOM     55  C   UNL A   1      39.753  32.905  35.689  1.00  0.00     0.037 A 
ATOM     56  C   UNL A   1      41.328  28.455  31.183  1.00  0.00     0.049 A 
ATOM     57  C   UNL A   1      40.768  31.794  35.640  1.00  0.00     0.074 A 
ATOM     58  C   UNL A   1      42.356  27.529  31.224  1.00  0.00     0.029 A 
ATOM     59  N   UNL A   1      41.369  29.153  32.380  1.00  0.00    -0.354 N 
ATOM     60  N   UNL A   1      41.033  30.956  34.667  1.00  0.00    -0.248 NA
ATOM     61  C   UNL A   1      41.597  31.600  36.838  1.00  0.00     0.031 C 
ATOM     62  C   UNL A   1      42.984  27.630  32.468  1.00  0.00     0.029 A 
ATOM     63  C   UNL A   1      42.388  28.660  33.176  1.00  0.00     0.049 A 
ATOM     64  H   UNL A   1      40.764  29.890  32.626  1.00  0.00     0.167 HD
ATOM     65  C   UNL A   1      42.085  30.169  35.118  1.00  0.00     0.074 A 
ATOM     66  C   UNL A   1      42.416  30.634  36.448  1.00  0.00     0.031 C 
ATOM     67  C   UNL A   1      42.724  29.155  34.487  1.00  0.00     0.037 A 
BRANCH  54  68
ATOM     68  C   UNL A   1      40.421  27.787  28.929  1.00  0.00     0.057 A 
ATOM     69  C   UNL A   1      39.653  26.619  28.850  1.00  0.00     0.134 A 
ATOM     70  C   UNL A   1      41.190  28.131  27.810  1.00  0.00     0.134 A 
ATOM     71  F   UNL A   1      38.903  26.226  29.892  1.00  0.00    -0.206 F 
ATOM     72  C   UNL A   1      39.659  25.816  27.709  1.00  0.00     0.040 A 
ATOM     73  C   UNL A   1      41.182  27.352  26.651  1.00  0.00     0.040 A 
ATOM     74  F   UNL A   1      41.945  29.240  27.817  1.00  0.00    -0.206 F 
ATOM     75  C   UNL A   1      40.417  26.189  26.601  1.00  0.00     0.006 A 
ENDBRANCH  54  68
BRANCH  55  76
ATOM     76  C   UNL A   1      39.628  33.754  36.902  1.00  0.00     0.057 A 
ATOM     77  C   UNL A   1      38.788  33.385  37.960  1.00  0.00     0.134 A 
ATOM     78  C   UNL A   1      40.304  34.975  37.015  1.00  0.00     0.134 A 
ATOM     79  F   UNL A   1      38.099  32.235  37.904  1.00  0.00    -0.206 F 
ATOM     80  C   UNL A   1      38.594  34.213  39.067  1.00  0.00     0.040 A 
ATOM     81  C   UNL A   1      40.143  35.800  38.131  1.00  0.00     0.040 A 
ATOM     82  F   UNL A   1      41.132  35.385  36.043  1.00  0.00    -0.206 F 
ATOM     83  C   UNL A   1      39.275  35.426  39.154  1.00  0.00     0.006 A 
ENDBRANCH  55  76
BRANCH  67  84
ATOM     84  C   UNL A   1      43.886  28.519  35.192  1.00  0.00     0.057 A 
ATOM     85  C   UNL A   1      43.734  27.403  36.025  1.00  0.00     0.134 A 
ATOM     86  C   UNL A   1      45.186  29.000  34.985  1.00  0.00     0.134 A 
ATOM     87  F   UNL A   1      42.515  26.901  36.273  1.00  0.00    -0.206 F 
ATOM     88  C   UNL A   1      44.831  26.803  36.644  1.00  0.00     0.040 A 
ATOM     89  C   UNL A   1      46.293  28.390  35.574  1.00  0.00     0.040 A 
ATOM     90  F   UNL A   1      45.403  30.059  34.191  1.00  0.00    -0.206 F 
ATOM     91  C   UNL A   1      46.116  27.290  36.411  1.00  0.00     0.006 A 
ENDBRANCH  67  84
ENDBRANCH  41  42
ENDBRANCH  33  36
ENDBRANCH  31  32
ENDBRANCH  30  31
ENDBRANCH  29  30
ENDBRANCH  28  29
ENDBRANCH  27  28
ENDBRANCH   1  27
TORSDOF 19
ENDMDL
