MODEL 1
REMARK VINA RESULT:     -12.4      0.000      0.000
REMARK SMILES Cc1cc(NC(=O)c2ccc(Br)cc2N)ccc1C(=O)NCCCCCCNC(=O)c1ccc(-c2c3nc(c(-c4c(F)cccc4F)c4ccc([nH]4)c(-c4c(F)cccc4F)c4nc(c(-c5c(F)cccc5F)c5ccc2[nH]5)C=C4)C=C3)cc1
REMARK SMILES IDX 24 1 23 2 22 3 21 4 19 5 20 6 18 8 1 9 2 10 3 11 4 12 17 13
REMARK SMILES IDX 16 14 5 15 6 16 7 18 8 19 9 20 14 21 10 22 13 23 11 24 12 25
REMARK SMILES IDX 15 26 25 29 26 30 27 31 28 32 29 33 30 35 31 36 32 37 84 38
REMARK SMILES IDX 33 39 83 40 34 41 35 42 36 43 77 44 37 45 82 46 76 47 78 48
REMARK SMILES IDX 38 49 81 50 75 51 74 52 39 54 65 55 48 56 64 57 49 58 52 59
REMARK SMILES IDX 63 60 79 61 50 62 51 63 62 65 80 66 53 67 40 68 41 69 46 70
REMARK SMILES IDX 42 71 43 72 45 73 47 74 44 75 66 76 67 77 72 78 68 79 69 80
REMARK SMILES IDX 71 81 73 82 70 83 54 84 55 85 60 86 56 87 57 88 59 89 61 90
REMARK SMILES IDX 58 91
REMARK H PARENT 21 7 5 17 15 27 15 28 28 34 78 53 52 64
REMARK Flexibility Score: inf
ROOT
ATOM      1  C   UNL A   1      34.027  28.154  25.567  1.00  0.00     0.002 C 
ENDROOT
BRANCH   1   2
ATOM      2  C   UNL A   1      33.245  29.118  24.664  1.00  0.00     0.021 C 
BRANCH   2   3
ATOM      3  C   UNL A   1      32.739  28.531  23.337  1.00  0.00     0.116 C 
BRANCH   3   4
ATOM      4  N   UNL A   1      31.292  28.586  23.288  1.00  0.00    -0.352 N 
ATOM      5  C   UNL A   1      30.293  27.685  23.545  1.00  0.00     0.251 C 
ATOM      6  O   UNL A   1      29.139  28.086  23.373  1.00  0.00    -0.269 OA
ATOM      7  H   UNL A   1      30.950  29.466  23.006  1.00  0.00     0.163 HD
BRANCH   5   8
ATOM      8  C   UNL A   1      30.478  26.312  24.114  1.00  0.00     0.042 A 
ATOM      9  C   UNL A   1      30.915  26.896  26.588  1.00  0.00     0.045 C 
ATOM     10  C   UNL A   1      30.705  25.944  25.452  1.00  0.00    -0.036 A 
ATOM     11  C   UNL A   1      30.813  24.572  25.778  1.00  0.00     0.030 A 
ATOM     12  C   UNL A   1      30.817  23.581  24.796  1.00  0.00     0.041 A 
ATOM     13  C   UNL A   1      30.550  25.298  23.132  1.00  0.00     0.016 A 
ATOM     14  C   UNL A   1      30.761  23.955  23.461  1.00  0.00     0.027 A 
BRANCH  12  15
ATOM     15  N   UNL A   1      30.895  22.212  25.099  1.00  0.00    -0.322 N 
ATOM     16  C   UNL A   1      32.007  21.399  25.193  1.00  0.00     0.257 C 
ATOM     17  H   UNL A   1      30.033  21.768  25.269  1.00  0.00     0.170 HD
ATOM     18  O   UNL A   1      31.881  20.176  25.143  1.00  0.00    -0.269 OA
BRANCH  16  19
ATOM     19  C   UNL A   1      33.359  21.976  25.442  1.00  0.00     0.063 A 
ATOM     20  C   UNL A   1      34.202  22.101  24.325  1.00  0.00     0.017 A 
ATOM     21  C   UNL A   1      33.812  22.354  26.726  1.00  0.00     0.045 A 
ATOM     22  C   UNL A   1      35.484  22.632  24.466  1.00  0.00     0.016 A 
ATOM     23  C   UNL A   1      35.108  22.876  26.845  1.00  0.00     0.042 A 
ATOM     24  C   UNL A   1      35.926  23.025  25.725  1.00  0.00     0.020 A 
ATOM     25  Br  UNL A   1      37.665  23.741  25.930  1.00  0.00    -0.051 Br
BRANCH  21  26
ATOM     26  N   UNL A   1      33.108  22.090  27.900  1.00  0.00    -0.398 N 
ATOM     27  H   UNL A   1      32.126  22.167  27.913  1.00  0.00     0.156 HD
ATOM     28  H   UNL A   1      33.591  21.826  28.716  1.00  0.00     0.156 HD
ENDBRANCH  21  26
ENDBRANCH  16  19
ENDBRANCH  12  15
ENDBRANCH   5   8
ENDBRANCH   3   4
ENDBRANCH   2   3
ENDBRANCH   1   2
BRANCH   1  29
ATOM     29  C   UNL A   1      34.412  28.673  26.959  1.00  0.00     0.002 C 
BRANCH  29  30
ATOM     30  C   UNL A   1      33.650  29.904  27.455  1.00  0.00     0.021 C 
BRANCH  30  31
ATOM     31  C   UNL A   1      34.488  31.176  27.537  1.00  0.00     0.116 C 
BRANCH  31  32
ATOM     32  N   UNL A   1      34.776  31.608  28.899  1.00  0.00    -0.352 N 
ATOM     33  C   UNL A   1      35.724  31.144  29.789  1.00  0.00     0.251 C 
ATOM     34  H   UNL A   1      34.211  32.341  29.235  1.00  0.00     0.163 HD
ATOM     35  O   UNL A   1      35.794  31.631  30.917  1.00  0.00    -0.269 OA
BRANCH  33  36
ATOM     36  C   UNL A   1      36.737  30.153  29.353  1.00  0.00     0.039 A 
ATOM     37  C   UNL A   1      37.005  29.069  30.199  1.00  0.00     0.014 A 
ATOM     38  C   UNL A   1      37.527  30.364  28.225  1.00  0.00     0.014 A 
ATOM     39  C   UNL A   1      38.193  28.358  30.050  1.00  0.00     0.010 A 
ATOM     40  C   UNL A   1      38.743  29.715  28.122  1.00  0.00     0.010 A 
ATOM     41  C   UNL A   1      39.107  28.763  29.077  1.00  0.00    -0.014 A 
BRANCH  41  42
ATOM     42  C   UNL A   1      40.506  28.344  29.074  1.00  0.00     0.031 A 
ATOM     43  C   UNL A   1      40.924  27.073  28.451  1.00  0.00     0.074 A 
ATOM     44  C   UNL A   1      41.434  29.171  29.604  1.00  0.00     0.049 A 
ATOM     45  N   UNL A   1      42.022  26.454  28.730  1.00  0.00    -0.248 NA
ATOM     46  C   UNL A   1      40.103  26.377  27.468  1.00  0.00     0.031 C 
ATOM     47  C   UNL A   1      42.887  29.066  29.499  1.00  0.00     0.029 A 
ATOM     48  N   UNL A   1      41.226  30.165  30.570  1.00  0.00    -0.354 N 
ATOM     49  C   UNL A   1      42.170  25.425  27.832  1.00  0.00     0.074 A 
ATOM     50  C   UNL A   1      40.931  25.400  27.085  1.00  0.00     0.031 C 
ATOM     51  C   UNL A   1      43.437  29.701  30.545  1.00  0.00     0.029 A 
ATOM     52  C   UNL A   1      42.353  30.112  31.420  1.00  0.00     0.049 A 
ATOM     53  H   UNL A   1      40.455  30.775  30.640  1.00  0.00     0.167 HD
ATOM     54  C   UNL A   1      43.361  24.766  27.748  1.00  0.00     0.037 A 
ATOM     55  C   UNL A   1      42.218  29.758  32.732  1.00  0.00     0.037 A 
ATOM     56  C   UNL A   1      44.312  25.231  28.751  1.00  0.00     0.049 A 
ATOM     57  C   UNL A   1      42.970  28.506  33.132  1.00  0.00     0.074 A 
ATOM     58  C   UNL A   1      45.341  26.159  28.749  1.00  0.00     0.029 A 
ATOM     59  N   UNL A   1      44.075  24.924  30.078  1.00  0.00    -0.354 N 
ATOM     60  N   UNL A   1      43.612  27.733  32.300  1.00  0.00    -0.248 NA
ATOM     61  C   UNL A   1      42.969  27.975  34.498  1.00  0.00     0.031 C 
ATOM     62  C   UNL A   1      45.686  26.442  30.101  1.00  0.00     0.029 A 
ATOM     63  C   UNL A   1      44.871  25.679  30.917  1.00  0.00     0.049 A 
ATOM     64  H   UNL A   1      43.422  24.255  30.385  1.00  0.00     0.167 HD
ATOM     65  C   UNL A   1      44.043  26.619  32.966  1.00  0.00     0.074 A 
ATOM     66  C   UNL A   1      43.628  26.816  34.341  1.00  0.00     0.031 C 
ATOM     67  C   UNL A   1      44.671  25.582  32.349  1.00  0.00     0.037 A 
BRANCH  54  68
ATOM     68  C   UNL A   1      43.730  23.851  26.608  1.00  0.00     0.057 A 
ATOM     69  C   UNL A   1      43.466  22.470  26.678  1.00  0.00     0.134 A 
ATOM     70  C   UNL A   1      44.381  24.264  25.434  1.00  0.00     0.134 A 
ATOM     71  F   UNL A   1      42.770  21.935  27.689  1.00  0.00    -0.206 F 
ATOM     72  C   UNL A   1      43.917  21.560  25.713  1.00  0.00     0.040 A 
ATOM     73  C   UNL A   1      44.889  23.360  24.489  1.00  0.00     0.040 A 
ATOM     74  F   UNL A   1      44.512  25.562  25.129  1.00  0.00    -0.206 F 
ATOM     75  C   UNL A   1      44.670  21.998  24.635  1.00  0.00     0.006 A 
ENDBRANCH  54  68
BRANCH  55  76
ATOM     76  C   UNL A   1      40.923  30.189  33.322  1.00  0.00     0.057 A 
ATOM     77  C   UNL A   1      40.752  31.541  33.672  1.00  0.00     0.134 A 
ATOM     78  C   UNL A   1      39.771  29.404  33.230  1.00  0.00     0.134 A 
ATOM     79  F   UNL A   1      41.818  32.351  33.777  1.00  0.00    -0.206 F 
ATOM     80  C   UNL A   1      39.486  32.113  33.807  1.00  0.00     0.040 A 
ATOM     81  C   UNL A   1      38.498  29.963  33.383  1.00  0.00     0.040 A 
ATOM     82  F   UNL A   1      39.849  28.112  32.881  1.00  0.00    -0.206 F 
ATOM     83  C   UNL A   1      38.352  31.326  33.633  1.00  0.00     0.006 A 
ENDBRANCH  55  76
BRANCH  67  84
ATOM     84  C   UNL A   1      45.151  24.382  33.092  1.00  0.00     0.057 A 
ATOM     85  C   UNL A   1      44.352  23.240  33.240  1.00  0.00     0.134 A 
ATOM     86  C   UNL A   1      46.372  24.388  33.785  1.00  0.00     0.134 A 
ATOM     87  F   UNL A   1      43.158  23.156  32.634  1.00  0.00    -0.206 F 
ATOM     88  C   UNL A   1      44.754  22.157  34.027  1.00  0.00     0.040 A 
ATOM     89  C   UNL A   1      46.768  23.329  34.603  1.00  0.00     0.040 A 
ATOM     90  F   UNL A   1      47.225  25.419  33.679  1.00  0.00    -0.206 F 
ATOM     91  C   UNL A   1      45.958  22.206  34.724  1.00  0.00     0.006 A 
ENDBRANCH  67  84
ENDBRANCH  41  42
ENDBRANCH  33  36
ENDBRANCH  31  32
ENDBRANCH  30  31
ENDBRANCH  29  30
ENDBRANCH   1  29
TORSDOF 16
ENDMDL
MODEL 2
REMARK VINA RESULT:     -12.2      3.785      9.139
REMARK SMILES Cc1cc(NC(=O)c2ccc(Br)cc2N)ccc1C(=O)NCCCCCCNC(=O)c1ccc(-c2c3nc(c(-c4c(F)cccc4F)c4ccc([nH]4)c(-c4c(F)cccc4F)c4nc(c(-c5c(F)cccc5F)c5ccc2[nH]5)C=C4)C=C3)cc1
REMARK SMILES IDX 24 1 23 2 22 3 21 4 19 5 20 6 18 8 1 9 2 10 3 11 4 12 17 13
REMARK SMILES IDX 16 14 5 15 6 16 7 18 8 19 9 20 14 21 10 22 13 23 11 24 12 25
REMARK SMILES IDX 15 26 25 29 26 30 27 31 28 32 29 33 30 35 31 36 32 37 84 38
REMARK SMILES IDX 33 39 83 40 34 41 35 42 36 43 77 44 37 45 82 46 76 47 78 48
REMARK SMILES IDX 38 49 81 50 75 51 74 52 39 54 65 55 48 56 64 57 49 58 52 59
REMARK SMILES IDX 63 60 79 61 50 62 51 63 62 65 80 66 53 67 40 68 41 69 46 70
REMARK SMILES IDX 42 71 43 72 45 73 47 74 44 75 66 76 67 77 72 78 68 79 69 80
REMARK SMILES IDX 71 81 73 82 70 83 54 84 55 85 60 86 56 87 57 88 59 89 61 90
REMARK SMILES IDX 58 91
REMARK H PARENT 21 7 5 17 15 27 15 28 28 34 78 53 52 64
REMARK Flexibility Score: inf
ROOT
ATOM      1  C   UNL A   1      36.061  21.086  25.603  1.00  0.00     0.002 C 
ENDROOT
BRANCH   1   2
ATOM      2  C   UNL A   1      35.168  20.002  24.986  1.00  0.00     0.021 C 
BRANCH   2   3
ATOM      3  C   UNL A   1      33.691  20.030  25.408  1.00  0.00     0.116 C 
BRANCH   3   4
ATOM      4  N   UNL A   1      33.545  20.745  26.660  1.00  0.00    -0.352 N 
ATOM      5  C   UNL A   1      33.179  22.023  26.993  1.00  0.00     0.251 C 
ATOM      6  O   UNL A   1      33.186  22.296  28.197  1.00  0.00    -0.269 OA
ATOM      7  H   UNL A   1      33.757  20.191  27.446  1.00  0.00     0.163 HD
BRANCH   5   8
ATOM      8  C   UNL A   1      32.674  23.064  26.044  1.00  0.00     0.042 A 
ATOM      9  C   UNL A   1      34.868  24.320  25.533  1.00  0.00     0.045 C 
ATOM     10  C   UNL A   1      33.406  24.050  25.358  1.00  0.00    -0.036 A 
ATOM     11  C   UNL A   1      32.726  24.916  24.470  1.00  0.00     0.030 A 
ATOM     12  C   UNL A   1      31.337  24.898  24.343  1.00  0.00     0.041 A 
ATOM     13  C   UNL A   1      31.265  23.106  25.949  1.00  0.00     0.016 A 
ATOM     14  C   UNL A   1      30.600  24.038  25.144  1.00  0.00     0.027 A 
BRANCH  12  15
ATOM     15  N   UNL A   1      30.645  25.729  23.448  1.00  0.00    -0.322 N 
ATOM     16  C   UNL A   1      30.371  27.079  23.542  1.00  0.00     0.257 C 
ATOM     17  H   UNL A   1      30.307  25.286  22.637  1.00  0.00     0.170 HD
ATOM     18  O   UNL A   1      29.488  27.578  22.846  1.00  0.00    -0.269 OA
BRANCH  16  19
ATOM     19  C   UNL A   1      31.190  27.968  24.415  1.00  0.00     0.063 A 
ATOM     20  C   UNL A   1      30.991  27.841  25.800  1.00  0.00     0.017 A 
ATOM     21  C   UNL A   1      32.099  28.923  23.907  1.00  0.00     0.045 A 
ATOM     22  C   UNL A   1      31.715  28.632  26.691  1.00  0.00     0.016 A 
ATOM     23  C   UNL A   1      32.809  29.714  24.822  1.00  0.00     0.042 A 
ATOM     24  C   UNL A   1      32.628  29.559  26.196  1.00  0.00     0.020 A 
ATOM     25  Br  UNL A   1      33.611  30.642  27.395  1.00  0.00    -0.051 Br
BRANCH  21  26
ATOM     26  N   UNL A   1      32.215  29.233  22.554  1.00  0.00    -0.398 N 
ATOM     27  H   UNL A   1      31.631  29.917  22.154  1.00  0.00     0.156 HD
ATOM     28  H   UNL A   1      32.880  28.768  21.996  1.00  0.00     0.156 HD
ENDBRANCH  21  26
ENDBRANCH  16  19
ENDBRANCH  12  15
ENDBRANCH   5   8
ENDBRANCH   3   4
ENDBRANCH   2   3
ENDBRANCH   1   2
BRANCH   1  29
ATOM     29  C   UNL A   1      37.297  21.504  24.794  1.00  0.00     0.002 C 
BRANCH  29  30
ATOM     30  C   UNL A   1      38.635  21.459  25.535  1.00  0.00     0.021 C 
BRANCH  30  31
ATOM     31  C   UNL A   1      39.034  22.772  26.201  1.00  0.00     0.116 C 
BRANCH  31  32
ATOM     32  N   UNL A   1      40.475  22.953  26.335  1.00  0.00    -0.352 N 
ATOM     33  C   UNL A   1      41.195  24.089  26.648  1.00  0.00     0.251 C 
ATOM     34  H   UNL A   1      41.014  22.145  26.181  1.00  0.00     0.163 HD
ATOM     35  O   UNL A   1      42.424  24.041  26.690  1.00  0.00    -0.269 OA
BRANCH  33  36
ATOM     36  C   UNL A   1      40.494  25.331  27.055  1.00  0.00     0.039 A 
ATOM     37  C   UNL A   1      40.778  26.508  26.352  1.00  0.00     0.014 A 
ATOM     38  C   UNL A   1      39.704  25.381  28.201  1.00  0.00     0.014 A 
ATOM     39  C   UNL A   1      40.481  27.741  26.927  1.00  0.00     0.010 A 
ATOM     40  C   UNL A   1      39.479  26.600  28.812  1.00  0.00     0.010 A 
ATOM     41  C   UNL A   1      39.932  27.776  28.209  1.00  0.00    -0.014 A 
BRANCH  41  42
ATOM     42  C   UNL A   1      39.925  28.976  29.041  1.00  0.00     0.031 A 
ATOM     43  C   UNL A   1      38.863  29.991  28.911  1.00  0.00     0.074 A 
ATOM     44  C   UNL A   1      40.883  29.120  29.983  1.00  0.00     0.049 A 
ATOM     45  N   UNL A   1      38.977  31.216  29.302  1.00  0.00    -0.248 NA
ATOM     46  C   UNL A   1      37.576  29.702  28.292  1.00  0.00     0.031 C 
ATOM     47  C   UNL A   1      40.932  30.102  31.063  1.00  0.00     0.029 A 
ATOM     48  N   UNL A   1      42.154  28.529  29.993  1.00  0.00    -0.354 N 
ATOM     49  C   UNL A   1      37.743  31.812  29.203  1.00  0.00     0.074 A 
ATOM     50  C   UNL A   1      36.909  30.834  28.538  1.00  0.00     0.031 C 
ATOM     51  C   UNL A   1      42.213  30.279  31.422  1.00  0.00     0.029 A 
ATOM     52  C   UNL A   1      43.031  29.519  30.492  1.00  0.00     0.049 A 
ATOM     53  H   UNL A   1      42.387  27.614  29.711  1.00  0.00     0.167 HD
ATOM     54  C   UNL A   1      37.530  33.029  29.780  1.00  0.00     0.037 A 
ATOM     55  C   UNL A   1      44.018  30.034  29.703  1.00  0.00     0.037 A 
ATOM     56  C   UNL A   1      38.750  33.574  30.367  1.00  0.00     0.049 A 
ATOM     57  C   UNL A   1      43.914  31.523  29.448  1.00  0.00     0.074 A 
ATOM     58  C   UNL A   1      39.294  33.569  31.640  1.00  0.00     0.029 A 
ATOM     59  N   UNL A   1      39.759  33.994  29.520  1.00  0.00    -0.354 N 
ATOM     60  N   UNL A   1      42.917  32.270  29.833  1.00  0.00    -0.248 NA
ATOM     61  C   UNL A   1      44.889  32.267  28.644  1.00  0.00     0.031 C 
ATOM     62  C   UNL A   1      40.663  33.947  31.540  1.00  0.00     0.029 A 
ATOM     63  C   UNL A   1      40.942  34.187  30.206  1.00  0.00     0.049 A 
ATOM     64  H   UNL A   1      39.649  34.136  28.552  1.00  0.00     0.167 HD
ATOM     65  C   UNL A   1      43.068  33.524  29.309  1.00  0.00     0.074 A 
ATOM     66  C   UNL A   1      44.320  33.481  28.580  1.00  0.00     0.031 C 
ATOM     67  C   UNL A   1      42.142  34.509  29.461  1.00  0.00     0.037 A 
BRANCH  54  68
ATOM     68  C   UNL A   1      36.162  33.620  30.000  1.00  0.00     0.057 A 
ATOM     69  C   UNL A   1      35.376  34.045  28.912  1.00  0.00     0.134 A 
ATOM     70  C   UNL A   1      35.579  33.833  31.260  1.00  0.00     0.134 A 
ATOM     71  F   UNL A   1      35.751  33.828  27.645  1.00  0.00    -0.206 F 
ATOM     72  C   UNL A   1      34.165  34.731  29.070  1.00  0.00     0.040 A 
ATOM     73  C   UNL A   1      34.397  34.568  31.437  1.00  0.00     0.040 A 
ATOM     74  F   UNL A   1      36.105  33.298  32.371  1.00  0.00    -0.206 F 
ATOM     75  C   UNL A   1      33.691  35.033  30.338  1.00  0.00     0.006 A 
ENDBRANCH  54  68
BRANCH  55  76
ATOM     76  C   UNL A   1      44.565  29.048  28.733  1.00  0.00     0.057 A 
ATOM     77  C   UNL A   1      45.436  28.047  29.200  1.00  0.00     0.134 A 
ATOM     78  C   UNL A   1      43.998  28.861  27.470  1.00  0.00     0.134 A 
ATOM     79  F   UNL A   1      46.015  28.165  30.406  1.00  0.00    -0.206 F 
ATOM     80  C   UNL A   1      45.640  26.860  28.495  1.00  0.00     0.040 A 
ATOM     81  C   UNL A   1      44.211  27.684  26.746  1.00  0.00     0.040 A 
ATOM     82  F   UNL A   1      43.140  29.759  26.965  1.00  0.00    -0.206 F 
ATOM     83  C   UNL A   1      45.001  26.664  27.275  1.00  0.00     0.006 A 
ENDBRANCH  55  76
BRANCH  67  84
ATOM     84  C   UNL A   1      42.329  35.877  28.898  1.00  0.00     0.057 A 
ATOM     85  C   UNL A   1      41.887  36.209  27.611  1.00  0.00     0.134 A 
ATOM     86  C   UNL A   1      43.069  36.855  29.581  1.00  0.00     0.134 A 
ATOM     87  F   UNL A   1      41.193  35.327  26.875  1.00  0.00    -0.206 F 
ATOM     88  C   UNL A   1      42.157  37.455  27.038  1.00  0.00     0.040 A 
ATOM     89  C   UNL A   1      43.377  38.089  29.006  1.00  0.00     0.040 A 
ATOM     90  F   UNL A   1      43.506  36.648  30.832  1.00  0.00    -0.206 F 
ATOM     91  C   UNL A   1      42.917  38.394  27.729  1.00  0.00     0.006 A 
ENDBRANCH  67  84
ENDBRANCH  41  42
ENDBRANCH  33  36
ENDBRANCH  31  32
ENDBRANCH  30  31
ENDBRANCH  29  30
ENDBRANCH   1  29
TORSDOF 16
ENDMDL
MODEL 3
REMARK VINA RESULT:     -11.6      1.620      2.156
REMARK SMILES Cc1cc(NC(=O)c2ccc(Br)cc2N)ccc1C(=O)NCCCCCCNC(=O)c1ccc(-c2c3nc(c(-c4c(F)cccc4F)c4ccc([nH]4)c(-c4c(F)cccc4F)c4nc(c(-c5c(F)cccc5F)c5ccc2[nH]5)C=C4)C=C3)cc1
REMARK SMILES IDX 24 1 23 2 22 3 21 4 19 5 20 6 18 8 1 9 2 10 3 11 4 12 17 13
REMARK SMILES IDX 16 14 5 15 6 16 7 18 8 19 9 20 14 21 10 22 13 23 11 24 12 25
REMARK SMILES IDX 15 26 25 29 26 30 27 31 28 32 29 33 30 35 31 36 32 37 84 38
REMARK SMILES IDX 33 39 83 40 34 41 35 42 36 43 77 44 37 45 82 46 76 47 78 48
REMARK SMILES IDX 38 49 81 50 75 51 74 52 39 54 65 55 48 56 64 57 49 58 52 59
REMARK SMILES IDX 63 60 79 61 50 62 51 63 62 65 80 66 53 67 40 68 41 69 46 70
REMARK SMILES IDX 42 71 43 72 45 73 47 74 44 75 66 76 67 77 72 78 68 79 69 80
REMARK SMILES IDX 71 81 73 82 70 83 54 84 55 85 60 86 56 87 57 88 59 89 61 90
REMARK SMILES IDX 58 91
REMARK H PARENT 21 7 5 17 15 27 15 28 28 34 78 53 52 64
REMARK Flexibility Score: inf
ROOT
ATOM      1  C   UNL A   1      31.578  29.246  25.326  1.00  0.00     0.002 C 
ENDROOT
BRANCH   1   2
ATOM      2  C   UNL A   1      30.906  29.282  23.947  1.00  0.00     0.021 C 
BRANCH   2   3
ATOM      3  C   UNL A   1      31.854  29.217  22.739  1.00  0.00     0.116 C 
BRANCH   3   4
ATOM      4  N   UNL A   1      31.567  28.040  21.943  1.00  0.00    -0.352 N 
ATOM      5  C   UNL A   1      31.720  26.693  22.141  1.00  0.00     0.251 C 
ATOM      6  O   UNL A   1      31.374  25.963  21.208  1.00  0.00    -0.269 OA
ATOM      7  H   UNL A   1      31.176  28.256  21.065  1.00  0.00     0.163 HD
BRANCH   5   8
ATOM      8  C   UNL A   1      32.159  26.040  23.414  1.00  0.00     0.042 A 
ATOM      9  C   UNL A   1      29.911  25.927  24.672  1.00  0.00     0.045 C 
ATOM     10  C   UNL A   1      31.375  25.655  24.515  1.00  0.00    -0.036 A 
ATOM     11  C   UNL A   1      31.997  25.011  25.610  1.00  0.00     0.030 A 
ATOM     12  C   UNL A   1      33.381  24.853  25.681  1.00  0.00     0.041 A 
ATOM     13  C   UNL A   1      33.564  25.928  23.536  1.00  0.00     0.016 A 
ATOM     14  C   UNL A   1      34.172  25.383  24.671  1.00  0.00     0.027 A 
BRANCH  12  15
ATOM     15  N   UNL A   1      34.017  24.192  26.744  1.00  0.00    -0.322 N 
ATOM     16  C   UNL A   1      34.010  22.850  27.070  1.00  0.00     0.257 C 
ATOM     17  H   UNL A   1      34.544  24.769  27.343  1.00  0.00     0.170 HD
ATOM     18  O   UNL A   1      34.340  22.490  28.199  1.00  0.00    -0.269 OA
BRANCH  16  19
ATOM     19  C   UNL A   1      33.689  21.816  26.047  1.00  0.00     0.063 A 
ATOM     20  C   UNL A   1      32.330  21.643  25.736  1.00  0.00     0.017 A 
ATOM     21  C   UNL A   1      34.672  21.009  25.430  1.00  0.00     0.045 A 
ATOM     22  C   UNL A   1      31.938  20.697  24.788  1.00  0.00     0.016 A 
ATOM     23  C   UNL A   1      34.254  20.058  24.488  1.00  0.00     0.042 A 
ATOM     24  C   UNL A   1      32.905  19.916  24.163  1.00  0.00     0.020 A 
ATOM     25  Br  UNL A   1      32.386  18.626  22.881  1.00  0.00    -0.051 Br
BRANCH  21  26
ATOM     26  N   UNL A   1      36.010  20.995  25.818  1.00  0.00    -0.398 N 
ATOM     27  H   UNL A   1      36.404  20.177  26.199  1.00  0.00     0.156 HD
ATOM     28  H   UNL A   1      36.563  21.803  25.711  1.00  0.00     0.156 HD
ENDBRANCH  21  26
ENDBRANCH  16  19
ENDBRANCH  12  15
ENDBRANCH   5   8
ENDBRANCH   3   4
ENDBRANCH   2   3
ENDBRANCH   1   2
BRANCH   1  29
ATOM     29  C   UNL A   1      33.041  29.705  25.392  1.00  0.00     0.002 C 
BRANCH  29  30
ATOM     30  C   UNL A   1      33.978  28.851  26.250  1.00  0.00     0.021 C 
BRANCH  30  31
ATOM     31  C   UNL A   1      33.899  29.134  27.747  1.00  0.00     0.116 C 
BRANCH  31  32
ATOM     32  N   UNL A   1      34.429  30.437  28.130  1.00  0.00    -0.352 N 
ATOM     33  C   UNL A   1      35.712  30.794  28.495  1.00  0.00     0.251 C 
ATOM     34  H   UNL A   1      33.776  31.173  28.126  1.00  0.00     0.163 HD
ATOM     35  O   UNL A   1      35.956  31.959  28.810  1.00  0.00    -0.269 OA
BRANCH  33  36
ATOM     36  C   UNL A   1      36.819  29.813  28.390  1.00  0.00     0.039 A 
ATOM     37  C   UNL A   1      37.050  28.962  29.478  1.00  0.00     0.014 A 
ATOM     38  C   UNL A   1      37.716  29.836  27.324  1.00  0.00     0.014 A 
ATOM     39  C   UNL A   1      38.284  28.329  29.606  1.00  0.00     0.010 A 
ATOM     40  C   UNL A   1      38.969  29.276  27.486  1.00  0.00     0.010 A 
ATOM     41  C   UNL A   1      39.276  28.583  28.659  1.00  0.00    -0.014 A 
BRANCH  41  42
ATOM     42  C   UNL A   1      40.688  28.283  28.884  1.00  0.00     0.031 A 
ATOM     43  C   UNL A   1      41.324  27.096  28.281  1.00  0.00     0.074 A 
ATOM     44  C   UNL A   1      41.429  29.146  29.612  1.00  0.00     0.049 A 
ATOM     45  N   UNL A   1      42.410  26.553  28.719  1.00  0.00    -0.248 NA
ATOM     46  C   UNL A   1      40.754  26.402  27.133  1.00  0.00     0.031 C 
ATOM     47  C   UNL A   1      42.882  29.170  29.762  1.00  0.00     0.029 A 
ATOM     48  N   UNL A   1      40.966  30.053  30.575  1.00  0.00    -0.354 N 
ATOM     49  C   UNL A   1      42.806  25.601  27.809  1.00  0.00     0.074 A 
ATOM     50  C   UNL A   1      41.723  25.524  26.854  1.00  0.00     0.031 C 
ATOM     51  C   UNL A   1      43.182  29.777  30.921  1.00  0.00     0.029 A 
ATOM     52  C   UNL A   1      41.929  30.037  31.609  1.00  0.00     0.049 A 
ATOM     53  H   UNL A   1      40.141  30.591  30.539  1.00  0.00     0.167 HD
ATOM     54  C   UNL A   1      44.050  25.051  27.905  1.00  0.00     0.037 A 
ATOM     55  C   UNL A   1      41.603  29.586  32.855  1.00  0.00     0.037 A 
ATOM     56  C   UNL A   1      44.767  25.525  29.084  1.00  0.00     0.049 A 
ATOM     57  C   UNL A   1      42.388  28.377  33.318  1.00  0.00     0.074 A 
ATOM     58  C   UNL A   1      45.689  26.533  29.313  1.00  0.00     0.029 A 
ATOM     59  N   UNL A   1      44.334  25.112  30.330  1.00  0.00    -0.354 N 
ATOM     60  N   UNL A   1      43.233  27.717  32.576  1.00  0.00    -0.248 NA
ATOM     61  C   UNL A   1      42.201  27.758  34.634  1.00  0.00     0.031 C 
ATOM     62  C   UNL A   1      45.767  26.753  30.718  1.00  0.00     0.029 A 
ATOM     63  C   UNL A   1      44.898  25.872  31.335  1.00  0.00     0.049 A 
ATOM     64  H   UNL A   1      43.703  24.371  30.481  1.00  0.00     0.167 HD
ATOM     65  C   UNL A   1      43.645  26.601  33.250  1.00  0.00     0.074 A 
ATOM     66  C   UNL A   1      42.982  26.670  34.537  1.00  0.00     0.031 C 
ATOM     67  C   UNL A   1      44.464  25.663  32.702  1.00  0.00     0.037 A 
BRANCH  54  68
ATOM     68  C   UNL A   1      44.694  24.248  26.804  1.00  0.00     0.057 A 
ATOM     69  C   UNL A   1      45.688  24.815  25.984  1.00  0.00     0.134 A 
ATOM     70  C   UNL A   1      44.351  22.926  26.478  1.00  0.00     0.134 A 
ATOM     71  F   UNL A   1      46.190  26.033  26.224  1.00  0.00    -0.206 F 
ATOM     72  C   UNL A   1      46.212  24.161  24.861  1.00  0.00     0.040 A 
ATOM     73  C   UNL A   1      44.823  22.280  25.325  1.00  0.00     0.040 A 
ATOM     74  F   UNL A   1      43.581  22.185  27.287  1.00  0.00    -0.206 F 
ATOM     75  C   UNL A   1      45.748  22.905  24.502  1.00  0.00     0.006 A 
ENDBRANCH  54  68
BRANCH  55  76
ATOM     76  C   UNL A   1      40.191  29.868  33.228  1.00  0.00     0.057 A 
ATOM     77  C   UNL A   1      39.816  31.192  33.520  1.00  0.00     0.134 A 
ATOM     78  C   UNL A   1      39.164  28.957  32.971  1.00  0.00     0.134 A 
ATOM     79  F   UNL A   1      40.755  32.118  33.775  1.00  0.00    -0.206 F 
ATOM     80  C   UNL A   1      38.489  31.617  33.444  1.00  0.00     0.040 A 
ATOM     81  C   UNL A   1      37.828  29.367  32.912  1.00  0.00     0.040 A 
ATOM     82  F   UNL A   1      39.439  27.682  32.663  1.00  0.00    -0.206 F 
ATOM     83  C   UNL A   1      37.492  30.706  33.109  1.00  0.00     0.006 A 
ENDBRANCH  55  76
BRANCH  67  84
ATOM     84  C   UNL A   1      44.919  24.460  33.456  1.00  0.00     0.057 A 
ATOM     85  C   UNL A   1      44.232  23.241  33.379  1.00  0.00     0.134 A 
ATOM     86  C   UNL A   1      45.978  24.527  34.374  1.00  0.00     0.134 A 
ATOM     87  F   UNL A   1      43.190  23.093  32.547  1.00  0.00    -0.206 F 
ATOM     88  C   UNL A   1      44.589  22.143  34.167  1.00  0.00     0.040 A 
ATOM     89  C   UNL A   1      46.321  23.450  35.193  1.00  0.00     0.040 A 
ATOM     90  F   UNL A   1      46.722  25.637  34.496  1.00  0.00    -0.206 F 
ATOM     91  C   UNL A   1      45.626  22.250  35.089  1.00  0.00     0.006 A 
ENDBRANCH  67  84
ENDBRANCH  41  42
ENDBRANCH  33  36
ENDBRANCH  31  32
ENDBRANCH  30  31
ENDBRANCH  29  30
ENDBRANCH   1  29
TORSDOF 16
ENDMDL
