MODEL 1
REMARK VINA RESULT:     -12.0      0.000      0.000
REMARK SMILES COc1cccc(C(=O)NNC(=O)[C@H]2CC(C)=C(C)C[C@@H]2C(=O)NCCCCCCNC(=O)c2ccc(-c3c4nc(c(-c5c(F)cccc5F)c5ccc([nH]5)c(-c5c(F)cccc5F)c5nc(c(-c6c(F)cccc6F)c6ccc3[nH]6)C=C5)C=C4)cc2)c1
REMARK SMILES IDX 26 1 25 2 24 3 22 4 23 5 21 7 14 8 15 9 16 10 20 11 17 12
REMARK SMILES IDX 18 13 19 14 12 15 11 16 13 18 10 19 8 20 9 21 7 23 3 24 4 25
REMARK SMILES IDX 88 26 5 27 6 28 2 29 1 30 27 31 28 32 29 33 30 34 31 35
REMARK SMILES IDX 32 36 33 38 34 39 35 40 87 41 36 42 86 43 37 44 38 45 39 46
REMARK SMILES IDX 80 47 40 48 85 49 79 50 81 51 41 52 84 53 78 54 77 55 42 57
REMARK SMILES IDX 68 58 51 59 67 60 52 61 55 62 66 63 82 64 53 65 54 66 65 68
REMARK SMILES IDX 83 69 56 70 43 71 44 72 49 73 45 74 46 75 48 76 50 77 47 78
REMARK SMILES IDX 69 79 70 80 75 81 71 82 72 83 74 84 76 85 73 86 57 87 58 88
REMARK SMILES IDX 63 89 59 90 60 91 62 92 64 93 61 94
REMARK H PARENT 24 6 11 17 10 22 31 37 81 56 55 67
REMARK Flexibility Score: inf
ROOT
ATOM      1  C   UNL A   1      34.965  31.050  27.954  1.00  0.00     0.021 C 
ENDROOT
BRANCH   1   2
ATOM      2  C   UNL A   1      34.034  30.312  27.007  1.00  0.00     0.116 C 
BRANCH   2   3
ATOM      3  N   UNL A   1      32.830  29.743  27.587  1.00  0.00    -0.356 N 
ATOM      4  C   UNL A   1      32.204  28.558  27.266  1.00  0.00     0.224 C 
ATOM      5  O   UNL A   1      31.352  28.127  28.041  1.00  0.00    -0.275 OA
ATOM      6  H   UNL A   1      32.407  30.272  28.302  1.00  0.00     0.163 HD
BRANCH   4   7
ATOM      7  C   UNL A   1      32.505  27.891  25.909  1.00  0.00     0.095 C 
ATOM      8  C   UNL A   1      31.244  27.507  25.105  1.00  0.00     0.097 C 
ATOM      9  C   UNL A   1      30.780  26.053  25.376  1.00  0.00     0.045 C 
ATOM     10  C   UNL A   1      31.874  25.010  25.400  1.00  0.00    -0.074 C 
ATOM     11  C   UNL A   1      33.523  26.744  26.045  1.00  0.00     0.045 C 
ATOM     12  C   UNL A   1      31.422  23.589  25.190  1.00  0.00     0.039 C 
ATOM     13  C   UNL A   1      33.145  25.347  25.676  1.00  0.00    -0.074 C 
ATOM     14  C   UNL A   1      34.286  24.363  25.775  1.00  0.00     0.039 C 
BRANCH   8  15
ATOM     15  C   UNL A   1      31.182  27.731  23.578  1.00  0.00     0.242 C 
ATOM     16  N   UNL A   1      30.104  28.210  22.887  1.00  0.00    -0.267 N 
ATOM     17  H   UNL A   1      30.288  28.751  22.086  1.00  0.00     0.191 HD
ATOM     18  O   UNL A   1      32.200  27.533  22.897  1.00  0.00    -0.273 OA
BRANCH  16  19
ATOM     19  N   UNL A   1      28.784  28.001  23.216  1.00  0.00    -0.263 N 
ATOM     20  C   UNL A   1      27.760  28.930  23.171  1.00  0.00     0.269 C 
ATOM     21  O   UNL A   1      26.613  28.537  23.395  1.00  0.00    -0.267 OA
ATOM     22  H   UNL A   1      28.543  27.094  23.514  1.00  0.00     0.191 HD
BRANCH  20  23
ATOM     23  C   UNL A   1      28.016  30.390  23.025  1.00  0.00     0.045 A 
ATOM     24  C   UNL A   1      28.053  32.483  21.804  1.00  0.00     0.119 A 
ATOM     25  C   UNL A   1      28.854  33.045  22.803  1.00  0.00     0.046 A 
ATOM     26  C   UNL A   1      27.596  31.168  21.938  1.00  0.00     0.060 A 
ATOM     27  C   UNL A   1      29.199  32.310  23.932  1.00  0.00     0.005 A 
ATOM     28  C   UNL A   1      28.786  30.985  24.039  1.00  0.00     0.014 A 
BRANCH  24  29
ATOM     29  O   UNL A   1      27.809  33.317  20.747  1.00  0.00    -0.497 OA
ATOM     30  C   UNL A   1      27.893  32.759  19.441  1.00  0.00     0.278 C 
ENDBRANCH  24  29
ENDBRANCH  20  23
ENDBRANCH  16  19
ENDBRANCH   8  15
ENDBRANCH   4   7
ENDBRANCH   2   3
ENDBRANCH   1   2
BRANCH   1  31
ATOM     31  C   UNL A   1      34.311  31.947  28.999  1.00  0.00     0.002 C 
BRANCH  31  32
ATOM     32  C   UNL A   1      34.556  33.451  28.869  1.00  0.00     0.002 C 
BRANCH  32  33
ATOM     33  C   UNL A   1      33.320  34.353  28.809  1.00  0.00     0.021 C 
BRANCH  33  34
ATOM     34  C   UNL A   1      33.490  35.762  29.365  1.00  0.00     0.116 C 
BRANCH  34  35
ATOM     35  N   UNL A   1      32.595  36.044  30.474  1.00  0.00    -0.352 N 
ATOM     36  C   UNL A   1      32.687  35.670  31.789  1.00  0.00     0.251 C 
ATOM     37  H   UNL A   1      31.804  36.585  30.247  1.00  0.00     0.163 HD
ATOM     38  O   UNL A   1      31.749  35.886  32.558  1.00  0.00    -0.269 OA
BRANCH  36  39
ATOM     39  C   UNL A   1      33.896  34.982  32.286  1.00  0.00     0.039 A 
ATOM     40  C   UNL A   1      33.767  33.688  32.798  1.00  0.00     0.014 A 
ATOM     41  C   UNL A   1      35.148  35.604  32.258  1.00  0.00     0.014 A 
ATOM     42  C   UNL A   1      34.902  32.993  33.219  1.00  0.00     0.010 A 
ATOM     43  C   UNL A   1      36.286  34.885  32.612  1.00  0.00     0.010 A 
ATOM     44  C   UNL A   1      36.175  33.572  33.094  1.00  0.00    -0.014 A 
BRANCH  44  45
ATOM     45  C   UNL A   1      37.399  32.805  33.437  1.00  0.00     0.031 A 
ATOM     46  C   UNL A   1      38.162  33.104  34.696  1.00  0.00     0.074 A 
ATOM     47  C   UNL A   1      37.861  31.880  32.573  1.00  0.00     0.049 A 
ATOM     48  N   UNL A   1      39.275  32.572  35.134  1.00  0.00    -0.248 NA
ATOM     49  C   UNL A   1      37.619  34.161  35.563  1.00  0.00     0.031 C 
ATOM     50  C   UNL A   1      37.244  31.543  31.289  1.00  0.00     0.029 A 
ATOM     51  N   UNL A   1      38.966  31.068  32.635  1.00  0.00    -0.354 N 
ATOM     52  C   UNL A   1      39.574  33.239  36.316  1.00  0.00     0.074 A 
ATOM     53  C   UNL A   1      38.552  34.247  36.500  1.00  0.00     0.031 C 
ATOM     54  C   UNL A   1      37.969  30.584  30.693  1.00  0.00     0.029 A 
ATOM     55  C   UNL A   1      39.120  30.266  31.531  1.00  0.00     0.049 A 
ATOM     56  H   UNL A   1      39.588  31.062  33.398  1.00  0.00     0.167 HD
ATOM     57  C   UNL A   1      40.596  33.018  37.176  1.00  0.00     0.037 A 
ATOM     58  C   UNL A   1      40.086  29.381  31.222  1.00  0.00     0.037 A 
ATOM     59  C   UNL A   1      41.599  31.999  36.996  1.00  0.00     0.049 A 
ATOM     60  C   UNL A   1      41.206  29.146  32.195  1.00  0.00     0.074 A 
ATOM     61  C   UNL A   1      42.622  31.636  37.854  1.00  0.00     0.029 A 
ATOM     62  N   UNL A   1      41.711  31.190  35.874  1.00  0.00    -0.354 N 
ATOM     63  N   UNL A   1      41.424  29.717  33.355  1.00  0.00    -0.248 NA
ATOM     64  C   UNL A   1      42.210  28.140  31.820  1.00  0.00     0.031 C 
ATOM     65  C   UNL A   1      43.389  30.648  37.226  1.00  0.00     0.029 A 
ATOM     66  C   UNL A   1      42.811  30.356  36.002  1.00  0.00     0.049 A 
ATOM     67  H   UNL A   1      41.100  31.206  35.103  1.00  0.00     0.167 HD
ATOM     68  C   UNL A   1      42.580  29.132  33.856  1.00  0.00     0.074 A 
ATOM     69  C   UNL A   1      43.004  28.145  32.882  1.00  0.00     0.031 C 
ATOM     70  C   UNL A   1      43.230  29.389  35.018  1.00  0.00     0.037 A 
BRANCH  57  71
ATOM     71  C   UNL A   1      40.688  33.904  38.386  1.00  0.00     0.057 A 
ATOM     72  C   UNL A   1      41.466  35.070  38.397  1.00  0.00     0.134 A 
ATOM     73  C   UNL A   1      39.971  33.599  39.549  1.00  0.00     0.134 A 
ATOM     74  F   UNL A   1      42.187  35.416  37.319  1.00  0.00    -0.206 F 
ATOM     75  C   UNL A   1      41.554  35.880  39.531  1.00  0.00     0.040 A 
ATOM     76  C   UNL A   1      40.027  34.417  40.679  1.00  0.00     0.040 A 
ATOM     77  F   UNL A   1      39.199  32.502  39.607  1.00  0.00    -0.206 F 
ATOM     78  C   UNL A   1      40.827  35.556  40.675  1.00  0.00     0.006 A 
ENDBRANCH  57  71
BRANCH  58  79
ATOM     79  C   UNL A   1      40.022  28.647  29.933  1.00  0.00     0.057 A 
ATOM     80  C   UNL A   1      40.706  29.105  28.803  1.00  0.00     0.134 A 
ATOM     81  C   UNL A   1      39.296  27.456  29.810  1.00  0.00     0.134 A 
ATOM     82  F   UNL A   1      41.405  30.249  28.854  1.00  0.00    -0.206 F 
ATOM     83  C   UNL A   1      40.663  28.412  27.591  1.00  0.00     0.040 A 
ATOM     84  C   UNL A   1      39.264  26.739  28.613  1.00  0.00     0.040 A 
ATOM     85  F   UNL A   1      38.626  26.960  30.861  1.00  0.00    -0.206 F 
ATOM     86  C   UNL A   1      39.946  27.221  27.498  1.00  0.00     0.006 A 
ENDBRANCH  58  79
BRANCH  70  87
ATOM     87  C   UNL A   1      44.466  28.585  35.303  1.00  0.00     0.057 A 
ATOM     88  C   UNL A   1      45.746  29.068  35.006  1.00  0.00     0.134 A 
ATOM     89  C   UNL A   1      44.376  27.329  35.917  1.00  0.00     0.134 A 
ATOM     90  F   UNL A   1      45.901  30.257  34.404  1.00  0.00    -0.206 F 
ATOM     91  C   UNL A   1      46.892  28.322  35.287  1.00  0.00     0.040 A 
ATOM     92  C   UNL A   1      45.515  26.586  36.230  1.00  0.00     0.040 A 
ATOM     93  F   UNL A   1      43.180  26.811  36.238  1.00  0.00    -0.206 F 
ATOM     94  C   UNL A   1      46.777  27.079  35.909  1.00  0.00     0.006 A 
ENDBRANCH  70  87
ENDBRANCH  44  45
ENDBRANCH  36  39
ENDBRANCH  34  35
ENDBRANCH  33  34
ENDBRANCH  32  33
ENDBRANCH  31  32
ENDBRANCH   1  31
TORSDOF 17
ENDMDL
MODEL 2
REMARK VINA RESULT:     -11.9      5.602     10.153
REMARK SMILES COc1cccc(C(=O)NNC(=O)[C@H]2CC(C)=C(C)C[C@@H]2C(=O)NCCCCCCNC(=O)c2ccc(-c3c4nc(c(-c5c(F)cccc5F)c5ccc([nH]5)c(-c5c(F)cccc5F)c5nc(c(-c6c(F)cccc6F)c6ccc3[nH]6)C=C5)C=C4)cc2)c1
REMARK SMILES IDX 26 1 25 2 24 3 22 4 23 5 21 7 14 8 15 9 16 10 20 11 17 12
REMARK SMILES IDX 18 13 19 14 12 15 11 16 13 18 10 19 8 20 9 21 7 23 3 24 4 25
REMARK SMILES IDX 88 26 5 27 6 28 2 29 1 30 27 31 28 32 29 33 30 34 31 35
REMARK SMILES IDX 32 36 33 38 34 39 35 40 87 41 36 42 86 43 37 44 38 45 39 46
REMARK SMILES IDX 80 47 40 48 85 49 79 50 81 51 41 52 84 53 78 54 77 55 42 57
REMARK SMILES IDX 68 58 51 59 67 60 52 61 55 62 66 63 82 64 53 65 54 66 65 68
REMARK SMILES IDX 83 69 56 70 43 71 44 72 49 73 45 74 46 75 48 76 50 77 47 78
REMARK SMILES IDX 69 79 70 80 75 81 71 82 72 83 74 84 76 85 73 86 57 87 58 88
REMARK SMILES IDX 63 89 59 90 60 91 62 92 64 93 61 94
REMARK H PARENT 24 6 11 17 10 22 31 37 81 56 55 67
REMARK Flexibility Score: inf
ROOT
ATOM      1  C   UNL A   1      36.860  23.292  24.961  1.00  0.00     0.021 C 
ENDROOT
BRANCH   1   2
ATOM      2  C   UNL A   1      35.613  24.154  24.860  1.00  0.00     0.116 C 
BRANCH   2   3
ATOM      3  N   UNL A   1      35.125  24.440  23.522  1.00  0.00    -0.356 N 
ATOM      4  C   UNL A   1      33.821  24.477  23.077  1.00  0.00     0.224 C 
ATOM      5  O   UNL A   1      33.599  24.989  21.982  1.00  0.00    -0.275 OA
ATOM      6  H   UNL A   1      35.814  24.632  22.846  1.00  0.00     0.163 HD
BRANCH   4   7
ATOM      7  C   UNL A   1      32.723  23.778  23.904  1.00  0.00     0.095 C 
ATOM      8  C   UNL A   1      32.498  24.396  25.300  1.00  0.00     0.097 C 
ATOM      9  C   UNL A   1      33.344  23.711  26.404  1.00  0.00     0.045 C 
ATOM     10  C   UNL A   1      33.374  22.201  26.363  1.00  0.00    -0.074 C 
ATOM     11  C   UNL A   1      32.910  22.249  23.929  1.00  0.00     0.045 C 
ATOM     12  C   UNL A   1      33.774  21.523  27.648  1.00  0.00     0.039 C 
ATOM     13  C   UNL A   1      33.136  21.534  25.221  1.00  0.00    -0.074 C 
ATOM     14  C   UNL A   1      33.201  20.032  25.080  1.00  0.00     0.039 C 
BRANCH   8  15
ATOM     15  C   UNL A   1      31.071  24.577  25.864  1.00  0.00     0.242 C 
ATOM     16  N   UNL A   1      30.579  25.719  26.432  1.00  0.00    -0.267 N 
ATOM     17  H   UNL A   1      29.620  25.905  26.311  1.00  0.00     0.191 HD
ATOM     18  O   UNL A   1      30.254  23.651  25.746  1.00  0.00    -0.273 OA
BRANCH  16  19
ATOM     19  N   UNL A   1      31.309  26.631  27.159  1.00  0.00    -0.263 N 
ATOM     20  C   UNL A   1      31.877  27.802  26.692  1.00  0.00     0.269 C 
ATOM     21  O   UNL A   1      32.403  28.558  27.512  1.00  0.00    -0.267 OA
ATOM     22  H   UNL A   1      31.440  26.429  28.114  1.00  0.00     0.191 HD
BRANCH  20  23
ATOM     23  C   UNL A   1      32.012  28.096  25.237  1.00  0.00     0.045 A 
ATOM     24  C   UNL A   1      31.157  28.452  22.998  1.00  0.00     0.119 A 
ATOM     25  C   UNL A   1      32.453  28.325  22.489  1.00  0.00     0.046 A 
ATOM     26  C   UNL A   1      30.944  28.382  24.379  1.00  0.00     0.060 A 
ATOM     27  C   UNL A   1      33.535  28.133  23.343  1.00  0.00     0.005 A 
ATOM     28  C   UNL A   1      33.313  28.013  24.712  1.00  0.00     0.014 A 
BRANCH  24  29
ATOM     29  O   UNL A   1      30.194  28.620  22.041  1.00  0.00    -0.497 OA
ATOM     30  C   UNL A   1      28.997  29.285  22.427  1.00  0.00     0.278 C 
ENDBRANCH  24  29
ENDBRANCH  20  23
ENDBRANCH  16  19
ENDBRANCH   8  15
ENDBRANCH   4   7
ENDBRANCH   2   3
ENDBRANCH   1   2
BRANCH   1  31
ATOM     31  C   UNL A   1      36.851  21.978  24.187  1.00  0.00     0.002 C 
BRANCH  31  32
ATOM     32  C   UNL A   1      36.721  20.693  25.007  1.00  0.00     0.002 C 
BRANCH  32  33
ATOM     33  C   UNL A   1      37.913  19.733  24.985  1.00  0.00     0.021 C 
BRANCH  33  34
ATOM     34  C   UNL A   1      39.142  20.168  25.775  1.00  0.00     0.116 C 
BRANCH  34  35
ATOM     35  N   UNL A   1      40.167  19.141  25.838  1.00  0.00    -0.352 N 
ATOM     36  C   UNL A   1      41.507  19.257  26.097  1.00  0.00     0.251 C 
ATOM     37  H   UNL A   1      39.850  18.224  25.669  1.00  0.00     0.163 HD
ATOM     38  O   UNL A   1      42.247  18.281  25.964  1.00  0.00    -0.269 OA
BRANCH  36  39
ATOM     39  C   UNL A   1      42.078  20.556  26.508  1.00  0.00     0.039 A 
ATOM     40  C   UNL A   1      42.610  21.395  25.525  1.00  0.00     0.014 A 
ATOM     41  C   UNL A   1      42.098  20.947  27.850  1.00  0.00     0.014 A 
ATOM     42  C   UNL A   1      43.102  22.652  25.879  1.00  0.00     0.010 A 
ATOM     43  C   UNL A   1      42.524  22.228  28.192  1.00  0.00     0.010 A 
ATOM     44  C   UNL A   1      43.028  23.094  27.210  1.00  0.00    -0.014 A 
BRANCH  44  45
ATOM     45  C   UNL A   1      43.447  24.468  27.582  1.00  0.00     0.031 A 
ATOM     46  C   UNL A   1      42.427  25.505  27.957  1.00  0.00     0.074 A 
ATOM     47  C   UNL A   1      44.751  24.800  27.514  1.00  0.00     0.049 A 
ATOM     48  N   UNL A   1      42.603  26.765  28.264  1.00  0.00    -0.248 NA
ATOM     49  C   UNL A   1      41.019  25.076  27.962  1.00  0.00     0.031 C 
ATOM     50  C   UNL A   1      45.831  23.901  27.103  1.00  0.00     0.029 A 
ATOM     51  N   UNL A   1      45.388  25.989  27.771  1.00  0.00    -0.354 N 
ATOM     52  C   UNL A   1      41.332  27.283  28.480  1.00  0.00     0.074 A 
ATOM     53  C   UNL A   1      40.392  26.214  28.222  1.00  0.00     0.031 C 
ATOM     54  C   UNL A   1      46.996  24.564  27.151  1.00  0.00     0.029 A 
ATOM     55  C   UNL A   1      46.744  25.943  27.558  1.00  0.00     0.049 A 
ATOM     56  H   UNL A   1      44.917  26.797  28.079  1.00  0.00     0.167 HD
ATOM     57  C   UNL A   1      40.984  28.531  28.875  1.00  0.00     0.037 A 
ATOM     58  C   UNL A   1      47.679  26.904  27.667  1.00  0.00     0.037 A 
ATOM     59  C   UNL A   1      41.927  29.585  29.149  1.00  0.00     0.049 A 
ATOM     60  C   UNL A   1      47.271  28.279  28.115  1.00  0.00     0.074 A 
ATOM     61  C   UNL A   1      41.680  30.855  29.641  1.00  0.00     0.029 A 
ATOM     62  N   UNL A   1      43.296  29.495  28.943  1.00  0.00    -0.354 N 
ATOM     63  N   UNL A   1      46.075  28.729  28.408  1.00  0.00    -0.248 NA
ATOM     64  C   UNL A   1      48.341  29.276  28.253  1.00  0.00     0.031 C 
ATOM     65  C   UNL A   1      42.893  31.553  29.675  1.00  0.00     0.029 A 
ATOM     66  C   UNL A   1      43.902  30.701  29.260  1.00  0.00     0.049 A 
ATOM     67  H   UNL A   1      43.766  28.694  28.619  1.00  0.00     0.167 HD
ATOM     68  C   UNL A   1      46.249  30.057  28.779  1.00  0.00     0.074 A 
ATOM     69  C   UNL A   1      47.670  30.330  28.695  1.00  0.00     0.031 C 
ATOM     70  C   UNL A   1      45.316  30.965  29.156  1.00  0.00     0.037 A 
BRANCH  57  71
ATOM     71  C   UNL A   1      39.519  28.827  29.022  1.00  0.00     0.057 A 
ATOM     72  C   UNL A   1      38.848  28.683  30.245  1.00  0.00     0.134 A 
ATOM     73  C   UNL A   1      38.771  29.284  27.929  1.00  0.00     0.134 A 
ATOM     74  F   UNL A   1      39.502  28.240  31.330  1.00  0.00    -0.206 F 
ATOM     75  C   UNL A   1      37.483  28.951  30.367  1.00  0.00     0.040 A 
ATOM     76  C   UNL A   1      37.412  29.583  28.046  1.00  0.00     0.040 A 
ATOM     77  F   UNL A   1      39.349  29.453  26.730  1.00  0.00    -0.206 F 
ATOM     78  C   UNL A   1      36.763  29.408  29.265  1.00  0.00     0.006 A 
ENDBRANCH  57  71
BRANCH  58  79
ATOM     79  C   UNL A   1      49.095  26.588  27.355  1.00  0.00     0.057 A 
ATOM     80  C   UNL A   1      49.937  26.007  28.309  1.00  0.00     0.134 A 
ATOM     81  C   UNL A   1      49.633  26.836  26.085  1.00  0.00     0.134 A 
ATOM     82  F   UNL A   1      49.485  25.761  29.548  1.00  0.00    -0.206 F 
ATOM     83  C   UNL A   1      51.266  25.693  28.017  1.00  0.00     0.040 A 
ATOM     84  C   UNL A   1      50.952  26.504  25.772  1.00  0.00     0.040 A 
ATOM     85  F   UNL A   1      48.874  27.382  25.124  1.00  0.00    -0.206 F 
ATOM     86  C   UNL A   1      51.774  25.935  26.742  1.00  0.00     0.006 A 
ENDBRANCH  58  79
BRANCH  70  87
ATOM     87  C   UNL A   1      45.803  32.340  29.513  1.00  0.00     0.057 A 
ATOM     88  C   UNL A   1      45.875  33.367  28.563  1.00  0.00     0.134 A 
ATOM     89  C   UNL A   1      46.167  32.650  30.829  1.00  0.00     0.134 A 
ATOM     90  F   UNL A   1      45.555  33.131  27.282  1.00  0.00    -0.206 F 
ATOM     91  C   UNL A   1      46.315  34.646  28.905  1.00  0.00     0.040 A 
ATOM     92  C   UNL A   1      46.581  33.933  31.189  1.00  0.00     0.040 A 
ATOM     93  F   UNL A   1      46.112  31.715  31.790  1.00  0.00    -0.206 F 
ATOM     94  C   UNL A   1      46.661  34.934  30.224  1.00  0.00     0.006 A 
ENDBRANCH  70  87
ENDBRANCH  44  45
ENDBRANCH  36  39
ENDBRANCH  34  35
ENDBRANCH  33  34
ENDBRANCH  32  33
ENDBRANCH  31  32
ENDBRANCH   1  31
TORSDOF 17
ENDMDL
MODEL 3
REMARK VINA RESULT:     -11.6      4.607      9.939
REMARK SMILES COc1cccc(C(=O)NNC(=O)[C@H]2CC(C)=C(C)C[C@@H]2C(=O)NCCCCCCNC(=O)c2ccc(-c3c4nc(c(-c5c(F)cccc5F)c5ccc([nH]5)c(-c5c(F)cccc5F)c5nc(c(-c6c(F)cccc6F)c6ccc3[nH]6)C=C5)C=C4)cc2)c1
REMARK SMILES IDX 26 1 25 2 24 3 22 4 23 5 21 7 14 8 15 9 16 10 20 11 17 12
REMARK SMILES IDX 18 13 19 14 12 15 11 16 13 18 10 19 8 20 9 21 7 23 3 24 4 25
REMARK SMILES IDX 88 26 5 27 6 28 2 29 1 30 27 31 28 32 29 33 30 34 31 35
REMARK SMILES IDX 32 36 33 38 34 39 35 40 87 41 36 42 86 43 37 44 38 45 39 46
REMARK SMILES IDX 80 47 40 48 85 49 79 50 81 51 41 52 84 53 78 54 77 55 42 57
REMARK SMILES IDX 68 58 51 59 67 60 52 61 55 62 66 63 82 64 53 65 54 66 65 68
REMARK SMILES IDX 83 69 56 70 43 71 44 72 49 73 45 74 46 75 48 76 50 77 47 78
REMARK SMILES IDX 69 79 70 80 75 81 71 82 72 83 74 84 76 85 73 86 57 87 58 88
REMARK SMILES IDX 63 89 59 90 60 91 62 92 64 93 61 94
REMARK H PARENT 24 6 11 17 10 22 31 37 81 56 55 67
REMARK Flexibility Score: inf
ROOT
ATOM      1  C   UNL A   1      39.170  22.059  26.330  1.00  0.00     0.021 C 
ENDROOT
BRANCH   1   2
ATOM      2  C   UNL A   1      37.765  21.844  25.792  1.00  0.00     0.116 C 
BRANCH   2   3
ATOM      3  N   UNL A   1      37.574  22.052  24.367  1.00  0.00    -0.356 N 
ATOM      4  C   UNL A   1      36.540  22.704  23.730  1.00  0.00     0.224 C 
ATOM      5  O   UNL A   1      36.687  23.000  22.546  1.00  0.00    -0.275 OA
ATOM      6  H   UNL A   1      38.272  21.680  23.782  1.00  0.00     0.163 HD
BRANCH   4   7
ATOM      7  C   UNL A   1      35.212  22.924  24.481  1.00  0.00     0.095 C 
ATOM      8  C   UNL A   1      33.999  22.228  23.829  1.00  0.00     0.097 C 
ATOM      9  C   UNL A   1      33.241  23.148  22.837  1.00  0.00     0.045 C 
ATOM     10  C   UNL A   1      32.998  24.562  23.311  1.00  0.00    -0.074 C 
ATOM     11  C   UNL A   1      34.972  24.411  24.801  1.00  0.00     0.045 C 
ATOM     12  C   UNL A   1      31.894  25.304  22.603  1.00  0.00     0.039 C 
ATOM     13  C   UNL A   1      33.782  25.124  24.246  1.00  0.00    -0.074 C 
ATOM     14  C   UNL A   1      33.644  26.545  24.735  1.00  0.00     0.039 C 
BRANCH   8  15
ATOM     15  C   UNL A   1      32.936  21.515  24.694  1.00  0.00     0.242 C 
ATOM     16  N   UNL A   1      32.412  20.276  24.451  1.00  0.00    -0.267 N 
ATOM     17  H   UNL A   1      32.157  19.734  25.232  1.00  0.00     0.191 HD
ATOM     18  O   UNL A   1      32.551  22.055  25.744  1.00  0.00    -0.273 OA
BRANCH  16  19
ATOM     19  N   UNL A   1      32.212  19.721  23.208  1.00  0.00    -0.263 N 
ATOM     20  C   UNL A   1      32.552  18.442  22.805  1.00  0.00     0.269 C 
ATOM     21  O   UNL A   1      32.195  18.074  21.684  1.00  0.00    -0.267 OA
ATOM     22  H   UNL A   1      31.778  20.294  22.535  1.00  0.00     0.191 HD
BRANCH  20  23
ATOM     23  C   UNL A   1      33.459  17.571  23.604  1.00  0.00     0.045 A 
ATOM     24  C   UNL A   1      33.971  15.650  24.990  1.00  0.00     0.119 A 
ATOM     25  C   UNL A   1      35.198  16.229  25.329  1.00  0.00     0.046 A 
ATOM     26  C   UNL A   1      33.120  16.302  24.090  1.00  0.00     0.060 A 
ATOM     27  C   UNL A   1      35.584  17.446  24.777  1.00  0.00     0.005 A 
ATOM     28  C   UNL A   1      34.714  18.117  23.922  1.00  0.00     0.014 A 
BRANCH  24  29
ATOM     29  O   UNL A   1      33.719  14.463  25.621  1.00  0.00    -0.497 OA
ATOM     30  C   UNL A   1      32.361  14.050  25.722  1.00  0.00     0.278 C 
ENDBRANCH  24  29
ENDBRANCH  20  23
ENDBRANCH  16  19
ENDBRANCH   8  15
ENDBRANCH   4   7
ENDBRANCH   2   3
ENDBRANCH   1   2
BRANCH   1  31
ATOM     31  C   UNL A   1      40.065  20.828  26.422  1.00  0.00     0.002 C 
BRANCH  31  32
ATOM     32  C   UNL A   1      41.438  21.018  27.069  1.00  0.00     0.002 C 
BRANCH  32  33
ATOM     33  C   UNL A   1      42.598  21.385  26.140  1.00  0.00     0.021 C 
BRANCH  33  34
ATOM     34  C   UNL A   1      42.432  22.666  25.330  1.00  0.00     0.116 C 
BRANCH  34  35
ATOM     35  N   UNL A   1      43.698  23.228  24.895  1.00  0.00    -0.352 N 
ATOM     36  C   UNL A   1      44.277  24.428  25.211  1.00  0.00     0.251 C 
ATOM     37  H   UNL A   1      44.218  22.661  24.280  1.00  0.00     0.163 HD
ATOM     38  O   UNL A   1      45.298  24.794  24.625  1.00  0.00    -0.269 OA
BRANCH  36  39
ATOM     39  C   UNL A   1      43.668  25.305  26.233  1.00  0.00     0.039 A 
ATOM     40  C   UNL A   1      42.740  24.755  27.120  1.00  0.00     0.014 A 
ATOM     41  C   UNL A   1      44.001  26.660  26.316  1.00  0.00     0.014 A 
ATOM     42  C   UNL A   1      42.194  25.546  28.132  1.00  0.00     0.010 A 
ATOM     43  C   UNL A   1      43.510  27.430  27.367  1.00  0.00     0.010 A 
ATOM     44  C   UNL A   1      42.604  26.881  28.287  1.00  0.00    -0.014 A 
BRANCH  44  45
ATOM     45  C   UNL A   1      42.114  27.702  29.422  1.00  0.00     0.031 A 
ATOM     46  C   UNL A   1      42.772  27.615  30.770  1.00  0.00     0.074 A 
ATOM     47  C   UNL A   1      41.026  28.479  29.252  1.00  0.00     0.049 A 
ATOM     48  N   UNL A   1      42.453  28.219  31.886  1.00  0.00    -0.248 NA
ATOM     49  C   UNL A   1      43.925  26.707  30.886  1.00  0.00     0.031 C 
ATOM     50  C   UNL A   1      40.262  28.601  28.010  1.00  0.00     0.029 A 
ATOM     51  N   UNL A   1      40.365  29.299  30.132  1.00  0.00    -0.354 N 
ATOM     52  C   UNL A   1      43.351  27.754  32.839  1.00  0.00     0.074 A 
ATOM     53  C   UNL A   1      44.196  26.781  32.180  1.00  0.00     0.031 C 
ATOM     54  C   UNL A   1      39.247  29.457  28.201  1.00  0.00     0.029 A 
ATOM     55  C   UNL A   1      39.265  29.914  29.587  1.00  0.00     0.049 A 
ATOM     56  H   UNL A   1      40.652  29.433  31.064  1.00  0.00     0.167 HD
ATOM     57  C   UNL A   1      43.470  28.119  34.137  1.00  0.00     0.037 A 
ATOM     58  C   UNL A   1      38.363  30.745  30.142  1.00  0.00     0.037 A 
ATOM     59  C   UNL A   1      42.637  29.102  34.781  1.00  0.00     0.049 A 
ATOM     60  C   UNL A   1      38.520  31.142  31.583  1.00  0.00     0.074 A 
ATOM     61  C   UNL A   1      42.736  29.607  36.066  1.00  0.00     0.029 A 
ATOM     62  N   UNL A   1      41.545  29.722  34.190  1.00  0.00    -0.354 N 
ATOM     63  N   UNL A   1      39.431  30.767  32.447  1.00  0.00    -0.248 NA
ATOM     64  C   UNL A   1      37.528  32.082  32.123  1.00  0.00     0.031 C 
ATOM     65  C   UNL A   1      41.667  30.487  36.273  1.00  0.00     0.029 A 
ATOM     66  C   UNL A   1      40.936  30.574  35.099  1.00  0.00     0.049 A 
ATOM     67  H   UNL A   1      41.246  29.576  33.264  1.00  0.00     0.167 HD
ATOM     68  C   UNL A   1      39.134  31.434  33.629  1.00  0.00     0.074 A 
ATOM     69  C   UNL A   1      37.968  32.254  33.362  1.00  0.00     0.031 C 
ATOM     70  C   UNL A   1      39.768  31.373  34.825  1.00  0.00     0.037 A 
BRANCH  57  71
ATOM     71  C   UNL A   1      44.533  27.440  34.953  1.00  0.00     0.057 A 
ATOM     72  C   UNL A   1      45.863  27.881  34.959  1.00  0.00     0.134 A 
ATOM     73  C   UNL A   1      44.217  26.340  35.761  1.00  0.00     0.134 A 
ATOM     74  F   UNL A   1      46.236  28.924  34.200  1.00  0.00    -0.206 F 
ATOM     75  C   UNL A   1      46.846  27.235  35.712  1.00  0.00     0.040 A 
ATOM     76  C   UNL A   1      45.185  25.703  36.542  1.00  0.00     0.040 A 
ATOM     77  F   UNL A   1      42.962  25.867  35.810  1.00  0.00    -0.206 F 
ATOM     78  C   UNL A   1      46.505  26.146  36.511  1.00  0.00     0.006 A 
ENDBRANCH  57  71
BRANCH  58  79
ATOM     79  C   UNL A   1      37.239  31.261  29.322  1.00  0.00     0.057 A 
ATOM     80  C   UNL A   1      36.099  30.487  29.085  1.00  0.00     0.134 A 
ATOM     81  C   UNL A   1      37.269  32.551  28.777  1.00  0.00     0.134 A 
ATOM     82  F   UNL A   1      36.018  29.238  29.565  1.00  0.00    -0.206 F 
ATOM     83  C   UNL A   1      35.031  30.972  28.326  1.00  0.00     0.040 A 
ATOM     84  C   UNL A   1      36.199  33.058  28.039  1.00  0.00     0.040 A 
ATOM     85  F   UNL A   1      38.330  33.346  28.978  1.00  0.00    -0.206 F 
ATOM     86  C   UNL A   1      35.077  32.265  27.808  1.00  0.00     0.006 A 
ENDBRANCH  58  79
BRANCH  70  87
ATOM     87  C   UNL A   1      39.220  32.222  35.936  1.00  0.00     0.057 A 
ATOM     88  C   UNL A   1      39.618  33.553  36.113  1.00  0.00     0.134 A 
ATOM     89  C   UNL A   1      38.254  31.714  36.815  1.00  0.00     0.134 A 
ATOM     90  F   UNL A   1      40.549  34.095  35.314  1.00  0.00    -0.206 F 
ATOM     91  C   UNL A   1      39.093  34.341  37.138  1.00  0.00     0.040 A 
ATOM     92  C   UNL A   1      37.701  32.501  37.825  1.00  0.00     0.040 A 
ATOM     93  F   UNL A   1      37.822  30.449  36.695  1.00  0.00    -0.206 F 
ATOM     94  C   UNL A   1      38.125  33.817  37.993  1.00  0.00     0.006 A 
ENDBRANCH  70  87
ENDBRANCH  44  45
ENDBRANCH  36  39
ENDBRANCH  34  35
ENDBRANCH  33  34
ENDBRANCH  32  33
ENDBRANCH  31  32
ENDBRANCH   1  31
TORSDOF 17
ENDMDL
