MODEL 1
REMARK VINA RESULT:     -10.9      0.000      0.000
REMARK SMILES Cc1noc(C[N@@H+]2CCC[C@H]2C(=O)NCCCCCCNC(=O)c2ccc(-c3c4nc(c(-c5c(F)cccc5F)c5ccc([nH]5)c(-c5c(F)cccc5F)c5nc(c(-c6c(F)cccc6F)c6ccc3[nH]6)C=C5)C=C4)cc2)n1
REMARK SMILES IDX 17 1 16 2 15 3 14 4 12 5 13 6 11 8 7 9 8 10 9 12 10 13 6 14
REMARK SMILES IDX 5 15 1 16 2 17 3 18 78 19 4 20 18 21 19 22 20 23 21 24 22 25
REMARK SMILES IDX 23 27 24 28 25 29 77 30 26 31 76 32 27 33 28 34 29 35 70 36
REMARK SMILES IDX 30 37 75 38 69 39 71 40 31 41 74 42 68 43 67 44 32 46 58 47
REMARK SMILES IDX 41 48 57 49 42 50 45 51 56 52 72 53 43 54 44 55 55 57 73 58
REMARK SMILES IDX 46 59 33 60 34 61 39 62 35 63 36 64 38 65 40 66 37 67 59 68
REMARK SMILES IDX 60 69 65 70 61 71 62 72 64 73 66 74 63 75 47 76 48 77 53 78
REMARK SMILES IDX 49 79 50 80 52 81 54 82 51 83
REMARK H PARENT 14 7 7 11 21 26 71 45 45 56
REMARK Flexibility Score: inf
ROOT
ATOM      1  C   UNL A   1      37.731  22.060  25.369  1.00  0.00     0.002 C 
ENDROOT
BRANCH   1   2
ATOM      2  C   UNL A   1      36.758  23.224  25.137  1.00  0.00     0.021 C 
BRANCH   2   3
ATOM      3  C   UNL A   1      35.825  23.032  23.940  1.00  0.00     0.116 C 
BRANCH   3   4
ATOM      4  N   UNL A   1      34.831  24.084  23.885  1.00  0.00    -0.351 N 
ATOM      5  C   UNL A   1      33.479  24.022  24.071  1.00  0.00     0.278 C 
ATOM      6  O   UNL A   1      32.822  25.047  23.873  1.00  0.00    -0.268 OA
ATOM      7  H   UNL A   1      35.183  24.981  23.682  1.00  0.00     0.163 HD
BRANCH   5   8
ATOM      8  C   UNL A   1      32.847  22.705  24.574  1.00  0.00     0.274 C 
ATOM      9  N   UNL A   1      33.203  22.569  26.005  1.00  0.00    -0.317 N 
ATOM     10  C   UNL A   1      32.037  23.021  26.772  1.00  0.00     0.263 C 
ATOM     11  H   UNL A   1      34.009  23.156  26.216  1.00  0.00     0.349 HD
ATOM     12  C   UNL A   1      30.813  22.757  25.916  1.00  0.00     0.068 C 
ATOM     13  C   UNL A   1      31.320  22.748  24.486  1.00  0.00     0.081 C 
BRANCH   9  14
ATOM     14  C   UNL A   1      33.715  21.244  26.394  1.00  0.00     0.364 C 
BRANCH  14  15
ATOM     15  C   UNL A   1      33.419  20.132  25.450  1.00  0.00     0.281 A 
ATOM     16  C   UNL A   1      34.029  17.302  23.494  1.00  0.00     0.093 C 
ATOM     17  C   UNL A   1      33.459  18.430  24.250  1.00  0.00     0.169 A 
ATOM     18  N   UNL A   1      32.209  18.429  24.730  1.00  0.00    -0.063 NA
ATOM     19  N   UNL A   1      34.225  19.498  24.628  1.00  0.00    -0.191 NA
ATOM     20  O   UNL A   1      32.176  19.574  25.530  1.00  0.00    -0.333 OA
ENDBRANCH  14  15
ENDBRANCH   9  14
ENDBRANCH   5   8
ENDBRANCH   3   4
ENDBRANCH   2   3
ENDBRANCH   1   2
BRANCH   1  21
ATOM     21  C   UNL A   1      37.400  20.772  24.607  1.00  0.00     0.002 C 
BRANCH  21  22
ATOM     22  C   UNL A   1      38.273  19.566  24.962  1.00  0.00     0.021 C 
BRANCH  22  23
ATOM     23  C   UNL A   1      39.322  19.832  26.038  1.00  0.00     0.116 C 
BRANCH  23  24
ATOM     24  N   UNL A   1      40.436  18.899  25.966  1.00  0.00    -0.352 N 
ATOM     25  C   UNL A   1      41.783  19.137  26.045  1.00  0.00     0.251 C 
ATOM     26  H   UNL A   1      40.184  17.955  25.840  1.00  0.00     0.163 HD
ATOM     27  O   UNL A   1      42.582  18.241  25.775  1.00  0.00    -0.269 OA
BRANCH  25  28
ATOM     28  C   UNL A   1      42.287  20.473  26.431  1.00  0.00     0.039 A 
ATOM     29  C   UNL A   1      42.792  21.313  25.434  1.00  0.00     0.014 A 
ATOM     30  C   UNL A   1      42.279  20.895  27.763  1.00  0.00     0.014 A 
ATOM     31  C   UNL A   1      43.229  22.597  25.766  1.00  0.00     0.010 A 
ATOM     32  C   UNL A   1      42.647  22.202  28.081  1.00  0.00     0.010 A 
ATOM     33  C   UNL A   1      43.124  23.068  27.085  1.00  0.00    -0.014 A 
BRANCH  33  34
ATOM     34  C   UNL A   1      43.488  24.468  27.425  1.00  0.00     0.031 A 
ATOM     35  C   UNL A   1      44.921  24.922  27.380  1.00  0.00     0.074 A 
ATOM     36  C   UNL A   1      42.524  25.320  27.827  1.00  0.00     0.049 A 
ATOM     37  N   UNL A   1      45.424  26.095  27.672  1.00  0.00    -0.248 NA
ATOM     38  C   UNL A   1      45.925  23.923  26.980  1.00  0.00     0.031 C 
ATOM     39  C   UNL A   1      41.105  24.987  27.968  1.00  0.00     0.029 A 
ATOM     40  N   UNL A   1      42.592  26.640  28.198  1.00  0.00    -0.354 N 
ATOM     41  C   UNL A   1      46.797  25.973  27.501  1.00  0.00     0.074 A 
ATOM     42  C   UNL A   1      47.055  24.599  27.128  1.00  0.00     0.031 C 
ATOM     43  C   UNL A   1      40.434  26.078  28.371  1.00  0.00     0.029 A 
ATOM     44  C   UNL A   1      41.377  27.176  28.555  1.00  0.00     0.049 A 
ATOM     45  H   UNL A   1      43.431  27.155  28.207  1.00  0.00     0.167 HD
ATOM     46  C   UNL A   1      47.754  26.925  27.623  1.00  0.00     0.037 A 
ATOM     47  C   UNL A   1      41.059  28.410  28.991  1.00  0.00     0.037 A 
ATOM     48  C   UNL A   1      47.493  28.297  27.973  1.00  0.00     0.049 A 
ATOM     49  C   UNL A   1      42.142  29.445  29.115  1.00  0.00     0.074 A 
ATOM     50  C   UNL A   1      48.387  29.352  28.048  1.00  0.00     0.029 A 
ATOM     51  N   UNL A   1      46.248  28.805  28.311  1.00  0.00    -0.354 N 
ATOM     52  N   UNL A   1      43.424  29.337  28.865  1.00  0.00    -0.248 NA
ATOM     53  C   UNL A   1      41.731  30.780  29.574  1.00  0.00     0.031 C 
ATOM     54  C   UNL A   1      47.694  30.483  28.488  1.00  0.00     0.029 A 
ATOM     55  C   UNL A   1      46.357  30.150  28.628  1.00  0.00     0.049 A 
ATOM     56  H   UNL A   1      45.411  28.287  28.324  1.00  0.00     0.167 HD
ATOM     57  C   UNL A   1      43.968  30.591  29.112  1.00  0.00     0.074 A 
ATOM     58  C   UNL A   1      42.872  31.451  29.508  1.00  0.00     0.031 C 
ATOM     59  C   UNL A   1      45.258  30.995  29.023  1.00  0.00     0.037 A 
BRANCH  46  60
ATOM     60  C   UNL A   1      49.179  26.520  27.376  1.00  0.00     0.057 A 
ATOM     61  C   UNL A   1      50.014  26.077  28.411  1.00  0.00     0.134 A 
ATOM     62  C   UNL A   1      49.705  26.514  26.078  1.00  0.00     0.134 A 
ATOM     63  F   UNL A   1      49.577  26.066  29.680  1.00  0.00    -0.206 F 
ATOM     64  C   UNL A   1      51.325  25.663  28.166  1.00  0.00     0.040 A 
ATOM     65  C   UNL A   1      51.004  26.075  25.816  1.00  0.00     0.040 A 
ATOM     66  F   UNL A   1      48.958  26.918  25.038  1.00  0.00    -0.206 F 
ATOM     67  C   UNL A   1      51.820  25.652  26.864  1.00  0.00     0.006 A 
ENDBRANCH  46  60
BRANCH  47  68
ATOM     68  C   UNL A   1      39.653  28.740  29.336  1.00  0.00     0.057 A 
ATOM     69  C   UNL A   1      39.163  28.564  30.635  1.00  0.00     0.134 A 
ATOM     70  C   UNL A   1      38.757  29.215  28.369  1.00  0.00     0.134 A 
ATOM     71  F   UNL A   1      39.966  28.094  31.601  1.00  0.00    -0.206 F 
ATOM     72  C   UNL A   1      37.829  28.822  30.956  1.00  0.00     0.040 A 
ATOM     73  C   UNL A   1      37.428  29.506  28.683  1.00  0.00     0.040 A 
ATOM     74  F   UNL A   1      39.165  29.415  27.107  1.00  0.00    -0.206 F 
ATOM     75  C   UNL A   1      36.958  29.299  29.978  1.00  0.00     0.006 A 
ENDBRANCH  47  68
BRANCH  59  76
ATOM     76  C   UNL A   1      45.549  32.436  29.331  1.00  0.00     0.057 A 
ATOM     77  C   UNL A   1      45.903  32.862  30.619  1.00  0.00     0.134 A 
ATOM     78  C   UNL A   1      45.495  33.407  28.323  1.00  0.00     0.134 A 
ATOM     79  F   UNL A   1      45.960  31.986  31.633  1.00  0.00    -0.206 F 
ATOM     80  C   UNL A   1      46.161  34.205  30.898  1.00  0.00     0.040 A 
ATOM     81  C   UNL A   1      45.782  34.748  28.583  1.00  0.00     0.040 A 
ATOM     82  F   UNL A   1      45.174  33.068  27.065  1.00  0.00    -0.206 F 
ATOM     83  C   UNL A   1      46.106  35.151  29.877  1.00  0.00     0.006 A 
ENDBRANCH  59  76
ENDBRANCH  33  34
ENDBRANCH  25  28
ENDBRANCH  23  24
ENDBRANCH  22  23
ENDBRANCH  21  22
ENDBRANCH   1  21
TORSDOF 15
ENDMDL
MODEL 2
REMARK VINA RESULT:     -10.9      2.830      7.734
REMARK SMILES Cc1noc(C[N@@H+]2CCC[C@H]2C(=O)NCCCCCCNC(=O)c2ccc(-c3c4nc(c(-c5c(F)cccc5F)c5ccc([nH]5)c(-c5c(F)cccc5F)c5nc(c(-c6c(F)cccc6F)c6ccc3[nH]6)C=C5)C=C4)cc2)n1
REMARK SMILES IDX 17 1 16 2 15 3 14 4 12 5 13 6 11 8 7 9 8 10 9 12 10 13 6 14
REMARK SMILES IDX 5 15 1 16 2 17 3 18 78 19 4 20 18 21 19 22 20 23 21 24 22 25
REMARK SMILES IDX 23 27 24 28 25 29 77 30 26 31 76 32 27 33 28 34 29 35 70 36
REMARK SMILES IDX 30 37 75 38 69 39 71 40 31 41 74 42 68 43 67 44 32 46 58 47
REMARK SMILES IDX 41 48 57 49 42 50 45 51 56 52 72 53 43 54 44 55 55 57 73 58
REMARK SMILES IDX 46 59 33 60 34 61 39 62 35 63 36 64 38 65 40 66 37 67 59 68
REMARK SMILES IDX 60 69 65 70 61 71 62 72 64 73 66 74 63 75 47 76 48 77 53 78
REMARK SMILES IDX 49 79 50 80 52 81 54 82 51 83
REMARK H PARENT 14 7 7 11 21 26 71 45 45 56
REMARK Flexibility Score: inf
ROOT
ATOM      1  C   UNL A   1      31.391  29.116  24.315  1.00  0.00     0.002 C 
ENDROOT
BRANCH   1   2
ATOM      2  C   UNL A   1      31.771  28.659  22.900  1.00  0.00     0.021 C 
BRANCH   2   3
ATOM      3  C   UNL A   1      30.998  27.433  22.409  1.00  0.00     0.116 C 
BRANCH   3   4
ATOM      4  N   UNL A   1      31.776  26.683  21.444  1.00  0.00    -0.351 N 
ATOM      5  C   UNL A   1      32.584  25.597  21.625  1.00  0.00     0.278 C 
ATOM      6  O   UNL A   1      33.226  25.189  20.655  1.00  0.00    -0.268 OA
ATOM      7  H   UNL A   1      31.712  27.005  20.515  1.00  0.00     0.163 HD
BRANCH   5   8
ATOM      8  C   UNL A   1      32.611  24.899  23.002  1.00  0.00     0.274 C 
ATOM      9  N   UNL A   1      32.732  23.444  22.752  1.00  0.00    -0.317 N 
ATOM     10  C   UNL A   1      34.147  23.103  22.935  1.00  0.00     0.263 C 
ATOM     11  H   UNL A   1      32.442  23.235  21.798  1.00  0.00     0.349 HD
ATOM     12  C   UNL A   1      34.719  24.097  23.928  1.00  0.00     0.068 C 
ATOM     13  C   UNL A   1      33.832  25.323  23.821  1.00  0.00     0.081 C 
BRANCH   9  14
ATOM     14  C   UNL A   1      31.796  22.603  23.517  1.00  0.00     0.364 C 
BRANCH  14  15
ATOM     15  C   UNL A   1      32.235  21.201  23.760  1.00  0.00     0.281 A 
ATOM     16  C   UNL A   1      32.753  18.236  25.534  1.00  0.00     0.093 C 
ATOM     17  C   UNL A   1      32.614  19.302  24.528  1.00  0.00     0.169 A 
ATOM     18  N   UNL A   1      32.362  19.058  23.236  1.00  0.00    -0.063 NA
ATOM     19  N   UNL A   1      32.600  20.623  24.882  1.00  0.00    -0.191 NA
ATOM     20  O   UNL A   1      32.115  20.330  22.715  1.00  0.00    -0.333 OA
ENDBRANCH  14  15
ENDBRANCH   9  14
ENDBRANCH   5   8
ENDBRANCH   3   4
ENDBRANCH   2   3
ENDBRANCH   1   2
BRANCH   1  21
ATOM     21  C   UNL A   1      32.558  29.609  25.176  1.00  0.00     0.002 C 
BRANCH  21  22
ATOM     22  C   UNL A   1      33.470  28.509  25.724  1.00  0.00     0.021 C 
BRANCH  22  23
ATOM     23  C   UNL A   1      33.769  28.613  27.217  1.00  0.00     0.116 C 
BRANCH  23  24
ATOM     24  N   UNL A   1      33.734  29.986  27.693  1.00  0.00    -0.352 N 
ATOM     25  C   UNL A   1      34.686  30.703  28.371  1.00  0.00     0.251 C 
ATOM     26  H   UNL A   1      32.901  30.475  27.500  1.00  0.00     0.163 HD
ATOM     27  O   UNL A   1      34.401  31.798  28.854  1.00  0.00    -0.269 OA
BRANCH  25  28
ATOM     28  C   UNL A   1      36.049  30.159  28.548  1.00  0.00     0.039 A 
ATOM     29  C   UNL A   1      36.942  30.223  27.475  1.00  0.00     0.014 A 
ATOM     30  C   UNL A   1      36.446  29.574  29.754  1.00  0.00     0.014 A 
ATOM     31  C   UNL A   1      38.251  29.760  27.633  1.00  0.00     0.010 A 
ATOM     32  C   UNL A   1      37.771  29.181  29.933  1.00  0.00     0.010 A 
ATOM     33  C   UNL A   1      38.688  29.271  28.875  1.00  0.00    -0.014 A 
BRANCH  33  34
ATOM     34  C   UNL A   1      40.106  28.875  29.080  1.00  0.00     0.031 A 
ATOM     35  C   UNL A   1      41.091  29.835  29.688  1.00  0.00     0.074 A 
ATOM     36  C   UNL A   1      40.517  27.659  28.667  1.00  0.00     0.049 A 
ATOM     37  N   UNL A   1      42.371  29.670  29.915  1.00  0.00    -0.248 NA
ATOM     38  C   UNL A   1      40.582  31.161  30.071  1.00  0.00     0.031 C 
ATOM     39  C   UNL A   1      39.674  26.659  28.011  1.00  0.00     0.029 A 
ATOM     40  N   UNL A   1      41.751  27.060  28.731  1.00  0.00    -0.354 N 
ATOM     41  C   UNL A   1      42.819  30.869  30.454  1.00  0.00     0.074 A 
ATOM     42  C   UNL A   1      41.687  31.771  30.475  1.00  0.00     0.031 C 
ATOM     43  C   UNL A   1      40.407  25.564  27.754  1.00  0.00     0.029 A 
ATOM     44  C   UNL A   1      41.779  25.797  28.191  1.00  0.00     0.049 A 
ATOM     45  H   UNL A   1      42.541  27.495  29.127  1.00  0.00     0.167 HD
ATOM     46  C   UNL A   1      44.056  31.184  30.909  1.00  0.00     0.037 A 
ATOM     47  C   UNL A   1      42.797  24.926  28.054  1.00  0.00     0.037 A 
ATOM     48  C   UNL A   1      45.175  30.278  30.907  1.00  0.00     0.049 A 
ATOM     49  C   UNL A   1      44.159  25.303  28.569  1.00  0.00     0.074 A 
ATOM     50  C   UNL A   1      46.448  30.481  31.415  1.00  0.00     0.029 A 
ATOM     51  N   UNL A   1      45.160  29.002  30.367  1.00  0.00    -0.354 N 
ATOM     52  N   UNL A   1      44.545  26.410  29.155  1.00  0.00    -0.248 NA
ATOM     53  C   UNL A   1      45.225  24.304  28.411  1.00  0.00     0.031 C 
ATOM     54  C   UNL A   1      47.218  29.350  31.130  1.00  0.00     0.029 A 
ATOM     55  C   UNL A   1      46.410  28.418  30.500  1.00  0.00     0.049 A 
ATOM     56  H   UNL A   1      44.378  28.573  29.950  1.00  0.00     0.167 HD
ATOM     57  C   UNL A   1      45.889  26.232  29.458  1.00  0.00     0.074 A 
ATOM     58  C   UNL A   1      46.245  24.901  29.012  1.00  0.00     0.031 C 
ATOM     59  C   UNL A   1      46.753  27.093  30.050  1.00  0.00     0.037 A 
BRANCH  46  60
ATOM     60  C   UNL A   1      44.270  32.569  31.451  1.00  0.00     0.057 A 
ATOM     61  C   UNL A   1      44.676  33.630  30.632  1.00  0.00     0.134 A 
ATOM     62  C   UNL A   1      44.008  32.857  32.797  1.00  0.00     0.134 A 
ATOM     63  F   UNL A   1      44.953  33.422  29.336  1.00  0.00    -0.206 F 
ATOM     64  C   UNL A   1      44.833  34.923  31.136  1.00  0.00     0.040 A 
ATOM     65  C   UNL A   1      44.133  34.150  33.306  1.00  0.00     0.040 A 
ATOM     66  F   UNL A   1      43.609  31.888  33.636  1.00  0.00    -0.206 F 
ATOM     67  C   UNL A   1      44.552  35.188  32.475  1.00  0.00     0.006 A 
ENDBRANCH  46  60
BRANCH  47  68
ATOM     68  C   UNL A   1      42.571  23.609  27.406  1.00  0.00     0.057 A 
ATOM     69  C   UNL A   1      42.690  23.450  26.021  1.00  0.00     0.134 A 
ATOM     70  C   UNL A   1      42.206  22.482  28.155  1.00  0.00     0.134 A 
ATOM     71  F   UNL A   1      43.019  24.495  25.247  1.00  0.00    -0.206 F 
ATOM     72  C   UNL A   1      42.428  22.228  25.399  1.00  0.00     0.040 A 
ATOM     73  C   UNL A   1      41.970  21.247  27.549  1.00  0.00     0.040 A 
ATOM     74  F   UNL A   1      42.084  22.564  29.487  1.00  0.00    -0.206 F 
ATOM     75  C   UNL A   1      42.070  21.120  26.165  1.00  0.00     0.006 A 
ENDBRANCH  47  68
BRANCH  59  76
ATOM     76  C   UNL A   1      48.157  26.610  30.273  1.00  0.00     0.057 A 
ATOM     77  C   UNL A   1      49.174  26.827  29.333  1.00  0.00     0.134 A 
ATOM     78  C   UNL A   1      48.502  25.938  31.453  1.00  0.00     0.134 A 
ATOM     79  F   UNL A   1      48.909  27.452  28.177  1.00  0.00    -0.206 F 
ATOM     80  C   UNL A   1      50.474  26.365  29.545  1.00  0.00     0.040 A 
ATOM     81  C   UNL A   1      49.805  25.500  31.691  1.00  0.00     0.040 A 
ATOM     82  F   UNL A   1      47.581  25.706  32.400  1.00  0.00    -0.206 F 
ATOM     83  C   UNL A   1      50.794  25.704  30.730  1.00  0.00     0.006 A 
ENDBRANCH  59  76
ENDBRANCH  33  34
ENDBRANCH  25  28
ENDBRANCH  23  24
ENDBRANCH  22  23
ENDBRANCH  21  22
ENDBRANCH   1  21
TORSDOF 15
ENDMDL
MODEL 3
REMARK VINA RESULT:     -10.9      2.777      4.247
REMARK SMILES Cc1noc(C[N@@H+]2CCC[C@H]2C(=O)NCCCCCCNC(=O)c2ccc(-c3c4nc(c(-c5c(F)cccc5F)c5ccc([nH]5)c(-c5c(F)cccc5F)c5nc(c(-c6c(F)cccc6F)c6ccc3[nH]6)C=C5)C=C4)cc2)n1
REMARK SMILES IDX 17 1 16 2 15 3 14 4 12 5 13 6 11 8 7 9 8 10 9 12 10 13 6 14
REMARK SMILES IDX 5 15 1 16 2 17 3 18 78 19 4 20 18 21 19 22 20 23 21 24 22 25
REMARK SMILES IDX 23 27 24 28 25 29 77 30 26 31 76 32 27 33 28 34 29 35 70 36
REMARK SMILES IDX 30 37 75 38 69 39 71 40 31 41 74 42 68 43 67 44 32 46 58 47
REMARK SMILES IDX 41 48 57 49 42 50 45 51 56 52 72 53 43 54 44 55 55 57 73 58
REMARK SMILES IDX 46 59 33 60 34 61 39 62 35 63 36 64 38 65 40 66 37 67 59 68
REMARK SMILES IDX 60 69 65 70 61 71 62 72 64 73 66 74 63 75 47 76 48 77 53 78
REMARK SMILES IDX 49 79 50 80 52 81 54 82 51 83
REMARK H PARENT 14 7 7 11 21 26 71 45 45 56
REMARK Flexibility Score: inf
ROOT
ATOM      1  C   UNL A   1      36.569  22.191  24.342  1.00  0.00     0.002 C 
ENDROOT
BRANCH   1   2
ATOM      2  C   UNL A   1      35.417  22.771  23.510  1.00  0.00     0.021 C 
BRANCH   2   3
ATOM      3  C   UNL A   1      34.907  24.125  24.006  1.00  0.00     0.116 C 
BRANCH   3   4
ATOM      4  N   UNL A   1      33.516  24.039  24.404  1.00  0.00    -0.351 N 
ATOM      5  C   UNL A   1      32.660  25.023  24.812  1.00  0.00     0.278 C 
ATOM      6  O   UNL A   1      31.538  24.687  25.198  1.00  0.00    -0.268 OA
ATOM      7  H   UNL A   1      33.129  23.135  24.377  1.00  0.00     0.163 HD
BRANCH   5   8
ATOM      8  C   UNL A   1      33.106  26.499  24.714  1.00  0.00     0.274 C 
ATOM      9  N   UNL A   1      31.880  27.317  24.578  1.00  0.00    -0.317 N 
ATOM     10  C   UNL A   1      31.582  27.853  25.911  1.00  0.00     0.263 C 
ATOM     11  H   UNL A   1      31.110  26.732  24.257  1.00  0.00     0.349 HD
ATOM     12  C   UNL A   1      32.903  27.970  26.648  1.00  0.00     0.068 C 
ATOM     13  C   UNL A   1      33.818  26.953  25.991  1.00  0.00     0.081 C 
BRANCH   9  14
ATOM     14  C   UNL A   1      31.924  28.328  23.508  1.00  0.00     0.364 C 
BRANCH  14  15
ATOM     15  C   UNL A   1      30.624  28.967  23.165  1.00  0.00     0.281 A 
ATOM     16  C   UNL A   1      28.163  31.446  23.071  1.00  0.00     0.093 C 
ATOM     17  C   UNL A   1      29.014  30.258  22.882  1.00  0.00     0.169 A 
ATOM     18  N   UNL A   1      29.020  29.536  21.755  1.00  0.00    -0.063 NA
ATOM     19  N   UNL A   1      29.957  29.900  23.806  1.00  0.00    -0.191 NA
ATOM     20  O   UNL A   1      30.094  28.663  21.944  1.00  0.00    -0.333 OA
ENDBRANCH  14  15
ENDBRANCH   9  14
ENDBRANCH   5   8
ENDBRANCH   3   4
ENDBRANCH   2   3
ENDBRANCH   1   2
BRANCH   1  21
ATOM     21  C   UNL A   1      36.351  20.762  24.850  1.00  0.00     0.002 C 
BRANCH  21  22
ATOM     22  C   UNL A   1      37.593  19.869  24.828  1.00  0.00     0.021 C 
BRANCH  22  23
ATOM     23  C   UNL A   1      38.724  20.324  25.746  1.00  0.00     0.116 C 
BRANCH  23  24
ATOM     24  N   UNL A   1      39.836  19.387  25.759  1.00  0.00    -0.352 N 
ATOM     25  C   UNL A   1      41.158  19.602  26.048  1.00  0.00     0.251 C 
ATOM     26  H   UNL A   1      39.603  18.459  25.526  1.00  0.00     0.163 HD
ATOM     27  O   UNL A   1      41.986  18.719  25.824  1.00  0.00    -0.269 OA
BRANCH  25  28
ATOM     28  C   UNL A   1      41.604  20.897  26.604  1.00  0.00     0.039 A 
ATOM     29  C   UNL A   1      42.051  21.887  25.724  1.00  0.00     0.014 A 
ATOM     30  C   UNL A   1      41.597  21.136  27.981  1.00  0.00     0.014 A 
ATOM     31  C   UNL A   1      42.431  23.136  26.221  1.00  0.00     0.010 A 
ATOM     32  C   UNL A   1      41.906  22.406  28.468  1.00  0.00     0.010 A 
ATOM     33  C   UNL A   1      42.325  23.420  27.593  1.00  0.00    -0.014 A 
BRANCH  33  34
ATOM     34  C   UNL A   1      42.627  24.778  28.114  1.00  0.00     0.031 A 
ATOM     35  C   UNL A   1      44.022  25.146  28.539  1.00  0.00     0.074 A 
ATOM     36  C   UNL A   1      41.624  25.669  28.253  1.00  0.00     0.049 A 
ATOM     37  N   UNL A   1      44.461  26.272  29.043  1.00  0.00    -0.248 NA
ATOM     38  C   UNL A   1      45.056  24.108  28.404  1.00  0.00     0.031 C 
ATOM     39  C   UNL A   1      40.218  25.416  27.932  1.00  0.00     0.029 A 
ATOM     40  N   UNL A   1      41.631  26.964  28.709  1.00  0.00    -0.354 N 
ATOM     41  C   UNL A   1      45.812  26.075  29.294  1.00  0.00     0.074 A 
ATOM     42  C   UNL A   1      46.113  24.706  28.933  1.00  0.00     0.031 C 
ATOM     43  C   UNL A   1      39.504  26.526  28.177  1.00  0.00     0.029 A 
ATOM     44  C   UNL A   1      40.390  27.555  28.709  1.00  0.00     0.049 A 
ATOM     45  H   UNL A   1      42.448  27.425  29.007  1.00  0.00     0.167 HD
ATOM     46  C   UNL A   1      46.725  26.961  29.762  1.00  0.00     0.037 A 
ATOM     47  C   UNL A   1      40.007  28.785  29.102  1.00  0.00     0.037 A 
ATOM     48  C   UNL A   1      46.429  28.329  30.099  1.00  0.00     0.049 A 
ATOM     49  C   UNL A   1      41.043  29.746  29.617  1.00  0.00     0.074 A 
ATOM     50  C   UNL A   1      47.301  29.323  30.511  1.00  0.00     0.029 A 
ATOM     51  N   UNL A   1      45.164  28.895  30.071  1.00  0.00    -0.354 N 
ATOM     52  N   UNL A   1      42.333  29.571  29.765  1.00  0.00    -0.248 NA
ATOM     53  C   UNL A   1      40.568  31.081  30.010  1.00  0.00     0.031 C 
ATOM     54  C   UNL A   1      46.556  30.473  30.786  1.00  0.00     0.029 A 
ATOM     55  C   UNL A   1      45.228  30.215  30.489  1.00  0.00     0.049 A 
ATOM     56  H   UNL A   1      44.342  28.429  29.795  1.00  0.00     0.167 HD
ATOM     57  C   UNL A   1      42.828  30.778  30.245  1.00  0.00     0.074 A 
ATOM     58  C   UNL A   1      41.702  31.683  30.339  1.00  0.00     0.031 C 
ATOM     59  C   UNL A   1      44.099  31.107  30.580  1.00  0.00     0.037 A 
BRANCH  46  60
ATOM     60  C   UNL A   1      48.138  26.481  29.939  1.00  0.00     0.057 A 
ATOM     61  C   UNL A   1      48.566  25.853  31.116  1.00  0.00     0.134 A 
ATOM     62  C   UNL A   1      49.066  26.594  28.895  1.00  0.00     0.134 A 
ATOM     63  F   UNL A   1      47.731  25.721  32.158  1.00  0.00    -0.206 F 
ATOM     64  C   UNL A   1      49.870  25.374  31.256  1.00  0.00     0.040 A 
ATOM     65  C   UNL A   1      50.363  26.093  29.012  1.00  0.00     0.040 A 
ATOM     66  F   UNL A   1      48.721  27.178  27.737  1.00  0.00    -0.206 F 
ATOM     67  C   UNL A   1      50.770  25.484  30.198  1.00  0.00     0.006 A 
ENDBRANCH  46  60
BRANCH  47  68
ATOM     68  C   UNL A   1      38.579  29.184  29.020  1.00  0.00     0.057 A 
ATOM     69  C   UNL A   1      38.018  29.635  27.820  1.00  0.00     0.134 A 
ATOM     70  C   UNL A   1      37.746  29.147  30.146  1.00  0.00     0.134 A 
ATOM     71  F   UNL A   1      38.768  29.711  26.711  1.00  0.00    -0.206 F 
ATOM     72  C   UNL A   1      36.691  30.061  27.746  1.00  0.00     0.040 A 
ATOM     73  C   UNL A   1      36.409  29.542  30.080  1.00  0.00     0.040 A 
ATOM     74  F   UNL A   1      38.218  28.716  31.325  1.00  0.00    -0.206 F 
ATOM     75  C   UNL A   1      35.881  30.012  28.879  1.00  0.00     0.006 A 
ENDBRANCH  47  68
BRANCH  59  76
ATOM     76  C   UNL A   1      44.343  32.512  31.052  1.00  0.00     0.057 A 
ATOM     77  C   UNL A   1      44.630  33.553  30.160  1.00  0.00     0.134 A 
ATOM     78  C   UNL A   1      44.268  32.830  32.413  1.00  0.00     0.134 A 
ATOM     79  F   UNL A   1      44.729  33.315  28.844  1.00  0.00    -0.206 F 
ATOM     80  C   UNL A   1      44.865  34.854  30.609  1.00  0.00     0.040 A 
ATOM     81  C   UNL A   1      44.470  34.133  32.872  1.00  0.00     0.040 A 
ATOM     82  F   UNL A   1      43.987  31.883  33.322  1.00  0.00    -0.206 F 
ATOM     83  C   UNL A   1      44.780  35.147  31.969  1.00  0.00     0.006 A 
ENDBRANCH  59  76
ENDBRANCH  33  34
ENDBRANCH  25  28
ENDBRANCH  23  24
ENDBRANCH  22  23
ENDBRANCH  21  22
ENDBRANCH   1  21
TORSDOF 15
ENDMDL
