MODEL 1
REMARK VINA RESULT:     -11.3      0.000      0.000
REMARK SMILES Cc1ccc(Cl)c(Nc2ccccc2C(=O)N[C@@H](C)C(=O)NCCCCCCNC(=O)c2ccc(-c3c4nc(c(-c5c(F)cccc5F)c5ccc([nH]5)c(-c5c(F)cccc5F)c5nc(c(-c6c(F)cccc6F)c6ccc3[nH]6)C=C5)C=C4)cc2)c1Cl
REMARK SMILES IDX 24 1 23 2 22 3 20 4 21 5 18 7 19 8 17 9 15 10 16 11 14 13
REMARK SMILES IDX 9 14 10 15 11 16 13 17 12 18 8 19 7 21 1 22 2 23 3 24 86 25
REMARK SMILES IDX 4 26 87 27 5 28 6 29 25 30 26 31 27 32 28 33 29 34 30 35
REMARK SMILES IDX 31 37 32 38 33 39 85 40 34 41 84 42 35 43 36 44 37 45 78 46
REMARK SMILES IDX 38 47 83 48 77 49 79 50 39 51 82 52 76 53 75 54 40 56 66 57
REMARK SMILES IDX 49 58 65 59 50 60 53 61 64 62 80 63 51 64 52 65 63 67 81 68
REMARK SMILES IDX 54 69 41 70 42 71 47 72 43 73 44 74 46 75 48 76 45 77 67 78
REMARK SMILES IDX 68 79 73 80 69 81 70 82 72 83 74 84 71 85 55 86 56 87 61 88
REMARK SMILES IDX 57 89 58 90 60 91 62 92 59 93
REMARK H PARENT 22 6 17 12 8 20 29 36 79 55 53 66
REMARK Flexibility Score: inf
ROOT
ATOM      1  C   UNL A   1      34.123  19.882  24.618  1.00  0.00     0.021 C 
ENDROOT
BRANCH   1   2
ATOM      2  C   UNL A   1      32.879  20.336  25.395  1.00  0.00     0.116 C 
BRANCH   2   3
ATOM      3  N   UNL A   1      32.222  21.474  24.790  1.00  0.00    -0.354 N 
ATOM      4  C   UNL A   1      31.438  22.216  25.626  1.00  0.00     0.242 C 
ATOM      5  O   UNL A   1      30.302  21.801  25.849  1.00  0.00    -0.273 OA
ATOM      6  H   UNL A   1      32.333  21.699  23.839  1.00  0.00     0.163 HD
BRANCH   4   7
ATOM      7  C   UNL A   1      32.029  23.483  26.283  1.00  0.00     0.168 C 
ATOM      8  C   UNL A   1      32.833  23.254  27.553  1.00  0.00     0.041 C 
BRANCH   7   9
ATOM      9  N   UNL A   1      30.862  24.319  26.502  1.00  0.00    -0.340 N 
ATOM     10  C   UNL A   1      30.663  25.592  26.013  1.00  0.00     0.254 C 
ATOM     11  O   UNL A   1      29.517  25.847  25.631  1.00  0.00    -0.269 OA
ATOM     12  H   UNL A   1      30.142  23.938  27.055  1.00  0.00     0.164 HD
BRANCH  10  13
ATOM     13  C   UNL A   1      31.633  26.720  26.201  1.00  0.00     0.063 A 
ATOM     14  C   UNL A   1      32.794  27.083  25.482  1.00  0.00     0.051 A 
ATOM     15  C   UNL A   1      33.597  28.127  26.006  1.00  0.00     0.027 A 
ATOM     16  C   UNL A   1      33.238  28.853  27.140  1.00  0.00     0.002 A 
ATOM     17  C   UNL A   1      31.279  27.494  27.336  1.00  0.00     0.016 A 
ATOM     18  C   UNL A   1      32.058  28.553  27.793  1.00  0.00     0.001 A 
BRANCH  14  19
ATOM     19  N   UNL A   1      33.231  26.615  24.226  1.00  0.00    -0.352 N 
ATOM     20  H   UNL A   1      33.378  27.340  23.577  1.00  0.00     0.167 HD
BRANCH  19  21
ATOM     21  C   UNL A   1      33.509  25.329  23.688  1.00  0.00     0.077 A 
ATOM     22  C   UNL A   1      36.314  22.744  23.322  1.00  0.00     0.046 C 
ATOM     23  C   UNL A   1      34.974  23.420  23.192  1.00  0.00    -0.030 A 
ATOM     24  C   UNL A   1      34.102  23.000  22.176  1.00  0.00     0.006 A 
ATOM     25  C   UNL A   1      34.641  24.543  23.990  1.00  0.00     0.069 A 
ATOM     26  C   UNL A   1      32.925  23.696  21.933  1.00  0.00     0.023 A 
ATOM     27  Cl  UNL A   1      35.631  24.877  25.379  1.00  0.00    -0.082 Cl
ATOM     28  C   UNL A   1      32.647  24.851  22.666  1.00  0.00     0.066 A 
ATOM     29  Cl  UNL A   1      31.222  25.741  22.221  1.00  0.00    -0.082 Cl
ENDBRANCH  19  21
ENDBRANCH  14  19
ENDBRANCH  10  13
ENDBRANCH   7   9
ENDBRANCH   4   7
ENDBRANCH   2   3
ENDBRANCH   1   2
BRANCH   1  30
ATOM     30  C   UNL A   1      35.468  20.290  25.231  1.00  0.00     0.002 C 
BRANCH  30  31
ATOM     31  C   UNL A   1      36.624  19.315  24.990  1.00  0.00     0.002 C 
BRANCH  31  32
ATOM     32  C   UNL A   1      37.959  19.963  24.631  1.00  0.00     0.021 C 
BRANCH  32  33
ATOM     33  C   UNL A   1      38.902  20.158  25.805  1.00  0.00     0.116 C 
BRANCH  33  34
ATOM     34  N   UNL A   1      39.983  19.195  25.802  1.00  0.00    -0.352 N 
ATOM     35  C   UNL A   1      41.312  19.422  26.068  1.00  0.00     0.251 C 
ATOM     36  H   UNL A   1      39.736  18.267  25.584  1.00  0.00     0.163 HD
ATOM     37  O   UNL A   1      42.149  18.562  25.844  1.00  0.00    -0.269 OA
BRANCH  35  38
ATOM     38  C   UNL A   1      41.716  20.742  26.603  1.00  0.00     0.039 A 
ATOM     39  C   UNL A   1      42.140  21.726  25.709  1.00  0.00     0.014 A 
ATOM     40  C   UNL A   1      41.645  21.013  27.973  1.00  0.00     0.014 A 
ATOM     41  C   UNL A   1      42.456  22.997  26.188  1.00  0.00     0.010 A 
ATOM     42  C   UNL A   1      41.873  22.305  28.435  1.00  0.00     0.010 A 
ATOM     43  C   UNL A   1      42.303  23.304  27.551  1.00  0.00    -0.014 A 
BRANCH  43  44
ATOM     44  C   UNL A   1      42.622  24.661  28.064  1.00  0.00     0.031 A 
ATOM     45  C   UNL A   1      44.045  25.029  28.387  1.00  0.00     0.074 A 
ATOM     46  C   UNL A   1      41.631  25.551  28.267  1.00  0.00     0.049 A 
ATOM     47  N   UNL A   1      44.523  26.156  28.850  1.00  0.00    -0.248 NA
ATOM     48  C   UNL A   1      45.062  23.984  28.187  1.00  0.00     0.031 C 
ATOM     49  C   UNL A   1      40.207  25.298  28.041  1.00  0.00     0.029 A 
ATOM     50  N   UNL A   1      41.671  26.849  28.710  1.00  0.00    -0.354 N 
ATOM     51  C   UNL A   1      45.889  25.951  29.003  1.00  0.00     0.074 A 
ATOM     52  C   UNL A   1      46.154  24.575  28.650  1.00  0.00     0.031 C 
ATOM     53  C   UNL A   1      39.514  26.416  28.313  1.00  0.00     0.029 A 
ATOM     54  C   UNL A   1      40.437  27.451  28.768  1.00  0.00     0.049 A 
ATOM     55  H   UNL A   1      42.506  27.307  28.962  1.00  0.00     0.167 HD
ATOM     56  C   UNL A   1      46.842  26.838  29.378  1.00  0.00     0.037 A 
ATOM     57  C   UNL A   1      40.090  28.695  29.147  1.00  0.00     0.037 A 
ATOM     58  C   UNL A   1      46.576  28.213  29.710  1.00  0.00     0.049 A 
ATOM     59  C   UNL A   1      41.166  29.657  29.571  1.00  0.00     0.074 A 
ATOM     60  C   UNL A   1      47.478  29.207  30.047  1.00  0.00     0.029 A 
ATOM     61  N   UNL A   1      45.314  28.785  29.754  1.00  0.00    -0.354 N 
ATOM     62  N   UNL A   1      42.463  29.474  29.637  1.00  0.00    -0.248 NA
ATOM     63  C   UNL A   1      40.730  31.005  29.962  1.00  0.00     0.031 C 
ATOM     64  C   UNL A   1      46.757  30.365  30.349  1.00  0.00     0.029 A 
ATOM     65  C   UNL A   1      45.410  30.112  30.139  1.00  0.00     0.049 A 
ATOM     66  H   UNL A   1      44.474  28.317  29.543  1.00  0.00     0.167 HD
ATOM     67  C   UNL A   1      42.999  30.688  30.048  1.00  0.00     0.074 A 
ATOM     68  C   UNL A   1      41.888  31.604  30.198  1.00  0.00     0.031 C 
ATOM     69  C   UNL A   1      44.295  31.014  30.280  1.00  0.00     0.037 A 
BRANCH  56  70
ATOM     70  C   UNL A   1      48.259  26.345  29.445  1.00  0.00     0.057 A 
ATOM     71  C   UNL A   1      49.118  26.398  28.337  1.00  0.00     0.134 A 
ATOM     72  C   UNL A   1      48.782  25.835  30.640  1.00  0.00     0.134 A 
ATOM     73  F   UNL A   1      48.677  26.862  27.158  1.00  0.00    -0.206 F 
ATOM     74  C   UNL A   1      50.432  25.935  28.408  1.00  0.00     0.040 A 
ATOM     75  C   UNL A   1      50.105  25.399  30.731  1.00  0.00     0.040 A 
ATOM     76  F   UNL A   1      48.021  25.761  31.741  1.00  0.00    -0.206 F 
ATOM     77  C   UNL A   1      50.932  25.441  29.611  1.00  0.00     0.006 A 
ENDBRANCH  56  70
BRANCH  57  78
ATOM     78  C   UNL A   1      38.665  29.112  29.123  1.00  0.00     0.057 A 
ATOM     79  C   UNL A   1      38.078  29.622  27.959  1.00  0.00     0.134 A 
ATOM     80  C   UNL A   1      37.857  29.021  30.263  1.00  0.00     0.134 A 
ATOM     81  F   UNL A   1      38.803  29.750  26.838  1.00  0.00    -0.206 F 
ATOM     82  C   UNL A   1      36.749  30.050  27.935  1.00  0.00     0.040 A 
ATOM     83  C   UNL A   1      36.519  29.419  30.246  1.00  0.00     0.040 A 
ATOM     84  F   UNL A   1      38.354  28.532  31.409  1.00  0.00    -0.206 F 
ATOM     85  C   UNL A   1      35.964  29.945  29.081  1.00  0.00     0.006 A 
ENDBRANCH  57  78
BRANCH  69  86
ATOM     86  C   UNL A   1      44.586  32.432  30.682  1.00  0.00     0.057 A 
ATOM     87  C   UNL A   1      44.706  32.814  32.023  1.00  0.00     0.134 A 
ATOM     88  C   UNL A   1      44.783  33.419  29.709  1.00  0.00     0.134 A 
ATOM     89  F   UNL A   1      44.517  31.920  33.006  1.00  0.00    -0.206 F 
ATOM     90  C   UNL A   1      44.983  34.134  32.384  1.00  0.00     0.040 A 
ATOM     91  C   UNL A   1      45.092  34.735  30.055  1.00  0.00     0.040 A 
ATOM     92  F   UNL A   1      44.694  33.119  28.403  1.00  0.00    -0.206 F 
ATOM     93  C   UNL A   1      45.185  35.097  31.397  1.00  0.00     0.006 A 
ENDBRANCH  69  86
ENDBRANCH  43  44
ENDBRANCH  35  38
ENDBRANCH  33  34
ENDBRANCH  32  33
ENDBRANCH  31  32
ENDBRANCH  30  31
ENDBRANCH   1  30
TORSDOF 17
ENDMDL
MODEL 2
REMARK VINA RESULT:     -11.3      5.229     10.086
REMARK SMILES Cc1ccc(Cl)c(Nc2ccccc2C(=O)N[C@@H](C)C(=O)NCCCCCCNC(=O)c2ccc(-c3c4nc(c(-c5c(F)cccc5F)c5ccc([nH]5)c(-c5c(F)cccc5F)c5nc(c(-c6c(F)cccc6F)c6ccc3[nH]6)C=C5)C=C4)cc2)c1Cl
REMARK SMILES IDX 24 1 23 2 22 3 20 4 21 5 18 7 19 8 17 9 15 10 16 11 14 13
REMARK SMILES IDX 9 14 10 15 11 16 13 17 12 18 8 19 7 21 1 22 2 23 3 24 86 25
REMARK SMILES IDX 4 26 87 27 5 28 6 29 25 30 26 31 27 32 28 33 29 34 30 35
REMARK SMILES IDX 31 37 32 38 33 39 85 40 34 41 84 42 35 43 36 44 37 45 78 46
REMARK SMILES IDX 38 47 83 48 77 49 79 50 39 51 82 52 76 53 75 54 40 56 66 57
REMARK SMILES IDX 49 58 65 59 50 60 53 61 64 62 80 63 51 64 52 65 63 67 81 68
REMARK SMILES IDX 54 69 41 70 42 71 47 72 43 73 44 74 46 75 48 76 45 77 67 78
REMARK SMILES IDX 68 79 73 80 69 81 70 82 72 83 74 84 71 85 55 86 56 87 61 88
REMARK SMILES IDX 57 89 58 90 60 91 62 92 59 93
REMARK H PARENT 22 6 17 12 8 20 29 36 79 55 53 66
REMARK Flexibility Score: inf
ROOT
ATOM      1  C   UNL A   1      35.334  31.593  27.822  1.00  0.00     0.021 C 
ENDROOT
BRANCH   1   2
ATOM      2  C   UNL A   1      34.466  30.476  27.226  1.00  0.00     0.116 C 
BRANCH   2   3
ATOM      3  N   UNL A   1      33.125  30.455  27.769  1.00  0.00    -0.354 N 
ATOM      4  C   UNL A   1      32.125  30.253  26.862  1.00  0.00     0.242 C 
ATOM      5  O   UNL A   1      31.744  31.228  26.217  1.00  0.00    -0.273 OA
ATOM      6  H   UNL A   1      32.946  30.577  28.729  1.00  0.00     0.163 HD
BRANCH   4   7
ATOM      7  C   UNL A   1      31.575  28.824  26.656  1.00  0.00     0.168 C 
ATOM      8  C   UNL A   1      31.957  27.810  27.723  1.00  0.00     0.041 C 
BRANCH   7   9
ATOM      9  N   UNL A   1      32.068  28.464  25.339  1.00  0.00    -0.340 N 
ATOM     10  C   UNL A   1      31.623  28.962  24.133  1.00  0.00     0.254 C 
ATOM     11  O   UNL A   1      32.496  29.179  23.286  1.00  0.00    -0.269 OA
ATOM     12  H   UNL A   1      32.793  27.799  25.304  1.00  0.00     0.164 HD
BRANCH  10  13
ATOM     13  C   UNL A   1      30.185  28.956  23.708  1.00  0.00     0.063 A 
ATOM     14  C   UNL A   1      29.290  27.894  23.455  1.00  0.00     0.051 A 
ATOM     15  C   UNL A   1      28.020  28.213  22.911  1.00  0.00     0.027 A 
ATOM     16  C   UNL A   1      27.601  29.526  22.704  1.00  0.00     0.002 A 
ATOM     17  C   UNL A   1      29.722  30.284  23.513  1.00  0.00     0.016 A 
ATOM     18  C   UNL A   1      28.446  30.569  23.033  1.00  0.00     0.001 A 
BRANCH  14  19
ATOM     19  N   UNL A   1      29.438  26.527  23.768  1.00  0.00    -0.352 N 
ATOM     20  H   UNL A   1      28.577  26.071  23.907  1.00  0.00     0.167 HD
BRANCH  19  21
ATOM     21  C   UNL A   1      30.553  25.661  23.927  1.00  0.00     0.077 A 
ATOM     22  C   UNL A   1      33.151  23.675  21.929  1.00  0.00     0.046 C 
ATOM     23  C   UNL A   1      32.368  24.231  23.089  1.00  0.00    -0.030 A 
ATOM     24  C   UNL A   1      32.439  23.576  24.327  1.00  0.00     0.006 A 
ATOM     25  C   UNL A   1      31.473  25.317  22.914  1.00  0.00     0.069 A 
ATOM     26  C   UNL A   1      31.618  23.970  25.376  1.00  0.00     0.023 A 
ATOM     27  Cl  UNL A   1      31.592  26.240  21.447  1.00  0.00    -0.082 Cl
ATOM     28  C   UNL A   1      30.679  24.984  25.169  1.00  0.00     0.066 A 
ATOM     29  Cl  UNL A   1      29.600  25.337  26.485  1.00  0.00    -0.082 Cl
ENDBRANCH  19  21
ENDBRANCH  14  19
ENDBRANCH  10  13
ENDBRANCH   7   9
ENDBRANCH   4   7
ENDBRANCH   2   3
ENDBRANCH   1   2
BRANCH   1  30
ATOM     30  C   UNL A   1      34.717  32.345  29.008  1.00  0.00     0.002 C 
BRANCH  30  31
ATOM     31  C   UNL A   1      34.715  33.871  28.891  1.00  0.00     0.002 C 
BRANCH  31  32
ATOM     32  C   UNL A   1      33.356  34.538  29.093  1.00  0.00     0.021 C 
BRANCH  32  33
ATOM     33  C   UNL A   1      33.422  35.955  29.635  1.00  0.00     0.116 C 
BRANCH  33  34
ATOM     34  N   UNL A   1      32.508  36.161  30.738  1.00  0.00    -0.352 N 
ATOM     35  C   UNL A   1      32.602  35.657  32.013  1.00  0.00     0.251 C 
ATOM     36  H   UNL A   1      31.726  36.730  30.553  1.00  0.00     0.163 HD
ATOM     37  O   UNL A   1      31.666  35.749  32.792  1.00  0.00    -0.269 OA
BRANCH  35  38
ATOM     38  C   UNL A   1      33.849  34.969  32.418  1.00  0.00     0.039 A 
ATOM     39  C   UNL A   1      33.775  33.644  32.847  1.00  0.00     0.014 A 
ATOM     40  C   UNL A   1      35.084  35.621  32.340  1.00  0.00     0.014 A 
ATOM     41  C   UNL A   1      34.948  32.959  33.164  1.00  0.00     0.010 A 
ATOM     42  C   UNL A   1      36.257  34.909  32.568  1.00  0.00     0.010 A 
ATOM     43  C   UNL A   1      36.200  33.577  33.004  1.00  0.00    -0.014 A 
BRANCH  43  44
ATOM     44  C   UNL A   1      37.454  32.847  33.323  1.00  0.00     0.031 A 
ATOM     45  C   UNL A   1      38.197  33.148  34.596  1.00  0.00     0.074 A 
ATOM     46  C   UNL A   1      37.938  31.937  32.456  1.00  0.00     0.049 A 
ATOM     47  N   UNL A   1      39.309  32.625  35.048  1.00  0.00    -0.248 NA
ATOM     48  C   UNL A   1      37.632  34.193  35.465  1.00  0.00     0.031 C 
ATOM     49  C   UNL A   1      37.337  31.593  31.166  1.00  0.00     0.029 A 
ATOM     50  N   UNL A   1      39.048  31.133  32.530  1.00  0.00    -0.354 N 
ATOM     51  C   UNL A   1      39.576  33.281  36.243  1.00  0.00     0.074 A 
ATOM     52  C   UNL A   1      38.551  34.286  36.414  1.00  0.00     0.031 C 
ATOM     53  C   UNL A   1      38.066  30.624  30.587  1.00  0.00     0.029 A 
ATOM     54  C   UNL A   1      39.204  30.306  31.444  1.00  0.00     0.049 A 
ATOM     55  H   UNL A   1      39.674  31.147  33.290  1.00  0.00     0.167 HD
ATOM     56  C   UNL A   1      40.571  33.050  37.133  1.00  0.00     0.037 A 
ATOM     57  C   UNL A   1      40.157  29.396  31.170  1.00  0.00     0.037 A 
ATOM     58  C   UNL A   1      41.578  32.036  36.969  1.00  0.00     0.049 A 
ATOM     59  C   UNL A   1      41.258  29.166  32.169  1.00  0.00     0.074 A 
ATOM     60  C   UNL A   1      42.595  31.683  37.839  1.00  0.00     0.029 A 
ATOM     61  N   UNL A   1      41.700  31.216  35.857  1.00  0.00    -0.354 N 
ATOM     62  N   UNL A   1      41.455  29.740  33.331  1.00  0.00    -0.248 NA
ATOM     63  C   UNL A   1      42.264  28.152  31.822  1.00  0.00     0.031 C 
ATOM     64  C   UNL A   1      43.365  30.689  37.229  1.00  0.00     0.029 A 
ATOM     65  C   UNL A   1      42.792  30.377  36.006  1.00  0.00     0.049 A 
ATOM     66  H   UNL A   1      41.099  31.230  35.077  1.00  0.00     0.167 HD
ATOM     67  C   UNL A   1      42.586  29.138  33.867  1.00  0.00     0.074 A 
ATOM     68  C   UNL A   1      43.021  28.143  32.910  1.00  0.00     0.031 C 
ATOM     69  C   UNL A   1      43.210  29.388  35.045  1.00  0.00     0.037 A 
BRANCH  56  70
ATOM     70  C   UNL A   1      40.612  33.910  38.364  1.00  0.00     0.057 A 
ATOM     71  C   UNL A   1      41.387  35.077  38.430  1.00  0.00     0.134 A 
ATOM     72  C   UNL A   1      39.845  33.583  39.490  1.00  0.00     0.134 A 
ATOM     73  F   UNL A   1      42.156  35.441  37.392  1.00  0.00    -0.206 F 
ATOM     74  C   UNL A   1      41.421  35.869  39.578  1.00  0.00     0.040 A 
ATOM     75  C   UNL A   1      39.846  34.385  40.632  1.00  0.00     0.040 A 
ATOM     76  F   UNL A   1      39.075  32.486  39.496  1.00  0.00    -0.206 F 
ATOM     77  C   UNL A   1      40.643  35.528  40.682  1.00  0.00     0.006 A 
ENDBRANCH  56  70
BRANCH  57  78
ATOM     78  C   UNL A   1      40.104  28.617  29.906  1.00  0.00     0.057 A 
ATOM     79  C   UNL A   1      39.365  27.432  29.816  1.00  0.00     0.134 A 
ATOM     80  C   UNL A   1      40.797  29.032  28.762  1.00  0.00     0.134 A 
ATOM     81  F   UNL A   1      38.693  26.972  30.881  1.00  0.00    -0.206 F 
ATOM     82  C   UNL A   1      39.337  26.674  28.644  1.00  0.00     0.040 A 
ATOM     83  C   UNL A   1      40.754  28.298  27.575  1.00  0.00     0.040 A 
ATOM     84  F   UNL A   1      41.515  30.164  28.778  1.00  0.00    -0.206 F 
ATOM     85  C   UNL A   1      40.031  27.109  27.516  1.00  0.00     0.006 A 
ENDBRANCH  57  78
BRANCH  69  86
ATOM     86  C   UNL A   1      44.405  28.543  35.384  1.00  0.00     0.057 A 
ATOM     87  C   UNL A   1      45.705  28.913  35.017  1.00  0.00     0.134 A 
ATOM     88  C   UNL A   1      44.254  27.360  36.118  1.00  0.00     0.134 A 
ATOM     89  F   UNL A   1      45.919  30.029  34.302  1.00  0.00    -0.206 F 
ATOM     90  C   UNL A   1      46.808  28.123  35.343  1.00  0.00     0.040 A 
ATOM     91  C   UNL A   1      45.351  26.577  36.477  1.00  0.00     0.040 A 
ATOM     92  F   UNL A   1      43.037  26.951  36.511  1.00  0.00    -0.206 F 
ATOM     93  C   UNL A   1      46.632  26.955  36.082  1.00  0.00     0.006 A 
ENDBRANCH  69  86
ENDBRANCH  43  44
ENDBRANCH  35  38
ENDBRANCH  33  34
ENDBRANCH  32  33
ENDBRANCH  31  32
ENDBRANCH  30  31
ENDBRANCH   1  30
TORSDOF 17
ENDMDL
MODEL 3
REMARK VINA RESULT:     -11.2      2.666      4.730
REMARK SMILES Cc1ccc(Cl)c(Nc2ccccc2C(=O)N[C@@H](C)C(=O)NCCCCCCNC(=O)c2ccc(-c3c4nc(c(-c5c(F)cccc5F)c5ccc([nH]5)c(-c5c(F)cccc5F)c5nc(c(-c6c(F)cccc6F)c6ccc3[nH]6)C=C5)C=C4)cc2)c1Cl
REMARK SMILES IDX 24 1 23 2 22 3 20 4 21 5 18 7 19 8 17 9 15 10 16 11 14 13
REMARK SMILES IDX 9 14 10 15 11 16 13 17 12 18 8 19 7 21 1 22 2 23 3 24 86 25
REMARK SMILES IDX 4 26 87 27 5 28 6 29 25 30 26 31 27 32 28 33 29 34 30 35
REMARK SMILES IDX 31 37 32 38 33 39 85 40 34 41 84 42 35 43 36 44 37 45 78 46
REMARK SMILES IDX 38 47 83 48 77 49 79 50 39 51 82 52 76 53 75 54 40 56 66 57
REMARK SMILES IDX 49 58 65 59 50 60 53 61 64 62 80 63 51 64 52 65 63 67 81 68
REMARK SMILES IDX 54 69 41 70 42 71 47 72 43 73 44 74 46 75 48 76 45 77 67 78
REMARK SMILES IDX 68 79 73 80 69 81 70 82 72 83 74 84 71 85 55 86 56 87 61 88
REMARK SMILES IDX 57 89 58 90 60 91 62 92 59 93
REMARK H PARENT 22 6 17 12 8 20 29 36 79 55 53 66
REMARK Flexibility Score: inf
ROOT
ATOM      1  C   UNL A   1      41.084  21.815  27.242  1.00  0.00     0.021 C 
ENDROOT
BRANCH   1   2
ATOM      2  C   UNL A   1      39.978  21.908  26.181  1.00  0.00     0.116 C 
BRANCH   2   3
ATOM      3  N   UNL A   1      38.703  22.312  26.731  1.00  0.00    -0.354 N 
ATOM      4  C   UNL A   1      37.874  22.974  25.873  1.00  0.00     0.242 C 
ATOM      5  O   UNL A   1      38.075  24.176  25.711  1.00  0.00    -0.273 OA
ATOM      6  H   UNL A   1      38.449  22.122  27.663  1.00  0.00     0.163 HD
BRANCH   4   7
ATOM      7  C   UNL A   1      36.783  22.181  25.120  1.00  0.00     0.168 C 
ATOM      8  C   UNL A   1      36.540  22.600  23.678  1.00  0.00     0.041 C 
BRANCH   7   9
ATOM      9  N   UNL A   1      35.609  22.352  25.957  1.00  0.00    -0.340 N 
ATOM     10  C   UNL A   1      34.647  21.401  26.223  1.00  0.00     0.254 C 
ATOM     11  O   UNL A   1      34.220  21.379  27.382  1.00  0.00    -0.269 OA
ATOM     12  H   UNL A   1      35.488  23.235  26.376  1.00  0.00     0.164 HD
BRANCH  10  13
ATOM     13  C   UNL A   1      33.907  20.643  25.162  1.00  0.00     0.063 A 
ATOM     14  C   UNL A   1      32.773  20.982  24.391  1.00  0.00     0.051 A 
ATOM     15  C   UNL A   1      32.209  19.977  23.566  1.00  0.00     0.027 A 
ATOM     16  C   UNL A   1      32.779  18.713  23.426  1.00  0.00     0.002 A 
ATOM     17  C   UNL A   1      34.481  19.358  24.979  1.00  0.00     0.016 A 
ATOM     18  C   UNL A   1      33.938  18.411  24.116  1.00  0.00     0.001 A 
BRANCH  14  19
ATOM     19  N   UNL A   1      32.161  22.243  24.238  1.00  0.00    -0.352 N 
ATOM     20  H   UNL A   1      31.203  22.179  24.019  1.00  0.00     0.167 HD
BRANCH  19  21
ATOM     21  C   UNL A   1      32.617  23.585  24.329  1.00  0.00     0.077 A 
ATOM     22  C   UNL A   1      32.213  26.785  26.400  1.00  0.00     0.046 C 
ATOM     23  C   UNL A   1      32.665  25.832  25.325  1.00  0.00    -0.030 A 
ATOM     24  C   UNL A   1      33.206  26.357  24.142  1.00  0.00     0.006 A 
ATOM     25  C   UNL A   1      32.436  24.437  25.439  1.00  0.00     0.069 A 
ATOM     26  C   UNL A   1      33.495  25.519  23.072  1.00  0.00     0.023 A 
ATOM     27  Cl  UNL A   1      31.991  23.811  26.998  1.00  0.00    -0.082 Cl
ATOM     28  C   UNL A   1      33.186  24.160  23.162  1.00  0.00     0.066 A 
ATOM     29  Cl  UNL A   1      33.457  23.196  21.741  1.00  0.00    -0.082 Cl
ENDBRANCH  19  21
ENDBRANCH  14  19
ENDBRANCH  10  13
ENDBRANCH   7   9
ENDBRANCH   4   7
ENDBRANCH   2   3
ENDBRANCH   1   2
BRANCH   1  30
ATOM     30  C   UNL A   1      42.195  20.799  26.948  1.00  0.00     0.002 C 
BRANCH  30  31
ATOM     31  C   UNL A   1      41.779  19.600  26.090  1.00  0.00     0.002 C 
BRANCH  31  32
ATOM     32  C   UNL A   1      42.653  18.358  26.240  1.00  0.00     0.021 C 
BRANCH  32  33
ATOM     33  C   UNL A   1      44.138  18.602  26.037  1.00  0.00     0.116 C 
BRANCH  33  34
ATOM     34  N   UNL A   1      44.511  18.568  24.639  1.00  0.00    -0.352 N 
ATOM     35  C   UNL A   1      44.751  19.635  23.807  1.00  0.00     0.251 C 
ATOM     36  H   UNL A   1      44.603  17.674  24.236  1.00  0.00     0.163 HD
ATOM     37  O   UNL A   1      44.868  19.473  22.602  1.00  0.00    -0.269 OA
BRANCH  35  38
ATOM     38  C   UNL A   1      44.832  20.992  24.392  1.00  0.00     0.039 A 
ATOM     39  C   UNL A   1      45.549  21.170  25.576  1.00  0.00     0.014 A 
ATOM     40  C   UNL A   1      44.232  22.084  23.756  1.00  0.00     0.014 A 
ATOM     41  C   UNL A   1      45.695  22.453  26.103  1.00  0.00     0.010 A 
ATOM     42  C   UNL A   1      44.457  23.371  24.234  1.00  0.00     0.010 A 
ATOM     43  C   UNL A   1      45.172  23.567  25.424  1.00  0.00    -0.014 A 
BRANCH  43  44
ATOM     44  C   UNL A   1      45.339  24.937  25.972  1.00  0.00     0.031 A 
ATOM     45  C   UNL A   1      46.693  25.596  25.952  1.00  0.00     0.074 A 
ATOM     46  C   UNL A   1      44.284  25.577  26.512  1.00  0.00     0.049 A 
ATOM     47  N   UNL A   1      47.043  26.780  26.387  1.00  0.00    -0.248 NA
ATOM     48  C   UNL A   1      47.805  24.811  25.393  1.00  0.00     0.031 C 
ATOM     49  C   UNL A   1      42.934  25.026  26.636  1.00  0.00     0.029 A 
ATOM     50  N   UNL A   1      44.182  26.832  27.058  1.00  0.00    -0.354 N 
ATOM     51  C   UNL A   1      48.410  26.875  26.162  1.00  0.00     0.074 A 
ATOM     52  C   UNL A   1      48.840  25.608  25.615  1.00  0.00     0.031 C 
ATOM     53  C   UNL A   1      42.131  25.951  27.189  1.00  0.00     0.029 A 
ATOM     54  C   UNL A   1      42.916  27.143  27.493  1.00  0.00     0.049 A 
ATOM     55  H   UNL A   1      44.944  27.451  27.131  1.00  0.00     0.167 HD
ATOM     56  C   UNL A   1      49.231  27.934  26.366  1.00  0.00     0.037 A 
ATOM     57  C   UNL A   1      42.443  28.263  28.071  1.00  0.00     0.037 A 
ATOM     58  C   UNL A   1      48.795  29.200  26.892  1.00  0.00     0.049 A 
ATOM     59  C   UNL A   1      43.378  29.420  28.298  1.00  0.00     0.074 A 
ATOM     60  C   UNL A   1      49.536  30.353  27.084  1.00  0.00     0.029 A 
ATOM     61  N   UNL A   1      47.505  29.477  27.317  1.00  0.00    -0.354 N 
ATOM     62  N   UNL A   1      44.652  29.524  28.009  1.00  0.00    -0.248 NA
ATOM     63  C   UNL A   1      42.803  30.620  28.922  1.00  0.00     0.031 C 
ATOM     64  C   UNL A   1      48.707  31.310  27.676  1.00  0.00     0.029 A 
ATOM     65  C   UNL A   1      47.434  30.775  27.796  1.00  0.00     0.049 A 
ATOM     66  H   UNL A   1      46.751  28.845  27.283  1.00  0.00     0.167 HD
ATOM     67  C   UNL A   1      45.025  30.808  28.388  1.00  0.00     0.074 A 
ATOM     68  C   UNL A   1      43.837  31.449  28.911  1.00  0.00     0.031 C 
ATOM     69  C   UNL A   1      46.242  31.401  28.310  1.00  0.00     0.037 A 
BRANCH  56  70
ATOM     70  C   UNL A   1      50.682  27.763  26.015  1.00  0.00     0.057 A 
ATOM     71  C   UNL A   1      51.155  27.937  24.707  1.00  0.00     0.134 A 
ATOM     72  C   UNL A   1      51.623  27.447  27.003  1.00  0.00     0.134 A 
ATOM     73  F   UNL A   1      50.305  28.227  23.709  1.00  0.00    -0.206 F 
ATOM     74  C   UNL A   1      52.504  27.775  24.390  1.00  0.00     0.040 A 
ATOM     75  C   UNL A   1      52.980  27.314  26.704  1.00  0.00     0.040 A 
ATOM     76  F   UNL A   1      51.242  27.273  28.277  1.00  0.00    -0.206 F 
ATOM     77  C   UNL A   1      53.423  27.469  25.392  1.00  0.00     0.006 A 
ENDBRANCH  56  70
BRANCH  57  78
ATOM     78  C   UNL A   1      41.012  28.355  28.458  1.00  0.00     0.057 A 
ATOM     79  C   UNL A   1      40.047  28.820  27.557  1.00  0.00     0.134 A 
ATOM     80  C   UNL A   1      40.575  27.992  29.737  1.00  0.00     0.134 A 
ATOM     81  F   UNL A   1      40.403  29.199  26.321  1.00  0.00    -0.206 F 
ATOM     82  C   UNL A   1      38.705  28.944  27.921  1.00  0.00     0.040 A 
ATOM     83  C   UNL A   1      39.232  28.085  30.106  1.00  0.00     0.040 A 
ATOM     84  F   UNL A   1      41.447  27.529  30.645  1.00  0.00    -0.206 F 
ATOM     85  C   UNL A   1      38.293  28.572  29.199  1.00  0.00     0.006 A 
ENDBRANCH  57  78
BRANCH  69  86
ATOM     86  C   UNL A   1      46.340  32.830  28.763  1.00  0.00     0.057 A 
ATOM     87  C   UNL A   1      46.116  33.903  27.892  1.00  0.00     0.134 A 
ATOM     88  C   UNL A   1      46.628  33.133  30.100  1.00  0.00     0.134 A 
ATOM     89  F   UNL A   1      45.847  33.684  26.596  1.00  0.00    -0.206 F 
ATOM     90  C   UNL A   1      46.204  35.227  28.327  1.00  0.00     0.040 A 
ATOM     91  C   UNL A   1      46.687  34.450  30.554  1.00  0.00     0.040 A 
ATOM     92  F   UNL A   1      46.842  32.152  30.991  1.00  0.00    -0.206 F 
ATOM     93  C   UNL A   1      46.483  35.502  29.665  1.00  0.00     0.006 A 
ENDBRANCH  69  86
ENDBRANCH  43  44
ENDBRANCH  35  38
ENDBRANCH  33  34
ENDBRANCH  32  33
ENDBRANCH  31  32
ENDBRANCH  30  31
ENDBRANCH   1  30
TORSDOF 17
ENDMDL
