MODEL 1
REMARK VINA RESULT:     -12.5      0.000      0.000
REMARK SMILES CC(C)(C)c1cc(Nc2ccccc2C(=O)NCCCCCCNC(=O)c2ccc(-c3c4nc(c(-c5c(F)cccc5F)c5ccc([nH]5)c(-c5c(F)cccc5F)c5nc(c(-c6c(F)cccc6F)c6ccc3[nH]6)C=C5)C=C4)cc2)cc2c1OCC2(C)C
REMARK SMILES IDX 20 1 19 2 18 3 17 4 15 5 16 6 14 8 9 9 10 10 11 11 13 12
REMARK SMILES IDX 12 13 8 14 7 16 5 17 6 18 83 19 82 20 84 21 81 22 86 23
REMARK SMILES IDX 85 24 87 25 88 26 2 27 1 28 3 29 4 30 21 31 22 32 23 33
REMARK SMILES IDX 24 34 25 35 26 37 27 38 28 39 80 40 29 41 79 42 30 43 31 44
REMARK SMILES IDX 32 45 73 46 33 47 78 48 72 49 74 50 34 51 77 52 71 53 70 54
REMARK SMILES IDX 35 56 61 57 44 58 60 59 45 60 48 61 59 62 75 63 46 64 47 65
REMARK SMILES IDX 58 67 76 68 49 69 36 70 37 71 42 72 38 73 39 74 41 75 43 76
REMARK SMILES IDX 40 77 62 78 63 79 68 80 64 81 65 82 67 83 69 84 66 85 50 86
REMARK SMILES IDX 51 87 56 88 52 89 53 90 55 91 57 92 54 93
REMARK H PARENT 17 7 8 15 24 36 74 55 48 66
REMARK Flexibility Score: inf
ROOT
ATOM      1  C   UNL A   1      35.910  22.828  26.068  1.00  0.00     0.002 C 
ENDROOT
BRANCH   1   2
ATOM      2  C   UNL A   1      34.608  23.355  26.669  1.00  0.00     0.021 C 
BRANCH   2   3
ATOM      3  C   UNL A   1      33.761  22.444  27.551  1.00  0.00     0.116 C 
BRANCH   3   4
ATOM      4  N   UNL A   1      32.381  22.786  27.751  1.00  0.00    -0.352 N 
ATOM      5  C   UNL A   1      31.341  22.908  26.855  1.00  0.00     0.253 C 
ATOM      6  O   UNL A   1      30.244  23.169  27.365  1.00  0.00    -0.269 OA
ATOM      7  H   UNL A   1      32.135  22.964  28.688  1.00  0.00     0.163 HD
BRANCH   5   8
ATOM      8  C   UNL A   1      31.395  22.806  25.346  1.00  0.00     0.063 A 
ATOM      9  C   UNL A   1      30.856  23.645  24.347  1.00  0.00     0.051 A 
ATOM     10  C   UNL A   1      31.164  23.384  22.983  1.00  0.00     0.027 A 
ATOM     11  C   UNL A   1      31.914  22.285  22.583  1.00  0.00     0.002 A 
ATOM     12  C   UNL A   1      32.161  21.694  24.902  1.00  0.00     0.016 A 
ATOM     13  C   UNL A   1      32.401  21.425  23.548  1.00  0.00     0.001 A 
BRANCH   9  14
ATOM     14  N   UNL A   1      29.935  24.692  24.554  1.00  0.00    -0.355 N 
ATOM     15  H   UNL A   1      28.980  24.456  24.604  1.00  0.00     0.167 HD
BRANCH  14  16
ATOM     16  C   UNL A   1      30.281  26.061  24.696  1.00  0.00     0.039 A 
ATOM     17  C   UNL A   1      29.995  28.406  23.952  1.00  0.00     0.002 A 
ATOM     18  C   UNL A   1      29.585  27.049  23.972  1.00  0.00     0.034 A 
ATOM     19  C   UNL A   1      31.083  28.729  24.763  1.00  0.00     0.127 A 
ATOM     20  C   UNL A   1      31.763  27.782  25.498  1.00  0.00     0.006 A 
ATOM     21  O   UNL A   1      31.590  29.992  24.926  1.00  0.00    -0.492 OA
ATOM     22  C   UNL A   1      31.384  26.454  25.465  1.00  0.00     0.034 A 
ATOM     23  C   UNL A   1      32.842  28.411  26.309  1.00  0.00     0.028 C 
ATOM     24  C   UNL A   1      32.754  29.851  25.770  1.00  0.00     0.240 C 
ATOM     25  C   UNL A   1      32.472  28.331  27.794  1.00  0.00     0.020 C 
ATOM     26  C   UNL A   1      34.224  27.803  26.059  1.00  0.00     0.020 C 
BRANCH  17  27
ATOM     27  C   UNL A   1      29.353  29.454  23.035  1.00  0.00    -0.009 C 
ATOM     28  C   UNL A   1      27.932  28.972  22.657  1.00  0.00     0.016 C 
ATOM     29  C   UNL A   1      30.177  29.671  21.753  1.00  0.00     0.016 C 
ATOM     30  C   UNL A   1      29.235  30.835  23.710  1.00  0.00     0.016 C 
ENDBRANCH  17  27
ENDBRANCH  14  16
ENDBRANCH   9  14
ENDBRANCH   5   8
ENDBRANCH   3   4
ENDBRANCH   2   3
ENDBRANCH   1   2
BRANCH   1  31
ATOM     31  C   UNL A   1      35.843  21.751  24.979  1.00  0.00     0.002 C 
BRANCH  31  32
ATOM     32  C   UNL A   1      36.914  20.657  24.978  1.00  0.00     0.021 C 
BRANCH  32  33
ATOM     33  C   UNL A   1      38.310  21.026  25.494  1.00  0.00     0.116 C 
BRANCH  33  34
ATOM     34  N   UNL A   1      39.266  19.931  25.470  1.00  0.00    -0.352 N 
ATOM     35  C   UNL A   1      40.578  19.882  25.896  1.00  0.00     0.251 C 
ATOM     36  H   UNL A   1      38.924  19.090  25.088  1.00  0.00     0.163 HD
ATOM     37  O   UNL A   1      41.238  18.859  25.711  1.00  0.00    -0.269 OA
BRANCH  35  38
ATOM     38  C   UNL A   1      41.233  21.049  26.541  1.00  0.00     0.039 A 
ATOM     39  C   UNL A   1      41.204  21.238  27.921  1.00  0.00     0.014 A 
ATOM     40  C   UNL A   1      41.936  21.964  25.751  1.00  0.00     0.014 A 
ATOM     41  C   UNL A   1      41.708  22.423  28.481  1.00  0.00     0.010 A 
ATOM     42  C   UNL A   1      42.499  23.117  26.327  1.00  0.00     0.010 A 
ATOM     43  C   UNL A   1      42.331  23.405  27.692  1.00  0.00    -0.014 A 
BRANCH  43  44
ATOM     44  C   UNL A   1      42.731  24.741  28.261  1.00  0.00     0.031 A 
ATOM     45  C   UNL A   1      41.692  25.825  28.486  1.00  0.00     0.074 A 
ATOM     46  C   UNL A   1      44.006  25.013  28.614  1.00  0.00     0.049 A 
ATOM     47  N   UNL A   1      41.853  27.084  28.823  1.00  0.00    -0.248 NA
ATOM     48  C   UNL A   1      40.284  25.442  28.302  1.00  0.00     0.031 C 
ATOM     49  C   UNL A   1      45.133  24.086  28.528  1.00  0.00     0.029 A 
ATOM     50  N   UNL A   1      44.569  26.165  29.124  1.00  0.00    -0.354 N 
ATOM     51  C   UNL A   1      40.580  27.647  28.850  1.00  0.00     0.074 A 
ATOM     52  C   UNL A   1      39.658  26.598  28.465  1.00  0.00     0.031 C 
ATOM     53  C   UNL A   1      46.238  24.687  28.999  1.00  0.00     0.029 A 
ATOM     54  C   UNL A   1      45.925  26.072  29.339  1.00  0.00     0.049 A 
ATOM     55  H   UNL A   1      44.049  26.978  29.316  1.00  0.00     0.167 HD
ATOM     56  C   UNL A   1      40.197  28.908  29.174  1.00  0.00     0.037 A 
ATOM     57  C   UNL A   1      46.830  26.997  29.719  1.00  0.00     0.037 A 
ATOM     58  C   UNL A   1      41.091  29.959  29.597  1.00  0.00     0.049 A 
ATOM     59  C   UNL A   1      46.400  28.419  29.965  1.00  0.00     0.074 A 
ATOM     60  C   UNL A   1      40.780  31.262  29.955  1.00  0.00     0.029 A 
ATOM     61  N   UNL A   1      42.463  29.831  29.726  1.00  0.00    -0.354 N 
ATOM     62  N   UNL A   1      45.198  28.938  29.956  1.00  0.00    -0.248 NA
ATOM     63  C   UNL A   1      47.467  29.390  30.258  1.00  0.00     0.031 C 
ATOM     64  C   UNL A   1      41.971  31.935  30.251  1.00  0.00     0.029 A 
ATOM     65  C   UNL A   1      43.017  31.038  30.130  1.00  0.00     0.049 A 
ATOM     66  H   UNL A   1      42.971  29.005  29.555  1.00  0.00     0.167 HD
ATOM     67  C   UNL A   1      45.362  30.283  30.265  1.00  0.00     0.074 A 
ATOM     68  C   UNL A   1      46.776  30.498  30.478  1.00  0.00     0.031 C 
ATOM     69  C   UNL A   1      44.422  31.255  30.354  1.00  0.00     0.037 A 
BRANCH  56  70
ATOM     70  C   UNL A   1      38.734  29.242  29.068  1.00  0.00     0.057 A 
ATOM     71  C   UNL A   1      37.898  29.155  30.190  1.00  0.00     0.134 A 
ATOM     72  C   UNL A   1      38.141  29.605  27.851  1.00  0.00     0.134 A 
ATOM     73  F   UNL A   1      38.396  28.796  31.383  1.00  0.00    -0.206 F 
ATOM     74  C   UNL A   1      36.530  29.418  30.107  1.00  0.00     0.040 A 
ATOM     75  C   UNL A   1      36.778  29.901  27.762  1.00  0.00     0.040 A 
ATOM     76  F   UNL A   1      38.881  29.715  26.738  1.00  0.00    -0.206 F 
ATOM     77  C   UNL A   1      35.968  29.801  28.892  1.00  0.00     0.006 A 
ENDBRANCH  56  70
BRANCH  57  78
ATOM     78  C   UNL A   1      48.269  26.636  29.845  1.00  0.00     0.057 A 
ATOM     79  C   UNL A   1      48.787  26.093  31.027  1.00  0.00     0.134 A 
ATOM     80  C   UNL A   1      49.144  26.761  28.758  1.00  0.00     0.134 A 
ATOM     81  F   UNL A   1      48.002  25.940  32.104  1.00  0.00    -0.206 F 
ATOM     82  C   UNL A   1      50.121  25.696  31.128  1.00  0.00     0.040 A 
ATOM     83  C   UNL A   1      50.470  26.335  28.834  1.00  0.00     0.040 A 
ATOM     84  F   UNL A   1      48.700  27.240  27.586  1.00  0.00    -0.206 F 
ATOM     85  C   UNL A   1      50.963  25.805  30.025  1.00  0.00     0.006 A 
ENDBRANCH  57  78
BRANCH  69  86
ATOM     86  C   UNL A   1      44.883  32.633  30.740  1.00  0.00     0.057 A 
ATOM     87  C   UNL A   1      45.001  32.998  32.088  1.00  0.00     0.134 A 
ATOM     88  C   UNL A   1      45.194  33.607  29.781  1.00  0.00     0.134 A 
ATOM     89  F   UNL A   1      44.713  32.119  33.059  1.00  0.00    -0.206 F 
ATOM     90  C   UNL A   1      45.409  34.278  32.467  1.00  0.00     0.040 A 
ATOM     91  C   UNL A   1      45.631  34.882  30.148  1.00  0.00     0.040 A 
ATOM     92  F   UNL A   1      45.118  33.322  28.472  1.00  0.00    -0.206 F 
ATOM     93  C   UNL A   1      45.735  35.222  31.496  1.00  0.00     0.006 A 
ENDBRANCH  69  86
ENDBRANCH  43  44
ENDBRANCH  35  38
ENDBRANCH  33  34
ENDBRANCH  32  33
ENDBRANCH  31  32
ENDBRANCH   1  31
TORSDOF 16
ENDMDL
MODEL 2
REMARK VINA RESULT:     -12.5      1.923      2.690
REMARK SMILES CC(C)(C)c1cc(Nc2ccccc2C(=O)NCCCCCCNC(=O)c2ccc(-c3c4nc(c(-c5c(F)cccc5F)c5ccc([nH]5)c(-c5c(F)cccc5F)c5nc(c(-c6c(F)cccc6F)c6ccc3[nH]6)C=C5)C=C4)cc2)cc2c1OCC2(C)C
REMARK SMILES IDX 20 1 19 2 18 3 17 4 15 5 16 6 14 8 9 9 10 10 11 11 13 12
REMARK SMILES IDX 12 13 8 14 7 16 5 17 6 18 83 19 82 20 84 21 81 22 86 23
REMARK SMILES IDX 85 24 87 25 88 26 2 27 1 28 3 29 4 30 21 31 22 32 23 33
REMARK SMILES IDX 24 34 25 35 26 37 27 38 28 39 80 40 29 41 79 42 30 43 31 44
REMARK SMILES IDX 32 45 73 46 33 47 78 48 72 49 74 50 34 51 77 52 71 53 70 54
REMARK SMILES IDX 35 56 61 57 44 58 60 59 45 60 48 61 59 62 75 63 46 64 47 65
REMARK SMILES IDX 58 67 76 68 49 69 36 70 37 71 42 72 38 73 39 74 41 75 43 76
REMARK SMILES IDX 40 77 62 78 63 79 68 80 64 81 65 82 67 83 69 84 66 85 50 86
REMARK SMILES IDX 51 87 56 88 52 89 53 90 55 91 57 92 54 93
REMARK H PARENT 17 7 8 15 24 36 74 55 48 66
REMARK Flexibility Score: inf
ROOT
ATOM      1  C   UNL A   1      34.440  24.198  26.167  1.00  0.00     0.002 C 
ENDROOT
BRANCH   1   2
ATOM      2  C   UNL A   1      34.774  22.933  26.954  1.00  0.00     0.021 C 
BRANCH   2   3
ATOM      3  C   UNL A   1      33.652  22.002  27.401  1.00  0.00     0.116 C 
BRANCH   3   4
ATOM      4  N   UNL A   1      32.355  22.570  27.643  1.00  0.00    -0.352 N 
ATOM      5  C   UNL A   1      31.334  22.891  26.775  1.00  0.00     0.253 C 
ATOM      6  O   UNL A   1      30.309  23.323  27.318  1.00  0.00    -0.269 OA
ATOM      7  H   UNL A   1      32.163  22.762  28.589  1.00  0.00     0.163 HD
BRANCH   5   8
ATOM      8  C   UNL A   1      31.339  22.823  25.263  1.00  0.00     0.063 A 
ATOM      9  C   UNL A   1      30.785  23.694  24.300  1.00  0.00     0.051 A 
ATOM     10  C   UNL A   1      31.046  23.458  22.922  1.00  0.00     0.027 A 
ATOM     11  C   UNL A   1      31.762  22.354  22.475  1.00  0.00     0.002 A 
ATOM     12  C   UNL A   1      32.070  21.707  24.771  1.00  0.00     0.016 A 
ATOM     13  C   UNL A   1      32.263  21.464  23.405  1.00  0.00     0.001 A 
BRANCH   9  14
ATOM     14  N   UNL A   1      29.892  24.753  24.559  1.00  0.00    -0.355 N 
ATOM     15  H   UNL A   1      28.938  24.529  24.662  1.00  0.00     0.167 HD
BRANCH  14  16
ATOM     16  C   UNL A   1      30.263  26.116  24.684  1.00  0.00     0.039 A 
ATOM     17  C   UNL A   1      30.002  28.460  23.926  1.00  0.00     0.002 A 
ATOM     18  C   UNL A   1      29.571  27.110  23.965  1.00  0.00     0.034 A 
ATOM     19  C   UNL A   1      31.111  28.771  24.714  1.00  0.00     0.127 A 
ATOM     20  C   UNL A   1      31.788  27.818  25.444  1.00  0.00     0.006 A 
ATOM     21  O   UNL A   1      31.642  30.026  24.857  1.00  0.00    -0.492 OA
ATOM     22  C   UNL A   1      31.386  26.496  25.429  1.00  0.00     0.034 A 
ATOM     23  C   UNL A   1      32.892  28.435  26.230  1.00  0.00     0.028 C 
ATOM     24  C   UNL A   1      32.819  29.872  25.680  1.00  0.00     0.240 C 
ATOM     25  C   UNL A   1      32.549  28.374  27.722  1.00  0.00     0.020 C 
ATOM     26  C   UNL A   1      34.260  27.802  25.958  1.00  0.00     0.020 C 
BRANCH  17  27
ATOM     27  C   UNL A   1      29.361  29.511  23.012  1.00  0.00    -0.009 C 
ATOM     28  C   UNL A   1      30.283  29.728  21.789  1.00  0.00     0.016 C 
ATOM     29  C   UNL A   1      29.154  30.852  23.741  1.00  0.00     0.016 C 
ATOM     30  C   UNL A   1      27.970  29.080  22.504  1.00  0.00     0.016 C 
ENDBRANCH  17  27
ENDBRANCH  14  16
ENDBRANCH   9  14
ENDBRANCH   5   8
ENDBRANCH   3   4
ENDBRANCH   2   3
ENDBRANCH   1   2
BRANCH   1  31
ATOM     31  C   UNL A   1      34.865  24.292  24.697  1.00  0.00     0.002 C 
BRANCH  31  32
ATOM     32  C   UNL A   1      35.250  23.000  23.972  1.00  0.00     0.021 C 
BRANCH  32  33
ATOM     33  C   UNL A   1      36.741  22.720  23.756  1.00  0.00     0.116 C 
BRANCH  33  34
ATOM     34  N   UNL A   1      37.212  21.483  24.357  1.00  0.00    -0.352 N 
ATOM     35  C   UNL A   1      38.149  21.271  25.348  1.00  0.00     0.251 C 
ATOM     36  H   UNL A   1      36.797  20.664  23.999  1.00  0.00     0.163 HD
ATOM     37  O   UNL A   1      38.454  20.120  25.659  1.00  0.00    -0.269 OA
BRANCH  35  38
ATOM     38  C   UNL A   1      38.833  22.401  26.029  1.00  0.00     0.039 A 
ATOM     39  C   UNL A   1      38.246  23.660  26.131  1.00  0.00     0.014 A 
ATOM     40  C   UNL A   1      40.081  22.190  26.622  1.00  0.00     0.014 A 
ATOM     41  C   UNL A   1      38.979  24.739  26.653  1.00  0.00     0.010 A 
ATOM     42  C   UNL A   1      40.783  23.260  27.204  1.00  0.00     0.010 A 
ATOM     43  C   UNL A   1      40.277  24.571  27.164  1.00  0.00    -0.014 A 
BRANCH  43  44
ATOM     44  C   UNL A   1      41.124  25.745  27.578  1.00  0.00     0.031 A 
ATOM     45  C   UNL A   1      40.555  26.824  28.483  1.00  0.00     0.074 A 
ATOM     46  C   UNL A   1      42.413  25.868  27.192  1.00  0.00     0.049 A 
ATOM     47  N   UNL A   1      41.067  27.983  28.831  1.00  0.00    -0.248 NA
ATOM     48  C   UNL A   1      39.230  26.568  29.068  1.00  0.00     0.031 C 
ATOM     49  C   UNL A   1      43.154  24.910  26.374  1.00  0.00     0.029 A 
ATOM     50  N   UNL A   1      43.334  26.863  27.445  1.00  0.00    -0.354 N 
ATOM     51  C   UNL A   1      40.115  28.603  29.636  1.00  0.00     0.074 A 
ATOM     52  C   UNL A   1      38.980  27.706  29.699  1.00  0.00     0.031 C 
ATOM     53  C   UNL A   1      44.416  25.342  26.221  1.00  0.00     0.029 A 
ATOM     54  C   UNL A   1      44.557  26.651  26.853  1.00  0.00     0.049 A 
ATOM     55  H   UNL A   1      43.133  27.653  27.997  1.00  0.00     0.167 HD
ATOM     56  C   UNL A   1      40.171  29.798  30.277  1.00  0.00     0.037 A 
ATOM     57  C   UNL A   1      45.656  27.429  26.779  1.00  0.00     0.037 A 
ATOM     58  C   UNL A   1      41.303  30.693  30.261  1.00  0.00     0.049 A 
ATOM     59  C   UNL A   1      45.656  28.799  27.404  1.00  0.00     0.074 A 
ATOM     60  C   UNL A   1      41.443  31.917  30.895  1.00  0.00     0.029 A 
ATOM     61  N   UNL A   1      42.488  30.461  29.585  1.00  0.00    -0.354 N 
ATOM     62  N   UNL A   1      44.736  29.380  28.133  1.00  0.00    -0.248 NA
ATOM     63  C   UNL A   1      46.849  29.630  27.174  1.00  0.00     0.031 C 
ATOM     64  C   UNL A   1      42.693  32.449  30.561  1.00  0.00     0.029 A 
ATOM     65  C   UNL A   1      43.353  31.531  29.763  1.00  0.00     0.049 A 
ATOM     66  H   UNL A   1      42.688  29.656  29.055  1.00  0.00     0.167 HD
ATOM     67  C   UNL A   1      45.250  30.628  28.468  1.00  0.00     0.074 A 
ATOM     68  C   UNL A   1      46.569  30.714  27.883  1.00  0.00     0.031 C 
ATOM     69  C   UNL A   1      44.671  31.618  29.191  1.00  0.00     0.037 A 
BRANCH  56  70
ATOM     70  C   UNL A   1      38.954  30.233  31.049  1.00  0.00     0.057 A 
ATOM     71  C   UNL A   1      38.790  29.861  32.391  1.00  0.00     0.134 A 
ATOM     72  C   UNL A   1      37.925  30.978  30.457  1.00  0.00     0.134 A 
ATOM     73  F   UNL A   1      39.728  29.133  33.016  1.00  0.00    -0.206 F 
ATOM     74  C   UNL A   1      37.650  30.215  33.114  1.00  0.00     0.040 A 
ATOM     75  C   UNL A   1      36.794  31.364  31.181  1.00  0.00     0.040 A 
ATOM     76  F   UNL A   1      38.019  31.373  29.179  1.00  0.00    -0.206 F 
ATOM     77  C   UNL A   1      36.652  30.977  32.512  1.00  0.00     0.006 A 
ENDBRANCH  56  70
BRANCH  57  78
ATOM     78  C   UNL A   1      46.858  26.966  26.033  1.00  0.00     0.057 A 
ATOM     79  C   UNL A   1      47.028  27.246  24.671  1.00  0.00     0.134 A 
ATOM     80  C   UNL A   1      47.899  26.293  26.685  1.00  0.00     0.134 A 
ATOM     81  F   UNL A   1      46.073  27.893  23.988  1.00  0.00    -0.206 F 
ATOM     82  C   UNL A   1      48.182  26.868  23.984  1.00  0.00     0.040 A 
ATOM     83  C   UNL A   1      49.073  25.940  26.018  1.00  0.00     0.040 A 
ATOM     84  F   UNL A   1      47.813  26.027  27.997  1.00  0.00    -0.206 F 
ATOM     85  C   UNL A   1      49.214  26.224  24.661  1.00  0.00     0.006 A 
ENDBRANCH  57  78
BRANCH  69  86
ATOM     86  C   UNL A   1      45.476  32.865  29.428  1.00  0.00     0.057 A 
ATOM     87  C   UNL A   1      45.387  33.953  28.549  1.00  0.00     0.134 A 
ATOM     88  C   UNL A   1      46.354  32.987  30.514  1.00  0.00     0.134 A 
ATOM     89  F   UNL A   1      44.573  33.904  27.484  1.00  0.00    -0.206 F 
ATOM     90  C   UNL A   1      46.140  35.113  28.741  1.00  0.00     0.040 A 
ATOM     91  C   UNL A   1      47.090  34.153  30.733  1.00  0.00     0.040 A 
ATOM     92  F   UNL A   1      46.477  31.990  31.404  1.00  0.00    -0.206 F 
ATOM     93  C   UNL A   1      46.989  35.220  29.840  1.00  0.00     0.006 A 
ENDBRANCH  69  86
ENDBRANCH  43  44
ENDBRANCH  35  38
ENDBRANCH  33  34
ENDBRANCH  32  33
ENDBRANCH  31  32
ENDBRANCH   1  31
TORSDOF 16
ENDMDL
MODEL 3
REMARK VINA RESULT:     -12.5      0.578      5.982
REMARK SMILES CC(C)(C)c1cc(Nc2ccccc2C(=O)NCCCCCCNC(=O)c2ccc(-c3c4nc(c(-c5c(F)cccc5F)c5ccc([nH]5)c(-c5c(F)cccc5F)c5nc(c(-c6c(F)cccc6F)c6ccc3[nH]6)C=C5)C=C4)cc2)cc2c1OCC2(C)C
REMARK SMILES IDX 20 1 19 2 18 3 17 4 15 5 16 6 14 8 9 9 10 10 11 11 13 12
REMARK SMILES IDX 12 13 8 14 7 16 5 17 6 18 83 19 82 20 84 21 81 22 86 23
REMARK SMILES IDX 85 24 87 25 88 26 2 27 1 28 3 29 4 30 21 31 22 32 23 33
REMARK SMILES IDX 24 34 25 35 26 37 27 38 28 39 80 40 29 41 79 42 30 43 31 44
REMARK SMILES IDX 32 45 73 46 33 47 78 48 72 49 74 50 34 51 77 52 71 53 70 54
REMARK SMILES IDX 35 56 61 57 44 58 60 59 45 60 48 61 59 62 75 63 46 64 47 65
REMARK SMILES IDX 58 67 76 68 49 69 36 70 37 71 42 72 38 73 39 74 41 75 43 76
REMARK SMILES IDX 40 77 62 78 63 79 68 80 64 81 65 82 67 83 69 84 66 85 50 86
REMARK SMILES IDX 51 87 56 88 52 89 53 90 55 91 57 92 54 93
REMARK H PARENT 17 7 8 15 24 36 74 55 48 66
REMARK Flexibility Score: inf
ROOT
ATOM      1  C   UNL A   1      35.913  22.250  25.867  1.00  0.00     0.002 C 
ENDROOT
BRANCH   1   2
ATOM      2  C   UNL A   1      34.989  22.717  26.991  1.00  0.00     0.021 C 
BRANCH   2   3
ATOM      3  C   UNL A   1      33.836  21.827  27.440  1.00  0.00     0.116 C 
BRANCH   3   4
ATOM      4  N   UNL A   1      32.567  22.444  27.709  1.00  0.00    -0.352 N 
ATOM      5  C   UNL A   1      31.546  22.816  26.863  1.00  0.00     0.253 C 
ATOM      6  O   UNL A   1      30.548  23.283  27.427  1.00  0.00    -0.269 OA
ATOM      7  H   UNL A   1      32.399  22.633  28.661  1.00  0.00     0.163 HD
BRANCH   5   8
ATOM      8  C   UNL A   1      31.523  22.764  25.350  1.00  0.00     0.063 A 
ATOM      9  C   UNL A   1      30.926  23.629  24.408  1.00  0.00     0.051 A 
ATOM     10  C   UNL A   1      31.166  23.415  23.022  1.00  0.00     0.027 A 
ATOM     11  C   UNL A   1      31.905  22.338  22.549  1.00  0.00     0.002 A 
ATOM     12  C   UNL A   1      32.276  21.675  24.832  1.00  0.00     0.016 A 
ATOM     13  C   UNL A   1      32.449  21.453  23.459  1.00  0.00     0.001 A 
BRANCH   9  14
ATOM     14  N   UNL A   1      30.007  24.658  24.696  1.00  0.00    -0.355 N 
ATOM     15  H   UNL A   1      29.066  24.404  24.834  1.00  0.00     0.167 HD
BRANCH  14  16
ATOM     16  C   UNL A   1      30.338  26.034  24.803  1.00  0.00     0.039 A 
ATOM     17  C   UNL A   1      30.026  28.356  23.998  1.00  0.00     0.002 A 
ATOM     18  C   UNL A   1      29.632  26.995  24.053  1.00  0.00     0.034 A 
ATOM     19  C   UNL A   1      31.109  28.712  24.802  1.00  0.00     0.127 A 
ATOM     20  C   UNL A   1      31.799  27.792  25.563  1.00  0.00     0.006 A 
ATOM     21  O   UNL A   1      31.602  29.985  24.933  1.00  0.00    -0.492 OA
ATOM     22  C   UNL A   1      31.434  26.459  25.564  1.00  0.00     0.034 A 
ATOM     23  C   UNL A   1      32.869  28.454  26.359  1.00  0.00     0.028 C 
ATOM     24  C   UNL A   1      32.766  29.878  25.782  1.00  0.00     0.240 C 
ATOM     25  C   UNL A   1      32.497  28.409  27.845  1.00  0.00     0.020 C 
ATOM     26  C   UNL A   1      34.258  27.855  26.127  1.00  0.00     0.020 C 
BRANCH  17  27
ATOM     27  C   UNL A   1      29.374  29.372  23.053  1.00  0.00    -0.009 C 
ATOM     28  C   UNL A   1      27.973  28.848  22.658  1.00  0.00     0.016 C 
ATOM     29  C   UNL A   1      30.216  29.591  21.783  1.00  0.00     0.016 C 
ATOM     30  C   UNL A   1      29.209  30.761  23.704  1.00  0.00     0.016 C 
ENDBRANCH  17  27
ENDBRANCH  14  16
ENDBRANCH   9  14
ENDBRANCH   5   8
ENDBRANCH   3   4
ENDBRANCH   2   3
ENDBRANCH   1   2
BRANCH   1  31
ATOM     31  C   UNL A   1      35.781  20.814  25.346  1.00  0.00     0.002 C 
BRANCH  31  32
ATOM     32  C   UNL A   1      37.057  20.077  24.930  1.00  0.00     0.021 C 
BRANCH  32  33
ATOM     33  C   UNL A   1      38.384  20.553  25.533  1.00  0.00     0.116 C 
BRANCH  33  34
ATOM     34  N   UNL A   1      39.438  19.552  25.528  1.00  0.00    -0.352 N 
ATOM     35  C   UNL A   1      40.750  19.634  25.947  1.00  0.00     0.251 C 
ATOM     36  H   UNL A   1      39.175  18.674  25.167  1.00  0.00     0.163 HD
ATOM     37  O   UNL A   1      41.502  18.674  25.782  1.00  0.00    -0.269 OA
BRANCH  35  38
ATOM     38  C   UNL A   1      41.296  20.872  26.562  1.00  0.00     0.039 A 
ATOM     39  C   UNL A   1      41.210  21.111  27.932  1.00  0.00     0.014 A 
ATOM     40  C   UNL A   1      41.953  21.806  25.757  1.00  0.00     0.014 A 
ATOM     41  C   UNL A   1      41.607  22.351  28.458  1.00  0.00     0.010 A 
ATOM     42  C   UNL A   1      42.410  23.020  26.301  1.00  0.00     0.010 A 
ATOM     43  C   UNL A   1      42.179  23.347  27.648  1.00  0.00    -0.014 A 
BRANCH  43  44
ATOM     44  C   UNL A   1      42.461  24.730  28.172  1.00  0.00     0.031 A 
ATOM     45  C   UNL A   1      43.870  25.130  28.572  1.00  0.00     0.074 A 
ATOM     46  C   UNL A   1      41.491  25.665  28.278  1.00  0.00     0.049 A 
ATOM     47  N   UNL A   1      44.293  26.214  29.182  1.00  0.00    -0.248 NA
ATOM     48  C   UNL A   1      44.945  24.180  28.249  1.00  0.00     0.031 C 
ATOM     49  C   UNL A   1      40.092  25.492  27.891  1.00  0.00     0.029 A 
ATOM     50  N   UNL A   1      41.543  26.961  28.746  1.00  0.00    -0.354 N 
ATOM     51  C   UNL A   1      45.666  26.056  29.349  1.00  0.00     0.074 A 
ATOM     52  C   UNL A   1      46.001  24.757  28.804  1.00  0.00     0.031 C 
ATOM     53  C   UNL A   1      39.429  26.641  28.103  1.00  0.00     0.029 A 
ATOM     54  C   UNL A   1      40.329  27.609  28.724  1.00  0.00     0.049 A 
ATOM     55  H   UNL A   1      42.371  27.384  29.068  1.00  0.00     0.167 HD
ATOM     56  C   UNL A   1      46.576  26.906  29.889  1.00  0.00     0.037 A 
ATOM     57  C   UNL A   1      39.958  28.819  29.188  1.00  0.00     0.037 A 
ATOM     58  C   UNL A   1      46.274  28.220  30.404  1.00  0.00     0.049 A 
ATOM     59  C   UNL A   1      40.961  29.701  29.885  1.00  0.00     0.074 A 
ATOM     60  C   UNL A   1      47.142  29.149  30.957  1.00  0.00     0.029 A 
ATOM     61  N   UNL A   1      45.016  28.795  30.424  1.00  0.00    -0.354 N 
ATOM     62  N   UNL A   1      42.246  29.521  30.061  1.00  0.00    -0.248 NA
ATOM     63  C   UNL A   1      40.447  30.952  30.468  1.00  0.00     0.031 C 
ATOM     64  C   UNL A   1      46.399  30.265  31.359  1.00  0.00     0.029 A 
ATOM     65  C   UNL A   1      45.078  30.054  31.005  1.00  0.00     0.049 A 
ATOM     66  H   UNL A   1      44.196  28.374  30.077  1.00  0.00     0.167 HD
ATOM     67  C   UNL A   1      42.696  30.643  30.748  1.00  0.00     0.074 A 
ATOM     68  C   UNL A   1      41.553  31.509  30.939  1.00  0.00     0.031 C 
ATOM     69  C   UNL A   1      43.946  30.924  31.189  1.00  0.00     0.037 A 
BRANCH  56  70
ATOM     70  C   UNL A   1      48.003  26.438  29.976  1.00  0.00     0.057 A 
ATOM     71  C   UNL A   1      48.465  25.763  31.115  1.00  0.00     0.134 A 
ATOM     72  C   UNL A   1      48.932  26.691  28.958  1.00  0.00     0.134 A 
ATOM     73  F   UNL A   1      47.633  25.502  32.136  1.00  0.00    -0.206 F 
ATOM     74  C   UNL A   1      49.794  25.357  31.238  1.00  0.00     0.040 A 
ATOM     75  C   UNL A   1      50.259  26.262  29.057  1.00  0.00     0.040 A 
ATOM     76  F   UNL A   1      48.559  27.326  27.838  1.00  0.00    -0.206 F 
ATOM     77  C   UNL A   1      50.693  25.598  30.202  1.00  0.00     0.006 A 
ENDBRANCH  56  70
BRANCH  57  78
ATOM     78  C   UNL A   1      38.546  29.273  29.066  1.00  0.00     0.057 A 
ATOM     79  C   UNL A   1      38.027  29.731  27.848  1.00  0.00     0.134 A 
ATOM     80  C   UNL A   1      37.663  29.192  30.150  1.00  0.00     0.134 A 
ATOM     81  F   UNL A   1      38.815  29.826  26.768  1.00  0.00    -0.206 F 
ATOM     82  C   UNL A   1      36.687  30.098  27.715  1.00  0.00     0.040 A 
ATOM     83  C   UNL A   1      36.314  29.523  30.022  1.00  0.00     0.040 A 
ATOM     84  F   UNL A   1      38.091  28.728  31.334  1.00  0.00    -0.206 F 
ATOM     85  C   UNL A   1      35.824  29.983  28.801  1.00  0.00     0.006 A 
ENDBRANCH  57  78
BRANCH  69  86
ATOM     86  C   UNL A   1      44.157  32.240  31.884  1.00  0.00     0.057 A 
ATOM     87  C   UNL A   1      44.475  33.394  31.154  1.00  0.00     0.134 A 
ATOM     88  C   UNL A   1      44.064  32.367  33.277  1.00  0.00     0.134 A 
ATOM     89  F   UNL A   1      44.587  33.345  29.818  1.00  0.00    -0.206 F 
ATOM     90  C   UNL A   1      44.693  34.621  31.782  1.00  0.00     0.040 A 
ATOM     91  C   UNL A   1      44.252  33.596  33.914  1.00  0.00     0.040 A 
ATOM     92  F   UNL A   1      43.748  31.307  34.037  1.00  0.00    -0.206 F 
ATOM     93  C   UNL A   1      44.573  34.727  33.165  1.00  0.00     0.006 A 
ENDBRANCH  69  86
ENDBRANCH  43  44
ENDBRANCH  35  38
ENDBRANCH  33  34
ENDBRANCH  32  33
ENDBRANCH  31  32
ENDBRANCH   1  31
TORSDOF 16
ENDMDL
