MODEL 1
REMARK VINA RESULT:     -11.4      0.000      0.000
REMARK SMILES CCCc1c(C(=O)NCCCCCCNC(=O)c2ccc(-c3c4nc(c(-c5c(F)cccc5F)c5ccc([nH]5)c(-c5c(F)cccc5F)c5nc(c(-c6c(F)cccc6F)c6ccc3[nH]6)C=C5)C=C4)cc2)nnn1-c1ccccc1[N+](=O)[O-]
REMARK SMILES IDX 11 1 10 2 9 3 8 4 6 5 7 6 5 8 4 9 74 10 72 11 73 12 3 13
REMARK SMILES IDX 2 14 1 15 75 16 76 17 80 18 77 19 79 20 78 21 81 22 82 23
REMARK SMILES IDX 83 24 12 25 13 26 14 27 15 28 16 29 17 31 18 32 19 33 71 34
REMARK SMILES IDX 20 35 70 36 21 37 22 38 23 39 64 40 24 41 69 42 63 43 65 44
REMARK SMILES IDX 25 45 68 46 62 47 61 48 26 50 52 51 35 52 51 53 36 54 39 55
REMARK SMILES IDX 50 56 66 57 37 58 38 59 49 61 67 62 40 63 27 64 28 65 33 66
REMARK SMILES IDX 29 67 30 68 32 69 34 70 31 71 53 72 54 73 59 74 55 75 56 76
REMARK SMILES IDX 58 77 60 78 57 79 41 80 42 81 47 82 43 83 44 84 46 85 48 86
REMARK SMILES IDX 45 87
REMARK H PARENT 8 7 15 30 65 49 39 60
REMARK Flexibility Score: inf
ROOT
ATOM      1  C   UNL A   1      32.459  29.212  24.781  1.00  0.00     0.002 C 
ENDROOT
BRANCH   1   2
ATOM      2  C   UNL A   1      33.755  29.007  24.005  1.00  0.00     0.021 C 
BRANCH   2   3
ATOM      3  C   UNL A   1      33.650  28.534  22.566  1.00  0.00     0.116 C 
BRANCH   3   4
ATOM      4  N   UNL A   1      32.413  27.976  22.119  1.00  0.00    -0.351 N 
ATOM      5  C   UNL A   1      32.027  26.652  22.027  1.00  0.00     0.273 C 
ATOM      6  O   UNL A   1      30.879  26.486  21.602  1.00  0.00    -0.267 OA
ATOM      7  H   UNL A   1      31.735  28.630  21.835  1.00  0.00     0.163 HD
BRANCH   5   8
ATOM      8  C   UNL A   1      32.880  25.479  22.343  1.00  0.00     0.174 A 
ATOM      9  C   UNL A   1      33.524  24.945  23.486  1.00  0.00     0.078 A 
ATOM     10  N   UNL A   1      34.035  23.735  23.009  1.00  0.00    -0.210 N 
ATOM     11  N   UNL A   1      33.180  24.662  21.269  1.00  0.00    -0.124 NA
ATOM     12  N   UNL A   1      33.979  23.697  21.668  1.00  0.00    -0.061 NA
BRANCH   9  13
ATOM     13  C   UNL A   1      33.741  25.546  24.849  1.00  0.00     0.059 C 
BRANCH  13  14
ATOM     14  C   UNL A   1      32.802  25.464  26.038  1.00  0.00     0.003 C 
ATOM     15  C   UNL A   1      31.346  25.778  25.729  1.00  0.00     0.004 C 
ENDBRANCH  13  14
ENDBRANCH   9  13
BRANCH  10  16
ATOM     16  C   UNL A   1      34.740  22.711  23.667  1.00  0.00     0.144 A 
ATOM     17  C   UNL A   1      36.141  22.727  23.557  1.00  0.00     0.036 A 
ATOM     18  C   UNL A   1      34.115  21.722  24.439  1.00  0.00     0.294 A 
ATOM     19  C   UNL A   1      36.911  21.853  24.326  1.00  0.00     0.003 A 
ATOM     20  C   UNL A   1      34.896  20.854  25.222  1.00  0.00     0.088 A 
ATOM     21  C   UNL A   1      36.290  20.942  25.179  1.00  0.00     0.007 A 
BRANCH  18  22
ATOM     22  N   UNL A   1      32.661  21.510  24.426  1.00  0.00     0.065 N 
ATOM     23  O   UNL A   1      32.202  20.774  23.542  1.00  0.00    -0.258 OA
ATOM     24  O   UNL A   1      31.984  22.061  25.301  1.00  0.00    -0.258 OA
ENDBRANCH  18  22
ENDBRANCH  10  16
ENDBRANCH   5   8
ENDBRANCH   3   4
ENDBRANCH   2   3
ENDBRANCH   1   2
BRANCH   1  25
ATOM     25  C   UNL A   1      32.554  29.700  26.234  1.00  0.00     0.002 C 
BRANCH  25  26
ATOM     26  C   UNL A   1      33.327  28.848  27.248  1.00  0.00     0.021 C 
BRANCH  26  27
ATOM     27  C   UNL A   1      34.795  29.205  27.431  1.00  0.00     0.116 C 
BRANCH  27  28
ATOM     28  N   UNL A   1      35.022  30.250  28.421  1.00  0.00    -0.352 N 
ATOM     29  C   UNL A   1      36.094  30.379  29.287  1.00  0.00     0.251 C 
ATOM     30  H   UNL A   1      34.331  30.948  28.480  1.00  0.00     0.163 HD
ATOM     31  O   UNL A   1      36.025  31.069  30.286  1.00  0.00    -0.269 OA
BRANCH  29  32
ATOM     32  C   UNL A   1      37.333  29.640  28.975  1.00  0.00     0.039 A 
ATOM     33  C   UNL A   1      38.078  29.943  27.833  1.00  0.00     0.014 A 
ATOM     34  C   UNL A   1      37.767  28.674  29.878  1.00  0.00     0.014 A 
ATOM     35  C   UNL A   1      39.319  29.336  27.659  1.00  0.00     0.010 A 
ATOM     36  C   UNL A   1      39.044  28.175  29.773  1.00  0.00     0.010 A 
ATOM     37  C   UNL A   1      39.817  28.475  28.651  1.00  0.00    -0.014 A 
BRANCH  37  38
ATOM     38  C   UNL A   1      41.206  28.012  28.597  1.00  0.00     0.031 A 
ATOM     39  C   UNL A   1      41.405  26.730  27.861  1.00  0.00     0.074 A 
ATOM     40  C   UNL A   1      42.257  28.787  28.949  1.00  0.00     0.049 A 
ATOM     41  N   UNL A   1      41.875  25.616  28.318  1.00  0.00    -0.248 NA
ATOM     42  C   UNL A   1      40.927  26.641  26.470  1.00  0.00     0.031 C 
ATOM     43  C   UNL A   1      42.218  30.191  29.378  1.00  0.00     0.029 A 
ATOM     44  N   UNL A   1      43.598  28.532  28.880  1.00  0.00    -0.354 N 
ATOM     45  C   UNL A   1      41.956  24.754  27.222  1.00  0.00     0.074 A 
ATOM     46  C   UNL A   1      41.201  25.370  26.165  1.00  0.00     0.031 C 
ATOM     47  C   UNL A   1      43.450  30.730  29.281  1.00  0.00     0.029 A 
ATOM     48  C   UNL A   1      44.392  29.670  28.978  1.00  0.00     0.049 A 
ATOM     49  H   UNL A   1      43.969  27.627  28.770  1.00  0.00     0.167 HD
ATOM     50  C   UNL A   1      42.881  23.755  27.193  1.00  0.00     0.037 A 
ATOM     51  C   UNL A   1      45.734  29.760  28.830  1.00  0.00     0.037 A 
ATOM     52  C   UNL A   1      43.436  23.539  28.504  1.00  0.00     0.049 A 
ATOM     53  C   UNL A   1      46.309  28.418  29.044  1.00  0.00     0.074 A 
ATOM     54  C   UNL A   1      43.042  22.956  29.686  1.00  0.00     0.029 A 
ATOM     55  N   UNL A   1      44.515  24.334  28.777  1.00  0.00    -0.354 N 
ATOM     56  N   UNL A   1      46.295  27.804  30.194  1.00  0.00    -0.248 NA
ATOM     57  C   UNL A   1      46.629  27.580  27.893  1.00  0.00     0.031 C 
ATOM     58  C   UNL A   1      43.811  23.584  30.711  1.00  0.00     0.029 A 
ATOM     59  C   UNL A   1      44.675  24.505  30.123  1.00  0.00     0.049 A 
ATOM     60  H   UNL A   1      45.101  24.730  28.093  1.00  0.00     0.167 HD
ATOM     61  C   UNL A   1      46.162  26.471  29.864  1.00  0.00     0.074 A 
ATOM     62  C   UNL A   1      46.570  26.377  28.469  1.00  0.00     0.031 C 
ATOM     63  C   UNL A   1      45.415  25.635  30.640  1.00  0.00     0.037 A 
BRANCH  50  64
ATOM     64  C   UNL A   1      43.670  23.330  25.965  1.00  0.00     0.057 A 
ATOM     65  C   UNL A   1      43.782  21.955  25.675  1.00  0.00     0.134 A 
ATOM     66  C   UNL A   1      44.585  24.155  25.280  1.00  0.00     0.134 A 
ATOM     67  F   UNL A   1      42.973  21.058  26.260  1.00  0.00    -0.206 F 
ATOM     68  C   UNL A   1      44.786  21.436  24.845  1.00  0.00     0.040 A 
ATOM     69  C   UNL A   1      45.562  23.651  24.412  1.00  0.00     0.040 A 
ATOM     70  F   UNL A   1      44.661  25.474  25.486  1.00  0.00    -0.206 F 
ATOM     71  C   UNL A   1      45.688  22.285  24.220  1.00  0.00     0.006 A 
ENDBRANCH  50  64
BRANCH  51  72
ATOM     72  C   UNL A   1      46.542  30.905  28.365  1.00  0.00     0.057 A 
ATOM     73  C   UNL A   1      46.552  31.301  27.023  1.00  0.00     0.134 A 
ATOM     74  C   UNL A   1      47.121  31.798  29.283  1.00  0.00     0.134 A 
ATOM     75  F   UNL A   1      45.994  30.528  26.081  1.00  0.00    -0.206 F 
ATOM     76  C   UNL A   1      47.084  32.531  26.616  1.00  0.00     0.040 A 
ATOM     77  C   UNL A   1      47.659  33.028  28.891  1.00  0.00     0.040 A 
ATOM     78  F   UNL A   1      47.103  31.541  30.600  1.00  0.00    -0.206 F 
ATOM     79  C   UNL A   1      47.628  33.405  27.553  1.00  0.00     0.006 A 
ENDBRANCH  51  72
BRANCH  63  80
ATOM     80  C   UNL A   1      45.202  26.024  32.068  1.00  0.00     0.057 A 
ATOM     81  C   UNL A   1      44.082  26.717  32.547  1.00  0.00     0.134 A 
ATOM     82  C   UNL A   1      46.146  25.610  33.014  1.00  0.00     0.134 A 
ATOM     83  F   UNL A   1      43.091  27.086  31.727  1.00  0.00    -0.206 F 
ATOM     84  C   UNL A   1      43.932  27.022  33.903  1.00  0.00     0.040 A 
ATOM     85  C   UNL A   1      45.991  25.876  34.375  1.00  0.00     0.040 A 
ATOM     86  F   UNL A   1      47.221  24.904  32.630  1.00  0.00    -0.206 F 
ATOM     87  C   UNL A   1      44.887  26.595  34.822  1.00  0.00     0.006 A 
ENDBRANCH  63  80
ENDBRANCH  37  38
ENDBRANCH  29  32
ENDBRANCH  27  28
ENDBRANCH  26  27
ENDBRANCH  25  26
ENDBRANCH   1  25
TORSDOF 17
ENDMDL
MODEL 2
REMARK VINA RESULT:     -11.3      2.541      7.383
REMARK SMILES CCCc1c(C(=O)NCCCCCCNC(=O)c2ccc(-c3c4nc(c(-c5c(F)cccc5F)c5ccc([nH]5)c(-c5c(F)cccc5F)c5nc(c(-c6c(F)cccc6F)c6ccc3[nH]6)C=C5)C=C4)cc2)nnn1-c1ccccc1[N+](=O)[O-]
REMARK SMILES IDX 11 1 10 2 9 3 8 4 6 5 7 6 5 8 4 9 74 10 72 11 73 12 3 13
REMARK SMILES IDX 2 14 1 15 75 16 76 17 80 18 77 19 79 20 78 21 81 22 82 23
REMARK SMILES IDX 83 24 12 25 13 26 14 27 15 28 16 29 17 31 18 32 19 33 71 34
REMARK SMILES IDX 20 35 70 36 21 37 22 38 23 39 64 40 24 41 69 42 63 43 65 44
REMARK SMILES IDX 25 45 68 46 62 47 61 48 26 50 52 51 35 52 51 53 36 54 39 55
REMARK SMILES IDX 50 56 66 57 37 58 38 59 49 61 67 62 40 63 27 64 28 65 33 66
REMARK SMILES IDX 29 67 30 68 32 69 34 70 31 71 53 72 54 73 59 74 55 75 56 76
REMARK SMILES IDX 58 77 60 78 57 79 41 80 42 81 47 82 43 83 44 84 46 85 48 86
REMARK SMILES IDX 45 87
REMARK H PARENT 8 7 15 30 65 49 39 60
REMARK Flexibility Score: inf
ROOT
ATOM      1  C   UNL A   1      38.545  21.834  25.753  1.00  0.00     0.002 C 
ENDROOT
BRANCH   1   2
ATOM      2  C   UNL A   1      37.967  23.243  25.832  1.00  0.00     0.021 C 
BRANCH   2   3
ATOM      3  C   UNL A   1      36.457  23.388  25.835  1.00  0.00     0.116 C 
BRANCH   3   4
ATOM      4  N   UNL A   1      35.670  22.326  26.377  1.00  0.00    -0.351 N 
ATOM      5  C   UNL A   1      34.325  22.053  26.210  1.00  0.00     0.273 C 
ATOM      6  O   UNL A   1      33.932  21.048  26.811  1.00  0.00    -0.267 OA
ATOM      7  H   UNL A   1      36.156  21.694  26.955  1.00  0.00     0.163 HD
BRANCH   5   8
ATOM      8  C   UNL A   1      33.366  22.878  25.434  1.00  0.00     0.174 A 
ATOM      9  C   UNL A   1      33.018  24.247  25.340  1.00  0.00     0.078 A 
ATOM     10  N   UNL A   1      32.107  24.259  24.281  1.00  0.00    -0.210 N 
ATOM     11  N   UNL A   1      32.549  22.175  24.568  1.00  0.00    -0.124 NA
ATOM     12  N   UNL A   1      31.716  23.008  23.984  1.00  0.00    -0.061 NA
BRANCH   9  13
ATOM     13  C   UNL A   1      33.402  25.410  26.217  1.00  0.00     0.059 C 
BRANCH  13  14
ATOM     14  C   UNL A   1      33.623  26.845  25.777  1.00  0.00     0.003 C 
ATOM     15  C   UNL A   1      32.605  27.844  26.309  1.00  0.00     0.004 C 
ENDBRANCH  13  14
ENDBRANCH   9  13
BRANCH  10  16
ATOM     16  C   UNL A   1      31.430  25.323  23.661  1.00  0.00     0.144 A 
ATOM     17  C   UNL A   1      30.196  25.706  24.217  1.00  0.00     0.036 A 
ATOM     18  C   UNL A   1      31.943  26.023  22.560  1.00  0.00     0.294 A 
ATOM     19  C   UNL A   1      29.559  26.863  23.767  1.00  0.00     0.003 A 
ATOM     20  C   UNL A   1      31.303  27.196  22.122  1.00  0.00     0.088 A 
ATOM     21  C   UNL A   1      30.127  27.622  22.745  1.00  0.00     0.007 A 
BRANCH  18  22
ATOM     22  N   UNL A   1      33.106  25.553  21.796  1.00  0.00     0.065 N 
ATOM     23  O   UNL A   1      34.224  25.926  22.177  1.00  0.00    -0.258 OA
ATOM     24  O   UNL A   1      32.907  24.804  20.833  1.00  0.00    -0.258 OA
ENDBRANCH  18  22
ENDBRANCH  10  16
ENDBRANCH   5   8
ENDBRANCH   3   4
ENDBRANCH   2   3
ENDBRANCH   1   2
BRANCH   1  25
ATOM     25  C   UNL A   1      39.861  21.548  26.490  1.00  0.00     0.002 C 
BRANCH  25  26
ATOM     26  C   UNL A   1      40.565  20.206  26.248  1.00  0.00     0.021 C 
BRANCH  26  27
ATOM     27  C   UNL A   1      41.916  20.035  26.926  1.00  0.00     0.116 C 
BRANCH  27  28
ATOM     28  N   UNL A   1      42.988  19.671  26.008  1.00  0.00    -0.352 N 
ATOM     29  C   UNL A   1      43.777  20.517  25.248  1.00  0.00     0.251 C 
ATOM     30  H   UNL A   1      43.173  18.709  25.919  1.00  0.00     0.163 HD
ATOM     31  O   UNL A   1      44.391  20.113  24.280  1.00  0.00    -0.269 OA
BRANCH  29  32
ATOM     32  C   UNL A   1      43.846  21.939  25.636  1.00  0.00     0.039 A 
ATOM     33  C   UNL A   1      43.031  22.890  25.017  1.00  0.00     0.014 A 
ATOM     34  C   UNL A   1      44.703  22.297  26.673  1.00  0.00     0.014 A 
ATOM     35  C   UNL A   1      43.011  24.188  25.521  1.00  0.00     0.010 A 
ATOM     36  C   UNL A   1      44.587  23.539  27.249  1.00  0.00     0.010 A 
ATOM     37  C   UNL A   1      43.767  24.503  26.662  1.00  0.00    -0.014 A 
BRANCH  37  38
ATOM     38  C   UNL A   1      43.582  25.790  27.337  1.00  0.00     0.031 A 
ATOM     39  C   UNL A   1      44.577  26.837  26.963  1.00  0.00     0.074 A 
ATOM     40  C   UNL A   1      42.470  26.102  28.041  1.00  0.00     0.049 A 
ATOM     41  N   UNL A   1      45.421  27.443  27.731  1.00  0.00    -0.248 NA
ATOM     42  C   UNL A   1      44.726  27.180  25.537  1.00  0.00     0.031 C 
ATOM     43  C   UNL A   1      41.267  25.276  28.208  1.00  0.00     0.029 A 
ATOM     44  N   UNL A   1      42.117  27.272  28.652  1.00  0.00    -0.354 N 
ATOM     45  C   UNL A   1      46.053  28.397  26.932  1.00  0.00     0.074 A 
ATOM     46  C   UNL A   1      45.721  28.071  25.572  1.00  0.00     0.031 C 
ATOM     47  C   UNL A   1      40.245  26.044  28.639  1.00  0.00     0.029 A 
ATOM     48  C   UNL A   1      40.764  27.358  28.964  1.00  0.00     0.049 A 
ATOM     49  H   UNL A   1      42.760  27.989  28.854  1.00  0.00     0.167 HD
ATOM     50  C   UNL A   1      46.551  29.540  27.480  1.00  0.00     0.037 A 
ATOM     51  C   UNL A   1      40.094  28.422  29.461  1.00  0.00     0.037 A 
ATOM     52  C   UNL A   1      46.635  29.422  28.912  1.00  0.00     0.049 A 
ATOM     53  C   UNL A   1      41.073  29.323  30.100  1.00  0.00     0.074 A 
ATOM     54  C   UNL A   1      47.443  28.791  29.831  1.00  0.00     0.029 A 
ATOM     55  N   UNL A   1      45.485  29.785  29.558  1.00  0.00    -0.354 N 
ATOM     56  N   UNL A   1      41.742  29.012  31.174  1.00  0.00    -0.248 NA
ATOM     57  C   UNL A   1      41.577  30.477  29.363  1.00  0.00     0.031 C 
ATOM     58  C   UNL A   1      46.648  28.623  31.004  1.00  0.00     0.029 A 
ATOM     59  C   UNL A   1      45.394  29.185  30.781  1.00  0.00     0.049 A 
ATOM     60  H   UNL A   1      44.812  30.401  29.189  1.00  0.00     0.167 HD
ATOM     61  C   UNL A   1      42.965  29.629  31.002  1.00  0.00     0.074 A 
ATOM     62  C   UNL A   1      42.739  30.657  29.995  1.00  0.00     0.031 C 
ATOM     63  C   UNL A   1      44.112  29.030  31.432  1.00  0.00     0.037 A 
BRANCH  50  64
ATOM     64  C   UNL A   1      46.475  30.919  26.844  1.00  0.00     0.057 A 
ATOM     65  C   UNL A   1      47.621  31.741  26.870  1.00  0.00     0.134 A 
ATOM     66  C   UNL A   1      45.275  31.589  26.534  1.00  0.00     0.134 A 
ATOM     67  F   UNL A   1      48.830  31.230  27.154  1.00  0.00    -0.206 F 
ATOM     68  C   UNL A   1      47.560  33.130  26.695  1.00  0.00     0.040 A 
ATOM     69  C   UNL A   1      45.210  32.970  26.311  1.00  0.00     0.040 A 
ATOM     70  F   UNL A   1      44.086  30.976  26.531  1.00  0.00    -0.206 F 
ATOM     71  C   UNL A   1      46.348  33.751  26.427  1.00  0.00     0.006 A 
ENDBRANCH  50  64
BRANCH  51  72
ATOM     72  C   UNL A   1      38.673  28.789  29.290  1.00  0.00     0.057 A 
ATOM     73  C   UNL A   1      37.797  28.864  30.378  1.00  0.00     0.134 A 
ATOM     74  C   UNL A   1      38.209  29.328  28.078  1.00  0.00     0.134 A 
ATOM     75  F   UNL A   1      38.165  28.403  31.582  1.00  0.00    -0.206 F 
ATOM     76  C   UNL A   1      36.537  29.467  30.277  1.00  0.00     0.040 A 
ATOM     77  C   UNL A   1      36.953  29.931  27.961  1.00  0.00     0.040 A 
ATOM     78  F   UNL A   1      38.998  29.364  26.993  1.00  0.00    -0.206 F 
ATOM     79  C   UNL A   1      36.117  30.015  29.068  1.00  0.00     0.006 A 
ENDBRANCH  51  72
BRANCH  63  80
ATOM     80  C   UNL A   1      43.992  28.011  32.521  1.00  0.00     0.057 A 
ATOM     81  C   UNL A   1      43.785  28.311  33.874  1.00  0.00     0.134 A 
ATOM     82  C   UNL A   1      44.015  26.658  32.165  1.00  0.00     0.134 A 
ATOM     83  F   UNL A   1      43.672  29.576  34.295  1.00  0.00    -0.206 F 
ATOM     84  C   UNL A   1      43.650  27.306  34.836  1.00  0.00     0.040 A 
ATOM     85  C   UNL A   1      43.846  25.645  33.110  1.00  0.00     0.040 A 
ATOM     86  F   UNL A   1      44.166  26.300  30.881  1.00  0.00    -0.206 F 
ATOM     87  C   UNL A   1      43.676  25.968  34.453  1.00  0.00     0.006 A 
ENDBRANCH  63  80
ENDBRANCH  37  38
ENDBRANCH  29  32
ENDBRANCH  27  28
ENDBRANCH  26  27
ENDBRANCH  25  26
ENDBRANCH   1  25
TORSDOF 17
ENDMDL
MODEL 3
REMARK VINA RESULT:     -11.0      3.245      7.595
REMARK SMILES CCCc1c(C(=O)NCCCCCCNC(=O)c2ccc(-c3c4nc(c(-c5c(F)cccc5F)c5ccc([nH]5)c(-c5c(F)cccc5F)c5nc(c(-c6c(F)cccc6F)c6ccc3[nH]6)C=C5)C=C4)cc2)nnn1-c1ccccc1[N+](=O)[O-]
REMARK SMILES IDX 11 1 10 2 9 3 8 4 6 5 7 6 5 8 4 9 74 10 72 11 73 12 3 13
REMARK SMILES IDX 2 14 1 15 75 16 76 17 80 18 77 19 79 20 78 21 81 22 82 23
REMARK SMILES IDX 83 24 12 25 13 26 14 27 15 28 16 29 17 31 18 32 19 33 71 34
REMARK SMILES IDX 20 35 70 36 21 37 22 38 23 39 64 40 24 41 69 42 63 43 65 44
REMARK SMILES IDX 25 45 68 46 62 47 61 48 26 50 52 51 35 52 51 53 36 54 39 55
REMARK SMILES IDX 50 56 66 57 37 58 38 59 49 61 67 62 40 63 27 64 28 65 33 66
REMARK SMILES IDX 29 67 30 68 32 69 34 70 31 71 53 72 54 73 59 74 55 75 56 76
REMARK SMILES IDX 58 77 60 78 57 79 41 80 42 81 47 82 43 83 44 84 46 85 48 86
REMARK SMILES IDX 45 87
REMARK H PARENT 8 7 15 30 65 49 39 60
REMARK Flexibility Score: inf
ROOT
ATOM      1  C   UNL A   1      35.004  20.860  24.733  1.00  0.00     0.002 C 
ENDROOT
BRANCH   1   2
ATOM      2  C   UNL A   1      33.671  21.303  24.140  1.00  0.00     0.021 C 
BRANCH   2   3
ATOM      3  C   UNL A   1      32.451  21.277  25.044  1.00  0.00     0.116 C 
BRANCH   3   4
ATOM      4  N   UNL A   1      32.637  21.478  26.446  1.00  0.00    -0.351 N 
ATOM      5  C   UNL A   1      32.380  22.596  27.217  1.00  0.00     0.273 C 
ATOM      6  O   UNL A   1      32.644  22.459  28.416  1.00  0.00    -0.267 OA
ATOM      7  H   UNL A   1      33.002  20.707  26.937  1.00  0.00     0.163 HD
BRANCH   5   8
ATOM      8  C   UNL A   1      31.879  23.899  26.710  1.00  0.00     0.174 A 
ATOM      9  C   UNL A   1      32.402  24.998  25.987  1.00  0.00     0.078 A 
ATOM     10  N   UNL A   1      31.271  25.791  25.779  1.00  0.00    -0.210 N 
ATOM     11  N   UNL A   1      30.560  24.181  27.012  1.00  0.00    -0.124 NA
ATOM     12  N   UNL A   1      30.256  25.376  26.556  1.00  0.00    -0.061 NA
BRANCH   9  13
ATOM     13  C   UNL A   1      33.824  25.334  25.624  1.00  0.00     0.059 C 
BRANCH  13  14
ATOM     14  C   UNL A   1      34.533  25.001  24.325  1.00  0.00     0.003 C 
ATOM     15  C   UNL A   1      33.631  24.927  23.102  1.00  0.00     0.004 C 
ENDBRANCH  13  14
ENDBRANCH   9  13
BRANCH  10  16
ATOM     16  C   UNL A   1      31.111  27.002  25.081  1.00  0.00     0.144 A 
ATOM     17  C   UNL A   1      30.563  26.927  23.789  1.00  0.00     0.036 A 
ATOM     18  C   UNL A   1      31.436  28.251  25.627  1.00  0.00     0.294 A 
ATOM     19  C   UNL A   1      30.211  28.096  23.113  1.00  0.00     0.003 A 
ATOM     20  C   UNL A   1      31.066  29.424  24.946  1.00  0.00     0.088 A 
ATOM     21  C   UNL A   1      30.433  29.339  23.704  1.00  0.00     0.007 A 
BRANCH  18  22
ATOM     22  N   UNL A   1      32.205  28.395  26.870  1.00  0.00     0.065 N 
ATOM     23  O   UNL A   1      33.399  28.710  26.766  1.00  0.00    -0.258 OA
ATOM     24  O   UNL A   1      31.620  28.210  27.942  1.00  0.00    -0.258 OA
ENDBRANCH  18  22
ENDBRANCH  10  16
ENDBRANCH   5   8
ENDBRANCH   3   4
ENDBRANCH   2   3
ENDBRANCH   1   2
BRANCH   1  25
ATOM     25  C   UNL A   1      36.165  21.864  24.733  1.00  0.00     0.002 C 
BRANCH  25  26
ATOM     26  C   UNL A   1      36.454  22.658  26.014  1.00  0.00     0.021 C 
BRANCH  26  27
ATOM     27  C   UNL A   1      37.827  23.307  26.096  1.00  0.00     0.116 C 
BRANCH  27  28
ATOM     28  N   UNL A   1      38.920  22.348  26.199  1.00  0.00    -0.352 N 
ATOM     29  C   UNL A   1      40.271  22.614  26.339  1.00  0.00     0.251 C 
ATOM     30  H   UNL A   1      38.667  21.397  26.166  1.00  0.00     0.163 HD
ATOM     31  O   UNL A   1      41.114  21.779  26.073  1.00  0.00    -0.269 OA
BRANCH  29  32
ATOM     32  C   UNL A   1      40.671  23.954  26.811  1.00  0.00     0.039 A 
ATOM     33  C   UNL A   1      40.186  25.106  26.186  1.00  0.00     0.014 A 
ATOM     34  C   UNL A   1      41.496  24.039  27.928  1.00  0.00     0.014 A 
ATOM     35  C   UNL A   1      40.458  26.346  26.759  1.00  0.00     0.010 A 
ATOM     36  C   UNL A   1      41.655  25.248  28.562  1.00  0.00     0.010 A 
ATOM     37  C   UNL A   1      41.166  26.412  27.970  1.00  0.00    -0.014 A 
BRANCH  37  38
ATOM     38  C   UNL A   1      41.261  27.679  28.701  1.00  0.00     0.031 A 
ATOM     39  C   UNL A   1      42.428  28.528  28.323  1.00  0.00     0.074 A 
ATOM     40  C   UNL A   1      40.257  28.168  29.463  1.00  0.00     0.049 A 
ATOM     41  N   UNL A   1      43.401  28.924  29.075  1.00  0.00    -0.248 NA
ATOM     42  C   UNL A   1      42.590  28.900  26.905  1.00  0.00     0.031 C 
ATOM     43  C   UNL A   1      38.923  27.585  29.652  1.00  0.00     0.029 A 
ATOM     44  N   UNL A   1      40.162  29.356  30.133  1.00  0.00    -0.354 N 
ATOM     45  C   UNL A   1      44.178  29.772  28.285  1.00  0.00     0.074 A 
ATOM     46  C   UNL A   1      43.740  29.578  26.930  1.00  0.00     0.031 C 
ATOM     47  C   UNL A   1      38.087  28.516  30.156  1.00  0.00     0.029 A 
ATOM     48  C   UNL A   1      38.865  29.688  30.507  1.00  0.00     0.049 A 
ATOM     49  H   UNL A   1      40.941  29.924  30.333  1.00  0.00     0.167 HD
ATOM     50  C   UNL A   1      44.910  30.771  28.853  1.00  0.00     0.037 A 
ATOM     51  C   UNL A   1      38.434  30.839  31.073  1.00  0.00     0.037 A 
ATOM     52  C   UNL A   1      45.020  30.574  30.275  1.00  0.00     0.049 A 
ATOM     53  C   UNL A   1      39.593  31.502  31.701  1.00  0.00     0.074 A 
ATOM     54  C   UNL A   1      45.721  29.756  31.132  1.00  0.00     0.029 A 
ATOM     55  N   UNL A   1      43.987  31.124  30.983  1.00  0.00    -0.354 N 
ATOM     56  N   UNL A   1      40.226  31.019  32.733  1.00  0.00    -0.248 NA
ATOM     57  C   UNL A   1      40.286  32.569  30.987  1.00  0.00     0.031 C 
ATOM     58  C   UNL A   1      44.951  29.693  32.333  1.00  0.00     0.029 A 
ATOM     59  C   UNL A   1      43.824  30.497  32.186  1.00  0.00     0.049 A 
ATOM     60  H   UNL A   1      43.435  31.874  30.668  1.00  0.00     0.167 HD
ATOM     61  C   UNL A   1      41.539  31.394  32.530  1.00  0.00     0.074 A 
ATOM     62  C   UNL A   1      41.482  32.490  31.574  1.00  0.00     0.031 C 
ATOM     63  C   UNL A   1      42.561  30.564  32.887  1.00  0.00     0.037 A 
BRANCH  50  64
ATOM     64  C   UNL A   1      45.083  32.165  28.273  1.00  0.00     0.057 A 
ATOM     65  C   UNL A   1      43.942  32.979  28.116  1.00  0.00     0.134 A 
ATOM     66  C   UNL A   1      46.218  32.597  27.560  1.00  0.00     0.134 A 
ATOM     67  F   UNL A   1      42.790  32.681  28.738  1.00  0.00    -0.206 F 
ATOM     68  C   UNL A   1      43.910  34.078  27.246  1.00  0.00     0.040 A 
ATOM     69  C   UNL A   1      46.211  33.721  26.724  1.00  0.00     0.040 A 
ATOM     70  F   UNL A   1      47.365  31.908  27.543  1.00  0.00    -0.206 F 
ATOM     71  C   UNL A   1      45.045  34.444  26.536  1.00  0.00     0.006 A 
ENDBRANCH  50  64
BRANCH  51  72
ATOM     72  C   UNL A   1      37.107  31.481  30.978  1.00  0.00     0.057 A 
ATOM     73  C   UNL A   1      36.290  31.649  32.101  1.00  0.00     0.134 A 
ATOM     74  C   UNL A   1      36.726  32.180  29.820  1.00  0.00     0.134 A 
ATOM     75  F   UNL A   1      36.592  31.046  33.259  1.00  0.00    -0.206 F 
ATOM     76  C   UNL A   1      35.168  32.488  32.084  1.00  0.00     0.040 A 
ATOM     77  C   UNL A   1      35.608  33.019  29.787  1.00  0.00     0.040 A 
ATOM     78  F   UNL A   1      37.480  32.138  28.710  1.00  0.00    -0.206 F 
ATOM     79  C   UNL A   1      34.832  33.187  30.928  1.00  0.00     0.006 A 
ENDBRANCH  51  72
BRANCH  63  80
ATOM     80  C   UNL A   1      42.283  29.540  33.941  1.00  0.00     0.057 A 
ATOM     81  C   UNL A   1      41.888  28.220  33.685  1.00  0.00     0.134 A 
ATOM     82  C   UNL A   1      42.499  29.892  35.278  1.00  0.00     0.134 A 
ATOM     83  F   UNL A   1      41.732  27.772  32.434  1.00  0.00    -0.206 F 
ATOM     84  C   UNL A   1      41.675  27.305  34.719  1.00  0.00     0.040 A 
ATOM     85  C   UNL A   1      42.325  28.978  36.317  1.00  0.00     0.040 A 
ATOM     86  F   UNL A   1      42.919  31.127  35.591  1.00  0.00    -0.206 F 
ATOM     87  C   UNL A   1      41.900  27.682  36.040  1.00  0.00     0.006 A 
ENDBRANCH  63  80
ENDBRANCH  37  38
ENDBRANCH  29  32
ENDBRANCH  27  28
ENDBRANCH  26  27
ENDBRANCH  25  26
ENDBRANCH   1  25
TORSDOF 17
ENDMDL
