MODEL 1
REMARK VINA RESULT:     -11.7      0.000      0.000
REMARK SMILES CC(C)(C)OC(=O)N1C[C@H](Cc2ccccc2)[C@H](C(=O)NCCCCCCNC(=O)c2ccc(-c3c4nc(c(-c5c(F)cccc5F)c5ccc([nH]5)c(-c5c(F)cccc5F)c5nc(c(-c6c(F)cccc6F)c6ccc3[nH]6)C=C5)C=C4)cc2)C1
REMARK SMILES IDX 24 1 23 2 22 3 21 4 19 5 20 6 18 8 8 9 9 10 85 11 10 12 6 13
REMARK SMILES IDX 7 14 5 15 2 16 1 17 3 18 4 19 11 20 12 21 13 22 17 23 14 24
REMARK SMILES IDX 16 25 15 26 25 27 26 28 27 29 28 30 29 31 30 33 31 34 32 35
REMARK SMILES IDX 84 36 33 37 83 38 34 39 35 40 36 41 77 42 37 43 82 44 76 45
REMARK SMILES IDX 78 46 38 47 81 48 75 49 74 50 39 52 65 53 48 54 64 55 49 56
REMARK SMILES IDX 52 57 63 58 79 59 50 60 51 61 62 63 80 64 53 65 40 66 41 67
REMARK SMILES IDX 46 68 42 69 43 70 45 71 47 72 44 73 66 74 67 75 72 76 68 77
REMARK SMILES IDX 69 78 71 79 73 80 70 81 54 82 55 83 60 84 56 85 57 86 59 87
REMARK SMILES IDX 61 88 58 89
REMARK H PARENT 21 7 28 32 78 51 52 62
REMARK Flexibility Score: inf
ROOT
ATOM      1  C   UNL A   1      35.441  21.776  24.268  1.00  0.00     0.002 C 
ENDROOT
BRANCH   1   2
ATOM      2  C   UNL A   1      33.946  22.056  24.401  1.00  0.00     0.021 C 
BRANCH   2   3
ATOM      3  C   UNL A   1      33.254  22.501  23.103  1.00  0.00     0.116 C 
BRANCH   3   4
ATOM      4  N   UNL A   1      33.771  23.784  22.655  1.00  0.00    -0.356 N 
ATOM      5  C   UNL A   1      33.201  24.990  22.402  1.00  0.00     0.225 C 
ATOM      6  O   UNL A   1      33.950  25.852  21.928  1.00  0.00    -0.275 OA
ATOM      7  H   UNL A   1      34.744  23.778  22.504  1.00  0.00     0.163 HD
BRANCH   5   8
ATOM      8  C   UNL A   1      31.734  25.344  22.649  1.00  0.00     0.103 C 
ATOM      9  N   UNL A   1      30.597  27.304  23.266  1.00  0.00    -0.307 N 
ATOM     10  C   UNL A   1      30.068  26.271  24.130  1.00  0.00     0.128 C 
ATOM     11  C   UNL A   1      31.341  26.738  22.166  1.00  0.00     0.137 C 
ATOM     12  C   UNL A   1      31.126  25.169  24.079  1.00  0.00     0.027 C 
BRANCH   9  13
ATOM     13  C   UNL A   1      30.408  28.656  23.394  1.00  0.00     0.410 C 
ATOM     14  O   UNL A   1      30.806  29.293  24.356  1.00  0.00    -0.224 OA
BRANCH  13  15
ATOM     15  O   UNL A   1      29.675  29.152  22.369  1.00  0.00    -0.444 OA
BRANCH  15  16
ATOM     16  C   UNL A   1      28.391  29.795  22.579  1.00  0.00     0.106 C 
ATOM     17  C   UNL A   1      27.981  30.320  21.193  1.00  0.00     0.056 C 
ATOM     18  C   UNL A   1      28.602  30.972  23.531  1.00  0.00     0.056 C 
ATOM     19  C   UNL A   1      27.277  28.861  23.072  1.00  0.00     0.056 C 
ENDBRANCH  15  16
ENDBRANCH  13  15
ENDBRANCH   9  13
BRANCH  12  20
ATOM     20  C   UNL A   1      32.135  25.324  25.211  1.00  0.00     0.041 C 
BRANCH  20  21
ATOM     21  C   UNL A   1      32.324  26.669  25.863  1.00  0.00    -0.048 A 
ATOM     22  C   UNL A   1      33.450  27.442  25.525  1.00  0.00     0.004 A 
ATOM     23  C   UNL A   1      31.477  27.109  26.881  1.00  0.00     0.004 A 
ATOM     24  C   UNL A   1      33.736  28.620  26.209  1.00  0.00     0.000 A 
ATOM     25  C   UNL A   1      31.766  28.293  27.566  1.00  0.00     0.000 A 
ATOM     26  C   UNL A   1      32.896  29.041  27.236  1.00  0.00     0.000 A 
ENDBRANCH  20  21
ENDBRANCH  12  20
ENDBRANCH   5   8
ENDBRANCH   3   4
ENDBRANCH   2   3
ENDBRANCH   1   2
BRANCH   1  27
ATOM     27  C   UNL A   1      35.926  20.544  25.030  1.00  0.00     0.002 C 
BRANCH  27  28
ATOM     28  C   UNL A   1      37.309  20.031  24.619  1.00  0.00     0.021 C 
BRANCH  28  29
ATOM     29  C   UNL A   1      38.456  20.521  25.499  1.00  0.00     0.116 C 
BRANCH  29  30
ATOM     30  N   UNL A   1      39.488  19.508  25.645  1.00  0.00    -0.352 N 
ATOM     31  C   UNL A   1      40.812  19.655  25.971  1.00  0.00     0.251 C 
ATOM     32  H   UNL A   1      39.195  18.581  25.487  1.00  0.00     0.163 HD
ATOM     33  O   UNL A   1      41.600  18.733  25.787  1.00  0.00    -0.269 OA
BRANCH  31  34
ATOM     34  C   UNL A   1      41.291  20.931  26.541  1.00  0.00     0.039 A 
ATOM     35  C   UNL A   1      41.836  21.891  25.685  1.00  0.00     0.014 A 
ATOM     36  C   UNL A   1      41.229  21.168  27.917  1.00  0.00     0.014 A 
ATOM     37  C   UNL A   1      42.275  23.108  26.205  1.00  0.00     0.010 A 
ATOM     38  C   UNL A   1      41.594  22.413  28.423  1.00  0.00     0.010 A 
ATOM     39  C   UNL A   1      42.131  23.391  27.574  1.00  0.00    -0.014 A 
BRANCH  39  40
ATOM     40  C   UNL A   1      42.541  24.708  28.126  1.00  0.00     0.031 A 
ATOM     41  C   UNL A   1      41.519  25.786  28.364  1.00  0.00     0.074 A 
ATOM     42  C   UNL A   1      43.844  24.945  28.374  1.00  0.00     0.049 A 
ATOM     43  N   UNL A   1      41.692  27.002  28.812  1.00  0.00    -0.248 NA
ATOM     44  C   UNL A   1      40.121  25.464  28.032  1.00  0.00     0.031 C 
ATOM     45  C   UNL A   1      44.936  23.998  28.138  1.00  0.00     0.029 A 
ATOM     46  N   UNL A   1      44.474  26.057  28.874  1.00  0.00    -0.354 N 
ATOM     47  C   UNL A   1      40.433  27.591  28.807  1.00  0.00     0.074 A 
ATOM     48  C   UNL A   1      39.514  26.619  28.261  1.00  0.00     0.031 C 
ATOM     49  C   UNL A   1      46.096  24.559  28.517  1.00  0.00     0.029 A 
ATOM     50  C   UNL A   1      45.837  25.917  28.983  1.00  0.00     0.049 A 
ATOM     51  H   UNL A   1      43.995  26.878  29.132  1.00  0.00     0.167 HD
ATOM     52  C   UNL A   1      40.074  28.823  29.242  1.00  0.00     0.037 A 
ATOM     53  C   UNL A   1      46.774  26.789  29.402  1.00  0.00     0.037 A 
ATOM     54  C   UNL A   1      40.991  29.779  29.806  1.00  0.00     0.049 A 
ATOM     55  C   UNL A   1      46.346  28.155  29.868  1.00  0.00     0.074 A 
ATOM     56  C   UNL A   1      40.712  31.028  30.334  1.00  0.00     0.029 A 
ATOM     57  N   UNL A   1      42.361  29.596  29.909  1.00  0.00    -0.354 N 
ATOM     58  N   UNL A   1      45.141  28.666  29.933  1.00  0.00    -0.248 NA
ATOM     59  C   UNL A   1      47.409  29.060  30.327  1.00  0.00     0.031 C 
ATOM     60  C   UNL A   1      41.922  31.626  30.700  1.00  0.00     0.029 A 
ATOM     61  C   UNL A   1      42.946  30.724  30.464  1.00  0.00     0.049 A 
ATOM     62  H   UNL A   1      42.847  28.787  29.631  1.00  0.00     0.167 HD
ATOM     63  C   UNL A   1      45.297  29.939  30.468  1.00  0.00     0.074 A 
ATOM     64  C   UNL A   1      46.711  30.114  30.726  1.00  0.00     0.031 C 
ATOM     65  C   UNL A   1      44.354  30.880  30.722  1.00  0.00     0.037 A 
BRANCH  52  66
ATOM     66  C   UNL A   1      38.628  29.212  29.125  1.00  0.00     0.057 A 
ATOM     67  C   UNL A   1      37.758  29.169  30.223  1.00  0.00     0.134 A 
ATOM     68  C   UNL A   1      38.116  29.696  27.915  1.00  0.00     0.134 A 
ATOM     69  F   UNL A   1      38.181  28.707  31.409  1.00  0.00    -0.206 F 
ATOM     70  C   UNL A   1      36.426  29.573  30.115  1.00  0.00     0.040 A 
ATOM     71  C   UNL A   1      36.793  30.130  27.802  1.00  0.00     0.040 A 
ATOM     72  F   UNL A   1      38.895  29.771  26.826  1.00  0.00    -0.206 F 
ATOM     73  C   UNL A   1      35.943  30.065  28.903  1.00  0.00     0.006 A 
ENDBRANCH  52  66
BRANCH  53  74
ATOM     74  C   UNL A   1      48.208  26.401  29.407  1.00  0.00     0.057 A 
ATOM     75  C   UNL A   1      49.018  26.595  28.281  1.00  0.00     0.134 A 
ATOM     76  C   UNL A   1      48.797  25.803  30.528  1.00  0.00     0.134 A 
ATOM     77  F   UNL A   1      48.509  27.146  27.170  1.00  0.00    -0.206 F 
ATOM     78  C   UNL A   1      50.351  26.180  28.259  1.00  0.00     0.040 A 
ATOM     79  C   UNL A   1      50.137  25.412  30.530  1.00  0.00     0.040 A 
ATOM     80  F   UNL A   1      48.080  25.598  31.643  1.00  0.00    -0.206 F 
ATOM     81  C   UNL A   1      50.915  25.589  29.388  1.00  0.00     0.006 A 
ENDBRANCH  53  74
BRANCH  65  82
ATOM     82  C   UNL A   1      44.814  32.165  31.349  1.00  0.00     0.057 A 
ATOM     83  C   UNL A   1      44.905  32.325  32.737  1.00  0.00     0.134 A 
ATOM     84  C   UNL A   1      45.207  33.245  30.548  1.00  0.00     0.134 A 
ATOM     85  F   UNL A   1      44.532  31.334  33.562  1.00  0.00    -0.206 F 
ATOM     86  C   UNL A   1      45.345  33.522  33.306  1.00  0.00     0.040 A 
ATOM     87  C   UNL A   1      45.680  34.434  31.105  1.00  0.00     0.040 A 
ATOM     88  F   UNL A   1      45.156  33.156  29.210  1.00  0.00    -0.206 F 
ATOM     89  C   UNL A   1      45.742  34.577  32.488  1.00  0.00     0.006 A 
ENDBRANCH  65  82
ENDBRANCH  39  40
ENDBRANCH  31  34
ENDBRANCH  29  30
ENDBRANCH  28  29
ENDBRANCH  27  28
ENDBRANCH   1  27
TORSDOF 18
ENDMDL
MODEL 2
REMARK VINA RESULT:     -11.6      2.420      7.788
REMARK SMILES CC(C)(C)OC(=O)N1C[C@H](Cc2ccccc2)[C@H](C(=O)NCCCCCCNC(=O)c2ccc(-c3c4nc(c(-c5c(F)cccc5F)c5ccc([nH]5)c(-c5c(F)cccc5F)c5nc(c(-c6c(F)cccc6F)c6ccc3[nH]6)C=C5)C=C4)cc2)C1
REMARK SMILES IDX 24 1 23 2 22 3 21 4 19 5 20 6 18 8 8 9 9 10 85 11 10 12 6 13
REMARK SMILES IDX 7 14 5 15 2 16 1 17 3 18 4 19 11 20 12 21 13 22 17 23 14 24
REMARK SMILES IDX 16 25 15 26 25 27 26 28 27 29 28 30 29 31 30 33 31 34 32 35
REMARK SMILES IDX 84 36 33 37 83 38 34 39 35 40 36 41 77 42 37 43 82 44 76 45
REMARK SMILES IDX 78 46 38 47 81 48 75 49 74 50 39 52 65 53 48 54 64 55 49 56
REMARK SMILES IDX 52 57 63 58 79 59 50 60 51 61 62 63 80 64 53 65 40 66 41 67
REMARK SMILES IDX 46 68 42 69 43 70 45 71 47 72 44 73 66 74 67 75 72 76 68 77
REMARK SMILES IDX 69 78 71 79 73 80 70 81 54 82 55 83 60 84 56 85 57 86 59 87
REMARK SMILES IDX 61 88 58 89
REMARK H PARENT 21 7 28 32 78 51 52 62
REMARK Flexibility Score: inf
ROOT
ATOM      1  C   UNL A   1      31.811  27.583  24.083  1.00  0.00     0.002 C 
ENDROOT
BRANCH   1   2
ATOM      2  C   UNL A   1      30.291  27.440  24.104  1.00  0.00     0.021 C 
BRANCH   2   3
ATOM      3  C   UNL A   1      29.778  26.051  24.515  1.00  0.00     0.116 C 
BRANCH   3   4
ATOM      4  N   UNL A   1      30.478  25.571  25.697  1.00  0.00    -0.356 N 
ATOM      5  C   UNL A   1      31.057  24.389  26.029  1.00  0.00     0.225 C 
ATOM      6  O   UNL A   1      31.483  24.304  27.187  1.00  0.00    -0.275 OA
ATOM      7  H   UNL A   1      30.547  26.249  26.408  1.00  0.00     0.163 HD
BRANCH   5   8
ATOM      8  C   UNL A   1      31.210  23.186  25.097  1.00  0.00     0.103 C 
ATOM      9  N   UNL A   1      32.819  21.494  24.847  1.00  0.00    -0.307 N 
ATOM     10  C   UNL A   1      32.570  21.981  23.508  1.00  0.00     0.128 C 
ATOM     11  C   UNL A   1      31.807  21.951  25.769  1.00  0.00     0.137 C 
ATOM     12  C   UNL A   1      31.942  23.357  23.726  1.00  0.00     0.027 C 
BRANCH   9  13
ATOM     13  C   UNL A   1      33.837  20.663  25.241  1.00  0.00     0.410 C 
ATOM     14  O   UNL A   1      34.478  20.840  26.265  1.00  0.00    -0.224 OA
BRANCH  13  15
ATOM     15  O   UNL A   1      34.069  19.696  24.323  1.00  0.00    -0.444 OA
BRANCH  15  16
ATOM     16  C   UNL A   1      33.423  18.398  24.388  1.00  0.00     0.106 C 
ATOM     17  C   UNL A   1      34.568  17.380  24.263  1.00  0.00     0.056 C 
ATOM     18  C   UNL A   1      32.491  18.273  23.183  1.00  0.00     0.056 C 
ATOM     19  C   UNL A   1      32.686  18.112  25.705  1.00  0.00     0.056 C 
ENDBRANCH  15  16
ENDBRANCH  13  15
ENDBRANCH   9  13
BRANCH  12  20
ATOM     20  C   UNL A   1      33.002  24.453  23.715  1.00  0.00     0.041 C 
BRANCH  20  21
ATOM     21  C   UNL A   1      34.424  24.119  24.081  1.00  0.00    -0.048 A 
ATOM     22  C   UNL A   1      35.241  23.471  23.136  1.00  0.00     0.004 A 
ATOM     23  C   UNL A   1      34.912  24.327  25.372  1.00  0.00     0.004 A 
ATOM     24  C   UNL A   1      36.510  23.017  23.484  1.00  0.00     0.000 A 
ATOM     25  C   UNL A   1      36.186  23.871  25.718  1.00  0.00     0.000 A 
ATOM     26  C   UNL A   1      36.979  23.211  24.779  1.00  0.00     0.000 A 
ENDBRANCH  20  21
ENDBRANCH  12  20
ENDBRANCH   5   8
ENDBRANCH   3   4
ENDBRANCH   2   3
ENDBRANCH   1   2
BRANCH   1  27
ATOM     27  C   UNL A   1      32.365  28.611  25.069  1.00  0.00     0.002 C 
BRANCH  27  28
ATOM     28  C   UNL A   1      33.697  28.229  25.721  1.00  0.00     0.021 C 
BRANCH  28  29
ATOM     29  C   UNL A   1      33.756  28.457  27.229  1.00  0.00     0.116 C 
BRANCH  29  30
ATOM     30  N   UNL A   1      33.691  29.871  27.559  1.00  0.00    -0.352 N 
ATOM     31  C   UNL A   1      34.596  30.650  28.235  1.00  0.00     0.251 C 
ATOM     32  H   UNL A   1      32.880  30.339  27.254  1.00  0.00     0.163 HD
ATOM     33  O   UNL A   1      34.266  31.751  28.662  1.00  0.00    -0.269 OA
BRANCH  31  34
ATOM     34  C   UNL A   1      35.971  30.155  28.455  1.00  0.00     0.039 A 
ATOM     35  C   UNL A   1      36.887  30.217  27.403  1.00  0.00     0.014 A 
ATOM     36  C   UNL A   1      36.345  29.607  29.684  1.00  0.00     0.014 A 
ATOM     37  C   UNL A   1      38.194  29.771  27.600  1.00  0.00     0.010 A 
ATOM     38  C   UNL A   1      37.669  29.237  29.903  1.00  0.00     0.010 A 
ATOM     39  C   UNL A   1      38.604  29.306  28.861  1.00  0.00    -0.014 A 
BRANCH  39  40
ATOM     40  C   UNL A   1      40.009  28.885  29.096  1.00  0.00     0.031 A 
ATOM     41  C   UNL A   1      40.984  29.821  29.757  1.00  0.00     0.074 A 
ATOM     42  C   UNL A   1      40.417  27.671  28.675  1.00  0.00     0.049 A 
ATOM     43  N   UNL A   1      42.253  29.641  30.020  1.00  0.00    -0.248 NA
ATOM     44  C   UNL A   1      40.473  31.144  30.154  1.00  0.00     0.031 C 
ATOM     45  C   UNL A   1      39.580  26.693  27.977  1.00  0.00     0.029 A 
ATOM     46  N   UNL A   1      41.639  27.055  28.767  1.00  0.00    -0.354 N 
ATOM     47  C   UNL A   1      42.692  30.825  30.601  1.00  0.00     0.074 A 
ATOM     48  C   UNL A   1      41.570  31.736  30.603  1.00  0.00     0.031 C 
ATOM     49  C   UNL A   1      40.304  25.591  27.728  1.00  0.00     0.029 A 
ATOM     50  C   UNL A   1      41.666  25.799  28.209  1.00  0.00     0.049 A 
ATOM     51  H   UNL A   1      42.423  27.472  29.193  1.00  0.00     0.167 HD
ATOM     52  C   UNL A   1      43.914  31.115  31.108  1.00  0.00     0.037 A 
ATOM     53  C   UNL A   1      42.677  24.917  28.091  1.00  0.00     0.037 A 
ATOM     54  C   UNL A   1      45.021  30.196  31.123  1.00  0.00     0.049 A 
ATOM     55  C   UNL A   1      44.027  25.272  28.654  1.00  0.00     0.074 A 
ATOM     56  C   UNL A   1      46.279  30.374  31.673  1.00  0.00     0.029 A 
ATOM     57  N   UNL A   1      45.006  28.929  30.559  1.00  0.00    -0.354 N 
ATOM     58  N   UNL A   1      44.404  26.364  29.273  1.00  0.00    -0.248 NA
ATOM     59  C   UNL A   1      45.091  24.268  28.508  1.00  0.00     0.031 C 
ATOM     60  C   UNL A   1      47.045  29.240  31.387  1.00  0.00     0.029 A 
ATOM     61  C   UNL A   1      46.244  28.328  30.720  1.00  0.00     0.049 A 
ATOM     62  H   UNL A   1      44.232  28.518  30.112  1.00  0.00     0.167 HD
ATOM     63  C   UNL A   1      45.735  26.166  29.618  1.00  0.00     0.074 A 
ATOM     64  C   UNL A   1      46.095  24.843  29.154  1.00  0.00     0.031 C 
ATOM     65  C   UNL A   1      46.585  27.006  30.260  1.00  0.00     0.037 A 
BRANCH  52  66
ATOM     66  C   UNL A   1      44.122  32.484  31.690  1.00  0.00     0.057 A 
ATOM     67  C   UNL A   1      44.553  33.564  30.907  1.00  0.00     0.134 A 
ATOM     68  C   UNL A   1      43.828  32.740  33.035  1.00  0.00     0.134 A 
ATOM     69  F   UNL A   1      44.862  33.387  29.614  1.00  0.00    -0.206 F 
ATOM     70  C   UNL A   1      44.704  34.843  31.447  1.00  0.00     0.040 A 
ATOM     71  C   UNL A   1      43.947  34.020  33.579  1.00  0.00     0.040 A 
ATOM     72  F   UNL A   1      43.405  31.754  33.840  1.00  0.00    -0.206 F 
ATOM     73  C   UNL A   1      44.390  35.075  32.785  1.00  0.00     0.006 A 
ENDBRANCH  52  66
BRANCH  53  74
ATOM     74  C   UNL A   1      42.457  23.611  27.417  1.00  0.00     0.057 A 
ATOM     75  C   UNL A   1      42.101  22.469  28.144  1.00  0.00     0.134 A 
ATOM     76  C   UNL A   1      42.626  23.468  26.034  1.00  0.00     0.134 A 
ATOM     77  F   UNL A   1      41.942  22.537  29.473  1.00  0.00    -0.206 F 
ATOM     78  C   UNL A   1      41.949  21.226  27.526  1.00  0.00     0.040 A 
ATOM     79  C   UNL A   1      42.447  22.237  25.399  1.00  0.00     0.040 A 
ATOM     80  F   UNL A   1      42.957  24.524  25.278  1.00  0.00    -0.206 F 
ATOM     81  C   UNL A   1      42.119  21.109  26.147  1.00  0.00     0.006 A 
ENDBRANCH  53  74
BRANCH  65  82
ATOM     82  C   UNL A   1      47.973  26.503  30.538  1.00  0.00     0.057 A 
ATOM     83  C   UNL A   1      49.024  26.684  29.631  1.00  0.00     0.134 A 
ATOM     84  C   UNL A   1      48.267  25.862  31.748  1.00  0.00     0.134 A 
ATOM     85  F   UNL A   1      48.809  27.279  28.447  1.00  0.00    -0.206 F 
ATOM     86  C   UNL A   1      50.313  26.222  29.907  1.00  0.00     0.040 A 
ATOM     87  C   UNL A   1      49.558  25.426  32.049  1.00  0.00     0.040 A 
ATOM     88  F   UNL A   1      47.309  25.666  32.666  1.00  0.00    -0.206 F 
ATOM     89  C   UNL A   1      50.583  25.599  31.123  1.00  0.00     0.006 A 
ENDBRANCH  65  82
ENDBRANCH  39  40
ENDBRANCH  31  34
ENDBRANCH  29  30
ENDBRANCH  28  29
ENDBRANCH  27  28
ENDBRANCH   1  27
TORSDOF 18
ENDMDL
MODEL 3
REMARK VINA RESULT:     -11.6      1.451      3.210
REMARK SMILES CC(C)(C)OC(=O)N1C[C@H](Cc2ccccc2)[C@H](C(=O)NCCCCCCNC(=O)c2ccc(-c3c4nc(c(-c5c(F)cccc5F)c5ccc([nH]5)c(-c5c(F)cccc5F)c5nc(c(-c6c(F)cccc6F)c6ccc3[nH]6)C=C5)C=C4)cc2)C1
REMARK SMILES IDX 24 1 23 2 22 3 21 4 19 5 20 6 18 8 8 9 9 10 85 11 10 12 6 13
REMARK SMILES IDX 7 14 5 15 2 16 1 17 3 18 4 19 11 20 12 21 13 22 17 23 14 24
REMARK SMILES IDX 16 25 15 26 25 27 26 28 27 29 28 30 29 31 30 33 31 34 32 35
REMARK SMILES IDX 84 36 33 37 83 38 34 39 35 40 36 41 77 42 37 43 82 44 76 45
REMARK SMILES IDX 78 46 38 47 81 48 75 49 74 50 39 52 65 53 48 54 64 55 49 56
REMARK SMILES IDX 52 57 63 58 79 59 50 60 51 61 62 63 80 64 53 65 40 66 41 67
REMARK SMILES IDX 46 68 42 69 43 70 45 71 47 72 44 73 66 74 67 75 72 76 68 77
REMARK SMILES IDX 69 78 71 79 73 80 70 81 54 82 55 83 60 84 56 85 57 86 59 87
REMARK SMILES IDX 61 88 58 89
REMARK H PARENT 21 7 28 32 78 51 52 62
REMARK Flexibility Score: inf
ROOT
ATOM      1  C   UNL A   1      36.688  22.141  24.722  1.00  0.00     0.002 C 
ENDROOT
BRANCH   1   2
ATOM      2  C   UNL A   1      35.848  23.080  25.586  1.00  0.00     0.021 C 
BRANCH   2   3
ATOM      3  C   UNL A   1      35.105  24.179  24.812  1.00  0.00     0.116 C 
BRANCH   3   4
ATOM      4  N   UNL A   1      34.909  23.792  23.424  1.00  0.00    -0.356 N 
ATOM      5  C   UNL A   1      33.814  23.652  22.634  1.00  0.00     0.225 C 
ATOM      6  O   UNL A   1      34.020  23.197  21.502  1.00  0.00    -0.275 OA
ATOM      7  H   UNL A   1      35.752  23.586  22.957  1.00  0.00     0.163 HD
BRANCH   5   8
ATOM      8  C   UNL A   1      32.382  24.004  23.036  1.00  0.00     0.103 C 
ATOM      9  N   UNL A   1      31.407  25.040  24.906  1.00  0.00    -0.307 N 
ATOM     10  C   UNL A   1      30.614  23.852  24.674  1.00  0.00     0.128 C 
ATOM     11  C   UNL A   1      32.253  25.336  23.774  1.00  0.00     0.137 C 
ATOM     12  C   UNL A   1      31.521  22.963  23.823  1.00  0.00     0.027 C 
BRANCH   9  13
ATOM     13  C   UNL A   1      31.368  25.848  26.013  1.00  0.00     0.410 C 
ATOM     14  O   UNL A   1      31.397  25.414  27.153  1.00  0.00    -0.224 OA
BRANCH  13  15
ATOM     15  O   UNL A   1      31.221  27.150  25.669  1.00  0.00    -0.444 OA
BRANCH  15  16
ATOM     16  C   UNL A   1      32.169  28.169  26.081  1.00  0.00     0.106 C 
ATOM     17  C   UNL A   1      31.693  28.612  27.473  1.00  0.00     0.056 C 
ATOM     18  C   UNL A   1      32.057  29.340  25.104  1.00  0.00     0.056 C 
ATOM     19  C   UNL A   1      33.618  27.682  26.215  1.00  0.00     0.056 C 
ENDBRANCH  15  16
ENDBRANCH  13  15
ENDBRANCH   9  13
BRANCH  12  20
ATOM     20  C   UNL A   1      32.332  22.011  24.695  1.00  0.00     0.041 C 
BRANCH  20  21
ATOM     21  C   UNL A   1      32.400  20.549  24.340  1.00  0.00    -0.048 A 
ATOM     22  C   UNL A   1      32.795  19.622  25.322  1.00  0.00     0.004 A 
ATOM     23  C   UNL A   1      32.199  20.108  23.031  1.00  0.00     0.004 A 
ATOM     24  C   UNL A   1      33.009  18.286  24.997  1.00  0.00     0.000 A 
ATOM     25  C   UNL A   1      32.414  18.766  22.706  1.00  0.00     0.000 A 
ATOM     26  C   UNL A   1      32.825  17.860  23.684  1.00  0.00     0.000 A 
ENDBRANCH  20  21
ENDBRANCH  12  20
ENDBRANCH   5   8
ENDBRANCH   3   4
ENDBRANCH   2   3
ENDBRANCH   1   2
BRANCH   1  27
ATOM     27  C   UNL A   1      36.303  20.666  24.831  1.00  0.00     0.002 C 
BRANCH  27  28
ATOM     28  C   UNL A   1      37.481  19.701  24.992  1.00  0.00     0.021 C 
BRANCH  28  29
ATOM     29  C   UNL A   1      38.743  20.330  25.577  1.00  0.00     0.116 C 
BRANCH  29  30
ATOM     30  N   UNL A   1      39.805  19.351  25.736  1.00  0.00    -0.352 N 
ATOM     31  C   UNL A   1      41.126  19.542  26.050  1.00  0.00     0.251 C 
ATOM     32  H   UNL A   1      39.538  18.413  25.596  1.00  0.00     0.163 HD
ATOM     33  O   UNL A   1      41.940  18.640  25.878  1.00  0.00    -0.269 OA
BRANCH  31  34
ATOM     34  C   UNL A   1      41.572  20.842  26.593  1.00  0.00     0.039 A 
ATOM     35  C   UNL A   1      42.012  21.828  25.708  1.00  0.00     0.014 A 
ATOM     36  C   UNL A   1      41.581  21.076  27.971  1.00  0.00     0.014 A 
ATOM     37  C   UNL A   1      42.418  23.068  26.203  1.00  0.00     0.010 A 
ATOM     38  C   UNL A   1      41.910  22.339  28.456  1.00  0.00     0.010 A 
ATOM     39  C   UNL A   1      42.342  23.344  27.579  1.00  0.00    -0.014 A 
BRANCH  39  40
ATOM     40  C   UNL A   1      42.715  24.680  28.108  1.00  0.00     0.031 A 
ATOM     41  C   UNL A   1      41.665  25.737  28.318  1.00  0.00     0.074 A 
ATOM     42  C   UNL A   1      44.011  24.954  28.360  1.00  0.00     0.049 A 
ATOM     43  N   UNL A   1      41.805  26.966  28.744  1.00  0.00    -0.248 NA
ATOM     44  C   UNL A   1      40.278  25.374  27.982  1.00  0.00     0.031 C 
ATOM     45  C   UNL A   1      45.127  24.030  28.151  1.00  0.00     0.029 A 
ATOM     46  N   UNL A   1      44.609  26.091  28.843  1.00  0.00    -0.354 N 
ATOM     47  C   UNL A   1      40.532  27.523  28.718  1.00  0.00     0.074 A 
ATOM     48  C   UNL A   1      39.642  26.518  28.184  1.00  0.00     0.031 C 
ATOM     49  C   UNL A   1      46.270  24.627  28.527  1.00  0.00     0.029 A 
ATOM     50  C   UNL A   1      45.974  25.987  28.964  1.00  0.00     0.049 A 
ATOM     51  H   UNL A   1      44.107  26.905  29.081  1.00  0.00     0.167 HD
ATOM     52  C   UNL A   1      40.139  28.754  29.126  1.00  0.00     0.037 A 
ATOM     53  C   UNL A   1      46.886  26.890  29.373  1.00  0.00     0.037 A 
ATOM     54  C   UNL A   1      41.028  29.743  29.678  1.00  0.00     0.049 A 
ATOM     55  C   UNL A   1      46.421  28.253  29.810  1.00  0.00     0.074 A 
ATOM     56  C   UNL A   1      40.715  30.994  30.180  1.00  0.00     0.029 A 
ATOM     57  N   UNL A   1      42.401  29.596  29.795  1.00  0.00    -0.354 N 
ATOM     58  N   UNL A   1      45.204  28.736  29.856  1.00  0.00    -0.248 NA
ATOM     59  C   UNL A   1      47.457  29.194  30.259  1.00  0.00     0.031 C 
ATOM     60  C   UNL A   1      41.906  31.629  30.543  1.00  0.00     0.029 A 
ATOM     61  C   UNL A   1      42.954  30.748  30.331  1.00  0.00     0.049 A 
ATOM     62  H   UNL A   1      42.909  28.794  29.535  1.00  0.00     0.167 HD
ATOM     63  C   UNL A   1      45.324  30.023  30.368  1.00  0.00     0.074 A 
ATOM     64  C   UNL A   1      46.731  30.237  30.632  1.00  0.00     0.031 C 
ATOM     65  C   UNL A   1      44.356  30.944  30.596  1.00  0.00     0.037 A 
BRANCH  52  66
ATOM     66  C   UNL A   1      38.685  29.104  28.992  1.00  0.00     0.057 A 
ATOM     67  C   UNL A   1      37.803  29.041  30.079  1.00  0.00     0.134 A 
ATOM     68  C   UNL A   1      38.174  29.572  27.774  1.00  0.00     0.134 A 
ATOM     69  F   UNL A   1      38.224  28.593  31.271  1.00  0.00    -0.206 F 
ATOM     70  C   UNL A   1      36.463  29.410  29.954  1.00  0.00     0.040 A 
ATOM     71  C   UNL A   1      36.843  29.971  27.645  1.00  0.00     0.040 A 
ATOM     72  F   UNL A   1      38.964  29.664  26.694  1.00  0.00    -0.206 F 
ATOM     73  C   UNL A   1      35.982  29.886  28.736  1.00  0.00     0.006 A 
ENDBRANCH  52  66
BRANCH  53  74
ATOM     74  C   UNL A   1      48.329  26.538  29.396  1.00  0.00     0.057 A 
ATOM     75  C   UNL A   1      48.905  25.900  30.500  1.00  0.00     0.134 A 
ATOM     76  C   UNL A   1      49.173  26.858  28.325  1.00  0.00     0.134 A 
ATOM     77  F   UNL A   1      48.154  25.583  31.564  1.00  0.00    -0.206 F 
ATOM     78  C   UNL A   1      50.272  25.619  30.553  1.00  0.00     0.040 A 
ATOM     79  C   UNL A   1      50.536  26.555  28.351  1.00  0.00     0.040 A 
ATOM     80  F   UNL A   1      48.684  27.461  27.231  1.00  0.00    -0.206 F 
ATOM     81  C   UNL A   1      51.091  25.944  29.473  1.00  0.00     0.006 A 
ENDBRANCH  53  74
BRANCH  65  82
ATOM     82  C   UNL A   1      44.779  32.253  31.201  1.00  0.00     0.057 A 
ATOM     83  C   UNL A   1      44.861  32.439  32.587  1.00  0.00     0.134 A 
ATOM     84  C   UNL A   1      45.146  33.328  30.382  1.00  0.00     0.134 A 
ATOM     85  F   UNL A   1      44.513  31.454  33.428  1.00  0.00    -0.206 F 
ATOM     86  C   UNL A   1      45.268  33.657  33.135  1.00  0.00     0.040 A 
ATOM     87  C   UNL A   1      45.585  34.540  30.919  1.00  0.00     0.040 A 
ATOM     88  F   UNL A   1      45.101  33.214  29.046  1.00  0.00    -0.206 F 
ATOM     89  C   UNL A   1      45.639  34.708  32.300  1.00  0.00     0.006 A 
ENDBRANCH  65  82
ENDBRANCH  39  40
ENDBRANCH  31  34
ENDBRANCH  29  30
ENDBRANCH  28  29
ENDBRANCH  27  28
ENDBRANCH   1  27
TORSDOF 18
ENDMDL
