MODEL 1
REMARK VINA RESULT:     -12.4      0.000      0.000
REMARK SMILES O=C(NCCCCCCNC(=O)c1ccc(-c2c3nc(c(-c4c(F)cccc4F)c4ccc([nH]4)c(-c4c(F)cccc4F)c4nc(c(-c5c(F)cccc5F)c5ccc2[nH]5)C=C4)C=C3)cc1)C1=Cc2cc(Cl)cc(C#Cc3ccccc3)c2O[C@@H]1C(F)(F)F
REMARK SMILES IDX 6 1 5 2 4 3 3 4 1 5 2 6 67 8 68 9 85 10 69 11 84 12 70 13
REMARK SMILES IDX 83 14 71 15 74 16 72 17 73 18 86 19 87 20 88 21 89 22 75 23
REMARK SMILES IDX 76 24 77 25 78 26 82 27 79 28 81 29 80 30 7 31 8 32 9 33
REMARK SMILES IDX 10 34 11 35 12 37 13 38 14 39 66 40 15 41 65 42 16 43 17 44
REMARK SMILES IDX 18 45 59 46 19 47 64 48 58 49 60 50 20 51 63 52 57 53 56 54
REMARK SMILES IDX 21 56 47 57 30 58 46 59 31 60 34 61 45 62 61 63 32 64 33 65
REMARK SMILES IDX 44 67 62 68 35 69 22 70 23 71 28 72 24 73 25 74 27 75 29 76
REMARK SMILES IDX 26 77 48 78 49 79 54 80 50 81 51 82 53 83 55 84 52 85 36 86
REMARK SMILES IDX 37 87 42 88 38 89 39 90 41 91 43 92 40 93
REMARK H PARENT 3 7 10 36 60 55 34 66
REMARK Flexibility Score: inf
ROOT
ATOM      1  C   UNL A   1      31.341  27.763  24.789  1.00  0.00     0.002 C 
ENDROOT
BRANCH   1   2
ATOM      2  C   UNL A   1      30.717  27.101  26.016  1.00  0.00     0.021 C 
BRANCH   2   3
ATOM      3  C   UNL A   1      30.283  25.653  25.845  1.00  0.00     0.116 C 
BRANCH   3   4
ATOM      4  N   UNL A   1      31.000  24.673  26.633  1.00  0.00    -0.352 N 
ATOM      5  O   UNL A   1      32.744  23.447  27.323  1.00  0.00    -0.270 OA
ATOM      6  C   UNL A   1      32.262  24.175  26.456  1.00  0.00     0.251 C 
ATOM      7  H   UNL A   1      30.510  24.314  27.406  1.00  0.00     0.163 HD
BRANCH   6   8
ATOM      8  C   UNL A   1      33.132  24.551  25.294  1.00  0.00     0.067 C 
ATOM      9  C   UNL A   1      34.423  24.911  25.413  1.00  0.00     0.025 C 
ATOM     10  C   UNL A   1      32.748  23.769  24.056  1.00  0.00     0.314 C 
ATOM     11  C   UNL A   1      35.342  23.800  25.028  1.00  0.00     0.020 A 
ATOM     12  O   UNL A   1      33.530  22.541  23.986  1.00  0.00    -0.474 OA
ATOM     13  C   UNL A   1      36.653  23.841  25.519  1.00  0.00     0.032 A 
ATOM     14  C   UNL A   1      34.805  22.603  24.508  1.00  0.00     0.143 A 
ATOM     15  C   UNL A   1      37.389  22.663  25.592  1.00  0.00     0.043 A 
ATOM     16  C   UNL A   1      35.524  21.411  24.675  1.00  0.00     0.069 A 
ATOM     17  Cl  UNL A   1      38.925  22.667  26.367  1.00  0.00    -0.084 Cl
ATOM     18  C   UNL A   1      36.826  21.453  25.191  1.00  0.00     0.041 A 
BRANCH  10  19
ATOM     19  C   UNL A   1      32.835  24.630  22.780  1.00  0.00     0.429 C 
ATOM     20  F   UNL A   1      31.679  25.291  22.541  1.00  0.00    -0.167 F 
ATOM     21  F   UNL A   1      33.809  25.569  22.889  1.00  0.00    -0.167 F 
ATOM     22  F   UNL A   1      33.117  23.902  21.674  1.00  0.00    -0.167 F 
ENDBRANCH  10  19
BRANCH  16  23
ATOM     23  C   UNL A   1      34.899  20.119  24.602  1.00  0.00    -0.058 C 
ATOM     24  C   UNL A   1      34.403  19.031  24.727  1.00  0.00    -0.062 C 
BRANCH  24  25
ATOM     25  C   UNL A   1      33.901  17.702  24.923  1.00  0.00     0.025 A 
ATOM     26  C   UNL A   1      32.562  17.465  25.258  1.00  0.00     0.017 A 
ATOM     27  C   UNL A   1      34.785  16.627  24.829  1.00  0.00     0.017 A 
ATOM     28  C   UNL A   1      32.120  16.161  25.506  1.00  0.00     0.001 A 
ATOM     29  C   UNL A   1      34.344  15.326  25.080  1.00  0.00     0.001 A 
ATOM     30  C   UNL A   1      33.013  15.093  25.420  1.00  0.00     0.000 A 
ENDBRANCH  24  25
ENDBRANCH  16  23
ENDBRANCH   6   8
ENDBRANCH   3   4
ENDBRANCH   2   3
ENDBRANCH   1   2
BRANCH   1  31
ATOM     31  C   UNL A   1      32.315  28.917  25.054  1.00  0.00     0.002 C 
BRANCH  31  32
ATOM     32  C   UNL A   1      33.708  28.537  25.565  1.00  0.00     0.021 C 
BRANCH  32  33
ATOM     33  C   UNL A   1      33.904  28.592  27.075  1.00  0.00     0.116 C 
BRANCH  33  34
ATOM     34  N   UNL A   1      33.815  29.941  27.604  1.00  0.00    -0.352 N 
ATOM     35  C   UNL A   1      34.728  30.667  28.326  1.00  0.00     0.251 C 
ATOM     36  H   UNL A   1      32.968  30.406  27.415  1.00  0.00     0.163 HD
ATOM     37  O   UNL A   1      34.394  31.737  28.827  1.00  0.00    -0.269 OA
BRANCH  35  38
ATOM     38  C   UNL A   1      36.105  30.163  28.522  1.00  0.00     0.039 A 
ATOM     39  C   UNL A   1      37.007  30.244  27.457  1.00  0.00     0.014 A 
ATOM     40  C   UNL A   1      36.507  29.587  29.732  1.00  0.00     0.014 A 
ATOM     41  C   UNL A   1      38.318  29.796  27.620  1.00  0.00     0.010 A 
ATOM     42  C   UNL A   1      37.837  29.219  29.920  1.00  0.00     0.010 A 
ATOM     43  C   UNL A   1      38.755  29.308  28.863  1.00  0.00    -0.014 A 
BRANCH  43  44
ATOM     44  C   UNL A   1      40.163  28.882  29.067  1.00  0.00     0.031 A 
ATOM     45  C   UNL A   1      41.157  29.817  29.702  1.00  0.00     0.074 A 
ATOM     46  C   UNL A   1      40.559  27.667  28.639  1.00  0.00     0.049 A 
ATOM     47  N   UNL A   1      42.433  29.638  29.928  1.00  0.00    -0.248 NA
ATOM     48  C   UNL A   1      40.656  31.138  30.116  1.00  0.00     0.031 C 
ATOM     49  C   UNL A   1      39.702  26.683  27.974  1.00  0.00     0.029 A 
ATOM     50  N   UNL A   1      41.785  27.051  28.696  1.00  0.00    -0.354 N 
ATOM     51  C   UNL A   1      42.888  30.823  30.494  1.00  0.00     0.074 A 
ATOM     52  C   UNL A   1      41.766  31.734  30.528  1.00  0.00     0.031 C 
ATOM     53  C   UNL A   1      40.418  25.577  27.716  1.00  0.00     0.029 A 
ATOM     54  C   UNL A   1      41.794  25.788  28.152  1.00  0.00     0.049 A 
ATOM     55  H   UNL A   1      42.582  27.474  29.089  1.00  0.00     0.167 HD
ATOM     56  C   UNL A   1      44.125  31.119  30.960  1.00  0.00     0.037 A 
ATOM     57  C   UNL A   1      42.801  24.905  28.012  1.00  0.00     0.037 A 
ATOM     58  C   UNL A   1      45.234  30.201  30.943  1.00  0.00     0.049 A 
ATOM     59  C   UNL A   1      44.172  25.273  28.514  1.00  0.00     0.074 A 
ATOM     60  C   UNL A   1      46.508  30.382  31.453  1.00  0.00     0.029 A 
ATOM     61  N   UNL A   1      45.206  28.935  30.378  1.00  0.00    -0.354 N 
ATOM     62  N   UNL A   1      44.567  26.366  29.118  1.00  0.00    -0.248 NA
ATOM     63  C   UNL A   1      45.236  24.279  28.316  1.00  0.00     0.031 C 
ATOM     64  C   UNL A   1      47.270  29.252  31.136  1.00  0.00     0.029 A 
ATOM     65  C   UNL A   1      46.451  28.339  30.494  1.00  0.00     0.049 A 
ATOM     66  H   UNL A   1      44.418  28.521  29.958  1.00  0.00     0.167 HD
ATOM     67  C   UNL A   1      45.913  26.177  29.407  1.00  0.00     0.074 A 
ATOM     68  C   UNL A   1      46.261  24.857  28.923  1.00  0.00     0.031 C 
ATOM     69  C   UNL A   1      46.782  27.019  30.018  1.00  0.00     0.037 A 
BRANCH  56  70
ATOM     70  C   UNL A   1      44.352  32.494  31.522  1.00  0.00     0.057 A 
ATOM     71  C   UNL A   1      44.762  33.569  30.722  1.00  0.00     0.134 A 
ATOM     72  C   UNL A   1      44.108  32.757  32.877  1.00  0.00     0.134 A 
ATOM     73  F   UNL A   1      45.023  33.386  29.419  1.00  0.00    -0.206 F 
ATOM     74  C   UNL A   1      44.944  34.848  31.252  1.00  0.00     0.040 A 
ATOM     75  C   UNL A   1      44.256  34.037  33.412  1.00  0.00     0.040 A 
ATOM     76  F   UNL A   1      43.706  31.777  33.701  1.00  0.00    -0.206 F 
ATOM     77  C   UNL A   1      44.682  35.086  32.600  1.00  0.00     0.006 A 
ENDBRANCH  56  70
BRANCH  57  78
ATOM     78  C   UNL A   1      42.558  23.581  27.382  1.00  0.00     0.057 A 
ATOM     79  C   UNL A   1      42.231  22.461  28.158  1.00  0.00     0.134 A 
ATOM     80  C   UNL A   1      42.678  23.392  26.001  1.00  0.00     0.134 A 
ATOM     81  F   UNL A   1      42.119  22.574  29.490  1.00  0.00    -0.206 F 
ATOM     82  C   UNL A   1      42.064  21.199  27.588  1.00  0.00     0.040 A 
ATOM     83  C   UNL A   1      42.482  22.140  25.413  1.00  0.00     0.040 A 
ATOM     84  F   UNL A   1      42.981  24.422  25.198  1.00  0.00    -0.206 F 
ATOM     85  C   UNL A   1      42.185  21.036  26.210  1.00  0.00     0.006 A 
ENDBRANCH  57  78
BRANCH  69  86
ATOM     86  C   UNL A   1      48.181  26.522  30.244  1.00  0.00     0.057 A 
ATOM     87  C   UNL A   1      49.214  26.754  29.326  1.00  0.00     0.134 A 
ATOM     88  C   UNL A   1      48.507  25.832  31.421  1.00  0.00     0.134 A 
ATOM     89  F   UNL A   1      48.968  27.397  28.175  1.00  0.00    -0.206 F 
ATOM     90  C   UNL A   1      50.511  26.293  29.556  1.00  0.00     0.040 A 
ATOM     91  C   UNL A   1      49.808  25.397  31.677  1.00  0.00     0.040 A 
ATOM     92  F   UNL A   1      47.570  25.585  32.348  1.00  0.00    -0.206 F 
ATOM     93  C   UNL A   1      50.813  25.620  30.738  1.00  0.00     0.006 A 
ENDBRANCH  69  86
ENDBRANCH  43  44
ENDBRANCH  35  38
ENDBRANCH  33  34
ENDBRANCH  32  33
ENDBRANCH  31  32
ENDBRANCH   1  31
TORSDOF 16
ENDMDL
MODEL 2
REMARK VINA RESULT:     -12.1      0.386      5.973
REMARK SMILES O=C(NCCCCCCNC(=O)c1ccc(-c2c3nc(c(-c4c(F)cccc4F)c4ccc([nH]4)c(-c4c(F)cccc4F)c4nc(c(-c5c(F)cccc5F)c5ccc2[nH]5)C=C4)C=C3)cc1)C1=Cc2cc(Cl)cc(C#Cc3ccccc3)c2O[C@@H]1C(F)(F)F
REMARK SMILES IDX 6 1 5 2 4 3 3 4 1 5 2 6 67 8 68 9 85 10 69 11 84 12 70 13
REMARK SMILES IDX 83 14 71 15 74 16 72 17 73 18 86 19 87 20 88 21 89 22 75 23
REMARK SMILES IDX 76 24 77 25 78 26 82 27 79 28 81 29 80 30 7 31 8 32 9 33
REMARK SMILES IDX 10 34 11 35 12 37 13 38 14 39 66 40 15 41 65 42 16 43 17 44
REMARK SMILES IDX 18 45 59 46 19 47 64 48 58 49 60 50 20 51 63 52 57 53 56 54
REMARK SMILES IDX 21 56 47 57 30 58 46 59 31 60 34 61 45 62 61 63 32 64 33 65
REMARK SMILES IDX 44 67 62 68 35 69 22 70 23 71 28 72 24 73 25 74 27 75 29 76
REMARK SMILES IDX 26 77 48 78 49 79 54 80 50 81 51 82 53 83 55 84 52 85 36 86
REMARK SMILES IDX 37 87 42 88 38 89 39 90 41 91 43 92 40 93
REMARK H PARENT 3 7 10 36 60 55 34 66
REMARK Flexibility Score: inf
ROOT
ATOM      1  C   UNL A   1      31.396  27.574  24.770  1.00  0.00     0.002 C 
ENDROOT
BRANCH   1   2
ATOM      2  C   UNL A   1      30.822  27.039  26.081  1.00  0.00     0.021 C 
BRANCH   2   3
ATOM      3  C   UNL A   1      30.201  25.652  26.020  1.00  0.00     0.116 C 
BRANCH   3   4
ATOM      4  N   UNL A   1      30.894  24.609  26.747  1.00  0.00    -0.352 N 
ATOM      5  O   UNL A   1      32.599  23.280  27.338  1.00  0.00    -0.270 OA
ATOM      6  C   UNL A   1      32.128  24.065  26.516  1.00  0.00     0.251 C 
ATOM      7  H   UNL A   1      30.408  24.238  27.517  1.00  0.00     0.163 HD
BRANCH   6   8
ATOM      8  C   UNL A   1      32.985  24.453  25.348  1.00  0.00     0.067 C 
ATOM      9  C   UNL A   1      34.274  24.825  25.457  1.00  0.00     0.025 C 
ATOM     10  C   UNL A   1      32.597  23.673  24.110  1.00  0.00     0.314 C 
ATOM     11  C   UNL A   1      35.199  23.723  25.060  1.00  0.00     0.020 A 
ATOM     12  O   UNL A   1      33.389  22.453  24.028  1.00  0.00    -0.474 OA
ATOM     13  C   UNL A   1      36.513  23.774  25.540  1.00  0.00     0.032 A 
ATOM     14  C   UNL A   1      34.668  22.523  24.540  1.00  0.00     0.143 A 
ATOM     15  C   UNL A   1      37.260  22.602  25.603  1.00  0.00     0.043 A 
ATOM     16  C   UNL A   1      35.399  21.338  24.695  1.00  0.00     0.069 A 
ATOM     17  Cl  UNL A   1      38.803  22.616  26.365  1.00  0.00    -0.084 Cl
ATOM     18  C   UNL A   1      36.706  21.389  25.201  1.00  0.00     0.041 A 
BRANCH  10  19
ATOM     19  C   UNL A   1      32.666  24.540  22.837  1.00  0.00     0.429 C 
ATOM     20  F   UNL A   1      33.530  25.572  22.979  1.00  0.00    -0.167 F 
ATOM     21  F   UNL A   1      33.093  23.814  21.773  1.00  0.00    -0.167 F 
ATOM     22  F   UNL A   1      31.466  25.066  22.495  1.00  0.00    -0.167 F 
ENDBRANCH  10  19
BRANCH  16  23
ATOM     23  C   UNL A   1      34.785  20.040  24.623  1.00  0.00    -0.058 C 
ATOM     24  C   UNL A   1      34.326  18.935  24.741  1.00  0.00    -0.062 C 
BRANCH  24  25
ATOM     25  C   UNL A   1      33.875  17.585  24.911  1.00  0.00     0.025 A 
ATOM     26  C   UNL A   1      32.544  17.290  25.232  1.00  0.00     0.017 A 
ATOM     27  C   UNL A   1      34.801  16.547  24.807  1.00  0.00     0.017 A 
ATOM     28  C   UNL A   1      32.151  15.967  25.456  1.00  0.00     0.001 A 
ATOM     29  C   UNL A   1      34.409  15.226  25.033  1.00  0.00     0.001 A 
ATOM     30  C   UNL A   1      33.086  14.936  25.360  1.00  0.00     0.000 A 
ENDBRANCH  24  25
ENDBRANCH  16  23
ENDBRANCH   6   8
ENDBRANCH   3   4
ENDBRANCH   2   3
ENDBRANCH   1   2
BRANCH   1  31
ATOM     31  C   UNL A   1      32.426  28.704  24.883  1.00  0.00     0.002 C 
BRANCH  31  32
ATOM     32  C   UNL A   1      33.833  28.310  25.338  1.00  0.00     0.021 C 
BRANCH  32  33
ATOM     33  C   UNL A   1      34.071  28.302  26.843  1.00  0.00     0.116 C 
BRANCH  33  34
ATOM     34  N   UNL A   1      33.911  29.614  27.444  1.00  0.00    -0.352 N 
ATOM     35  C   UNL A   1      34.788  30.353  28.196  1.00  0.00     0.251 C 
ATOM     36  H   UNL A   1      33.036  30.039  27.287  1.00  0.00     0.163 HD
ATOM     37  O   UNL A   1      34.399  31.374  28.755  1.00  0.00    -0.269 OA
BRANCH  35  38
ATOM     38  C   UNL A   1      36.195  29.921  28.354  1.00  0.00     0.039 A 
ATOM     39  C   UNL A   1      37.070  30.078  27.276  1.00  0.00     0.014 A 
ATOM     40  C   UNL A   1      36.650  29.336  29.540  1.00  0.00     0.014 A 
ATOM     41  C   UNL A   1      38.407  29.699  27.403  1.00  0.00     0.010 A 
ATOM     42  C   UNL A   1      38.001  29.037  29.695  1.00  0.00     0.010 A 
ATOM     43  C   UNL A   1      38.893  29.204  28.625  1.00  0.00    -0.014 A 
BRANCH  43  44
ATOM     44  C   UNL A   1      40.326  28.850  28.792  1.00  0.00     0.031 A 
ATOM     45  C   UNL A   1      40.829  27.495  28.372  1.00  0.00     0.074 A 
ATOM     46  C   UNL A   1      41.167  29.735  29.363  1.00  0.00     0.049 A 
ATOM     47  N   UNL A   1      42.034  26.993  28.472  1.00  0.00    -0.248 NA
ATOM     48  C   UNL A   1      39.844  26.573  27.784  1.00  0.00     0.031 C 
ATOM     49  C   UNL A   1      40.795  31.066  29.846  1.00  0.00     0.029 A 
ATOM     50  N   UNL A   1      42.510  29.648  29.636  1.00  0.00    -0.354 N 
ATOM     51  C   UNL A   1      41.947  25.698  27.976  1.00  0.00     0.074 A 
ATOM     52  C   UNL A   1      40.562  25.471  27.625  1.00  0.00     0.031 C 
ATOM     53  C   UNL A   1      41.887  31.683  30.325  1.00  0.00     0.029 A 
ATOM     54  C   UNL A   1      43.026  30.777  30.228  1.00  0.00     0.049 A 
ATOM     55  H   UNL A   1      43.051  28.853  29.429  1.00  0.00     0.167 HD
ATOM     56  C   UNL A   1      42.935  24.786  27.811  1.00  0.00     0.037 A 
ATOM     57  C   UNL A   1      44.276  31.045  30.652  1.00  0.00     0.037 A 
ATOM     58  C   UNL A   1      44.315  25.024  28.143  1.00  0.00     0.049 A 
ATOM     59  C   UNL A   1      45.347  30.003  30.481  1.00  0.00     0.074 A 
ATOM     60  C   UNL A   1      45.403  24.190  27.950  1.00  0.00     0.029 A 
ATOM     61  N   UNL A   1      44.798  26.176  28.746  1.00  0.00    -0.354 N 
ATOM     62  N   UNL A   1      45.266  28.812  29.938  1.00  0.00    -0.248 NA
ATOM     63  C   UNL A   1      46.687  30.343  30.981  1.00  0.00     0.031 C 
ATOM     64  C   UNL A   1      46.531  24.808  28.498  1.00  0.00     0.029 A 
ATOM     65  C   UNL A   1      46.160  26.058  28.967  1.00  0.00     0.049 A 
ATOM     66  H   UNL A   1      44.253  26.961  28.982  1.00  0.00     0.167 HD
ATOM     67  C   UNL A   1      46.548  28.279  29.995  1.00  0.00     0.074 A 
ATOM     68  C   UNL A   1      47.389  29.282  30.614  1.00  0.00     0.031 C 
ATOM     69  C   UNL A   1      46.989  27.069  29.573  1.00  0.00     0.037 A 
BRANCH  56  70
ATOM     70  C   UNL A   1      42.562  23.441  27.253  1.00  0.00     0.057 A 
ATOM     71  C   UNL A   1      42.602  23.166  25.880  1.00  0.00     0.134 A 
ATOM     72  C   UNL A   1      42.206  22.391  28.110  1.00  0.00     0.134 A 
ATOM     73  F   UNL A   1      42.924  24.128  25.002  1.00  0.00    -0.206 F 
ATOM     74  C   UNL A   1      42.277  21.904  25.377  1.00  0.00     0.040 A 
ATOM     75  C   UNL A   1      41.910  21.117  27.622  1.00  0.00     0.040 A 
ATOM     76  F   UNL A   1      42.154  22.581  29.438  1.00  0.00    -0.206 F 
ATOM     77  C   UNL A   1      41.939  20.873  26.251  1.00  0.00     0.006 A 
ENDBRANCH  56  70
BRANCH  57  78
ATOM     78  C   UNL A   1      44.594  32.360  31.268  1.00  0.00     0.057 A 
ATOM     79  C   UNL A   1      45.051  33.432  30.490  1.00  0.00     0.134 A 
ATOM     80  C   UNL A   1      44.483  32.571  32.648  1.00  0.00     0.134 A 
ATOM     81  F   UNL A   1      45.195  33.288  29.164  1.00  0.00    -0.206 F 
ATOM     82  C   UNL A   1      45.414  34.651  31.063  1.00  0.00     0.040 A 
ATOM     83  C   UNL A   1      44.814  33.796  33.231  1.00  0.00     0.040 A 
ATOM     84  F   UNL A   1      44.046  31.590  33.451  1.00  0.00    -0.206 F 
ATOM     85  C   UNL A   1      45.293  34.837  32.438  1.00  0.00     0.006 A 
ENDBRANCH  57  78
BRANCH  69  86
ATOM     86  C   UNL A   1      48.456  26.779  29.719  1.00  0.00     0.057 A 
ATOM     87  C   UNL A   1      48.974  26.083  30.819  1.00  0.00     0.134 A 
ATOM     88  C   UNL A   1      49.359  27.172  28.721  1.00  0.00     0.134 A 
ATOM     89  F   UNL A   1      48.166  25.690  31.816  1.00  0.00    -0.206 F 
ATOM     90  C   UNL A   1      50.338  25.814  30.935  1.00  0.00     0.040 A 
ATOM     91  C   UNL A   1      50.720  26.877  28.809  1.00  0.00     0.040 A 
ATOM     92  F   UNL A   1      48.930  27.831  27.635  1.00  0.00    -0.206 F 
ATOM     93  C   UNL A   1      51.215  26.204  29.924  1.00  0.00     0.006 A 
ENDBRANCH  69  86
ENDBRANCH  43  44
ENDBRANCH  35  38
ENDBRANCH  33  34
ENDBRANCH  32  33
ENDBRANCH  31  32
ENDBRANCH   1  31
TORSDOF 16
ENDMDL
MODEL 3
REMARK VINA RESULT:     -11.9      1.810      2.489
REMARK SMILES O=C(NCCCCCCNC(=O)c1ccc(-c2c3nc(c(-c4c(F)cccc4F)c4ccc([nH]4)c(-c4c(F)cccc4F)c4nc(c(-c5c(F)cccc5F)c5ccc2[nH]5)C=C4)C=C3)cc1)C1=Cc2cc(Cl)cc(C#Cc3ccccc3)c2O[C@@H]1C(F)(F)F
REMARK SMILES IDX 6 1 5 2 4 3 3 4 1 5 2 6 67 8 68 9 85 10 69 11 84 12 70 13
REMARK SMILES IDX 83 14 71 15 74 16 72 17 73 18 86 19 87 20 88 21 89 22 75 23
REMARK SMILES IDX 76 24 77 25 78 26 82 27 79 28 81 29 80 30 7 31 8 32 9 33
REMARK SMILES IDX 10 34 11 35 12 37 13 38 14 39 66 40 15 41 65 42 16 43 17 44
REMARK SMILES IDX 18 45 59 46 19 47 64 48 58 49 60 50 20 51 63 52 57 53 56 54
REMARK SMILES IDX 21 56 47 57 30 58 46 59 31 60 34 61 45 62 61 63 32 64 33 65
REMARK SMILES IDX 44 67 62 68 35 69 22 70 23 71 28 72 24 73 25 74 27 75 29 76
REMARK SMILES IDX 26 77 48 78 49 79 54 80 50 81 51 82 53 83 55 84 52 85 36 86
REMARK SMILES IDX 37 87 42 88 38 89 39 90 41 91 43 92 40 93
REMARK H PARENT 3 7 10 36 60 55 34 66
REMARK Flexibility Score: inf
ROOT
ATOM      1  C   UNL A   1      31.262  28.191  25.630  1.00  0.00     0.002 C 
ENDROOT
BRANCH   1   2
ATOM      2  C   UNL A   1      30.937  26.895  24.890  1.00  0.00     0.021 C 
BRANCH   2   3
ATOM      3  C   UNL A   1      30.026  25.920  25.621  1.00  0.00     0.116 C 
BRANCH   3   4
ATOM      4  N   UNL A   1      30.683  24.873  26.375  1.00  0.00    -0.352 N 
ATOM      5  O   UNL A   1      32.352  23.527  27.026  1.00  0.00    -0.270 OA
ATOM      6  C   UNL A   1      31.917  24.313  26.184  1.00  0.00     0.251 C 
ATOM      7  H   UNL A   1      30.169  24.513  27.132  1.00  0.00     0.163 HD
BRANCH   6   8
ATOM      8  C   UNL A   1      32.813  24.683  25.042  1.00  0.00     0.067 C 
ATOM      9  C   UNL A   1      34.081  25.106  25.193  1.00  0.00     0.025 C 
ATOM     10  C   UNL A   1      32.512  23.838  23.822  1.00  0.00     0.314 C 
ATOM     11  C   UNL A   1      35.062  24.024  24.887  1.00  0.00     0.020 A 
ATOM     12  O   UNL A   1      33.349  22.645  23.830  1.00  0.00    -0.474 OA
ATOM     13  C   UNL A   1      36.350  24.144  25.424  1.00  0.00     0.032 A 
ATOM     14  C   UNL A   1      34.599  22.784  24.396  1.00  0.00     0.143 A 
ATOM     15  C   UNL A   1      37.134  23.004  25.572  1.00  0.00     0.043 A 
ATOM     16  C   UNL A   1      35.364  21.634  24.637  1.00  0.00     0.069 A 
ATOM     17  Cl  UNL A   1      38.638  23.107  26.402  1.00  0.00    -0.084 Cl
ATOM     18  C   UNL A   1      36.642  21.755  25.199  1.00  0.00     0.041 A 
BRANCH  10  19
ATOM     19  C   UNL A   1      32.610  24.652  22.517  1.00  0.00     0.429 C 
ATOM     20  F   UNL A   1      32.993  23.882  21.473  1.00  0.00    -0.167 F 
ATOM     21  F   UNL A   1      31.412  25.194  22.187  1.00  0.00    -0.167 F 
ATOM     22  F   UNL A   1      33.492  25.677  22.603  1.00  0.00    -0.167 F 
ENDBRANCH  10  19
BRANCH  16  23
ATOM     23  C   UNL A   1      34.799  20.313  24.593  1.00  0.00    -0.058 C 
ATOM     24  C   UNL A   1      34.371  19.199  24.739  1.00  0.00    -0.062 C 
BRANCH  24  25
ATOM     25  C   UNL A   1      33.957  17.842  24.950  1.00  0.00     0.025 A 
ATOM     26  C   UNL A   1      32.658  17.528  25.368  1.00  0.00     0.017 A 
ATOM     27  C   UNL A   1      34.891  16.819  24.786  1.00  0.00     0.017 A 
ATOM     28  C   UNL A   1      32.304  16.200  25.628  1.00  0.00     0.001 A 
ATOM     29  C   UNL A   1      34.538  15.493  25.048  1.00  0.00     0.001 A 
ATOM     30  C   UNL A   1      33.247  15.184  25.471  1.00  0.00     0.000 A 
ENDBRANCH  24  25
ENDBRANCH  16  23
ENDBRANCH   6   8
ENDBRANCH   3   4
ENDBRANCH   2   3
ENDBRANCH   1   2
BRANCH   1  31
ATOM     31  C   UNL A   1      31.801  28.049  27.058  1.00  0.00     0.002 C 
BRANCH  31  32
ATOM     32  C   UNL A   1      33.311  28.223  27.243  1.00  0.00     0.021 C 
BRANCH  32  33
ATOM     33  C   UNL A   1      33.975  29.278  26.366  1.00  0.00     0.116 C 
BRANCH  33  34
ATOM     34  N   UNL A   1      33.887  30.613  26.930  1.00  0.00    -0.352 N 
ATOM     35  C   UNL A   1      34.659  31.218  27.888  1.00  0.00     0.251 C 
ATOM     36  H   UNL A   1      33.159  31.169  26.568  1.00  0.00     0.163 HD
ATOM     37  O   UNL A   1      34.315  32.302  28.351  1.00  0.00    -0.269 OA
BRANCH  35  38
ATOM     38  C   UNL A   1      35.893  30.568  28.382  1.00  0.00     0.039 A 
ATOM     39  C   UNL A   1      37.085  30.772  27.681  1.00  0.00     0.014 A 
ATOM     40  C   UNL A   1      35.882  29.738  29.508  1.00  0.00     0.014 A 
ATOM     41  C   UNL A   1      38.269  30.189  28.136  1.00  0.00     0.010 A 
ATOM     42  C   UNL A   1      37.076  29.226  30.008  1.00  0.00     0.010 A 
ATOM     43  C   UNL A   1      38.282  29.436  29.322  1.00  0.00    -0.014 A 
BRANCH  43  44
ATOM     44  C   UNL A   1      39.545  28.858  29.848  1.00  0.00     0.031 A 
ATOM     45  C   UNL A   1      40.197  29.442  31.072  1.00  0.00     0.074 A 
ATOM     46  C   UNL A   1      40.129  27.832  29.196  1.00  0.00     0.049 A 
ATOM     47  N   UNL A   1      41.316  29.097  31.657  1.00  0.00    -0.248 NA
ATOM     48  C   UNL A   1      39.514  30.579  31.710  1.00  0.00     0.031 C 
ATOM     49  C   UNL A   1      39.617  27.202  27.978  1.00  0.00     0.029 A 
ATOM     50  N   UNL A   1      41.284  27.140  29.466  1.00  0.00    -0.354 N 
ATOM     51  C   UNL A   1      41.478  29.982  32.717  1.00  0.00     0.074 A 
ATOM     52  C   UNL A   1      40.371  30.911  32.665  1.00  0.00     0.031 C 
ATOM     53  C   UNL A   1      40.434  26.196  27.625  1.00  0.00     0.029 A 
ATOM     54  C   UNL A   1      41.551  26.140  28.561  1.00  0.00     0.049 A 
ATOM     55  H   UNL A   1      41.866  27.341  30.234  1.00  0.00     0.167 HD
ATOM     56  C   UNL A   1      42.450  30.004  33.660  1.00  0.00     0.037 A 
ATOM     57  C   UNL A   1      42.586  25.281  28.490  1.00  0.00     0.037 A 
ATOM     58  C   UNL A   1      43.538  29.064  33.720  1.00  0.00     0.049 A 
ATOM     59  C   UNL A   1      43.666  25.349  29.536  1.00  0.00     0.074 A 
ATOM     60  C   UNL A   1      44.535  28.961  34.674  1.00  0.00     0.029 A 
ATOM     61  N   UNL A   1      43.778  28.070  32.782  1.00  0.00    -0.354 N 
ATOM     62  N   UNL A   1      43.763  26.138  30.578  1.00  0.00    -0.248 NA
ATOM     63  C   UNL A   1      44.781  24.401  29.396  1.00  0.00     0.031 C 
ATOM     64  C   UNL A   1      45.416  27.950  34.278  1.00  0.00     0.029 A 
ATOM     65  C   UNL A   1      44.928  27.375  33.116  1.00  0.00     0.049 A 
ATOM     66  H   UNL A   1      43.214  27.886  31.997  1.00  0.00     0.167 HD
ATOM     67  C   UNL A   1      44.925  25.758  31.237  1.00  0.00     0.074 A 
ATOM     68  C   UNL A   1      45.491  24.658  30.485  1.00  0.00     0.031 C 
ATOM     69  C   UNL A   1      45.475  26.273  32.365  1.00  0.00     0.037 A 
BRANCH  56  70
ATOM     70  C   UNL A   1      42.390  31.086  34.702  1.00  0.00     0.057 A 
ATOM     71  C   UNL A   1      41.751  30.899  35.935  1.00  0.00     0.134 A 
ATOM     72  C   UNL A   1      43.027  32.316  34.487  1.00  0.00     0.134 A 
ATOM     73  F   UNL A   1      41.113  29.750  36.203  1.00  0.00    -0.206 F 
ATOM     74  C   UNL A   1      41.725  31.903  36.905  1.00  0.00     0.040 A 
ATOM     75  C   UNL A   1      43.035  33.315  35.461  1.00  0.00     0.040 A 
ATOM     76  F   UNL A   1      43.665  32.561  33.332  1.00  0.00    -0.206 F 
ATOM     77  C   UNL A   1      42.377  33.113  36.672  1.00  0.00     0.006 A 
ENDBRANCH  56  70
BRANCH  57  78
ATOM     78  C   UNL A   1      42.651  24.272  27.401  1.00  0.00     0.057 A 
ATOM     79  C   UNL A   1      43.216  24.586  26.158  1.00  0.00     0.134 A 
ATOM     80  C   UNL A   1      42.125  22.984  27.560  1.00  0.00     0.134 A 
ATOM     81  F   UNL A   1      43.722  25.808  25.937  1.00  0.00    -0.206 F 
ATOM     82  C   UNL A   1      43.226  23.670  25.106  1.00  0.00     0.040 A 
ATOM     83  C   UNL A   1      42.156  22.047  26.526  1.00  0.00     0.040 A 
ATOM     84  F   UNL A   1      41.576  22.615  28.726  1.00  0.00    -0.206 F 
ATOM     85  C   UNL A   1      42.698  22.394  25.289  1.00  0.00     0.006 A 
ENDBRANCH  57  78
BRANCH  69  86
ATOM     86  C   UNL A   1      46.725  25.621  32.883  1.00  0.00     0.057 A 
ATOM     87  C   UNL A   1      48.002  26.014  32.461  1.00  0.00     0.134 A 
ATOM     88  C   UNL A   1      46.648  24.608  33.850  1.00  0.00     0.134 A 
ATOM     89  F   UNL A   1      48.146  26.968  31.530  1.00  0.00    -0.206 F 
ATOM     90  C   UNL A   1      49.154  25.404  32.960  1.00  0.00     0.040 A 
ATOM     91  C   UNL A   1      47.795  24.016  34.381  1.00  0.00     0.040 A 
ATOM     92  F   UNL A   1      45.458  24.191  34.307  1.00  0.00    -0.206 F 
ATOM     93  C   UNL A   1      49.053  24.408  33.929  1.00  0.00     0.006 A 
ENDBRANCH  69  86
ENDBRANCH  43  44
ENDBRANCH  35  38
ENDBRANCH  33  34
ENDBRANCH  32  33
ENDBRANCH  31  32
ENDBRANCH   1  31
TORSDOF 16
ENDMDL
