MODEL 1
REMARK VINA RESULT:     -11.0      0.000      0.000
REMARK SMILES C[C@@](NC(=O)c1cc(Br)c[nH]1)(C(=O)NCCCCCCNC(=O)c1ccc(-c2c3nc(c(-c4c(F)cccc4F)c4ccc([nH]4)c(-c4c(F)cccc4F)c4nc(c(-c5c(F)cccc5F)c5ccc2[nH]5)C=C4)C=C3)cc1)C(F)(F)F
REMARK SMILES IDX 17 1 16 2 15 3 14 4 12 5 13 6 2 8 1 9 3 10 4 11 5 13 6 14
REMARK SMILES IDX 7 15 11 16 8 17 10 18 9 20 78 21 79 22 80 23 81 24 18 25
REMARK SMILES IDX 19 26 20 27 21 28 22 29 23 31 24 32 25 33 77 34 26 35 76 36
REMARK SMILES IDX 27 37 28 38 29 39 70 40 30 41 75 42 69 43 71 44 31 45 74 46
REMARK SMILES IDX 68 47 67 48 32 50 58 51 41 52 57 53 42 54 45 55 56 56 72 57
REMARK SMILES IDX 43 58 44 59 55 61 73 62 46 63 33 64 34 65 39 66 35 67 36 68
REMARK SMILES IDX 38 69 40 70 37 71 59 72 60 73 65 74 61 75 62 76 64 77 66 78
REMARK SMILES IDX 63 79 47 80 48 81 53 82 49 83 50 84 52 85 54 86 51 87
REMARK H PARENT 14 7 3 12 11 19 21 30 71 49 45 60
REMARK Flexibility Score: inf
ROOT
ATOM      1  C   UNL A   1      36.947  22.419  24.911  1.00  0.00     0.002 C 
ENDROOT
BRANCH   1   2
ATOM      2  C   UNL A   1      36.091  23.384  25.740  1.00  0.00     0.021 C 
BRANCH   2   3
ATOM      3  C   UNL A   1      35.233  24.338  24.912  1.00  0.00     0.116 C 
BRANCH   3   4
ATOM      4  N   UNL A   1      33.944  24.561  25.541  1.00  0.00    -0.354 N 
ATOM      5  C   UNL A   1      32.675  24.308  25.113  1.00  0.00     0.254 C 
ATOM      6  O   UNL A   1      31.770  24.604  25.897  1.00  0.00    -0.272 OA
ATOM      7  H   UNL A   1      33.995  24.968  26.437  1.00  0.00     0.163 HD
BRANCH   5   8
ATOM      8  C   UNL A   1      32.372  23.797  23.694  1.00  0.00     0.212 C 
ATOM      9  C   UNL A   1      30.839  23.843  23.503  1.00  0.00     0.056 C 
BRANCH   8  10
ATOM     10  N   UNL A   1      32.995  24.607  22.603  1.00  0.00    -0.329 N 
ATOM     11  C   UNL A   1      33.108  25.962  22.420  1.00  0.00     0.268 C 
ATOM     12  H   UNL A   1      33.400  24.068  21.885  1.00  0.00     0.165 HD
ATOM     13  O   UNL A   1      33.972  26.335  21.628  1.00  0.00    -0.268 OA
BRANCH  11  14
ATOM     14  C   UNL A   1      32.134  26.867  22.980  1.00  0.00     0.105 A 
ATOM     15  C   UNL A   1      31.017  27.366  22.319  1.00  0.00     0.049 A 
ATOM     16  N   UNL A   1      32.136  27.457  24.227  1.00  0.00    -0.356 N 
ATOM     17  C   UNL A   1      30.280  28.128  23.239  1.00  0.00     0.036 A 
ATOM     18  C   UNL A   1      30.976  28.166  24.417  1.00  0.00     0.098 A 
ATOM     19  H   UNL A   1      32.865  27.382  24.884  1.00  0.00     0.166 HD
ATOM     20  Br  UNL A   1      28.623  28.916  22.875  1.00  0.00    -0.049 Br
ENDBRANCH  11  14
ENDBRANCH   8  10
BRANCH   8  21
ATOM     21  C   UNL A   1      32.785  22.310  23.616  1.00  0.00     0.420 C 
ATOM     22  F   UNL A   1      34.050  22.128  23.183  1.00  0.00    -0.168 F 
ATOM     23  F   UNL A   1      32.721  21.752  24.856  1.00  0.00    -0.168 F 
ATOM     24  F   UNL A   1      31.958  21.583  22.829  1.00  0.00    -0.168 F 
ENDBRANCH   8  21
ENDBRANCH   5   8
ENDBRANCH   3   4
ENDBRANCH   2   3
ENDBRANCH   1   2
BRANCH   1  25
ATOM     25  C   UNL A   1      36.647  20.930  25.117  1.00  0.00     0.002 C 
BRANCH  25  26
ATOM     26  C   UNL A   1      37.825  19.981  24.896  1.00  0.00     0.021 C 
BRANCH  26  27
ATOM     27  C   UNL A   1      39.055  20.264  25.751  1.00  0.00     0.116 C 
BRANCH  27  28
ATOM     28  N   UNL A   1      40.008  19.168  25.760  1.00  0.00    -0.352 N 
ATOM     29  C   UNL A   1      41.360  19.218  25.997  1.00  0.00     0.251 C 
ATOM     30  H   UNL A   1      39.637  18.275  25.572  1.00  0.00     0.163 HD
ATOM     31  O   UNL A   1      42.059  18.219  25.868  1.00  0.00    -0.269 OA
BRANCH  29  32
ATOM     32  C   UNL A   1      41.974  20.506  26.380  1.00  0.00     0.039 A 
ATOM     33  C   UNL A   1      42.314  21.418  25.377  1.00  0.00     0.014 A 
ATOM     34  C   UNL A   1      42.182  20.821  27.726  1.00  0.00     0.014 A 
ATOM     35  C   UNL A   1      42.806  22.677  25.727  1.00  0.00     0.010 A 
ATOM     36  C   UNL A   1      42.620  22.096  28.074  1.00  0.00     0.010 A 
ATOM     37  C   UNL A   1      42.934  23.035  27.078  1.00  0.00    -0.014 A 
BRANCH  37  38
ATOM     38  C   UNL A   1      43.407  24.382  27.482  1.00  0.00     0.031 A 
ATOM     39  C   UNL A   1      42.412  25.419  27.924  1.00  0.00     0.074 A 
ATOM     40  C   UNL A   1      44.711  24.699  27.366  1.00  0.00     0.049 A 
ATOM     41  N   UNL A   1      42.600  26.687  28.184  1.00  0.00    -0.248 NA
ATOM     42  C   UNL A   1      41.015  24.977  28.062  1.00  0.00     0.031 C 
ATOM     43  C   UNL A   1      45.768  23.794  26.910  1.00  0.00     0.029 A 
ATOM     44  N   UNL A   1      45.367  25.882  27.602  1.00  0.00    -0.354 N 
ATOM     45  C   UNL A   1      41.344  27.201  28.480  1.00  0.00     0.074 A 
ATOM     46  C   UNL A   1      40.397  26.115  28.342  1.00  0.00     0.031 C 
ATOM     47  C   UNL A   1      46.940  24.453  26.908  1.00  0.00     0.029 A 
ATOM     48  C   UNL A   1      46.712  25.833  27.326  1.00  0.00     0.049 A 
ATOM     49  H   UNL A   1      44.915  26.690  27.937  1.00  0.00     0.167 HD
ATOM     50  C   UNL A   1      41.013  28.460  28.848  1.00  0.00     0.037 A 
ATOM     51  C   UNL A   1      47.651  26.795  27.390  1.00  0.00     0.037 A 
ATOM     52  C   UNL A   1      41.963  29.523  29.044  1.00  0.00     0.049 A 
ATOM     53  C   UNL A   1      47.258  28.178  27.831  1.00  0.00     0.074 A 
ATOM     54  C   UNL A   1      41.734  30.808  29.501  1.00  0.00     0.029 A 
ATOM     55  N   UNL A   1      43.323  29.417  28.801  1.00  0.00    -0.354 N 
ATOM     56  N   UNL A   1      46.076  28.632  28.170  1.00  0.00    -0.248 NA
ATOM     57  C   UNL A   1      48.329  29.184  27.900  1.00  0.00     0.031 C 
ATOM     58  C   UNL A   1      42.954  31.492  29.507  1.00  0.00     0.029 A 
ATOM     59  C   UNL A   1      43.945  30.621  29.086  1.00  0.00     0.049 A 
ATOM     60  H   UNL A   1      43.779  28.607  28.476  1.00  0.00     0.167 HD
ATOM     61  C   UNL A   1      46.267  29.962  28.525  1.00  0.00     0.074 A 
ATOM     62  C   UNL A   1      47.679  30.240  28.364  1.00  0.00     0.031 C 
ATOM     63  C   UNL A   1      45.355  30.869  28.946  1.00  0.00     0.037 A 
BRANCH  50  64
ATOM     64  C   UNL A   1      39.564  28.763  29.077  1.00  0.00     0.057 A 
ATOM     65  C   UNL A   1      38.971  28.629  30.338  1.00  0.00     0.134 A 
ATOM     66  C   UNL A   1      38.766  29.249  28.032  1.00  0.00     0.134 A 
ATOM     67  F   UNL A   1      39.679  28.157  31.375  1.00  0.00    -0.206 F 
ATOM     68  C   UNL A   1      37.631  28.956  30.551  1.00  0.00     0.040 A 
ATOM     69  C   UNL A   1      37.431  29.599  28.239  1.00  0.00     0.040 A 
ATOM     70  F   UNL A   1      39.275  29.403  26.801  1.00  0.00    -0.206 F 
ATOM     71  C   UNL A   1      36.859  29.450  29.501  1.00  0.00     0.006 A 
ENDBRANCH  50  64
BRANCH  51  72
ATOM     72  C   UNL A   1      49.062  26.492  27.044  1.00  0.00     0.057 A 
ATOM     73  C   UNL A   1      49.519  26.611  25.725  1.00  0.00     0.134 A 
ATOM     74  C   UNL A   1      49.974  26.044  28.006  1.00  0.00     0.134 A 
ATOM     75  F   UNL A   1      48.686  27.015  24.756  1.00  0.00    -0.206 F 
ATOM     76  C   UNL A   1      50.826  26.273  25.371  1.00  0.00     0.040 A 
ATOM     77  C   UNL A   1      51.289  25.724  27.670  1.00  0.00     0.040 A 
ATOM     78  F   UNL A   1      49.597  25.914  29.286  1.00  0.00    -0.206 F 
ATOM     79  C   UNL A   1      51.716  25.828  26.348  1.00  0.00     0.006 A 
ENDBRANCH  51  72
BRANCH  63  80
ATOM     80  C   UNL A   1      45.859  32.233  29.311  1.00  0.00     0.057 A 
ATOM     81  C   UNL A   1      46.363  32.515  30.585  1.00  0.00     0.134 A 
ATOM     82  C   UNL A   1      45.887  33.258  28.358  1.00  0.00     0.134 A 
ATOM     83  F   UNL A   1      46.353  31.577  31.544  1.00  0.00    -0.206 F 
ATOM     84  C   UNL A   1      46.868  33.776  30.903  1.00  0.00     0.040 A 
ATOM     85  C   UNL A   1      46.407  34.516  28.657  1.00  0.00     0.040 A 
ATOM     86  F   UNL A   1      45.424  33.046  27.117  1.00  0.00    -0.206 F 
ATOM     87  C   UNL A   1      46.897  34.779  29.935  1.00  0.00     0.006 A 
ENDBRANCH  63  80
ENDBRANCH  37  38
ENDBRANCH  29  32
ENDBRANCH  27  28
ENDBRANCH  26  27
ENDBRANCH  25  26
ENDBRANCH   1  25
TORSDOF 16
ENDMDL
MODEL 2
REMARK VINA RESULT:     -10.9      5.220     10.128
REMARK SMILES C[C@@](NC(=O)c1cc(Br)c[nH]1)(C(=O)NCCCCCCNC(=O)c1ccc(-c2c3nc(c(-c4c(F)cccc4F)c4ccc([nH]4)c(-c4c(F)cccc4F)c4nc(c(-c5c(F)cccc5F)c5ccc2[nH]5)C=C4)C=C3)cc1)C(F)(F)F
REMARK SMILES IDX 17 1 16 2 15 3 14 4 12 5 13 6 2 8 1 9 3 10 4 11 5 13 6 14
REMARK SMILES IDX 7 15 11 16 8 17 10 18 9 20 78 21 79 22 80 23 81 24 18 25
REMARK SMILES IDX 19 26 20 27 21 28 22 29 23 31 24 32 25 33 77 34 26 35 76 36
REMARK SMILES IDX 27 37 28 38 29 39 70 40 30 41 75 42 69 43 71 44 31 45 74 46
REMARK SMILES IDX 68 47 67 48 32 50 58 51 41 52 57 53 42 54 45 55 56 56 72 57
REMARK SMILES IDX 43 58 44 59 55 61 73 62 46 63 33 64 34 65 39 66 35 67 36 68
REMARK SMILES IDX 38 69 40 70 37 71 59 72 60 73 65 74 61 75 62 76 64 77 66 78
REMARK SMILES IDX 63 79 47 80 48 81 53 82 49 83 50 84 52 85 54 86 51 87
REMARK H PARENT 14 7 3 12 11 19 21 30 71 49 45 60
REMARK Flexibility Score: inf
ROOT
ATOM      1  C   UNL A   1      32.667  29.708  27.227  1.00  0.00     0.002 C 
ENDROOT
BRANCH   1   2
ATOM      2  C   UNL A   1      33.712  28.786  26.586  1.00  0.00     0.021 C 
BRANCH   2   3
ATOM      3  C   UNL A   1      33.300  27.317  26.515  1.00  0.00     0.116 C 
BRANCH   3   4
ATOM      4  N   UNL A   1      33.845  26.678  25.331  1.00  0.00    -0.354 N 
ATOM      5  C   UNL A   1      33.238  26.055  24.282  1.00  0.00     0.254 C 
ATOM      6  O   UNL A   1      33.988  25.616  23.407  1.00  0.00    -0.272 OA
ATOM      7  H   UNL A   1      34.828  26.698  25.277  1.00  0.00     0.163 HD
BRANCH   5   8
ATOM      8  C   UNL A   1      31.721  25.802  24.241  1.00  0.00     0.212 C 
ATOM      9  C   UNL A   1      31.441  24.859  23.049  1.00  0.00     0.056 C 
BRANCH   8  10
ATOM     10  N   UNL A   1      31.171  25.160  25.473  1.00  0.00    -0.329 N 
ATOM     11  C   UNL A   1      31.585  24.074  26.201  1.00  0.00     0.268 C 
ATOM     12  H   UNL A   1      30.364  25.599  25.828  1.00  0.00     0.165 HD
ATOM     13  O   UNL A   1      31.159  23.993  27.352  1.00  0.00    -0.268 OA
BRANCH  11  14
ATOM     14  C   UNL A   1      32.316  22.999  25.574  1.00  0.00     0.105 A 
ATOM     15  C   UNL A   1      31.804  21.744  25.262  1.00  0.00     0.049 A 
ATOM     16  N   UNL A   1      33.649  22.968  25.219  1.00  0.00    -0.356 N 
ATOM     17  C   UNL A   1      32.803  21.033  24.578  1.00  0.00     0.036 A 
ATOM     18  C   UNL A   1      33.932  21.805  24.547  1.00  0.00     0.098 A 
ATOM     19  H   UNL A   1      34.302  23.677  25.419  1.00  0.00     0.166 HD
ATOM     20  Br  UNL A   1      32.570  19.333  23.834  1.00  0.00    -0.049 Br
ENDBRANCH  11  14
ENDBRANCH   8  10
BRANCH   8  21
ATOM     21  C   UNL A   1      31.016  27.140  23.924  1.00  0.00     0.420 C 
ATOM     22  F   UNL A   1      30.100  27.044  22.939  1.00  0.00    -0.168 F 
ATOM     23  F   UNL A   1      30.348  27.578  25.027  1.00  0.00    -0.168 F 
ATOM     24  F   UNL A   1      31.890  28.121  23.596  1.00  0.00    -0.168 F 
ENDBRANCH   8  21
ENDBRANCH   5   8
ENDBRANCH   3   4
ENDBRANCH   2   3
ENDBRANCH   1   2
BRANCH   1  25
ATOM     25  C   UNL A   1      31.759  30.456  26.244  1.00  0.00     0.002 C 
BRANCH  25  26
ATOM     26  C   UNL A   1      31.458  31.912  26.601  1.00  0.00     0.021 C 
BRANCH  26  27
ATOM     27  C   UNL A   1      32.601  32.664  27.272  1.00  0.00     0.116 C 
BRANCH  27  28
ATOM     28  N   UNL A   1      32.272  34.045  27.580  1.00  0.00    -0.352 N 
ATOM     29  C   UNL A   1      32.898  34.893  28.462  1.00  0.00     0.251 C 
ATOM     30  H   UNL A   1      31.503  34.422  27.095  1.00  0.00     0.163 HD
ATOM     31  O   UNL A   1      32.441  36.007  28.696  1.00  0.00    -0.269 OA
BRANCH  29  32
ATOM     32  C   UNL A   1      34.117  34.432  29.157  1.00  0.00     0.039 A 
ATOM     33  C   UNL A   1      33.989  33.779  30.385  1.00  0.00     0.014 A 
ATOM     34  C   UNL A   1      35.376  34.619  28.581  1.00  0.00     0.014 A 
ATOM     35  C   UNL A   1      35.123  33.254  31.009  1.00  0.00     0.010 A 
ATOM     36  C   UNL A   1      36.497  34.046  29.175  1.00  0.00     0.010 A 
ATOM     37  C   UNL A   1      36.380  33.358  30.393  1.00  0.00    -0.014 A 
BRANCH  37  38
ATOM     38  C   UNL A   1      37.596  32.767  31.006  1.00  0.00     0.031 A 
ATOM     39  C   UNL A   1      38.240  31.566  30.372  1.00  0.00     0.074 A 
ATOM     40  C   UNL A   1      38.062  33.250  32.174  1.00  0.00     0.049 A 
ATOM     41  N   UNL A   1      39.217  30.820  30.818  1.00  0.00    -0.248 NA
ATOM     42  C   UNL A   1      37.692  31.128  29.077  1.00  0.00     0.031 C 
ATOM     43  C   UNL A   1      37.499  34.384  32.909  1.00  0.00     0.029 A 
ATOM     44  N   UNL A   1      39.107  32.831  32.960  1.00  0.00    -0.354 N 
ATOM     45  C   UNL A   1      39.377  29.807  29.880  1.00  0.00     0.074 A 
ATOM     46  C   UNL A   1      38.379  30.017  28.854  1.00  0.00     0.031 C 
ATOM     47  C   UNL A   1      38.210  34.575  34.034  1.00  0.00     0.029 A 
ATOM     48  C   UNL A   1      39.254  33.557  34.117  1.00  0.00     0.049 A 
ATOM     49  H   UNL A   1      39.696  32.080  32.717  1.00  0.00     0.167 HD
ATOM     50  C   UNL A   1      40.284  28.803  29.870  1.00  0.00     0.037 A 
ATOM     51  C   UNL A   1      40.122  33.409  35.135  1.00  0.00     0.037 A 
ATOM     52  C   UNL A   1      41.314  28.631  30.860  1.00  0.00     0.049 A 
ATOM     53  C   UNL A   1      41.137  32.301  35.080  1.00  0.00     0.074 A 
ATOM     54  C   UNL A   1      42.332  27.696  30.888  1.00  0.00     0.029 A 
ATOM     55  N   UNL A   1      41.458  29.418  31.991  1.00  0.00    -0.354 N 
ATOM     56  N   UNL A   1      41.317  31.390  34.155  1.00  0.00    -0.248 NA
ATOM     57  C   UNL A   1      42.071  32.199  36.212  1.00  0.00     0.031 C 
ATOM     58  C   UNL A   1      43.078  27.899  32.053  1.00  0.00     0.029 A 
ATOM     59  C   UNL A   1      42.542  28.981  32.732  1.00  0.00     0.049 A 
ATOM     60  H   UNL A   1      40.877  30.176  32.231  1.00  0.00     0.167 HD
ATOM     61  C   UNL A   1      42.403  30.632  34.574  1.00  0.00     0.074 A 
ATOM     62  C   UNL A   1      42.844  31.192  35.835  1.00  0.00     0.031 C 
ATOM     63  C   UNL A   1      42.982  29.569  33.969  1.00  0.00     0.037 A 
BRANCH  50  64
ATOM     64  C   UNL A   1      40.215  27.812  28.749  1.00  0.00     0.057 A 
ATOM     65  C   UNL A   1      40.887  28.020  27.538  1.00  0.00     0.134 A 
ATOM     66  C   UNL A   1      39.513  26.610  28.904  1.00  0.00     0.134 A 
ATOM     67  F   UNL A   1      41.566  29.156  27.324  1.00  0.00    -0.206 F 
ATOM     68  C   UNL A   1      40.854  27.070  26.515  1.00  0.00     0.040 A 
ATOM     69  C   UNL A   1      39.490  25.644  27.897  1.00  0.00     0.040 A 
ATOM     70  F   UNL A   1      38.851  26.349  30.041  1.00  0.00    -0.206 F 
ATOM     71  C   UNL A   1      40.160  25.875  26.697  1.00  0.00     0.006 A 
ENDBRANCH  50  64
BRANCH  51  72
ATOM     72  C   UNL A   1      40.088  34.338  36.291  1.00  0.00     0.057 A 
ATOM     73  C   UNL A   1      39.346  34.030  37.439  1.00  0.00     0.134 A 
ATOM     74  C   UNL A   1      40.762  35.565  36.267  1.00  0.00     0.134 A 
ATOM     75  F   UNL A   1      38.663  32.880  37.511  1.00  0.00    -0.206 F 
ATOM     76  C   UNL A   1      39.255  34.920  38.510  1.00  0.00     0.040 A 
ATOM     77  C   UNL A   1      40.698  36.453  37.341  1.00  0.00     0.040 A 
ATOM     78  F   UNL A   1      41.493  35.914  35.199  1.00  0.00    -0.206 F 
ATOM     79  C   UNL A   1      39.934  36.136  38.463  1.00  0.00     0.006 A 
ENDBRANCH  51  72
BRANCH  63  80
ATOM     80  C   UNL A   1      44.186  28.971  34.632  1.00  0.00     0.057 A 
ATOM     81  C   UNL A   1      44.078  27.910  35.537  1.00  0.00     0.134 A 
ATOM     82  C   UNL A   1      45.470  29.432  34.318  1.00  0.00     0.134 A 
ATOM     83  F   UNL A   1      42.874  27.433  35.886  1.00  0.00    -0.206 F 
ATOM     84  C   UNL A   1      45.209  27.334  36.117  1.00  0.00     0.040 A 
ATOM     85  C   UNL A   1      46.608  28.851  34.875  1.00  0.00     0.040 A 
ATOM     86  F   UNL A   1      45.638  30.442  33.451  1.00  0.00    -0.206 F 
ATOM     87  C   UNL A   1      46.479  27.800  35.782  1.00  0.00     0.006 A 
ENDBRANCH  63  80
ENDBRANCH  37  38
ENDBRANCH  29  32
ENDBRANCH  27  28
ENDBRANCH  26  27
ENDBRANCH  25  26
ENDBRANCH   1  25
TORSDOF 16
ENDMDL
MODEL 3
REMARK VINA RESULT:     -10.9      5.415     10.296
REMARK SMILES C[C@@](NC(=O)c1cc(Br)c[nH]1)(C(=O)NCCCCCCNC(=O)c1ccc(-c2c3nc(c(-c4c(F)cccc4F)c4ccc([nH]4)c(-c4c(F)cccc4F)c4nc(c(-c5c(F)cccc5F)c5ccc2[nH]5)C=C4)C=C3)cc1)C(F)(F)F
REMARK SMILES IDX 17 1 16 2 15 3 14 4 12 5 13 6 2 8 1 9 3 10 4 11 5 13 6 14
REMARK SMILES IDX 7 15 11 16 8 17 10 18 9 20 78 21 79 22 80 23 81 24 18 25
REMARK SMILES IDX 19 26 20 27 21 28 22 29 23 31 24 32 25 33 77 34 26 35 76 36
REMARK SMILES IDX 27 37 28 38 29 39 70 40 30 41 75 42 69 43 71 44 31 45 74 46
REMARK SMILES IDX 68 47 67 48 32 50 58 51 41 52 57 53 42 54 45 55 56 56 72 57
REMARK SMILES IDX 43 58 44 59 55 61 73 62 46 63 33 64 34 65 39 66 35 67 36 68
REMARK SMILES IDX 38 69 40 70 37 71 59 72 60 73 65 74 61 75 62 76 64 77 66 78
REMARK SMILES IDX 63 79 47 80 48 81 53 82 49 83 50 84 52 85 54 86 51 87
REMARK H PARENT 14 7 3 12 11 19 21 30 71 49 45 60
REMARK Flexibility Score: inf
ROOT
ATOM      1  C   UNL A   1      32.896  29.740  27.146  1.00  0.00     0.002 C 
ENDROOT
BRANCH   1   2
ATOM      2  C   UNL A   1      33.812  28.765  26.397  1.00  0.00     0.021 C 
BRANCH   2   3
ATOM      3  C   UNL A   1      33.348  27.310  26.429  1.00  0.00     0.116 C 
BRANCH   3   4
ATOM      4  N   UNL A   1      33.789  26.594  25.246  1.00  0.00    -0.354 N 
ATOM      5  C   UNL A   1      33.095  25.894  24.305  1.00  0.00     0.254 C 
ATOM      6  O   UNL A   1      33.766  25.401  23.395  1.00  0.00    -0.272 OA
ATOM      7  H   UNL A   1      34.762  26.619  25.097  1.00  0.00     0.163 HD
BRANCH   5   8
ATOM      8  C   UNL A   1      31.585  25.626  24.425  1.00  0.00     0.212 C 
ATOM      9  C   UNL A   1      31.180  24.719  23.242  1.00  0.00     0.056 C 
BRANCH   8  10
ATOM     10  N   UNL A   1      31.182  24.939  25.690  1.00  0.00    -0.329 N 
ATOM     11  C   UNL A   1      31.697  23.848  26.343  1.00  0.00     0.268 C 
ATOM     12  H   UNL A   1      30.404  25.345  26.137  1.00  0.00     0.165 HD
ATOM     13  O   UNL A   1      31.394  23.727  27.528  1.00  0.00    -0.268 OA
BRANCH  11  14
ATOM     14  C   UNL A   1      32.390  22.811  25.616  1.00  0.00     0.105 A 
ATOM     15  C   UNL A   1      31.839  21.601  25.208  1.00  0.00     0.049 A 
ATOM     16  N   UNL A   1      33.716  22.775  25.237  1.00  0.00    -0.356 N 
ATOM     17  C   UNL A   1      32.807  20.924  24.451  1.00  0.00     0.036 A 
ATOM     18  C   UNL A   1      33.957  21.665  24.466  1.00  0.00     0.098 A 
ATOM     19  H   UNL A   1      34.391  23.447  25.486  1.00  0.00     0.166 HD
ATOM     20  Br  UNL A   1      32.517  19.298  23.571  1.00  0.00    -0.049 Br
ENDBRANCH  11  14
ENDBRANCH   8  10
BRANCH   8  21
ATOM     21  C   UNL A   1      30.839  26.966  24.235  1.00  0.00     0.420 C 
ATOM     22  F   UNL A   1      29.661  26.837  23.589  1.00  0.00    -0.168 F 
ATOM     23  F   UNL A   1      30.552  27.507  25.451  1.00  0.00    -0.168 F 
ATOM     24  F   UNL A   1      31.584  27.885  23.577  1.00  0.00    -0.168 F 
ENDBRANCH   8  21
ENDBRANCH   5   8
ENDBRANCH   3   4
ENDBRANCH   2   3
ENDBRANCH   1   2
BRANCH   1  25
ATOM     25  C   UNL A   1      31.846  30.450  26.285  1.00  0.00     0.002 C 
BRANCH  25  26
ATOM     26  C   UNL A   1      31.510  31.884  26.700  1.00  0.00     0.021 C 
BRANCH  26  27
ATOM     27  C   UNL A   1      32.675  32.682  27.273  1.00  0.00     0.116 C 
BRANCH  27  28
ATOM     28  N   UNL A   1      32.334  34.065  27.556  1.00  0.00    -0.352 N 
ATOM     29  C   UNL A   1      32.924  34.920  28.454  1.00  0.00     0.251 C 
ATOM     30  H   UNL A   1      31.584  34.438  27.037  1.00  0.00     0.163 HD
ATOM     31  O   UNL A   1      32.459  36.037  28.660  1.00  0.00    -0.269 OA
BRANCH  29  32
ATOM     32  C   UNL A   1      34.115  34.466  29.201  1.00  0.00     0.039 A 
ATOM     33  C   UNL A   1      33.943  33.893  30.463  1.00  0.00     0.014 A 
ATOM     34  C   UNL A   1      35.390  34.580  28.641  1.00  0.00     0.014 A 
ATOM     35  C   UNL A   1      35.048  33.373  31.141  1.00  0.00     0.010 A 
ATOM     36  C   UNL A   1      36.481  34.011  29.292  1.00  0.00     0.010 A 
ATOM     37  C   UNL A   1      36.319  33.401  30.546  1.00  0.00    -0.014 A 
BRANCH  37  38
ATOM     38  C   UNL A   1      37.504  32.812  31.219  1.00  0.00     0.031 A 
ATOM     39  C   UNL A   1      38.196  31.628  30.605  1.00  0.00     0.074 A 
ATOM     40  C   UNL A   1      37.898  33.281  32.418  1.00  0.00     0.049 A 
ATOM     41  N   UNL A   1      39.154  30.884  31.095  1.00  0.00    -0.248 NA
ATOM     42  C   UNL A   1      37.728  31.205  29.275  1.00  0.00     0.031 C 
ATOM     43  C   UNL A   1      37.282  34.399  33.138  1.00  0.00     0.029 A 
ATOM     44  N   UNL A   1      38.901  32.860  33.257  1.00  0.00    -0.354 N 
ATOM     45  C   UNL A   1      39.377  29.888  30.153  1.00  0.00     0.074 A 
ATOM     46  C   UNL A   1      38.438  30.105  29.074  1.00  0.00     0.031 C 
ATOM     47  C   UNL A   1      37.926  34.579  34.304  1.00  0.00     0.029 A 
ATOM     48  C   UNL A   1      38.973  33.570  34.431  1.00  0.00     0.049 A 
ATOM     49  H   UNL A   1      39.510  32.119  33.037  1.00  0.00     0.167 HD
ATOM     50  C   UNL A   1      40.293  28.893  30.179  1.00  0.00     0.037 A 
ATOM     51  C   UNL A   1      39.784  33.414  35.495  1.00  0.00     0.037 A 
ATOM     52  C   UNL A   1      41.267  28.715  31.224  1.00  0.00     0.049 A 
ATOM     53  C   UNL A   1      40.812  32.316  35.482  1.00  0.00     0.074 A 
ATOM     54  C   UNL A   1      42.292  27.789  31.296  1.00  0.00     0.029 A 
ATOM     55  N   UNL A   1      41.338  29.486  32.373  1.00  0.00    -0.354 N 
ATOM     56  N   UNL A   1      41.053  31.422  34.555  1.00  0.00    -0.248 NA
ATOM     57  C   UNL A   1      41.681  32.206  36.664  1.00  0.00     0.031 C 
ATOM     58  C   UNL A   1      42.968  27.981  32.505  1.00  0.00     0.029 A 
ATOM     59  C   UNL A   1      42.383  29.047  33.168  1.00  0.00     0.049 A 
ATOM     60  H   UNL A   1      40.736  30.234  32.591  1.00  0.00     0.167 HD
ATOM     61  C   UNL A   1      42.121  30.668  35.024  1.00  0.00     0.074 A 
ATOM     62  C   UNL A   1      42.484  31.212  36.316  1.00  0.00     0.031 C 
ATOM     63  C   UNL A   1      42.745  29.620  34.437  1.00  0.00     0.037 A 
BRANCH  50  64
ATOM     64  C   UNL A   1      40.299  27.919  29.041  1.00  0.00     0.057 A 
ATOM     65  C   UNL A   1      39.541  26.741  29.073  1.00  0.00     0.134 A 
ATOM     66  C   UNL A   1      41.027  28.191  27.875  1.00  0.00     0.134 A 
ATOM     67  F   UNL A   1      38.833  26.419  30.165  1.00  0.00    -0.206 F 
ATOM     68  C   UNL A   1      39.517  25.862  27.989  1.00  0.00     0.040 A 
ATOM     69  C   UNL A   1      40.994  27.330  26.778  1.00  0.00     0.040 A 
ATOM     70  F   UNL A   1      41.770  29.304  27.781  1.00  0.00    -0.206 F 
ATOM     71  C   UNL A   1      40.239  26.159  26.835  1.00  0.00     0.006 A 
ENDBRANCH  50  64
BRANCH  51  72
ATOM     72  C   UNL A   1      39.674  34.325  36.661  1.00  0.00     0.057 A 
ATOM     73  C   UNL A   1      40.357  35.548  36.685  1.00  0.00     0.134 A 
ATOM     74  C   UNL A   1      38.920  33.984  37.789  1.00  0.00     0.134 A 
ATOM     75  F   UNL A   1      41.113  35.919  35.642  1.00  0.00    -0.206 F 
ATOM     76  C   UNL A   1      40.312  36.388  37.799  1.00  0.00     0.040 A 
ATOM     77  C   UNL A   1      38.848  34.825  38.900  1.00  0.00     0.040 A 
ATOM     78  F   UNL A   1      38.240  32.828  37.825  1.00  0.00    -0.206 F 
ATOM     79  C   UNL A   1      39.554  36.026  38.911  1.00  0.00     0.006 A 
ENDBRANCH  51  72
BRANCH  63  80
ATOM     80  C   UNL A   1      43.915  29.023  35.159  1.00  0.00     0.057 A 
ATOM     81  C   UNL A   1      45.221  29.480  34.950  1.00  0.00     0.134 A 
ATOM     82  C   UNL A   1      43.722  28.016  36.112  1.00  0.00     0.134 A 
ATOM     83  F   UNL A   1      45.470  30.434  34.041  1.00  0.00    -0.206 F 
ATOM     84  C   UNL A   1      46.298  28.945  35.658  1.00  0.00     0.040 A 
ATOM     85  C   UNL A   1      44.788  27.488  36.840  1.00  0.00     0.040 A 
ATOM     86  F   UNL A   1      42.492  27.541  36.362  1.00  0.00    -0.206 F 
ATOM     87  C   UNL A   1      46.082  27.952  36.610  1.00  0.00     0.006 A 
ENDBRANCH  63  80
ENDBRANCH  37  38
ENDBRANCH  29  32
ENDBRANCH  27  28
ENDBRANCH  26  27
ENDBRANCH  25  26
ENDBRANCH   1  25
TORSDOF 16
ENDMDL
