MODEL 1
REMARK VINA RESULT:     -12.1      0.000      0.000
REMARK SMILES CC(C)CCc1cc2c(cc1Cl)C=C(C(=O)NCCCCCCNC(=O)c1ccc(-c3c4nc(c(-c5c(F)cccc5F)c5ccc([nH]5)c(-c5c(F)cccc5F)c5nc(c(-c6c(F)cccc6F)c6ccc3[nH]6)C=C5)C=C4)cc1)[C@@H](C(F)(F)F)O2
REMARK SMILES IDX 20 1 19 2 18 3 17 4 15 5 16 6 14 8 6 9 7 10 11 11 8 12 10 13
REMARK SMILES IDX 12 14 9 15 86 16 13 17 81 18 5 19 4 20 2 21 1 22 3 23 82 24
REMARK SMILES IDX 83 25 84 26 85 27 21 28 22 29 23 30 24 31 25 32 26 34 27 35
REMARK SMILES IDX 28 36 80 37 29 38 79 39 30 40 31 41 32 42 73 43 33 44 78 45
REMARK SMILES IDX 72 46 74 47 34 48 77 49 71 50 70 51 35 53 61 54 44 55 60 56
REMARK SMILES IDX 45 57 48 58 59 59 75 60 46 61 47 62 58 64 76 65 49 66 36 67
REMARK SMILES IDX 37 68 42 69 38 70 39 71 41 72 43 73 40 74 62 75 63 76 68 77
REMARK SMILES IDX 64 78 65 79 67 80 69 81 66 82 50 83 51 84 56 85 52 86 53 87
REMARK SMILES IDX 55 88 57 89 54 90
REMARK H PARENT 17 7 24 33 74 52 48 63
REMARK Flexibility Score: inf
ROOT
ATOM      1  C   UNL A   1      37.010  22.147  23.946  1.00  0.00     0.002 C 
ENDROOT
BRANCH   1   2
ATOM      2  C   UNL A   1      35.996  23.288  24.051  1.00  0.00     0.021 C 
BRANCH   2   3
ATOM      3  C   UNL A   1      35.977  24.000  25.399  1.00  0.00     0.116 C 
BRANCH   3   4
ATOM      4  N   UNL A   1      34.881  23.564  26.248  1.00  0.00    -0.352 N 
ATOM      5  C   UNL A   1      33.557  23.835  26.368  1.00  0.00     0.251 C 
ATOM      6  O   UNL A   1      32.958  23.184  27.228  1.00  0.00    -0.270 OA
ATOM      7  H   UNL A   1      35.176  22.898  26.911  1.00  0.00     0.163 HD
BRANCH   5   8
ATOM      8  C   UNL A   1      32.809  24.844  25.558  1.00  0.00     0.067 C 
ATOM      9  C   UNL A   1      30.828  29.154  23.783  1.00  0.00    -0.026 A 
ATOM     10  C   UNL A   1      30.907  27.828  23.348  1.00  0.00     0.052 A 
ATOM     11  C   UNL A   1      31.280  29.428  25.084  1.00  0.00     0.045 A 
ATOM     12  C   UNL A   1      31.532  26.847  24.104  1.00  0.00     0.128 A 
ATOM     13  C   UNL A   1      31.852  28.416  25.879  1.00  0.00     0.032 A 
ATOM     14  Cl  UNL A   1      31.165  31.005  25.780  1.00  0.00    -0.084 Cl
ATOM     15  C   UNL A   1      32.011  27.121  25.374  1.00  0.00     0.019 A 
ATOM     16  O   UNL A   1      31.672  25.659  23.469  1.00  0.00    -0.475 OA
ATOM     17  C   UNL A   1      32.694  26.067  26.112  1.00  0.00     0.025 C 
ATOM     18  C   UNL A   1      32.198  24.541  24.216  1.00  0.00     0.314 C 
BRANCH   9  19
ATOM     19  C   UNL A   1      30.277  30.180  22.816  1.00  0.00     0.037 C 
BRANCH  19  20
ATOM     20  C   UNL A   1      29.076  29.693  21.972  1.00  0.00     0.008 C 
BRANCH  20  21
ATOM     21  C   UNL A   1      27.653  29.937  22.531  1.00  0.00    -0.017 C 
ATOM     22  C   UNL A   1      27.059  28.707  23.225  1.00  0.00     0.007 C 
ATOM     23  C   UNL A   1      27.653  31.115  23.510  1.00  0.00     0.007 C 
ENDBRANCH  20  21
ENDBRANCH  19  20
ENDBRANCH   9  19
BRANCH  18  24
ATOM     24  C   UNL A   1      31.086  23.482  24.256  1.00  0.00     0.429 C 
ATOM     25  F   UNL A   1      30.259  23.636  23.190  1.00  0.00    -0.167 F 
ATOM     26  F   UNL A   1      31.548  22.215  24.197  1.00  0.00    -0.167 F 
ATOM     27  F   UNL A   1      30.328  23.580  25.372  1.00  0.00    -0.167 F 
ENDBRANCH  18  24
ENDBRANCH   5   8
ENDBRANCH   3   4
ENDBRANCH   2   3
ENDBRANCH   1   2
BRANCH   1  28
ATOM     28  C   UNL A   1      36.849  21.016  24.968  1.00  0.00     0.002 C 
BRANCH  28  29
ATOM     29  C   UNL A   1      37.948  19.951  24.971  1.00  0.00     0.021 C 
BRANCH  29  30
ATOM     30  C   UNL A   1      39.199  20.307  25.767  1.00  0.00     0.116 C 
BRANCH  30  31
ATOM     31  N   UNL A   1      40.125  19.195  25.890  1.00  0.00    -0.352 N 
ATOM     32  C   UNL A   1      41.478  19.213  26.127  1.00  0.00     0.251 C 
ATOM     33  H   UNL A   1      39.727  18.300  25.788  1.00  0.00     0.163 HD
ATOM     34  O   UNL A   1      42.134  18.177  26.063  1.00  0.00    -0.269 OA
BRANCH  32  35
ATOM     35  C   UNL A   1      42.153  20.495  26.424  1.00  0.00     0.039 A 
ATOM     36  C   UNL A   1      42.199  20.991  27.729  1.00  0.00     0.014 A 
ATOM     37  C   UNL A   1      42.722  21.222  25.375  1.00  0.00     0.014 A 
ATOM     38  C   UNL A   1      42.666  22.282  27.959  1.00  0.00     0.010 A 
ATOM     39  C   UNL A   1      43.261  22.487  25.621  1.00  0.00     0.010 A 
ATOM     40  C   UNL A   1      43.191  23.048  26.906  1.00  0.00    -0.014 A 
BRANCH  40  41
ATOM     41  C   UNL A   1      43.636  24.442  27.165  1.00  0.00     0.031 A 
ATOM     42  C   UNL A   1      42.651  25.488  27.618  1.00  0.00     0.074 A 
ATOM     43  C   UNL A   1      44.940  24.754  27.043  1.00  0.00     0.049 A 
ATOM     44  N   UNL A   1      42.858  26.751  27.898  1.00  0.00    -0.248 NA
ATOM     45  C   UNL A   1      41.252  25.061  27.775  1.00  0.00     0.031 C 
ATOM     46  C   UNL A   1      45.994  23.828  26.624  1.00  0.00     0.029 A 
ATOM     47  N   UNL A   1      45.604  25.931  27.280  1.00  0.00    -0.354 N 
ATOM     48  C   UNL A   1      41.617  27.272  28.244  1.00  0.00     0.074 A 
ATOM     49  C   UNL A   1      40.657  26.197  28.113  1.00  0.00     0.031 C 
ATOM     50  C   UNL A   1      47.178  24.458  26.677  1.00  0.00     0.029 A 
ATOM     51  C   UNL A   1      46.959  25.845  27.075  1.00  0.00     0.049 A 
ATOM     52  H   UNL A   1      45.153  26.756  27.567  1.00  0.00     0.167 HD
ATOM     53  C   UNL A   1      41.307  28.528  28.649  1.00  0.00     0.037 A 
ATOM     54  C   UNL A   1      47.919  26.784  27.180  1.00  0.00     0.037 A 
ATOM     55  C   UNL A   1      42.264  29.594  28.799  1.00  0.00     0.049 A 
ATOM     56  C   UNL A   1      47.537  28.179  27.582  1.00  0.00     0.074 A 
ATOM     57  C   UNL A   1      42.049  30.894  29.224  1.00  0.00     0.029 A 
ATOM     58  N   UNL A   1      43.619  29.481  28.529  1.00  0.00    -0.354 N 
ATOM     59  N   UNL A   1      46.362  28.653  27.916  1.00  0.00    -0.248 NA
ATOM     60  C   UNL A   1      48.619  29.174  27.609  1.00  0.00     0.031 C 
ATOM     61  C   UNL A   1      43.269  31.578  29.176  1.00  0.00     0.029 A 
ATOM     62  C   UNL A   1      44.250  30.693  28.760  1.00  0.00     0.049 A 
ATOM     63  H   UNL A   1      44.066  28.661  28.220  1.00  0.00     0.167 HD
ATOM     64  C   UNL A   1      46.563  29.995  28.206  1.00  0.00     0.074 A 
ATOM     65  C   UNL A   1      47.978  30.254  28.031  1.00  0.00     0.031 C 
ATOM     66  C   UNL A   1      45.658  30.932  28.576  1.00  0.00     0.037 A 
BRANCH  53  67
ATOM     67  C   UNL A   1      39.865  28.823  28.942  1.00  0.00     0.057 A 
ATOM     68  C   UNL A   1      39.353  28.669  30.238  1.00  0.00     0.134 A 
ATOM     69  C   UNL A   1      38.974  29.231  27.941  1.00  0.00     0.134 A 
ATOM     70  F   UNL A   1      40.151  28.277  31.242  1.00  0.00    -0.206 F 
ATOM     71  C   UNL A   1      38.008  28.910  30.526  1.00  0.00     0.040 A 
ATOM     72  C   UNL A   1      37.632  29.496  28.220  1.00  0.00     0.040 A 
ATOM     73  F   UNL A   1      39.403  29.410  26.683  1.00  0.00    -0.206 F 
ATOM     74  C   UNL A   1      37.145  29.331  29.516  1.00  0.00     0.006 A 
ENDBRANCH  53  67
BRANCH  54  75
ATOM     75  C   UNL A   1      49.331  26.441  26.887  1.00  0.00     0.057 A 
ATOM     76  C   UNL A   1      49.838  26.493  25.582  1.00  0.00     0.134 A 
ATOM     77  C   UNL A   1      50.214  26.076  27.909  1.00  0.00     0.134 A 
ATOM     78  F   UNL A   1      49.040  26.833  24.560  1.00  0.00    -0.206 F 
ATOM     79  C   UNL A   1      51.169  26.186  25.304  1.00  0.00     0.040 A 
ATOM     80  C   UNL A   1      51.556  25.791  27.648  1.00  0.00     0.040 A 
ATOM     81  F   UNL A   1      49.792  26.028  29.181  1.00  0.00    -0.206 F 
ATOM     82  C   UNL A   1      52.035  25.842  26.340  1.00  0.00     0.006 A 
ENDBRANCH  54  75
BRANCH  66  83
ATOM     83  C   UNL A   1      46.182  32.314  28.834  1.00  0.00     0.057 A 
ATOM     84  C   UNL A   1      46.230  33.264  27.807  1.00  0.00     0.134 A 
ATOM     85  C   UNL A   1      46.644  32.700  30.099  1.00  0.00     0.134 A 
ATOM     86  F   UNL A   1      45.808  32.954  26.571  1.00  0.00    -0.206 F 
ATOM     87  C   UNL A   1      46.715  34.553  28.030  1.00  0.00     0.040 A 
ATOM     88  C   UNL A   1      47.109  33.993  30.340  1.00  0.00     0.040 A 
ATOM     89  F   UNL A   1      46.607  31.840  31.128  1.00  0.00    -0.206 F 
ATOM     90  C   UNL A   1      47.149  34.923  29.302  1.00  0.00     0.006 A 
ENDBRANCH  66  83
ENDBRANCH  40  41
ENDBRANCH  32  35
ENDBRANCH  30  31
ENDBRANCH  29  30
ENDBRANCH  28  29
ENDBRANCH   1  28
TORSDOF 17
ENDMDL
MODEL 2
REMARK VINA RESULT:     -12.0      1.459      6.070
REMARK SMILES CC(C)CCc1cc2c(cc1Cl)C=C(C(=O)NCCCCCCNC(=O)c1ccc(-c3c4nc(c(-c5c(F)cccc5F)c5ccc([nH]5)c(-c5c(F)cccc5F)c5nc(c(-c6c(F)cccc6F)c6ccc3[nH]6)C=C5)C=C4)cc1)[C@@H](C(F)(F)F)O2
REMARK SMILES IDX 20 1 19 2 18 3 17 4 15 5 16 6 14 8 6 9 7 10 11 11 8 12 10 13
REMARK SMILES IDX 12 14 9 15 86 16 13 17 81 18 5 19 4 20 2 21 1 22 3 23 82 24
REMARK SMILES IDX 83 25 84 26 85 27 21 28 22 29 23 30 24 31 25 32 26 34 27 35
REMARK SMILES IDX 28 36 80 37 29 38 79 39 30 40 31 41 32 42 73 43 33 44 78 45
REMARK SMILES IDX 72 46 74 47 34 48 77 49 71 50 70 51 35 53 61 54 44 55 60 56
REMARK SMILES IDX 45 57 48 58 59 59 75 60 46 61 47 62 58 64 76 65 49 66 36 67
REMARK SMILES IDX 37 68 42 69 38 70 39 71 41 72 43 73 40 74 62 75 63 76 68 77
REMARK SMILES IDX 64 78 65 79 67 80 69 81 66 82 50 83 51 84 56 85 52 86 53 87
REMARK SMILES IDX 55 88 57 89 54 90
REMARK H PARENT 17 7 24 33 74 52 48 63
REMARK Flexibility Score: inf
ROOT
ATOM      1  C   UNL A   1      36.671  22.395  23.784  1.00  0.00     0.002 C 
ENDROOT
BRANCH   1   2
ATOM      2  C   UNL A   1      35.879  23.650  24.154  1.00  0.00     0.021 C 
BRANCH   2   3
ATOM      3  C   UNL A   1      35.987  24.061  25.619  1.00  0.00     0.116 C 
BRANCH   3   4
ATOM      4  N   UNL A   1      34.867  23.591  26.418  1.00  0.00    -0.352 N 
ATOM      5  C   UNL A   1      33.525  23.783  26.445  1.00  0.00     0.251 C 
ATOM      6  O   UNL A   1      32.912  23.129  27.295  1.00  0.00    -0.270 OA
ATOM      7  H   UNL A   1      35.160  22.972  27.125  1.00  0.00     0.163 HD
BRANCH   5   8
ATOM      8  C   UNL A   1      32.770  24.711  25.548  1.00  0.00     0.067 C 
ATOM      9  C   UNL A   1      30.697  28.823  23.442  1.00  0.00    -0.026 A 
ATOM     10  C   UNL A   1      30.841  27.478  23.093  1.00  0.00     0.052 A 
ATOM     11  C   UNL A   1      31.090  29.193  24.739  1.00  0.00     0.045 A 
ATOM     12  C   UNL A   1      31.474  26.569  23.930  1.00  0.00     0.128 A 
ATOM     13  C   UNL A   1      31.670  28.255  25.614  1.00  0.00     0.032 A 
ATOM     14  Cl  UNL A   1      30.891  30.804  25.330  1.00  0.00    -0.084 Cl
ATOM     15  C   UNL A   1      31.896  26.939  25.196  1.00  0.00     0.019 A 
ATOM     16  O   UNL A   1      31.682  25.351  23.376  1.00  0.00    -0.475 OA
ATOM     17  C   UNL A   1      32.589  25.960  26.022  1.00  0.00     0.025 C 
ATOM     18  C   UNL A   1      32.221  24.302  24.208  1.00  0.00     0.314 C 
BRANCH   9  19
ATOM     19  C   UNL A   1      30.144  29.765  22.394  1.00  0.00     0.037 C 
BRANCH  19  20
ATOM     20  C   UNL A   1      28.627  29.622  22.131  1.00  0.00     0.008 C 
BRANCH  20  21
ATOM     21  C   UNL A   1      27.754  30.898  22.216  1.00  0.00    -0.017 C 
ATOM     22  C   UNL A   1      27.607  31.432  23.644  1.00  0.00     0.007 C 
ATOM     23  C   UNL A   1      28.325  32.002  21.323  1.00  0.00     0.007 C 
ENDBRANCH  20  21
ENDBRANCH  19  20
ENDBRANCH   9  19
BRANCH  18  24
ATOM     24  C   UNL A   1      31.148  23.205  24.275  1.00  0.00     0.429 C 
ATOM     25  F   UNL A   1      30.323  23.294  23.200  1.00  0.00    -0.167 F 
ATOM     26  F   UNL A   1      31.656  21.955  24.260  1.00  0.00    -0.167 F 
ATOM     27  F   UNL A   1      30.379  23.310  25.383  1.00  0.00    -0.167 F 
ENDBRANCH  18  24
ENDBRANCH   5   8
ENDBRANCH   3   4
ENDBRANCH   2   3
ENDBRANCH   1   2
BRANCH   1  28
ATOM     28  C   UNL A   1      36.579  21.230  24.778  1.00  0.00     0.002 C 
BRANCH  28  29
ATOM     29  C   UNL A   1      37.736  20.230  24.751  1.00  0.00     0.021 C 
BRANCH  29  30
ATOM     30  C   UNL A   1      38.857  20.503  25.747  1.00  0.00     0.116 C 
BRANCH  30  31
ATOM     31  N   UNL A   1      39.862  19.454  25.767  1.00  0.00    -0.352 N 
ATOM     32  C   UNL A   1      41.187  19.526  26.121  1.00  0.00     0.251 C 
ATOM     33  H   UNL A   1      39.549  18.564  25.486  1.00  0.00     0.163 HD
ATOM     34  O   UNL A   1      41.931  18.566  25.946  1.00  0.00    -0.269 OA
BRANCH  32  35
ATOM     35  C   UNL A   1      41.728  20.784  26.681  1.00  0.00     0.039 A 
ATOM     36  C   UNL A   1      41.603  21.070  28.042  1.00  0.00     0.014 A 
ATOM     37  C   UNL A   1      42.343  21.700  25.824  1.00  0.00     0.014 A 
ATOM     38  C   UNL A   1      41.944  22.334  28.515  1.00  0.00     0.010 A 
ATOM     39  C   UNL A   1      42.756  22.941  26.316  1.00  0.00     0.010 A 
ATOM     40  C   UNL A   1      42.513  23.287  27.655  1.00  0.00    -0.014 A 
BRANCH  40  41
ATOM     41  C   UNL A   1      42.821  24.647  28.168  1.00  0.00     0.031 A 
ATOM     42  C   UNL A   1      44.244  25.057  28.440  1.00  0.00     0.074 A 
ATOM     43  C   UNL A   1      41.821  25.532  28.341  1.00  0.00     0.049 A 
ATOM     44  N   UNL A   1      44.705  26.201  28.883  1.00  0.00    -0.248 NA
ATOM     45  C   UNL A   1      45.288  24.052  28.184  1.00  0.00     0.031 C 
ATOM     46  C   UNL A   1      40.403  25.260  28.101  1.00  0.00     0.029 A 
ATOM     47  N   UNL A   1      41.848  26.845  28.737  1.00  0.00    -0.354 N 
ATOM     48  C   UNL A   1      46.083  26.047  28.976  1.00  0.00     0.074 A 
ATOM     49  C   UNL A   1      46.383  24.691  28.570  1.00  0.00     0.031 C 
ATOM     50  C   UNL A   1      39.699  26.384  28.311  1.00  0.00     0.029 A 
ATOM     51  C   UNL A   1      40.608  27.435  28.757  1.00  0.00     0.049 A 
ATOM     52  H   UNL A   1      42.674  27.317  28.985  1.00  0.00     0.167 HD
ATOM     53  C   UNL A   1      47.015  26.956  29.352  1.00  0.00     0.037 A 
ATOM     54  C   UNL A   1      40.241  28.682  29.109  1.00  0.00     0.037 A 
ATOM     55  C   UNL A   1      46.719  28.312  29.737  1.00  0.00     0.049 A 
ATOM     56  C   UNL A   1      41.290  29.652  29.570  1.00  0.00     0.074 A 
ATOM     57  C   UNL A   1      47.597  29.315  30.112  1.00  0.00     0.029 A 
ATOM     58  N   UNL A   1      45.445  28.856  29.796  1.00  0.00    -0.354 N 
ATOM     59  N   UNL A   1      42.589  29.495  29.641  1.00  0.00    -0.248 NA
ATOM     60  C   UNL A   1      40.817  30.972  30.009  1.00  0.00     0.031 C 
ATOM     61  C   UNL A   1      46.851  30.454  30.433  1.00  0.00     0.029 A 
ATOM     62  C   UNL A   1      45.512  30.173  30.220  1.00  0.00     0.049 A 
ATOM     63  H   UNL A   1      44.616  28.376  29.569  1.00  0.00     0.167 HD
ATOM     64  C   UNL A   1      43.090  30.697  30.120  1.00  0.00     0.074 A 
ATOM     65  C   UNL A   1      41.957  31.582  30.299  1.00  0.00     0.031 C 
ATOM     66  C   UNL A   1      44.373  31.037  30.395  1.00  0.00     0.037 A 
BRANCH  53  67
ATOM     67  C   UNL A   1      48.447  26.507  29.380  1.00  0.00     0.057 A 
ATOM     68  C   UNL A   1      48.991  25.926  30.533  1.00  0.00     0.134 A 
ATOM     69  C   UNL A   1      49.296  26.675  28.278  1.00  0.00     0.134 A 
ATOM     70  F   UNL A   1      48.234  25.741  31.624  1.00  0.00    -0.206 F 
ATOM     71  C   UNL A   1      50.328  25.529  30.589  1.00  0.00     0.040 A 
ATOM     72  C   UNL A   1      50.630  26.262  28.315  1.00  0.00     0.040 A 
ATOM     73  F   UNL A   1      48.834  27.212  27.140  1.00  0.00    -0.206 F 
ATOM     74  C   UNL A   1      51.150  25.691  29.475  1.00  0.00     0.006 A 
ENDBRANCH  53  67
BRANCH  54  75
ATOM     75  C   UNL A   1      38.814  29.081  29.058  1.00  0.00     0.057 A 
ATOM     76  C   UNL A   1      38.231  29.554  27.876  1.00  0.00     0.134 A 
ATOM     77  C   UNL A   1      37.993  28.977  30.186  1.00  0.00     0.134 A 
ATOM     78  F   UNL A   1      38.967  29.678  26.762  1.00  0.00    -0.206 F 
ATOM     79  C   UNL A   1      36.886  29.916  27.819  1.00  0.00     0.040 A 
ATOM     80  C   UNL A   1      36.638  29.312  30.137  1.00  0.00     0.040 A 
ATOM     81  F   UNL A   1      38.489  28.512  31.342  1.00  0.00    -0.206 F 
ATOM     82  C   UNL A   1      36.083  29.788  28.950  1.00  0.00     0.006 A 
ENDBRANCH  54  75
BRANCH  66  83
ATOM     83  C   UNL A   1      44.609  32.430  30.898  1.00  0.00     0.057 A 
ATOM     84  C   UNL A   1      44.816  33.487  30.004  1.00  0.00     0.134 A 
ATOM     85  C   UNL A   1      44.635  32.723  32.268  1.00  0.00     0.134 A 
ATOM     86  F   UNL A   1      44.809  33.272  28.679  1.00  0.00    -0.206 F 
ATOM     87  C   UNL A   1      45.038  34.789  30.455  1.00  0.00     0.040 A 
ATOM     88  C   UNL A   1      44.831  34.025  32.730  1.00  0.00     0.040 A 
ATOM     89  F   UNL A   1      44.425  31.756  33.174  1.00  0.00    -0.206 F 
ATOM     90  C   UNL A   1      45.037  35.062  31.821  1.00  0.00     0.006 A 
ENDBRANCH  66  83
ENDBRANCH  40  41
ENDBRANCH  32  35
ENDBRANCH  30  31
ENDBRANCH  29  30
ENDBRANCH  28  29
ENDBRANCH   1  28
TORSDOF 17
ENDMDL
MODEL 3
REMARK VINA RESULT:     -12.0      5.249      9.866
REMARK SMILES CC(C)CCc1cc2c(cc1Cl)C=C(C(=O)NCCCCCCNC(=O)c1ccc(-c3c4nc(c(-c5c(F)cccc5F)c5ccc([nH]5)c(-c5c(F)cccc5F)c5nc(c(-c6c(F)cccc6F)c6ccc3[nH]6)C=C5)C=C4)cc1)[C@@H](C(F)(F)F)O2
REMARK SMILES IDX 20 1 19 2 18 3 17 4 15 5 16 6 14 8 6 9 7 10 11 11 8 12 10 13
REMARK SMILES IDX 12 14 9 15 86 16 13 17 81 18 5 19 4 20 2 21 1 22 3 23 82 24
REMARK SMILES IDX 83 25 84 26 85 27 21 28 22 29 23 30 24 31 25 32 26 34 27 35
REMARK SMILES IDX 28 36 80 37 29 38 79 39 30 40 31 41 32 42 73 43 33 44 78 45
REMARK SMILES IDX 72 46 74 47 34 48 77 49 71 50 70 51 35 53 61 54 44 55 60 56
REMARK SMILES IDX 45 57 48 58 59 59 75 60 46 61 47 62 58 64 76 65 49 66 36 67
REMARK SMILES IDX 37 68 42 69 38 70 39 71 41 72 43 73 40 74 62 75 63 76 68 77
REMARK SMILES IDX 64 78 65 79 67 80 69 81 66 82 50 83 51 84 56 85 52 86 53 87
REMARK SMILES IDX 55 88 57 89 54 90
REMARK H PARENT 17 7 24 33 74 52 48 63
REMARK Flexibility Score: inf
ROOT
ATOM      1  C   UNL A   1      31.728  29.377  26.348  1.00  0.00     0.002 C 
ENDROOT
BRANCH   1   2
ATOM      2  C   UNL A   1      33.016  29.011  27.087  1.00  0.00     0.021 C 
BRANCH   2   3
ATOM      3  C   UNL A   1      33.753  27.802  26.520  1.00  0.00     0.116 C 
BRANCH   3   4
ATOM      4  N   UNL A   1      33.812  27.812  25.068  1.00  0.00    -0.352 N 
ATOM      5  C   UNL A   1      33.597  26.924  24.065  1.00  0.00     0.251 C 
ATOM      6  O   UNL A   1      33.721  27.374  22.922  1.00  0.00    -0.270 OA
ATOM      7  H   UNL A   1      34.078  28.693  24.721  1.00  0.00     0.163 HD
BRANCH   5   8
ATOM      8  C   UNL A   1      33.242  25.484  24.251  1.00  0.00     0.067 C 
ATOM      9  C   UNL A   1      33.449  20.494  25.088  1.00  0.00    -0.026 A 
ATOM     10  C   UNL A   1      32.440  21.449  24.946  1.00  0.00     0.052 A 
ATOM     11  C   UNL A   1      34.765  20.910  24.832  1.00  0.00     0.045 A 
ATOM     12  C   UNL A   1      32.727  22.785  24.701  1.00  0.00     0.128 A 
ATOM     13  C   UNL A   1      35.050  22.253  24.516  1.00  0.00     0.032 A 
ATOM     14  Cl  UNL A   1      36.100  19.816  24.890  1.00  0.00    -0.084 Cl
ATOM     15  C   UNL A   1      34.027  23.207  24.483  1.00  0.00     0.019 A 
ATOM     16  O   UNL A   1      31.651  23.606  24.758  1.00  0.00    -0.475 OA
ATOM     17  C   UNL A   1      34.281  24.625  24.268  1.00  0.00     0.025 C 
ATOM     18  C   UNL A   1      31.827  24.992  24.397  1.00  0.00     0.314 C 
BRANCH   9  19
ATOM     19  C   UNL A   1      33.042  19.100  25.518  1.00  0.00     0.037 C 
BRANCH  19  20
ATOM     20  C   UNL A   1      32.399  18.241  24.404  1.00  0.00     0.008 C 
BRANCH  20  21
ATOM     21  C   UNL A   1      33.026  16.858  24.105  1.00  0.00    -0.017 C 
ATOM     22  C   UNL A   1      34.234  16.935  23.166  1.00  0.00     0.007 C 
ATOM     23  C   UNL A   1      33.443  16.163  25.404  1.00  0.00     0.007 C 
ENDBRANCH  20  21
ENDBRANCH  19  20
ENDBRANCH   9  19
BRANCH  18  24
ATOM     24  C   UNL A   1      30.946  25.235  23.162  1.00  0.00     0.429 C 
ATOM     25  F   UNL A   1      30.387  26.471  23.226  1.00  0.00    -0.167 F 
ATOM     26  F   UNL A   1      31.628  25.187  21.998  1.00  0.00    -0.167 F 
ATOM     27  F   UNL A   1      29.937  24.340  23.071  1.00  0.00    -0.167 F 
ENDBRANCH  18  24
ENDBRANCH   5   8
ENDBRANCH   3   4
ENDBRANCH   2   3
ENDBRANCH   1   2
BRANCH   1  28
ATOM     28  C   UNL A   1      31.648  30.815  25.820  1.00  0.00     0.002 C 
BRANCH  28  29
ATOM     29  C   UNL A   1      31.422  31.905  26.871  1.00  0.00     0.021 C 
BRANCH  29  30
ATOM     30  C   UNL A   1      32.658  32.714  27.246  1.00  0.00     0.116 C 
BRANCH  30  31
ATOM     31  N   UNL A   1      32.346  34.086  27.609  1.00  0.00    -0.352 N 
ATOM     32  C   UNL A   1      32.963  34.906  28.522  1.00  0.00     0.251 C 
ATOM     33  H   UNL A   1      31.583  34.485  27.132  1.00  0.00     0.163 HD
ATOM     34  O   UNL A   1      32.479  35.998  28.803  1.00  0.00    -0.269 OA
BRANCH  32  35
ATOM     35  C   UNL A   1      34.197  34.451  29.198  1.00  0.00     0.039 A 
ATOM     36  C   UNL A   1      35.443  34.600  28.585  1.00  0.00     0.014 A 
ATOM     37  C   UNL A   1      34.099  33.842  30.452  1.00  0.00     0.014 A 
ATOM     38  C   UNL A   1      36.564  33.998  29.147  1.00  0.00     0.010 A 
ATOM     39  C   UNL A   1      35.241  33.304  31.052  1.00  0.00     0.010 A 
ATOM     40  C   UNL A   1      36.473  33.332  30.380  1.00  0.00    -0.014 A 
BRANCH  40  41
ATOM     41  C   UNL A   1      37.672  32.652  30.936  1.00  0.00     0.031 A 
ATOM     42  C   UNL A   1      38.278  33.111  32.236  1.00  0.00     0.074 A 
ATOM     43  C   UNL A   1      38.184  31.584  30.295  1.00  0.00     0.049 A 
ATOM     44  N   UNL A   1      39.317  32.636  32.877  1.00  0.00    -0.248 NA
ATOM     45  C   UNL A   1      37.635  34.254  32.904  1.00  0.00     0.031 C 
ATOM     46  C   UNL A   1      37.680  31.034  29.036  1.00  0.00     0.029 A 
ATOM     47  N   UNL A   1      39.228  30.759  30.626  1.00  0.00    -0.354 N 
ATOM     48  C   UNL A   1      39.464  33.431  34.008  1.00  0.00     0.074 A 
ATOM     49  C   UNL A   1      38.424  34.436  33.953  1.00  0.00     0.031 C 
ATOM     50  C   UNL A   1      38.386  29.936  28.723  1.00  0.00     0.029 A 
ATOM     51  C   UNL A   1      39.427  29.741  29.727  1.00  0.00     0.049 A 
ATOM     52  H   UNL A   1      39.781  30.885  31.430  1.00  0.00     0.167 HD
ATOM     53  C   UNL A   1      40.372  33.324  35.008  1.00  0.00     0.037 A 
ATOM     54  C   UNL A   1      40.355  28.766  29.704  1.00  0.00     0.037 A 
ATOM     55  C   UNL A   1      41.394  32.312  35.074  1.00  0.00     0.049 A 
ATOM     56  C   UNL A   1      41.380  28.704  30.800  1.00  0.00     0.074 A 
ATOM     57  C   UNL A   1      42.346  32.109  36.058  1.00  0.00     0.029 A 
ATOM     58  N   UNL A   1      41.596  31.332  34.115  1.00  0.00    -0.354 N 
ATOM     59  N   UNL A   1      41.498  29.455  31.867  1.00  0.00    -0.248 NA
ATOM     60  C   UNL A   1      42.408  27.661  30.679  1.00  0.00     0.031 C 
ATOM     61  C   UNL A   1      43.148  31.028  35.676  1.00  0.00     0.029 A 
ATOM     62  C   UNL A   1      42.670  30.533  34.474  1.00  0.00     0.049 A 
ATOM     63  H   UNL A   1      41.056  31.220  33.299  1.00  0.00     0.167 HD
ATOM     64  C   UNL A   1      42.603  28.970  32.551  1.00  0.00     0.074 A 
ATOM     65  C   UNL A   1      43.106  27.844  31.790  1.00  0.00     0.031 C 
ATOM     66  C   UNL A   1      43.158  29.419  33.702  1.00  0.00     0.037 A 
BRANCH  53  67
ATOM     67  C   UNL A   1      40.310  34.343  36.109  1.00  0.00     0.057 A 
ATOM     68  C   UNL A   1      39.537  34.112  37.254  1.00  0.00     0.134 A 
ATOM     69  C   UNL A   1      40.992  35.565  36.025  1.00  0.00     0.134 A 
ATOM     70  F   UNL A   1      38.856  32.966  37.395  1.00  0.00    -0.206 F 
ATOM     71  C   UNL A   1      39.443  35.059  38.275  1.00  0.00     0.040 A 
ATOM     72  C   UNL A   1      40.923  36.511  37.050  1.00  0.00     0.040 A 
ATOM     73  F   UNL A   1      41.760  35.842  34.962  1.00  0.00    -0.206 F 
ATOM     74  C   UNL A   1      40.142  36.260  38.178  1.00  0.00     0.006 A 
ENDBRANCH  53  67
BRANCH  54  75
ATOM     75  C   UNL A   1      40.370  27.777  28.598  1.00  0.00     0.057 A 
ATOM     76  C   UNL A   1      41.106  28.003  27.429  1.00  0.00     0.134 A 
ATOM     77  C   UNL A   1      39.665  26.572  28.696  1.00  0.00     0.134 A 
ATOM     78  F   UNL A   1      41.800  29.140  27.275  1.00  0.00    -0.206 F 
ATOM     79  C   UNL A   1      41.135  27.070  26.393  1.00  0.00     0.040 A 
ATOM     80  C   UNL A   1      39.706  25.618  27.678  1.00  0.00     0.040 A 
ATOM     81  F   UNL A   1      38.959  26.291  29.800  1.00  0.00    -0.206 F 
ATOM     82  C   UNL A   1      40.440  25.869  26.520  1.00  0.00     0.006 A 
ENDBRANCH  54  75
BRANCH  66  83
ATOM     83  C   UNL A   1      44.357  28.675  34.210  1.00  0.00     0.057 A 
ATOM     84  C   UNL A   1      45.650  29.072  33.851  1.00  0.00     0.134 A 
ATOM     85  C   UNL A   1      44.229  27.562  35.051  1.00  0.00     0.134 A 
ATOM     86  F   UNL A   1      45.841  30.127  33.044  1.00  0.00    -0.206 F 
ATOM     87  C   UNL A   1      46.776  28.390  34.314  1.00  0.00     0.040 A 
ATOM     88  C   UNL A   1      45.348  26.887  35.540  1.00  0.00     0.040 A 
ATOM     89  F   UNL A   1      43.016  27.144  35.445  1.00  0.00    -0.206 F 
ATOM     90  C   UNL A   1      46.627  27.299  35.169  1.00  0.00     0.006 A 
ENDBRANCH  66  83
ENDBRANCH  40  41
ENDBRANCH  32  35
ENDBRANCH  30  31
ENDBRANCH  29  30
ENDBRANCH  28  29
ENDBRANCH   1  28
TORSDOF 17
ENDMDL
