MODEL 1
REMARK VINA RESULT:     -10.9      0.000      0.000
REMARK SMILES CCOC(=O)[C@H]1CCCN(C(=O)N[C@](C)(CC)C(=O)NCCCCCCNC(=O)c2ccc(-c3c4nc(c(-c5c(F)cccc5F)c5ccc([nH]5)c(-c5c(F)cccc5F)c5nc(c(-c6c(F)cccc6F)c6ccc3[nH]6)C=C5)C=C4)cc2)C1
REMARK SMILES IDX 22 1 21 2 20 3 18 4 19 5 14 7 15 8 13 9 11 10 12 11 10 13
REMARK SMILES IDX 6 14 7 15 84 16 8 17 9 18 4 19 5 20 3 21 2 22 1 23 16 24
REMARK SMILES IDX 17 25 23 26 24 27 25 28 26 29 27 30 28 31 29 33 30 34 31 35
REMARK SMILES IDX 83 36 32 37 82 38 33 39 34 40 35 41 76 42 36 43 81 44 75 45
REMARK SMILES IDX 77 46 37 47 80 48 74 49 73 50 38 52 64 53 47 54 63 55 48 56
REMARK SMILES IDX 51 57 62 58 78 59 49 60 50 61 61 63 79 64 52 65 39 66 40 67
REMARK SMILES IDX 45 68 41 69 42 70 44 71 46 72 43 73 65 74 66 75 71 76 67 77
REMARK SMILES IDX 68 78 70 79 72 80 69 81 53 82 54 83 59 84 55 85 56 86 58 87
REMARK SMILES IDX 60 88 57 89
REMARK H PARENT 20 6 13 12 27 32 77 51 51 62
REMARK Flexibility Score: inf
ROOT
ATOM      1  C   UNL A   1      31.264  28.721  23.464  1.00  0.00     0.021 C 
ENDROOT
BRANCH   1   2
ATOM      2  C   UNL A   1      30.357  27.486  23.382  1.00  0.00     0.116 C 
BRANCH   2   3
ATOM      3  N   UNL A   1      30.056  27.001  24.710  1.00  0.00    -0.354 N 
ATOM      4  C   UNL A   1      30.448  25.915  25.420  1.00  0.00     0.245 C 
ATOM      5  O   UNL A   1      29.767  25.711  26.434  1.00  0.00    -0.272 OA
ATOM      6  H   UNL A   1      29.435  27.583  25.204  1.00  0.00     0.163 HD
BRANCH   4   7
ATOM      7  C   UNL A   1      31.734  25.059  25.089  1.00  0.00     0.117 C 
ATOM      8  C   UNL A   1      31.314  24.249  23.836  1.00  0.00     0.045 C 
BRANCH   7   9
ATOM      9  N   UNL A   1      31.890  24.217  26.325  1.00  0.00    -0.324 N 
ATOM     10  C   UNL A   1      32.403  23.061  26.783  1.00  0.00     0.318 C 
ATOM     11  O   UNL A   1      32.189  22.852  27.983  1.00  0.00    -0.249 OA
ATOM     12  H   UNL A   1      31.457  24.683  27.076  1.00  0.00     0.166 HD
BRANCH  10  13
ATOM     13  N   UNL A   1      33.080  22.151  26.018  1.00  0.00    -0.324 N 
ATOM     14  C   UNL A   1      33.136  19.718  25.291  1.00  0.00     0.119 C 
ATOM     15  C   UNL A   1      34.532  19.986  24.716  1.00  0.00     0.019 C 
ATOM     16  C   UNL A   1      32.321  21.012  25.436  1.00  0.00     0.136 C 
ATOM     17  C   UNL A   1      35.241  21.047  25.517  1.00  0.00     0.023 C 
ATOM     18  C   UNL A   1      34.421  22.317  25.509  1.00  0.00     0.121 C 
BRANCH  14  19
ATOM     19  C   UNL A   1      32.477  18.695  24.384  1.00  0.00     0.310 C 
ATOM     20  O   UNL A   1      32.284  18.874  23.186  1.00  0.00    -0.252 OA
BRANCH  19  21
ATOM     21  O   UNL A   1      32.222  17.523  25.024  1.00  0.00    -0.466 OA
BRANCH  21  22
ATOM     22  C   UNL A   1      32.959  16.399  24.506  1.00  0.00     0.229 C 
ATOM     23  C   UNL A   1      34.205  16.111  25.328  1.00  0.00     0.049 C 
ENDBRANCH  21  22
ENDBRANCH  19  21
ENDBRANCH  14  19
ENDBRANCH  10  13
ENDBRANCH   7   9
BRANCH   7  24
ATOM     24  C   UNL A   1      33.007  25.917  24.850  1.00  0.00     0.035 C 
ATOM     25  C   UNL A   1      33.494  26.728  26.042  1.00  0.00     0.007 C 
ENDBRANCH   7  24
ENDBRANCH   4   7
ENDBRANCH   2   3
ENDBRANCH   1   2
BRANCH   1  26
ATOM     26  C   UNL A   1      30.740  29.825  24.399  1.00  0.00     0.002 C 
BRANCH  26  27
ATOM     27  C   UNL A   1      31.643  30.145  25.595  1.00  0.00     0.002 C 
BRANCH  27  28
ATOM     28  C   UNL A   1      31.370  31.495  26.254  1.00  0.00     0.021 C 
BRANCH  28  29
ATOM     29  C   UNL A   1      32.537  32.036  27.068  1.00  0.00     0.116 C 
BRANCH  29  30
ATOM     30  N   UNL A   1      32.334  33.424  27.451  1.00  0.00    -0.352 N 
ATOM     31  C   UNL A   1      33.073  34.197  28.311  1.00  0.00     0.251 C 
ATOM     32  H   UNL A   1      31.560  33.870  27.036  1.00  0.00     0.163 HD
ATOM     33  O   UNL A   1      32.651  35.281  28.692  1.00  0.00    -0.269 OA
BRANCH  31  34
ATOM     34  C   UNL A   1      34.380  33.699  28.790  1.00  0.00     0.039 A 
ATOM     35  C   UNL A   1      34.459  33.112  30.053  1.00  0.00     0.014 A 
ATOM     36  C   UNL A   1      35.520  33.803  27.986  1.00  0.00     0.014 A 
ATOM     37  C   UNL A   1      35.673  32.579  30.490  1.00  0.00     0.010 A 
ATOM     38  C   UNL A   1      36.706  33.200  28.388  1.00  0.00     0.010 A 
ATOM     39  C   UNL A   1      36.798  32.590  29.647  1.00  0.00    -0.014 A 
BRANCH  39  40
ATOM     40  C   UNL A   1      38.080  31.975  30.071  1.00  0.00     0.031 A 
ATOM     41  C   UNL A   1      38.993  32.710  31.012  1.00  0.00     0.074 A 
ATOM     42  C   UNL A   1      38.450  30.784  29.561  1.00  0.00     0.049 A 
ATOM     43  N   UNL A   1      40.181  32.371  31.446  1.00  0.00    -0.248 NA
ATOM     44  C   UNL A   1      38.522  34.011  31.513  1.00  0.00     0.031 C 
ATOM     45  C   UNL A   1      37.672  29.992  28.606  1.00  0.00     0.029 A 
ATOM     46  N   UNL A   1      39.580  30.034  29.770  1.00  0.00    -0.354 N 
ATOM     47  C   UNL A   1      40.599  33.419  32.258  1.00  0.00     0.074 A 
ATOM     48  C   UNL A   1      39.567  34.430  32.209  1.00  0.00     0.031 C 
ATOM     49  C   UNL A   1      38.335  28.858  28.331  1.00  0.00     0.029 A 
ATOM     50  C   UNL A   1      39.603  28.861  29.055  1.00  0.00     0.049 A 
ATOM     51  H   UNL A   1      40.305  30.310  30.376  1.00  0.00     0.167 HD
ATOM     52  C   UNL A   1      41.730  33.517  32.997  1.00  0.00     0.037 A 
ATOM     53  C   UNL A   1      40.544  27.901  28.983  1.00  0.00     0.037 A 
ATOM     54  C   UNL A   1      42.746  32.499  33.056  1.00  0.00     0.049 A 
ATOM     55  C   UNL A   1      41.801  28.045  29.797  1.00  0.00     0.074 A 
ATOM     56  C   UNL A   1      43.903  32.480  33.815  1.00  0.00     0.029 A 
ATOM     57  N   UNL A   1      42.728  31.321  32.324  1.00  0.00    -0.354 N 
ATOM     58  N   UNL A   1      42.153  29.009  30.612  1.00  0.00    -0.248 NA
ATOM     59  C   UNL A   1      42.790  26.963  29.684  1.00  0.00     0.031 C 
ATOM     60  C   UNL A   1      44.612  31.317  33.502  1.00  0.00     0.029 A 
ATOM     61  C   UNL A   1      43.867  30.580  32.595  1.00  0.00     0.049 A 
ATOM     62  H   UNL A   1      42.013  31.051  31.705  1.00  0.00     0.167 HD
ATOM     63  C   UNL A   1      43.385  28.635  31.135  1.00  0.00     0.074 A 
ATOM     64  C   UNL A   1      43.712  27.350  30.554  1.00  0.00     0.031 C 
ATOM     65  C   UNL A   1      44.174  29.297  32.017  1.00  0.00     0.037 A 
BRANCH  52  66
ATOM     66  C   UNL A   1      41.928  34.769  33.802  1.00  0.00     0.057 A 
ATOM     67  C   UNL A   1      41.456  34.885  35.118  1.00  0.00     0.134 A 
ATOM     68  C   UNL A   1      42.630  35.858  33.272  1.00  0.00     0.134 A 
ATOM     69  F   UNL A   1      40.765  33.884  35.683  1.00  0.00    -0.206 F 
ATOM     70  C   UNL A   1      41.655  36.046  35.866  1.00  0.00     0.040 A 
ATOM     71  C   UNL A   1      42.861  37.013  34.021  1.00  0.00     0.040 A 
ATOM     72  F   UNL A   1      43.114  35.813  32.021  1.00  0.00    -0.206 F 
ATOM     73  C   UNL A   1      42.366  37.112  35.320  1.00  0.00     0.006 A 
ENDBRANCH  52  66
BRANCH  53  74
ATOM     74  C   UNL A   1      40.332  26.710  28.120  1.00  0.00     0.057 A 
ATOM     75  C   UNL A   1      40.958  26.599  26.873  1.00  0.00     0.134 A 
ATOM     76  C   UNL A   1      39.488  25.663  28.512  1.00  0.00     0.134 A 
ATOM     77  F   UNL A   1      41.764  27.578  26.433  1.00  0.00    -0.206 F 
ATOM     78  C   UNL A   1      40.733  25.507  26.035  1.00  0.00     0.040 A 
ATOM     79  C   UNL A   1      39.277  24.551  27.696  1.00  0.00     0.040 A 
ATOM     80  F   UNL A   1      38.865  25.702  29.699  1.00  0.00    -0.206 F 
ATOM     81  C   UNL A   1      39.893  24.475  26.449  1.00  0.00     0.006 A 
ENDBRANCH  53  74
BRANCH  65  82
ATOM     82  C   UNL A   1      45.447  28.623  32.443  1.00  0.00     0.057 A 
ATOM     83  C   UNL A   1      45.493  27.736  33.527  1.00  0.00     0.134 A 
ATOM     84  C   UNL A   1      46.635  28.836  31.732  1.00  0.00     0.134 A 
ATOM     85  F   UNL A   1      44.393  27.498  34.257  1.00  0.00    -0.206 F 
ATOM     86  C   UNL A   1      46.680  27.105  33.902  1.00  0.00     0.040 A 
ATOM     87  C   UNL A   1      47.821  28.187  32.078  1.00  0.00     0.040 A 
ATOM     88  F   UNL A   1      46.659  29.666  30.677  1.00  0.00    -0.206 F 
ATOM     89  C   UNL A   1      47.846  27.324  33.171  1.00  0.00     0.006 A 
ENDBRANCH  65  82
ENDBRANCH  39  40
ENDBRANCH  31  34
ENDBRANCH  29  30
ENDBRANCH  28  29
ENDBRANCH  27  28
ENDBRANCH  26  27
ENDBRANCH   1  26
TORSDOF 19
ENDMDL
MODEL 2
REMARK VINA RESULT:     -10.9      0.987      6.095
REMARK SMILES CCOC(=O)[C@H]1CCCN(C(=O)N[C@](C)(CC)C(=O)NCCCCCCNC(=O)c2ccc(-c3c4nc(c(-c5c(F)cccc5F)c5ccc([nH]5)c(-c5c(F)cccc5F)c5nc(c(-c6c(F)cccc6F)c6ccc3[nH]6)C=C5)C=C4)cc2)C1
REMARK SMILES IDX 22 1 21 2 20 3 18 4 19 5 14 7 15 8 13 9 11 10 12 11 10 13
REMARK SMILES IDX 6 14 7 15 84 16 8 17 9 18 4 19 5 20 3 21 2 22 1 23 16 24
REMARK SMILES IDX 17 25 23 26 24 27 25 28 26 29 27 30 28 31 29 33 30 34 31 35
REMARK SMILES IDX 83 36 32 37 82 38 33 39 34 40 35 41 76 42 36 43 81 44 75 45
REMARK SMILES IDX 77 46 37 47 80 48 74 49 73 50 38 52 64 53 47 54 63 55 48 56
REMARK SMILES IDX 51 57 62 58 78 59 49 60 50 61 61 63 79 64 52 65 39 66 40 67
REMARK SMILES IDX 45 68 41 69 42 70 44 71 46 72 43 73 65 74 66 75 71 76 67 77
REMARK SMILES IDX 68 78 70 79 72 80 69 81 53 82 54 83 59 84 55 85 56 86 58 87
REMARK SMILES IDX 60 88 57 89
REMARK H PARENT 20 6 13 12 27 32 77 51 51 62
REMARK Flexibility Score: inf
ROOT
ATOM      1  C   UNL A   1      31.300  29.073  23.486  1.00  0.00     0.021 C 
ENDROOT
BRANCH   1   2
ATOM      2  C   UNL A   1      30.685  27.675  23.354  1.00  0.00     0.116 C 
BRANCH   2   3
ATOM      3  N   UNL A   1      30.296  27.177  24.654  1.00  0.00    -0.354 N 
ATOM      4  C   UNL A   1      30.583  26.049  25.347  1.00  0.00     0.245 C 
ATOM      5  O   UNL A   1      29.849  25.865  26.327  1.00  0.00    -0.272 OA
ATOM      6  H   UNL A   1      29.694  27.787  25.138  1.00  0.00     0.163 HD
BRANCH   4   7
ATOM      7  C   UNL A   1      31.823  25.117  25.045  1.00  0.00     0.117 C 
ATOM      8  C   UNL A   1      31.394  24.354  23.765  1.00  0.00     0.045 C 
BRANCH   7   9
ATOM      9  N   UNL A   1      31.883  24.248  26.271  1.00  0.00    -0.324 N 
ATOM     10  C   UNL A   1      32.331  23.067  26.734  1.00  0.00     0.318 C 
ATOM     11  O   UNL A   1      32.043  22.844  27.916  1.00  0.00    -0.249 OA
ATOM     12  H   UNL A   1      31.424  24.716  27.006  1.00  0.00     0.166 HD
BRANCH  10  13
ATOM     13  N   UNL A   1      33.018  22.148  25.990  1.00  0.00    -0.324 N 
ATOM     14  C   UNL A   1      33.157  19.685  25.387  1.00  0.00     0.119 C 
ATOM     15  C   UNL A   1      34.516  19.983  24.742  1.00  0.00     0.019 C 
ATOM     16  C   UNL A   1      32.290  20.949  25.498  1.00  0.00     0.136 C 
ATOM     17  C   UNL A   1      35.206  21.114  25.457  1.00  0.00     0.023 C 
ATOM     18  C   UNL A   1      34.330  22.345  25.418  1.00  0.00     0.121 C 
BRANCH  14  19
ATOM     19  C   UNL A   1      32.511  18.587  24.561  1.00  0.00     0.310 C 
ATOM     20  O   UNL A   1      32.431  18.616  23.337  1.00  0.00    -0.252 OA
BRANCH  19  21
ATOM     21  O   UNL A   1      32.128  17.526  25.319  1.00  0.00    -0.466 OA
BRANCH  21  22
ATOM     22  C   UNL A   1      33.102  16.467  25.381  1.00  0.00     0.229 C 
ATOM     23  C   UNL A   1      32.449  15.095  25.371  1.00  0.00     0.049 C 
ENDBRANCH  21  22
ENDBRANCH  19  21
ENDBRANCH  14  19
ENDBRANCH  10  13
ENDBRANCH   7   9
BRANCH   7  24
ATOM     24  C   UNL A   1      33.155  25.894  24.862  1.00  0.00     0.035 C 
ATOM     25  C   UNL A   1      33.528  26.846  25.989  1.00  0.00     0.007 C 
ENDBRANCH   7  24
ENDBRANCH   4   7
ENDBRANCH   2   3
ENDBRANCH   1   2
BRANCH   1  26
ATOM     26  C   UNL A   1      30.777  29.880  24.688  1.00  0.00     0.002 C 
BRANCH  26  27
ATOM     27  C   UNL A   1      31.839  30.258  25.726  1.00  0.00     0.002 C 
BRANCH  27  28
ATOM     28  C   UNL A   1      31.498  31.488  26.563  1.00  0.00     0.021 C 
BRANCH  28  29
ATOM     29  C   UNL A   1      32.702  32.141  27.227  1.00  0.00     0.116 C 
BRANCH  29  30
ATOM     30  N   UNL A   1      32.466  33.545  27.520  1.00  0.00    -0.352 N 
ATOM     31  C   UNL A   1      33.122  34.363  28.406  1.00  0.00     0.251 C 
ATOM     32  H   UNL A   1      31.734  33.967  27.014  1.00  0.00     0.163 HD
ATOM     33  O   UNL A   1      32.667  35.462  28.692  1.00  0.00    -0.269 OA
BRANCH  31  34
ATOM     34  C   UNL A   1      34.379  33.895  29.026  1.00  0.00     0.039 A 
ATOM     35  C   UNL A   1      34.314  33.103  30.174  1.00  0.00     0.014 A 
ATOM     36  C   UNL A   1      35.618  34.230  28.468  1.00  0.00     0.014 A 
ATOM     37  C   UNL A   1      35.490  32.601  30.732  1.00  0.00     0.010 A 
ATOM     38  C   UNL A   1      36.780  33.662  28.977  1.00  0.00     0.010 A 
ATOM     39  C   UNL A   1      36.730  32.849  30.118  1.00  0.00    -0.014 A 
BRANCH  39  40
ATOM     40  C   UNL A   1      37.986  32.274  30.662  1.00  0.00     0.031 A 
ATOM     41  C   UNL A   1      38.571  31.030  30.051  1.00  0.00     0.074 A 
ATOM     42  C   UNL A   1      38.564  32.834  31.742  1.00  0.00     0.049 A 
ATOM     43  N   UNL A   1      39.619  30.340  30.424  1.00  0.00    -0.248 NA
ATOM     44  C   UNL A   1      37.871  30.473  28.883  1.00  0.00     0.031 C 
ATOM     45  C   UNL A   1      38.069  34.016  32.451  1.00  0.00     0.029 A 
ATOM     46  N   UNL A   1      39.692  32.479  32.438  1.00  0.00    -0.354 N 
ATOM     47  C   UNL A   1      39.695  29.267  29.545  1.00  0.00     0.074 A 
ATOM     48  C   UNL A   1      38.556  29.362  28.660  1.00  0.00     0.031 C 
ATOM     49  C   UNL A   1      38.902  34.302  33.464  1.00  0.00     0.029 A 
ATOM     50  C   UNL A   1      39.964  33.301  33.504  1.00  0.00     0.049 A 
ATOM     51  H   UNL A   1      40.255  31.708  32.194  1.00  0.00     0.167 HD
ATOM     52  C   UNL A   1      40.644  28.303  29.467  1.00  0.00     0.037 A 
ATOM     53  C   UNL A   1      40.952  33.249  34.417  1.00  0.00     0.037 A 
ATOM     54  C   UNL A   1      41.786  28.224  30.340  1.00  0.00     0.049 A 
ATOM     55  C   UNL A   1      41.980  32.155  34.322  1.00  0.00     0.074 A 
ATOM     56  C   UNL A   1      42.831  27.317  30.309  1.00  0.00     0.029 A 
ATOM     57  N   UNL A   1      42.031  29.081  31.402  1.00  0.00    -0.354 N 
ATOM     58  N   UNL A   1      42.079  31.186  33.445  1.00  0.00    -0.248 NA
ATOM     59  C   UNL A   1      43.040  32.152  35.341  1.00  0.00     0.031 C 
ATOM     60  C   UNL A   1      43.679  27.591  31.385  1.00  0.00     0.029 A 
ATOM     61  C   UNL A   1      43.197  28.707  32.050  1.00  0.00     0.049 A 
ATOM     62  H   UNL A   1      41.461  29.841  31.658  1.00  0.00     0.167 HD
ATOM     63  C   UNL A   1      43.225  30.480  33.785  1.00  0.00     0.074 A 
ATOM     64  C   UNL A   1      43.796  31.140  34.939  1.00  0.00     0.031 C 
ATOM     65  C   UNL A   1      43.759  29.382  33.193  1.00  0.00     0.037 A 
BRANCH  52  66
ATOM     66  C   UNL A   1      40.487  27.257  28.401  1.00  0.00     0.057 A 
ATOM     67  C   UNL A   1      39.664  26.136  28.581  1.00  0.00     0.134 A 
ATOM     68  C   UNL A   1      41.133  27.390  27.166  1.00  0.00     0.134 A 
ATOM     69  F   UNL A   1      39.025  25.941  29.744  1.00  0.00    -0.206 F 
ATOM     70  C   UNL A   1      39.511  25.174  27.582  1.00  0.00     0.040 A 
ATOM     71  C   UNL A   1      40.964  26.451  26.148  1.00  0.00     0.040 A 
ATOM     72  F   UNL A   1      41.931  28.441  26.924  1.00  0.00    -0.206 F 
ATOM     73  C   UNL A   1      40.156  25.334  26.357  1.00  0.00     0.006 A 
ENDBRANCH  52  66
BRANCH  53  74
ATOM     74  C   UNL A   1      41.029  34.269  35.494  1.00  0.00     0.057 A 
ATOM     75  C   UNL A   1      41.741  35.461  35.313  1.00  0.00     0.134 A 
ATOM     76  C   UNL A   1      40.410  34.072  36.735  1.00  0.00     0.134 A 
ATOM     77  F   UNL A   1      42.371  35.701  34.153  1.00  0.00    -0.206 F 
ATOM     78  C   UNL A   1      41.857  36.407  36.331  1.00  0.00     0.040 A 
ATOM     79  C   UNL A   1      40.494  35.023  37.753  1.00  0.00     0.040 A 
ATOM     80  F   UNL A   1      39.705  32.956  36.972  1.00  0.00    -0.206 F 
ATOM     81  C   UNL A   1      41.228  36.191  37.556  1.00  0.00     0.006 A 
ENDBRANCH  53  74
BRANCH  65  82
ATOM     82  C   UNL A   1      45.047  28.852  33.755  1.00  0.00     0.057 A 
ATOM     83  C   UNL A   1      46.295  29.325  33.330  1.00  0.00     0.134 A 
ATOM     84  C   UNL A   1      45.034  27.884  34.767  1.00  0.00     0.134 A 
ATOM     85  F   UNL A   1      46.378  30.243  32.355  1.00  0.00    -0.206 F 
ATOM     86  C   UNL A   1      47.484  28.835  33.873  1.00  0.00     0.040 A 
ATOM     87  C   UNL A   1      46.214  27.408  35.339  1.00  0.00     0.040 A 
ATOM     88  F   UNL A   1      43.872  27.395  35.228  1.00  0.00    -0.206 F 
ATOM     89  C   UNL A   1      47.444  27.880  34.887  1.00  0.00     0.006 A 
ENDBRANCH  65  82
ENDBRANCH  39  40
ENDBRANCH  31  34
ENDBRANCH  29  30
ENDBRANCH  28  29
ENDBRANCH  27  28
ENDBRANCH  26  27
ENDBRANCH   1  26
TORSDOF 19
ENDMDL
MODEL 3
REMARK VINA RESULT:     -10.6      3.455      9.221
REMARK SMILES CCOC(=O)[C@H]1CCCN(C(=O)N[C@](C)(CC)C(=O)NCCCCCCNC(=O)c2ccc(-c3c4nc(c(-c5c(F)cccc5F)c5ccc([nH]5)c(-c5c(F)cccc5F)c5nc(c(-c6c(F)cccc6F)c6ccc3[nH]6)C=C5)C=C4)cc2)C1
REMARK SMILES IDX 22 1 21 2 20 3 18 4 19 5 14 7 15 8 13 9 11 10 12 11 10 13
REMARK SMILES IDX 6 14 7 15 84 16 8 17 9 18 4 19 5 20 3 21 2 22 1 23 16 24
REMARK SMILES IDX 17 25 23 26 24 27 25 28 26 29 27 30 28 31 29 33 30 34 31 35
REMARK SMILES IDX 83 36 32 37 82 38 33 39 34 40 35 41 76 42 36 43 81 44 75 45
REMARK SMILES IDX 77 46 37 47 80 48 74 49 73 50 38 52 64 53 47 54 63 55 48 56
REMARK SMILES IDX 51 57 62 58 78 59 49 60 50 61 61 63 79 64 52 65 39 66 40 67
REMARK SMILES IDX 45 68 41 69 42 70 44 71 46 72 43 73 65 74 66 75 71 76 67 77
REMARK SMILES IDX 68 78 70 79 72 80 69 81 53 82 54 83 59 84 55 85 56 86 58 87
REMARK SMILES IDX 60 88 57 89
REMARK H PARENT 20 6 13 12 27 32 77 51 51 62
REMARK Flexibility Score: inf
ROOT
ATOM      1  C   UNL A   1      35.980  22.530  25.388  1.00  0.00     0.021 C 
ENDROOT
BRANCH   1   2
ATOM      2  C   UNL A   1      35.655  23.135  24.017  1.00  0.00     0.116 C 
BRANCH   2   3
ATOM      3  N   UNL A   1      34.509  22.470  23.439  1.00  0.00    -0.354 N 
ATOM      4  C   UNL A   1      33.172  22.677  23.514  1.00  0.00     0.245 C 
ATOM      5  O   UNL A   1      32.496  21.733  23.082  1.00  0.00    -0.272 OA
ATOM      6  H   UNL A   1      34.751  21.706  22.869  1.00  0.00     0.163 HD
BRANCH   4   7
ATOM      7  C   UNL A   1      32.511  24.039  23.969  1.00  0.00     0.117 C 
ATOM      8  C   UNL A   1      30.996  23.791  23.755  1.00  0.00     0.045 C 
BRANCH   7   9
ATOM      9  N   UNL A   1      33.102  25.025  23.000  1.00  0.00    -0.324 N 
ATOM     10  C   UNL A   1      33.058  26.313  22.611  1.00  0.00     0.318 C 
ATOM     11  O   UNL A   1      33.807  26.582  21.665  1.00  0.00    -0.249 OA
ATOM     12  H   UNL A   1      33.764  24.555  22.443  1.00  0.00     0.166 HD
BRANCH  10  13
ATOM     13  N   UNL A   1      32.248  27.266  23.164  1.00  0.00    -0.324 N 
ATOM     14  C   UNL A   1      30.514  29.044  22.634  1.00  0.00     0.119 C 
ATOM     15  C   UNL A   1      30.679  29.546  24.073  1.00  0.00     0.019 C 
ATOM     16  C   UNL A   1      30.963  27.583  22.486  1.00  0.00     0.136 C 
ATOM     17  C   UNL A   1      32.083  29.305  24.562  1.00  0.00     0.023 C 
ATOM     18  C   UNL A   1      32.396  27.829  24.486  1.00  0.00     0.121 C 
BRANCH  14  19
ATOM     19  C   UNL A   1      29.060  29.265  22.256  1.00  0.00     0.310 C 
ATOM     20  O   UNL A   1      28.116  28.837  22.913  1.00  0.00    -0.252 OA
BRANCH  19  21
ATOM     21  O   UNL A   1      28.923  30.074  21.173  1.00  0.00    -0.466 OA
BRANCH  21  22
ATOM     22  C   UNL A   1      28.054  31.202  21.389  1.00  0.00     0.229 C 
ATOM     23  C   UNL A   1      28.757  32.324  22.134  1.00  0.00     0.049 C 
ENDBRANCH  21  22
ENDBRANCH  19  21
ENDBRANCH  14  19
ENDBRANCH  10  13
ENDBRANCH   7   9
BRANCH   7  24
ATOM     24  C   UNL A   1      32.854  24.439  25.430  1.00  0.00     0.035 C 
ATOM     25  C   UNL A   1      31.890  23.940  26.497  1.00  0.00     0.007 C 
ENDBRANCH   7  24
ENDBRANCH   4   7
ENDBRANCH   2   3
ENDBRANCH   1   2
BRANCH   1  26
ATOM     26  C   UNL A   1      36.215  21.009  25.365  1.00  0.00     0.002 C 
BRANCH  26  27
ATOM     27  C   UNL A   1      37.274  20.531  24.367  1.00  0.00     0.002 C 
BRANCH  27  28
ATOM     28  C   UNL A   1      38.187  19.425  24.891  1.00  0.00     0.021 C 
BRANCH  28  29
ATOM     29  C   UNL A   1      39.203  19.896  25.922  1.00  0.00     0.116 C 
BRANCH  29  30
ATOM     30  N   UNL A   1      40.435  19.126  25.861  1.00  0.00    -0.352 N 
ATOM     31  C   UNL A   1      41.729  19.555  26.021  1.00  0.00     0.251 C 
ATOM     32  H   UNL A   1      40.325  18.164  25.681  1.00  0.00     0.163 HD
ATOM     33  O   UNL A   1      42.667  18.825  25.730  1.00  0.00    -0.269 OA
BRANCH  31  34
ATOM     34  C   UNL A   1      41.979  20.919  26.532  1.00  0.00     0.039 A 
ATOM     35  C   UNL A   1      41.974  21.137  27.911  1.00  0.00     0.014 A 
ATOM     36  C   UNL A   1      42.229  21.976  25.650  1.00  0.00     0.014 A 
ATOM     37  C   UNL A   1      42.273  22.406  28.408  1.00  0.00     0.010 A 
ATOM     38  C   UNL A   1      42.606  23.217  26.150  1.00  0.00     0.010 A 
ATOM     39  C   UNL A   1      42.624  23.448  27.533  1.00  0.00    -0.014 A 
BRANCH  39  40
ATOM     40  C   UNL A   1      43.004  24.788  28.046  1.00  0.00     0.031 A 
ATOM     41  C   UNL A   1      41.945  25.826  28.297  1.00  0.00     0.074 A 
ATOM     42  C   UNL A   1      44.304  25.088  28.229  1.00  0.00     0.049 A 
ATOM     43  N   UNL A   1      42.082  27.070  28.680  1.00  0.00    -0.248 NA
ATOM     44  C   UNL A   1      40.550  25.421  28.061  1.00  0.00     0.031 C 
ATOM     45  C   UNL A   1      45.427  24.183  27.979  1.00  0.00     0.029 A 
ATOM     46  N   UNL A   1      44.903  26.246  28.659  1.00  0.00    -0.354 N 
ATOM     47  C   UNL A   1      40.796  27.596  28.720  1.00  0.00     0.074 A 
ATOM     48  C   UNL A   1      39.900  26.556  28.264  1.00  0.00     0.031 C 
ATOM     49  C   UNL A   1      46.574  24.809  28.284  1.00  0.00     0.029 A 
ATOM     50  C   UNL A   1      46.274  26.173  28.709  1.00  0.00     0.049 A 
ATOM     51  H   UNL A   1      44.396  27.053  28.910  1.00  0.00     0.167 HD
ATOM     52  C   UNL A   1      40.397  28.825  29.123  1.00  0.00     0.037 A 
ATOM     53  C   UNL A   1      47.185  27.103  29.049  1.00  0.00     0.037 A 
ATOM     54  C   UNL A   1      41.292  29.850  29.593  1.00  0.00     0.049 A 
ATOM     55  C   UNL A   1      46.716  28.469  29.472  1.00  0.00     0.074 A 
ATOM     56  C   UNL A   1      40.981  31.110  30.073  1.00  0.00     0.029 A 
ATOM     57  N   UNL A   1      42.673  29.734  29.637  1.00  0.00    -0.354 N 
ATOM     58  N   UNL A   1      45.494  28.931  29.569  1.00  0.00    -0.248 NA
ATOM     59  C   UNL A   1      47.756  29.441  29.839  1.00  0.00     0.031 C 
ATOM     60  C   UNL A   1      42.177  31.776  30.357  1.00  0.00     0.029 A 
ATOM     61  C   UNL A   1      43.230  30.910  30.112  1.00  0.00     0.049 A 
ATOM     62  H   UNL A   1      43.182  28.935  29.370  1.00  0.00     0.167 HD
ATOM     63  C   UNL A   1      45.614  30.232  30.039  1.00  0.00     0.074 A 
ATOM     64  C   UNL A   1      47.028  30.481  30.220  1.00  0.00     0.031 C 
ATOM     65  C   UNL A   1      44.640  31.140  30.298  1.00  0.00     0.037 A 
BRANCH  52  66
ATOM     66  C   UNL A   1      38.927  29.129  29.075  1.00  0.00     0.057 A 
ATOM     67  C   UNL A   1      38.110  29.018  30.209  1.00  0.00     0.134 A 
ATOM     68  C   UNL A   1      38.327  29.576  27.891  1.00  0.00     0.134 A 
ATOM     69  F   UNL A   1      38.618  28.584  31.372  1.00  0.00    -0.206 F 
ATOM     70  C   UNL A   1      36.748  29.314  30.161  1.00  0.00     0.040 A 
ATOM     71  C   UNL A   1      36.972  29.905  27.838  1.00  0.00     0.040 A 
ATOM     72  F   UNL A   1      39.050  29.712  26.769  1.00  0.00    -0.206 F 
ATOM     73  C   UNL A   1      36.176  29.768  28.974  1.00  0.00     0.006 A 
ENDBRANCH  52  66
BRANCH  53  74
ATOM     74  C   UNL A   1      48.634  26.776  29.018  1.00  0.00     0.057 A 
ATOM     75  C   UNL A   1      49.394  26.958  27.857  1.00  0.00     0.134 A 
ATOM     76  C   UNL A   1      49.291  26.256  30.141  1.00  0.00     0.134 A 
ATOM     77  F   UNL A   1      48.818  27.435  26.743  1.00  0.00    -0.206 F 
ATOM     78  C   UNL A   1      50.744  26.614  27.802  1.00  0.00     0.040 A 
ATOM     79  C   UNL A   1      50.649  25.934  30.110  1.00  0.00     0.040 A 
ATOM     80  F   UNL A   1      48.624  26.065  31.289  1.00  0.00    -0.206 F 
ATOM     81  C   UNL A   1      51.377  26.104  28.934  1.00  0.00     0.006 A 
ENDBRANCH  53  74
BRANCH  65  82
ATOM     82  C   UNL A   1      45.067  32.471  30.847  1.00  0.00     0.057 A 
ATOM     83  C   UNL A   1      45.330  33.569  30.018  1.00  0.00     0.134 A 
ATOM     84  C   UNL A   1      45.177  32.666  32.230  1.00  0.00     0.134 A 
ATOM     85  F   UNL A   1      45.254  33.446  28.684  1.00  0.00    -0.206 F 
ATOM     86  C   UNL A   1      45.710  34.805  30.542  1.00  0.00     0.040 A 
ATOM     87  C   UNL A   1      45.527  33.905  32.768  1.00  0.00     0.040 A 
ATOM     88  F   UNL A   1      44.931  31.658  33.082  1.00  0.00    -0.206 F 
ATOM     89  C   UNL A   1      45.802  34.976  31.923  1.00  0.00     0.006 A 
ENDBRANCH  65  82
ENDBRANCH  39  40
ENDBRANCH  31  34
ENDBRANCH  29  30
ENDBRANCH  28  29
ENDBRANCH  27  28
ENDBRANCH  26  27
ENDBRANCH   1  26
TORSDOF 19
ENDMDL
