MODEL 1
REMARK VINA RESULT:     -12.6      0.000      0.000
REMARK SMILES Cc1nc(-c2ccccc2Cl)nc2sc(C(=O)NCCCCCCNC(=O)c3ccc(-c4c5nc(c(-c6c(F)cccc6F)c6ccc([nH]6)c(-c6c(F)cccc6F)c6nc(c(-c7c(F)cccc7F)c7ccc4[nH]7)C=C6)C=C5)cc3)c(N)c12
REMARK SMILES IDX 22 1 21 2 20 3 19 4 18 5 16 6 17 7 15 9 1 10 2 11 3 12 84 13
REMARK SMILES IDX 4 14 13 15 82 16 12 17 14 18 5 19 6 20 10 21 7 22 9 23 11 24
REMARK SMILES IDX 8 25 83 26 23 29 24 30 25 31 26 32 27 34 28 35 29 36 81 37
REMARK SMILES IDX 30 38 80 39 31 40 32 41 33 42 74 43 34 44 79 45 73 46 75 47
REMARK SMILES IDX 35 48 78 49 72 50 71 51 36 53 62 54 45 55 61 56 46 57 49 58
REMARK SMILES IDX 60 59 76 60 47 61 48 62 59 64 77 65 50 66 37 67 38 68 43 69
REMARK SMILES IDX 39 70 40 71 42 72 44 73 41 74 63 75 64 76 69 77 65 78 66 79
REMARK SMILES IDX 68 80 70 81 67 82 51 83 52 84 57 85 53 86 54 87 56 88 58 89
REMARK SMILES IDX 55 90
REMARK H PARENT 18 8 83 27 83 28 25 33 75 52 49 63
REMARK Flexibility Score: inf
ROOT
ATOM      1  C   UNL A   1      40.697  21.112  27.102  1.00  0.00     0.002 C 
ENDROOT
BRANCH   1   2
ATOM      2  C   UNL A   1      39.600  21.928  26.397  1.00  0.00     0.002 C 
BRANCH   2   3
ATOM      3  C   UNL A   1      38.723  21.138  25.417  1.00  0.00     0.021 C 
BRANCH   3   4
ATOM      4  C   UNL A   1      37.368  21.800  25.149  1.00  0.00     0.116 C 
BRANCH   4   5
ATOM      5  N   UNL A   1      36.324  20.809  24.946  1.00  0.00    -0.351 N 
ATOM      6  C   UNL A   1      34.951  20.856  25.070  1.00  0.00     0.263 C 
ATOM      7  O   UNL A   1      34.359  19.840  24.688  1.00  0.00    -0.268 OA
ATOM      8  H   UNL A   1      36.665  19.929  24.665  1.00  0.00     0.163 HD
BRANCH   6   9
ATOM      9  C   UNL A   1      34.230  22.030  25.553  1.00  0.00     0.118 A 
ATOM     10  C   UNL A   1      29.977  23.379  26.931  1.00  0.00     0.067 C 
ATOM     11  C   UNL A   1      31.229  24.089  26.514  1.00  0.00     0.052 A 
ATOM     12  N   UNL A   1      31.169  25.457  26.496  1.00  0.00    -0.233 NA
ATOM     13  C   UNL A   1      32.449  23.461  26.182  1.00  0.00     0.056 A 
ATOM     14  C   UNL A   1      32.282  26.160  26.222  1.00  0.00     0.162 A 
ATOM     15  C   UNL A   1      33.515  24.324  26.003  1.00  0.00     0.130 A 
ATOM     16  C   UNL A   1      32.897  22.106  25.955  1.00  0.00     0.067 A 
ATOM     17  N   UNL A   1      33.495  25.658  25.997  1.00  0.00    -0.217 NA
ATOM     18  S   UNL A   1      34.991  23.528  25.840  1.00  0.00    -0.108 S 
BRANCH  14  19
ATOM     19  C   UNL A   1      32.207  27.614  26.126  1.00  0.00     0.038 A 
ATOM     20  C   UNL A   1      32.670  28.398  27.204  1.00  0.00     0.013 A 
ATOM     21  C   UNL A   1      31.560  28.262  25.064  1.00  0.00     0.052 A 
ATOM     22  C   UNL A   1      32.477  29.781  27.228  1.00  0.00     0.001 A 
ATOM     23  C   UNL A   1      31.367  29.649  25.090  1.00  0.00     0.021 A 
ATOM     24  Cl  UNL A   1      30.910  27.390  23.718  1.00  0.00    -0.084 Cl
ATOM     25  C   UNL A   1      31.819  30.405  26.172  1.00  0.00     0.002 A 
ENDBRANCH  14  19
BRANCH  16  26
ATOM     26  N   UNL A   1      32.108  21.011  26.036  1.00  0.00    -0.397 N 
ATOM     27  H   UNL A   1      32.064  20.497  26.874  1.00  0.00     0.156 HD
ATOM     28  H   UNL A   1      31.580  20.727  25.256  1.00  0.00     0.156 HD
ENDBRANCH  16  26
ENDBRANCH   6   9
ENDBRANCH   4   5
ENDBRANCH   3   4
ENDBRANCH   2   3
ENDBRANCH   1   2
BRANCH   1  29
ATOM     29  C   UNL A   1      41.291  19.952  26.291  1.00  0.00     0.021 C 
BRANCH  29  30
ATOM     30  C   UNL A   1      42.673  19.539  26.774  1.00  0.00     0.116 C 
BRANCH  30  31
ATOM     31  N   UNL A   1      43.628  19.473  25.673  1.00  0.00    -0.352 N 
ATOM     32  C   UNL A   1      44.147  20.506  24.924  1.00  0.00     0.251 C 
ATOM     33  H   UNL A   1      43.943  18.570  25.434  1.00  0.00     0.163 HD
ATOM     34  O   UNL A   1      44.675  20.295  23.845  1.00  0.00    -0.269 OA
BRANCH  32  35
ATOM     35  C   UNL A   1      44.051  21.878  25.449  1.00  0.00     0.039 A 
ATOM     36  C   UNL A   1      43.118  22.768  24.913  1.00  0.00     0.014 A 
ATOM     37  C   UNL A   1      44.908  22.269  26.478  1.00  0.00     0.014 A 
ATOM     38  C   UNL A   1      43.004  24.037  25.467  1.00  0.00     0.010 A 
ATOM     39  C   UNL A   1      44.725  23.484  27.095  1.00  0.00     0.010 A 
ATOM     40  C   UNL A   1      43.800  24.383  26.571  1.00  0.00    -0.014 A 
BRANCH  40  41
ATOM     41  C   UNL A   1      43.569  25.644  27.266  1.00  0.00     0.031 A 
ATOM     42  C   UNL A   1      44.563  26.714  26.959  1.00  0.00     0.074 A 
ATOM     43  C   UNL A   1      42.438  25.902  27.953  1.00  0.00     0.049 A 
ATOM     44  N   UNL A   1      45.366  27.312  27.777  1.00  0.00    -0.248 NA
ATOM     45  C   UNL A   1      44.768  27.085  25.549  1.00  0.00     0.031 C 
ATOM     46  C   UNL A   1      41.238  25.070  28.085  1.00  0.00     0.029 A 
ATOM     47  N   UNL A   1      42.086  27.038  28.614  1.00  0.00    -0.354 N 
ATOM     48  C   UNL A   1      46.053  28.263  27.023  1.00  0.00     0.074 A 
ATOM     49  C   UNL A   1      45.758  27.975  25.643  1.00  0.00     0.031 C 
ATOM     50  C   UNL A   1      40.223  25.812  28.580  1.00  0.00     0.029 A 
ATOM     51  C   UNL A   1      40.740  27.115  28.952  1.00  0.00     0.049 A 
ATOM     52  H   UNL A   1      42.732  27.747  28.834  1.00  0.00     0.167 HD
ATOM     53  C   UNL A   1      46.645  29.340  27.609  1.00  0.00     0.037 A 
ATOM     54  C   UNL A   1      40.097  28.188  29.473  1.00  0.00     0.037 A 
ATOM     55  C   UNL A   1      46.828  29.124  29.021  1.00  0.00     0.049 A 
ATOM     56  C   UNL A   1      41.129  29.071  30.069  1.00  0.00     0.074 A 
ATOM     57  C   UNL A   1      47.529  28.204  29.776  1.00  0.00     0.029 A 
ATOM     58  N   UNL A   1      45.929  29.706  29.882  1.00  0.00    -0.354 N 
ATOM     59  N   UNL A   1      41.845  28.750  31.111  1.00  0.00    -0.248 NA
ATOM     60  C   UNL A   1      41.688  30.115  29.223  1.00  0.00     0.031 C 
ATOM     61  C   UNL A   1      46.685  27.928  30.890  1.00  0.00     0.029 A 
ATOM     62  C   UNL A   1      45.557  28.745  30.785  1.00  0.00     0.049 A 
ATOM     63  H   UNL A   1      45.613  30.637  29.855  1.00  0.00     0.167 HD
ATOM     64  C   UNL A   1      43.116  29.229  30.828  1.00  0.00     0.074 A 
ATOM     65  C   UNL A   1      42.939  30.132  29.693  1.00  0.00     0.031 C 
ATOM     66  C   UNL A   1      44.230  28.634  31.349  1.00  0.00     0.037 A 
BRANCH  53  67
ATOM     67  C   UNL A   1      46.737  30.716  26.992  1.00  0.00     0.057 A 
ATOM     68  C   UNL A   1      47.977  31.385  26.984  1.00  0.00     0.134 A 
ATOM     69  C   UNL A   1      45.625  31.523  26.678  1.00  0.00     0.134 A 
ATOM     70  F   UNL A   1      49.114  30.736  27.275  1.00  0.00    -0.206 F 
ATOM     71  C   UNL A   1      48.088  32.764  26.763  1.00  0.00     0.040 A 
ATOM     72  C   UNL A   1      45.732  32.890  26.406  1.00  0.00     0.040 A 
ATOM     73  F   UNL A   1      44.370  31.064  26.713  1.00  0.00    -0.206 F 
ATOM     74  C   UNL A   1      46.961  33.524  26.481  1.00  0.00     0.006 A 
ENDBRANCH  53  67
BRANCH  54  75
ATOM     75  C   UNL A   1      38.706  28.635  29.220  1.00  0.00     0.057 A 
ATOM     76  C   UNL A   1      37.761  28.697  30.255  1.00  0.00     0.134 A 
ATOM     77  C   UNL A   1      38.344  29.268  28.018  1.00  0.00     0.134 A 
ATOM     78  F   UNL A   1      38.030  28.164  31.455  1.00  0.00    -0.206 F 
ATOM     79  C   UNL A   1      36.538  29.368  30.108  1.00  0.00     0.040 A 
ATOM     80  C   UNL A   1      37.125  29.935  27.856  1.00  0.00     0.040 A 
ATOM     81  F   UNL A   1      39.198  29.338  26.986  1.00  0.00    -0.206 F 
ATOM     82  C   UNL A   1      36.221  29.998  28.909  1.00  0.00     0.006 A 
ENDBRANCH  54  75
BRANCH  66  83
ATOM     83  C   UNL A   1      44.054  27.581  32.411  1.00  0.00     0.057 A 
ATOM     84  C   UNL A   1      44.043  26.202  32.147  1.00  0.00     0.134 A 
ATOM     85  C   UNL A   1      44.133  27.964  33.754  1.00  0.00     0.134 A 
ATOM     86  F   UNL A   1      44.056  25.734  30.895  1.00  0.00    -0.206 F 
ATOM     87  C   UNL A   1      44.098  25.252  33.172  1.00  0.00     0.040 A 
ATOM     88  C   UNL A   1      44.221  27.026  34.785  1.00  0.00     0.040 A 
ATOM     89  F   UNL A   1      44.202  29.264  34.081  1.00  0.00    -0.206 F 
ATOM     90  C   UNL A   1      44.204  25.663  34.496  1.00  0.00     0.006 A 
ENDBRANCH  66  83
ENDBRANCH  40  41
ENDBRANCH  32  35
ENDBRANCH  30  31
ENDBRANCH  29  30
ENDBRANCH   1  29
TORSDOF 15
ENDMDL
MODEL 2
REMARK VINA RESULT:     -12.3      2.584      3.644
REMARK SMILES Cc1nc(-c2ccccc2Cl)nc2sc(C(=O)NCCCCCCNC(=O)c3ccc(-c4c5nc(c(-c6c(F)cccc6F)c6ccc([nH]6)c(-c6c(F)cccc6F)c6nc(c(-c7c(F)cccc7F)c7ccc4[nH]7)C=C6)C=C5)cc3)c(N)c12
REMARK SMILES IDX 22 1 21 2 20 3 19 4 18 5 16 6 17 7 15 9 1 10 2 11 3 12 84 13
REMARK SMILES IDX 4 14 13 15 82 16 12 17 14 18 5 19 6 20 10 21 7 22 9 23 11 24
REMARK SMILES IDX 8 25 83 26 23 29 24 30 25 31 26 32 27 34 28 35 29 36 81 37
REMARK SMILES IDX 30 38 80 39 31 40 32 41 33 42 74 43 34 44 79 45 73 46 75 47
REMARK SMILES IDX 35 48 78 49 72 50 71 51 36 53 62 54 45 55 61 56 46 57 49 58
REMARK SMILES IDX 60 59 76 60 47 61 48 62 59 64 77 65 50 66 37 67 38 68 43 69
REMARK SMILES IDX 39 70 40 71 42 72 44 73 41 74 63 75 64 76 69 77 65 78 66 79
REMARK SMILES IDX 68 80 70 81 67 82 51 83 52 84 57 85 53 86 54 87 56 88 58 89
REMARK SMILES IDX 55 90
REMARK H PARENT 18 8 83 27 83 28 25 33 75 52 49 63
REMARK Flexibility Score: inf
ROOT
ATOM      1  C   UNL A   1      37.876  23.009  25.862  1.00  0.00     0.002 C 
ENDROOT
BRANCH   1   2
ATOM      2  C   UNL A   1      36.880  22.862  24.699  1.00  0.00     0.002 C 
BRANCH   2   3
ATOM      3  C   UNL A   1      36.130  21.525  24.643  1.00  0.00     0.021 C 
BRANCH   3   4
ATOM      4  C   UNL A   1      35.424  21.172  25.955  1.00  0.00     0.116 C 
BRANCH   4   5
ATOM      5  N   UNL A   1      34.056  20.741  25.722  1.00  0.00    -0.351 N 
ATOM      6  C   UNL A   1      32.909  21.418  25.362  1.00  0.00     0.263 C 
ATOM      7  O   UNL A   1      31.932  20.698  25.127  1.00  0.00    -0.268 OA
ATOM      8  H   UNL A   1      33.920  19.773  25.847  1.00  0.00     0.163 HD
BRANCH   6   9
ATOM      9  C   UNL A   1      32.851  22.868  25.203  1.00  0.00     0.118 A 
ATOM     10  C   UNL A   1      33.363  26.201  21.973  1.00  0.00     0.067 C 
ATOM     11  C   UNL A   1      33.322  26.177  23.471  1.00  0.00     0.052 A 
ATOM     12  N   UNL A   1      33.484  27.383  24.098  1.00  0.00    -0.233 NA
ATOM     13  C   UNL A   1      33.096  25.028  24.261  1.00  0.00     0.056 A 
ATOM     14  C   UNL A   1      33.365  27.448  25.436  1.00  0.00     0.162 A 
ATOM     15  C   UNL A   1      32.922  25.277  25.610  1.00  0.00     0.130 A 
ATOM     16  C   UNL A   1      33.008  23.605  24.029  1.00  0.00     0.067 A 
ATOM     17  N   UNL A   1      33.055  26.440  26.250  1.00  0.00    -0.217 NA
ATOM     18  S   UNL A   1      32.427  23.920  26.476  1.00  0.00    -0.108 S 
BRANCH  14  19
ATOM     19  C   UNL A   1      33.613  28.715  26.117  1.00  0.00     0.038 A 
ATOM     20  C   UNL A   1      34.736  28.832  26.963  1.00  0.00     0.013 A 
ATOM     21  C   UNL A   1      32.699  29.778  26.077  1.00  0.00     0.052 A 
ATOM     22  C   UNL A   1      34.929  29.965  27.756  1.00  0.00     0.001 A 
ATOM     23  C   UNL A   1      32.895  30.913  26.873  1.00  0.00     0.021 A 
ATOM     24  Cl  UNL A   1      31.263  29.716  25.112  1.00  0.00    -0.084 Cl
ATOM     25  C   UNL A   1      34.004  31.003  27.715  1.00  0.00     0.002 A 
ENDBRANCH  14  19
BRANCH  16  26
ATOM     26  N   UNL A   1      33.143  23.010  22.822  1.00  0.00    -0.397 N 
ATOM     27  H   UNL A   1      33.121  22.029  22.752  1.00  0.00     0.156 HD
ATOM     28  H   UNL A   1      33.265  23.559  22.015  1.00  0.00     0.156 HD
ENDBRANCH  16  26
ENDBRANCH   6   9
ENDBRANCH   4   5
ENDBRANCH   3   4
ENDBRANCH   2   3
ENDBRANCH   1   2
BRANCH   1  29
ATOM     29  C   UNL A   1      38.936  21.903  25.978  1.00  0.00     0.021 C 
BRANCH  29  30
ATOM     30  C   UNL A   1      40.103  22.294  26.870  1.00  0.00     0.116 C 
BRANCH  30  31
ATOM     31  N   UNL A   1      41.341  22.422  26.108  1.00  0.00    -0.352 N 
ATOM     32  C   UNL A   1      42.050  23.564  25.809  1.00  0.00     0.251 C 
ATOM     33  H   UNL A   1      41.719  21.580  25.762  1.00  0.00     0.163 HD
ATOM     34  O   UNL A   1      42.874  23.573  24.910  1.00  0.00    -0.269 OA
BRANCH  32  35
ATOM     35  C   UNL A   1      41.794  24.782  26.595  1.00  0.00     0.039 A 
ATOM     36  C   UNL A   1      42.370  24.933  27.858  1.00  0.00     0.014 A 
ATOM     37  C   UNL A   1      40.968  25.770  26.059  1.00  0.00     0.014 A 
ATOM     38  C   UNL A   1      42.163  26.118  28.554  1.00  0.00     0.010 A 
ATOM     39  C   UNL A   1      40.850  26.982  26.698  1.00  0.00     0.010 A 
ATOM     40  C   UNL A   1      41.415  27.147  27.959  1.00  0.00    -0.014 A 
BRANCH  40  41
ATOM     41  C   UNL A   1      41.336  28.453  28.603  1.00  0.00     0.031 A 
ATOM     42  C   UNL A   1      42.485  29.360  28.315  1.00  0.00     0.074 A 
ATOM     43  C   UNL A   1      40.224  28.893  29.227  1.00  0.00     0.049 A 
ATOM     44  N   UNL A   1      43.328  29.868  29.153  1.00  0.00    -0.248 NA
ATOM     45  C   UNL A   1      42.803  29.647  26.906  1.00  0.00     0.031 C 
ATOM     46  C   UNL A   1      38.912  28.243  29.323  1.00  0.00     0.029 A 
ATOM     47  N   UNL A   1      40.008  30.090  29.835  1.00  0.00    -0.354 N 
ATOM     48  C   UNL A   1      44.177  30.684  28.406  1.00  0.00     0.074 A 
ATOM     49  C   UNL A   1      43.905  30.391  27.023  1.00  0.00     0.031 C 
ATOM     50  C   UNL A   1      37.993  29.138  29.746  1.00  0.00     0.029 A 
ATOM     51  C   UNL A   1      38.674  30.368  30.105  1.00  0.00     0.049 A 
ATOM     52  H   UNL A   1      40.738  30.708  30.067  1.00  0.00     0.167 HD
ATOM     53  C   UNL A   1      44.890  31.687  28.989  1.00  0.00     0.037 A 
ATOM     54  C   UNL A   1      38.168  31.539  30.561  1.00  0.00     0.037 A 
ATOM     55  C   UNL A   1      44.977  31.498  30.414  1.00  0.00     0.049 A 
ATOM     56  C   UNL A   1      39.288  32.289  31.181  1.00  0.00     0.074 A 
ATOM     57  C   UNL A   1      45.505  30.516  31.230  1.00  0.00     0.029 A 
ATOM     58  N   UNL A   1      44.133  32.231  31.213  1.00  0.00    -0.354 N 
ATOM     59  N   UNL A   1      39.903  31.907  32.266  1.00  0.00    -0.248 NA
ATOM     60  C   UNL A   1      40.028  33.212  30.334  1.00  0.00     0.031 C 
ATOM     61  C   UNL A   1      44.582  30.403  32.309  1.00  0.00     0.029 A 
ATOM     62  C   UNL A   1      43.587  31.366  32.124  1.00  0.00     0.049 A 
ATOM     63  H   UNL A   1      43.955  33.197  31.143  1.00  0.00     0.167 HD
ATOM     64  C   UNL A   1      41.241  32.191  32.033  1.00  0.00     0.074 A 
ATOM     65  C   UNL A   1      41.245  33.069  30.864  1.00  0.00     0.031 C 
ATOM     66  C   UNL A   1      42.234  31.465  32.624  1.00  0.00     0.037 A 
BRANCH  53  67
ATOM     67  C   UNL A   1      45.205  33.013  28.338  1.00  0.00     0.057 A 
ATOM     68  C   UNL A   1      44.152  33.891  28.017  1.00  0.00     0.134 A 
ATOM     69  C   UNL A   1      46.446  33.336  27.751  1.00  0.00     0.134 A 
ATOM     70  F   UNL A   1      42.916  33.693  28.501  1.00  0.00    -0.206 F 
ATOM     71  C   UNL A   1      44.303  34.954  27.118  1.00  0.00     0.040 A 
ATOM     72  C   UNL A   1      46.619  34.424  26.892  1.00  0.00     0.040 A 
ATOM     73  F   UNL A   1      47.530  32.566  27.892  1.00  0.00    -0.206 F 
ATOM     74  C   UNL A   1      45.539  35.219  26.544  1.00  0.00     0.006 A 
ENDBRANCH  53  67
BRANCH  54  75
ATOM     75  C   UNL A   1      36.868  32.169  30.227  1.00  0.00     0.057 A 
ATOM     76  C   UNL A   1      35.761  32.053  31.081  1.00  0.00     0.134 A 
ATOM     77  C   UNL A   1      36.755  33.123  29.201  1.00  0.00     0.134 A 
ATOM     78  F   UNL A   1      35.788  31.204  32.119  1.00  0.00    -0.206 F 
ATOM     79  C   UNL A   1      34.618  32.854  30.935  1.00  0.00     0.040 A 
ATOM     80  C   UNL A   1      35.619  33.924  29.040  1.00  0.00     0.040 A 
ATOM     81  F   UNL A   1      37.779  33.374  28.372  1.00  0.00    -0.206 F 
ATOM     82  C   UNL A   1      34.550  33.800  29.917  1.00  0.00     0.006 A 
ENDBRANCH  54  75
BRANCH  66  83
ATOM     83  C   UNL A   1      41.863  30.486  33.707  1.00  0.00     0.057 A 
ATOM     84  C   UNL A   1      41.594  29.128  33.472  1.00  0.00     0.134 A 
ATOM     85  C   UNL A   1      42.010  30.875  35.043  1.00  0.00     0.134 A 
ATOM     86  F   UNL A   1      41.521  28.639  32.230  1.00  0.00    -0.206 F 
ATOM     87  C   UNL A   1      41.469  28.206  34.517  1.00  0.00     0.040 A 
ATOM     88  C   UNL A   1      41.919  29.960  36.093  1.00  0.00     0.040 A 
ATOM     89  F   UNL A   1      42.320  32.147  35.343  1.00  0.00    -0.206 F 
ATOM     90  C   UNL A   1      41.647  28.619  35.833  1.00  0.00     0.006 A 
ENDBRANCH  66  83
ENDBRANCH  40  41
ENDBRANCH  32  35
ENDBRANCH  30  31
ENDBRANCH  29  30
ENDBRANCH   1  29
TORSDOF 15
ENDMDL
MODEL 3
REMARK VINA RESULT:     -12.3      3.084      8.246
REMARK SMILES Cc1nc(-c2ccccc2Cl)nc2sc(C(=O)NCCCCCCNC(=O)c3ccc(-c4c5nc(c(-c6c(F)cccc6F)c6ccc([nH]6)c(-c6c(F)cccc6F)c6nc(c(-c7c(F)cccc7F)c7ccc4[nH]7)C=C6)C=C5)cc3)c(N)c12
REMARK SMILES IDX 22 1 21 2 20 3 19 4 18 5 16 6 17 7 15 9 1 10 2 11 3 12 84 13
REMARK SMILES IDX 4 14 13 15 82 16 12 17 14 18 5 19 6 20 10 21 7 22 9 23 11 24
REMARK SMILES IDX 8 25 83 26 23 29 24 30 25 31 26 32 27 34 28 35 29 36 81 37
REMARK SMILES IDX 30 38 80 39 31 40 32 41 33 42 74 43 34 44 79 45 73 46 75 47
REMARK SMILES IDX 35 48 78 49 72 50 71 51 36 53 62 54 45 55 61 56 46 57 49 58
REMARK SMILES IDX 60 59 76 60 47 61 48 62 59 64 77 65 50 66 37 67 38 68 43 69
REMARK SMILES IDX 39 70 40 71 42 72 44 73 41 74 63 75 64 76 69 77 65 78 66 79
REMARK SMILES IDX 68 80 70 81 67 82 51 83 52 84 57 85 53 86 54 87 56 88 58 89
REMARK SMILES IDX 55 90
REMARK H PARENT 18 8 83 27 83 28 25 33 75 52 49 63
REMARK Flexibility Score: inf
ROOT
ATOM      1  C   UNL A   1      34.390  29.550  27.104  1.00  0.00     0.002 C 
ENDROOT
BRANCH   1   2
ATOM      2  C   UNL A   1      33.669  28.773  25.990  1.00  0.00     0.002 C 
BRANCH   2   3
ATOM      3  C   UNL A   1      32.902  29.635  24.980  1.00  0.00     0.021 C 
BRANCH   3   4
ATOM      4  C   UNL A   1      31.384  29.447  25.052  1.00  0.00     0.116 C 
BRANCH   4   5
ATOM      5  N   UNL A   1      30.832  29.081  23.758  1.00  0.00    -0.351 N 
ATOM      6  C   UNL A   1      30.810  27.898  23.050  1.00  0.00     0.263 C 
ATOM      7  O   UNL A   1      30.130  27.922  22.018  1.00  0.00    -0.268 OA
ATOM      8  H   UNL A   1      30.386  29.827  23.295  1.00  0.00     0.163 HD
BRANCH   6   9
ATOM      9  C   UNL A   1      31.480  26.682  23.501  1.00  0.00     0.118 A 
ATOM     10  C   UNL A   1      30.901  23.069  26.403  1.00  0.00     0.067 C 
ATOM     11  C   UNL A   1      32.066  23.660  25.669  1.00  0.00     0.052 A 
ATOM     12  N   UNL A   1      33.277  23.053  25.869  1.00  0.00    -0.233 NA
ATOM     13  C   UNL A   1      31.997  24.753  24.777  1.00  0.00     0.056 A 
ATOM     14  C   UNL A   1      34.346  23.473  25.171  1.00  0.00     0.162 A 
ATOM     15  C   UNL A   1      33.165  25.008  24.081  1.00  0.00     0.130 A 
ATOM     16  C   UNL A   1      30.997  25.722  24.392  1.00  0.00     0.067 A 
ATOM     17  N   UNL A   1      34.354  24.424  24.238  1.00  0.00    -0.217 NA
ATOM     18  S   UNL A   1      32.974  26.160  22.867  1.00  0.00    -0.108 S 
BRANCH  14  19
ATOM     19  C   UNL A   1      35.653  22.881  25.435  1.00  0.00     0.038 A 
ATOM     20  C   UNL A   1      36.731  23.723  25.784  1.00  0.00     0.013 A 
ATOM     21  C   UNL A   1      35.919  21.522  25.216  1.00  0.00     0.052 A 
ATOM     22  C   UNL A   1      38.031  23.226  25.893  1.00  0.00     0.001 A 
ATOM     23  C   UNL A   1      37.224  21.026  25.326  1.00  0.00     0.021 A 
ATOM     24  Cl  UNL A   1      34.680  20.413  24.735  1.00  0.00    -0.084 Cl
ATOM     25  C   UNL A   1      38.277  21.878  25.658  1.00  0.00     0.002 A 
ENDBRANCH  14  19
BRANCH  16  26
ATOM     26  N   UNL A   1      29.741  25.772  24.888  1.00  0.00    -0.397 N 
ATOM     27  H   UNL A   1      29.592  26.029  25.827  1.00  0.00     0.156 HD
ATOM     28  H   UNL A   1      28.975  25.551  24.311  1.00  0.00     0.156 HD
ENDBRANCH  16  26
ENDBRANCH   6   9
ENDBRANCH   4   5
ENDBRANCH   3   4
ENDBRANCH   2   3
ENDBRANCH   1   2
BRANCH   1  29
ATOM     29  C   UNL A   1      33.655  30.788  27.638  1.00  0.00     0.021 C 
BRANCH  29  30
ATOM     30  C   UNL A   1      34.586  31.961  27.903  1.00  0.00     0.116 C 
BRANCH  30  31
ATOM     31  N   UNL A   1      34.506  32.407  29.290  1.00  0.00    -0.352 N 
ATOM     32  C   UNL A   1      35.242  31.980  30.373  1.00  0.00     0.251 C 
ATOM     33  H   UNL A   1      33.837  33.106  29.476  1.00  0.00     0.163 HD
ATOM     34  O   UNL A   1      34.864  32.193  31.512  1.00  0.00    -0.269 OA
BRANCH  32  35
ATOM     35  C   UNL A   1      36.500  31.254  30.131  1.00  0.00     0.039 A 
ATOM     36  C   UNL A   1      37.684  31.960  29.909  1.00  0.00     0.014 A 
ATOM     37  C   UNL A   1      36.483  29.859  30.123  1.00  0.00     0.014 A 
ATOM     38  C   UNL A   1      38.868  31.252  29.744  1.00  0.00     0.010 A 
ATOM     39  C   UNL A   1      37.667  29.162  30.067  1.00  0.00     0.010 A 
ATOM     40  C   UNL A   1      38.855  29.851  29.843  1.00  0.00    -0.014 A 
BRANCH  40  41
ATOM     41  C   UNL A   1      40.112  29.112  29.843  1.00  0.00     0.031 A 
ATOM     42  C   UNL A   1      40.734  28.944  31.188  1.00  0.00     0.074 A 
ATOM     43  C   UNL A   1      40.568  28.446  28.763  1.00  0.00     0.049 A 
ATOM     44  N   UNL A   1      41.888  29.367  31.591  1.00  0.00    -0.248 NA
ATOM     45  C   UNL A   1      39.926  28.325  32.252  1.00  0.00     0.031 C 
ATOM     46  C   UNL A   1      39.916  28.259  27.462  1.00  0.00     0.029 A 
ATOM     47  N   UNL A   1      41.698  27.699  28.639  1.00  0.00    -0.354 N 
ATOM     48  C   UNL A   1      42.033  28.916  32.903  1.00  0.00     0.074 A 
ATOM     49  C   UNL A   1      40.743  28.418  33.304  1.00  0.00     0.031 C 
ATOM     50  C   UNL A   1      40.545  27.279  26.777  1.00  0.00     0.029 A 
ATOM     51  C   UNL A   1      41.732  26.887  27.512  1.00  0.00     0.049 A 
ATOM     52  H   UNL A   1      42.431  27.731  29.295  1.00  0.00     0.167 HD
ATOM     53  C   UNL A   1      43.261  28.800  33.480  1.00  0.00     0.037 A 
ATOM     54  C   UNL A   1      42.658  25.940  27.225  1.00  0.00     0.037 A 
ATOM     55  C   UNL A   1      44.243  29.571  32.765  1.00  0.00     0.049 A 
ATOM     56  C   UNL A   1      43.863  26.245  28.035  1.00  0.00     0.074 A 
ATOM     57  C   UNL A   1      44.397  30.914  32.475  1.00  0.00     0.029 A 
ATOM     58  N   UNL A   1      45.077  28.906  31.899  1.00  0.00    -0.354 N 
ATOM     59  N   UNL A   1      44.606  27.303  27.859  1.00  0.00    -0.248 NA
ATOM     60  C   UNL A   1      43.970  25.615  29.342  1.00  0.00     0.031 C 
ATOM     61  C   UNL A   1      44.910  30.944  31.146  1.00  0.00     0.029 A 
ATOM     62  C   UNL A   1      45.103  29.624  30.732  1.00  0.00     0.049 A 
ATOM     63  H   UNL A   1      45.564  28.071  32.082  1.00  0.00     0.167 HD
ATOM     64  C   UNL A   1      44.940  27.717  29.141  1.00  0.00     0.074 A 
ATOM     65  C   UNL A   1      44.591  26.593  30.007  1.00  0.00     0.031 C 
ATOM     66  C   UNL A   1      45.198  29.029  29.417  1.00  0.00     0.037 A 
BRANCH  53  67
ATOM     67  C   UNL A   1      43.652  27.726  34.468  1.00  0.00     0.057 A 
ATOM     68  C   UNL A   1      43.682  26.383  34.048  1.00  0.00     0.134 A 
ATOM     69  C   UNL A   1      43.711  27.913  35.864  1.00  0.00     0.134 A 
ATOM     70  F   UNL A   1      43.624  26.065  32.746  1.00  0.00    -0.206 F 
ATOM     71  C   UNL A   1      43.687  25.310  34.949  1.00  0.00     0.040 A 
ATOM     72  C   UNL A   1      43.766  26.851  36.771  1.00  0.00     0.040 A 
ATOM     73  F   UNL A   1      43.617  29.120  36.434  1.00  0.00    -0.206 F 
ATOM     74  C   UNL A   1      43.719  25.542  36.317  1.00  0.00     0.006 A 
ENDBRANCH  53  67
BRANCH  54  75
ATOM     75  C   UNL A   1      42.459  24.640  26.540  1.00  0.00     0.057 A 
ATOM     76  C   UNL A   1      43.241  24.271  25.436  1.00  0.00     0.134 A 
ATOM     77  C   UNL A   1      41.686  23.617  27.116  1.00  0.00     0.134 A 
ATOM     78  F   UNL A   1      44.048  25.163  24.844  1.00  0.00    -0.206 F 
ATOM     79  C   UNL A   1      43.267  22.956  24.947  1.00  0.00     0.040 A 
ATOM     80  C   UNL A   1      41.698  22.303  26.635  1.00  0.00     0.040 A 
ATOM     81  F   UNL A   1      40.959  23.835  28.222  1.00  0.00    -0.206 F 
ATOM     82  C   UNL A   1      42.501  21.965  25.553  1.00  0.00     0.006 A 
ENDBRANCH  54  75
BRANCH  66  83
ATOM     83  C   UNL A   1      45.328  29.995  28.269  1.00  0.00     0.057 A 
ATOM     84  C   UNL A   1      44.257  30.743  27.754  1.00  0.00     0.134 A 
ATOM     85  C   UNL A   1      46.609  30.348  27.831  1.00  0.00     0.134 A 
ATOM     86  F   UNL A   1      43.004  30.542  28.173  1.00  0.00    -0.206 F 
ATOM     87  C   UNL A   1      44.453  31.784  26.840  1.00  0.00     0.040 A 
ATOM     88  C   UNL A   1      46.821  31.405  26.945  1.00  0.00     0.040 A 
ATOM     89  F   UNL A   1      47.686  29.713  28.321  1.00  0.00    -0.206 F 
ATOM     90  C   UNL A   1      45.741  32.129  26.445  1.00  0.00     0.006 A 
ENDBRANCH  66  83
ENDBRANCH  40  41
ENDBRANCH  32  35
ENDBRANCH  30  31
ENDBRANCH  29  30
ENDBRANCH   1  29
TORSDOF 15
ENDMDL
