MODEL 1
REMARK VINA RESULT:     -11.3      0.000      0.000
REMARK SMILES Cc1ccsc1CNS(=O)(=O)c1ccc(C(=O)NCCCCCCNC(=O)c2ccc(-c3c4nc(c(-c5c(F)cccc5F)c5ccc([nH]5)c(-c5c(F)cccc5F)c5nc(c(-c6c(F)cccc6F)c6ccc3[nH]6)C=C5)C=C4)cc2)s1
REMARK SMILES IDX 20 1 19 2 18 3 16 4 17 5 15 7 12 8 13 9 82 10 14 11 9 12
REMARK SMILES IDX 10 13 11 14 8 15 7 17 6 18 1 19 2 20 3 21 4 22 5 23 21 24
REMARK SMILES IDX 22 25 23 26 24 27 25 28 26 29 27 31 28 32 29 33 81 34 30 35
REMARK SMILES IDX 80 36 31 37 32 38 33 39 74 40 34 41 79 42 73 43 75 44 35 45
REMARK SMILES IDX 78 46 72 47 71 48 36 50 62 51 45 52 61 53 46 54 49 55 60 56
REMARK SMILES IDX 76 57 47 58 48 59 59 61 77 62 50 63 37 64 38 65 43 66 39 67
REMARK SMILES IDX 40 68 42 69 44 70 41 71 63 72 64 73 69 74 65 75 66 76 68 77
REMARK SMILES IDX 70 78 67 79 51 80 52 81 57 82 53 83 54 84 56 85 58 86 55 87
REMARK H PARENT 18 6 8 16 25 30 75 49 49 60
REMARK Flexibility Score: inf
ROOT
ATOM      1  C   UNL A   1      33.865  23.892  26.391  1.00  0.00     0.021 C 
ENDROOT
BRANCH   1   2
ATOM      2  C   UNL A   1      35.004  22.973  25.948  1.00  0.00     0.116 C 
BRANCH   2   3
ATOM      3  N   UNL A   1      34.473  21.736  25.424  1.00  0.00    -0.351 N 
ATOM      4  C   UNL A   1      33.465  21.467  24.533  1.00  0.00     0.261 C 
ATOM      5  O   UNL A   1      33.268  20.265  24.327  1.00  0.00    -0.268 OA
ATOM      6  H   UNL A   1      34.921  20.932  25.773  1.00  0.00     0.163 HD
BRANCH   4   7
ATOM      7  C   UNL A   1      32.733  22.525  23.848  1.00  0.00     0.093 A 
ATOM      8  C   UNL A   1      32.359  24.569  22.471  1.00  0.00     0.135 A 
ATOM      9  C   UNL A   1      31.216  24.158  23.126  1.00  0.00     0.034 A 
ATOM     10  S   UNL A   1      33.623  23.460  22.706  1.00  0.00    -0.117 S 
ATOM     11  C   UNL A   1      31.420  22.960  23.879  1.00  0.00     0.027 A 
BRANCH   8  12
ATOM     12  S   UNL A   1      32.685  25.993  21.462  1.00  0.00     0.250 S 
ATOM     13  O   UNL A   1      32.828  25.463  20.122  1.00  0.00    -0.206 OA
ATOM     14  O   UNL A   1      33.786  26.657  22.122  1.00  0.00    -0.206 OA
BRANCH  12  15
ATOM     15  N   UNL A   1      31.405  27.077  21.455  1.00  0.00    -0.205 NA
ATOM     16  H   UNL A   1      31.529  27.694  20.653  1.00  0.00     0.141 HD
BRANCH  15  17
ATOM     17  C   UNL A   1      31.241  27.923  22.644  1.00  0.00     0.145 C 
BRANCH  17  18
ATOM     18  C   UNL A   1      29.855  28.511  22.653  1.00  0.00     0.022 A 
ATOM     19  C   UNL A   1      28.538  26.662  23.876  1.00  0.00     0.045 C 
ATOM     20  C   UNL A   1      28.684  27.976  23.178  1.00  0.00    -0.036 A 
ATOM     21  C   UNL A   1      27.576  28.869  22.983  1.00  0.00     0.015 A 
ATOM     22  C   UNL A   1      27.933  30.036  22.351  1.00  0.00     0.065 A 
ATOM     23  S   UNL A   1      29.598  30.084  22.001  1.00  0.00    -0.147 S 
ENDBRANCH  17  18
ENDBRANCH  15  17
ENDBRANCH  12  15
ENDBRANCH   8  12
ENDBRANCH   4   7
ENDBRANCH   2   3
ENDBRANCH   1   2
BRANCH   1  24
ATOM     24  C   UNL A   1      34.031  25.339  25.905  1.00  0.00     0.002 C 
BRANCH  24  25
ATOM     25  C   UNL A   1      32.732  26.154  25.845  1.00  0.00     0.002 C 
BRANCH  25  26
ATOM     26  C   UNL A   1      32.776  27.505  26.567  1.00  0.00     0.021 C 
BRANCH  26  27
ATOM     27  C   UNL A   1      33.932  28.413  26.155  1.00  0.00     0.116 C 
BRANCH  27  28
ATOM     28  N   UNL A   1      33.724  29.782  26.592  1.00  0.00    -0.352 N 
ATOM     29  C   UNL A   1      34.433  30.538  27.490  1.00  0.00     0.251 C 
ATOM     30  H   UNL A   1      32.956  30.239  26.179  1.00  0.00     0.163 HD
ATOM     31  O   UNL A   1      33.968  31.604  27.883  1.00  0.00    -0.269 OA
BRANCH  29  32
ATOM     32  C   UNL A   1      35.745  30.080  28.000  1.00  0.00     0.039 A 
ATOM     33  C   UNL A   1      35.804  29.542  29.288  1.00  0.00     0.014 A 
ATOM     34  C   UNL A   1      36.917  30.229  27.251  1.00  0.00     0.014 A 
ATOM     35  C   UNL A   1      37.028  29.123  29.812  1.00  0.00     0.010 A 
ATOM     36  C   UNL A   1      38.129  29.751  27.749  1.00  0.00     0.010 A 
ATOM     37  C   UNL A   1      38.198  29.206  29.039  1.00  0.00    -0.014 A 
BRANCH  37  38
ATOM     38  C   UNL A   1      39.489  28.716  29.584  1.00  0.00     0.031 A 
ATOM     39  C   UNL A   1      40.095  29.343  30.809  1.00  0.00     0.074 A 
ATOM     40  C   UNL A   1      40.124  27.705  28.961  1.00  0.00     0.049 A 
ATOM     41  N   UNL A   1      41.184  29.007  31.454  1.00  0.00    -0.248 NA
ATOM     42  C   UNL A   1      39.402  30.512  31.370  1.00  0.00     0.031 C 
ATOM     43  C   UNL A   1      39.673  27.056  27.729  1.00  0.00     0.029 A 
ATOM     44  N   UNL A   1      41.282  27.042  29.281  1.00  0.00    -0.354 N 
ATOM     45  C   UNL A   1      41.309  29.923  32.490  1.00  0.00     0.074 A 
ATOM     46  C   UNL A   1      40.215  30.861  32.357  1.00  0.00     0.031 C 
ATOM     47  C   UNL A   1      40.522  26.064  27.419  1.00  0.00     0.029 A 
ATOM     48  C   UNL A   1      41.587  26.020  28.416  1.00  0.00     0.049 A 
ATOM     49  H   UNL A   1      41.841  27.277  30.057  1.00  0.00     0.167 HD
ATOM     50  C   UNL A   1      42.236  29.966  33.478  1.00  0.00     0.037 A 
ATOM     51  C   UNL A   1      42.601  25.136  28.434  1.00  0.00     0.037 A 
ATOM     52  C   UNL A   1      43.312  29.019  33.622  1.00  0.00     0.049 A 
ATOM     53  C   UNL A   1      43.597  25.184  29.558  1.00  0.00     0.074 A 
ATOM     54  C   UNL A   1      44.264  28.939  34.623  1.00  0.00     0.029 A 
ATOM     55  N   UNL A   1      43.578  27.987  32.735  1.00  0.00    -0.354 N 
ATOM     56  N   UNL A   1      43.655  26.005  30.578  1.00  0.00    -0.248 NA
ATOM     57  C   UNL A   1      44.661  24.170  29.539  1.00  0.00     0.031 C 
ATOM     58  C   UNL A   1      45.129  27.880  34.322  1.00  0.00     0.029 A 
ATOM     59  C   UNL A   1      44.691  27.276  33.155  1.00  0.00     0.049 A 
ATOM     60  H   UNL A   1      43.055  27.789  31.925  1.00  0.00     0.167 HD
ATOM     61  C   UNL A   1      44.746  25.597  31.332  1.00  0.00     0.074 A 
ATOM     62  C   UNL A   1      45.308  24.441  30.663  1.00  0.00     0.031 C 
ATOM     63  C   UNL A   1      45.243  26.133  32.474  1.00  0.00     0.037 A 
BRANCH  50  64
ATOM     64  C   UNL A   1      42.119  31.071  34.487  1.00  0.00     0.057 A 
ATOM     65  C   UNL A   1      42.778  32.296  34.318  1.00  0.00     0.134 A 
ATOM     66  C   UNL A   1      41.314  30.922  35.624  1.00  0.00     0.134 A 
ATOM     67  F   UNL A   1      43.573  32.499  33.257  1.00  0.00    -0.206 F 
ATOM     68  C   UNL A   1      42.660  33.324  35.255  1.00  0.00     0.040 A 
ATOM     69  C   UNL A   1      41.169  31.952  36.555  1.00  0.00     0.040 A 
ATOM     70  F   UNL A   1      40.651  29.777  35.845  1.00  0.00    -0.206 F 
ATOM     71  C   UNL A   1      41.849  33.155  36.375  1.00  0.00     0.006 A 
ENDBRANCH  50  64
BRANCH  51  72
ATOM     72  C   UNL A   1      42.697  24.100  27.378  1.00  0.00     0.057 A 
ATOM     73  C   UNL A   1      42.143  22.828  27.562  1.00  0.00     0.134 A 
ATOM     74  C   UNL A   1      43.339  24.354  26.161  1.00  0.00     0.134 A 
ATOM     75  F   UNL A   1      41.528  22.522  28.715  1.00  0.00    -0.206 F 
ATOM     76  C   UNL A   1      42.239  21.840  26.583  1.00  0.00     0.040 A 
ATOM     77  C   UNL A   1      43.424  23.383  25.163  1.00  0.00     0.040 A 
ATOM     78  F   UNL A   1      43.881  25.557  25.919  1.00  0.00    -0.206 F 
ATOM     79  C   UNL A   1      42.877  22.118  25.376  1.00  0.00     0.006 A 
ENDBRANCH  51  72
BRANCH  63  80
ATOM     80  C   UNL A   1      46.442  25.461  33.073  1.00  0.00     0.057 A 
ATOM     81  C   UNL A   1      46.316  24.443  34.027  1.00  0.00     0.134 A 
ATOM     82  C   UNL A   1      47.737  25.831  32.687  1.00  0.00     0.134 A 
ATOM     83  F   UNL A   1      45.103  24.054  34.449  1.00  0.00    -0.206 F 
ATOM     84  C   UNL A   1      47.435  23.837  34.599  1.00  0.00     0.040 A 
ATOM     85  C   UNL A   1      48.863  25.215  33.233  1.00  0.00     0.040 A 
ATOM     86  F   UNL A   1      47.926  26.794  31.773  1.00  0.00    -0.206 F 
ATOM     87  C   UNL A   1      48.714  24.220  34.199  1.00  0.00     0.006 A 
ENDBRANCH  63  80
ENDBRANCH  37  38
ENDBRANCH  29  32
ENDBRANCH  27  28
ENDBRANCH  26  27
ENDBRANCH  25  26
ENDBRANCH  24  25
ENDBRANCH   1  24
TORSDOF 17
ENDMDL
MODEL 2
REMARK VINA RESULT:     -11.2      3.464      8.603
REMARK SMILES Cc1ccsc1CNS(=O)(=O)c1ccc(C(=O)NCCCCCCNC(=O)c2ccc(-c3c4nc(c(-c5c(F)cccc5F)c5ccc([nH]5)c(-c5c(F)cccc5F)c5nc(c(-c6c(F)cccc6F)c6ccc3[nH]6)C=C5)C=C4)cc2)s1
REMARK SMILES IDX 20 1 19 2 18 3 16 4 17 5 15 7 12 8 13 9 82 10 14 11 9 12
REMARK SMILES IDX 10 13 11 14 8 15 7 17 6 18 1 19 2 20 3 21 4 22 5 23 21 24
REMARK SMILES IDX 22 25 23 26 24 27 25 28 26 29 27 31 28 32 29 33 81 34 30 35
REMARK SMILES IDX 80 36 31 37 32 38 33 39 74 40 34 41 79 42 73 43 75 44 35 45
REMARK SMILES IDX 78 46 72 47 71 48 36 50 62 51 45 52 61 53 46 54 49 55 60 56
REMARK SMILES IDX 76 57 47 58 48 59 59 61 77 62 50 63 37 64 38 65 43 66 39 67
REMARK SMILES IDX 40 68 42 69 44 70 41 71 63 72 64 73 69 74 65 75 66 76 68 77
REMARK SMILES IDX 70 78 67 79 51 80 52 81 57 82 53 83 54 84 56 85 58 86 55 87
REMARK H PARENT 18 6 8 16 25 30 75 49 49 60
REMARK Flexibility Score: inf
ROOT
ATOM      1  C   UNL A   1      35.502  31.612  28.060  1.00  0.00     0.021 C 
ENDROOT
BRANCH   1   2
ATOM      2  C   UNL A   1      34.997  30.376  27.314  1.00  0.00     0.116 C 
BRANCH   2   3
ATOM      3  N   UNL A   1      33.678  30.621  26.780  1.00  0.00    -0.351 N 
ATOM      4  C   UNL A   1      32.856  29.879  25.970  1.00  0.00     0.261 C 
ATOM      5  O   UNL A   1      31.781  30.421  25.693  1.00  0.00    -0.268 OA
ATOM      6  H   UNL A   1      33.294  31.487  27.050  1.00  0.00     0.163 HD
BRANCH   4   7
ATOM      7  C   UNL A   1      33.212  28.537  25.525  1.00  0.00     0.093 A 
ATOM      8  C   UNL A   1      33.510  26.613  23.969  1.00  0.00     0.135 A 
ATOM      9  C   UNL A   1      33.660  26.249  25.292  1.00  0.00     0.034 A 
ATOM     10  S   UNL A   1      33.308  28.293  23.822  1.00  0.00    -0.117 S 
ATOM     11  C   UNL A   1      33.534  27.362  26.181  1.00  0.00     0.027 A 
BRANCH   8  12
ATOM     12  S   UNL A   1      33.513  25.646  22.480  1.00  0.00     0.250 S 
ATOM     13  O   UNL A   1      34.519  24.631  22.708  1.00  0.00    -0.206 OA
ATOM     14  O   UNL A   1      33.662  26.618  21.421  1.00  0.00    -0.206 OA
BRANCH  12  15
ATOM     15  N   UNL A   1      32.047  24.873  22.218  1.00  0.00    -0.205 NA
ATOM     16  H   UNL A   1      31.508  25.448  21.571  1.00  0.00     0.141 HD
BRANCH  15  17
ATOM     17  C   UNL A   1      31.205  24.623  23.396  1.00  0.00     0.145 C 
BRANCH  17  18
ATOM     18  C   UNL A   1      31.543  23.274  23.973  1.00  0.00     0.022 A 
ATOM     19  C   UNL A   1      30.778  23.573  26.417  1.00  0.00     0.045 C 
ATOM     20  C   UNL A   1      31.366  22.811  25.272  1.00  0.00    -0.036 A 
ATOM     21  C   UNL A   1      31.815  21.454  25.403  1.00  0.00     0.015 A 
ATOM     22  C   UNL A   1      32.289  20.931  24.224  1.00  0.00     0.065 A 
ATOM     23  S   UNL A   1      32.184  22.050  22.945  1.00  0.00    -0.147 S 
ENDBRANCH  17  18
ENDBRANCH  15  17
ENDBRANCH  12  15
ENDBRANCH   8  12
ENDBRANCH   4   7
ENDBRANCH   2   3
ENDBRANCH   1   2
BRANCH   1  24
ATOM     24  C   UNL A   1      34.398  32.339  28.843  1.00  0.00     0.002 C 
BRANCH  24  25
ATOM     25  C   UNL A   1      34.533  33.867  28.884  1.00  0.00     0.002 C 
BRANCH  25  26
ATOM     26  C   UNL A   1      33.210  34.639  28.886  1.00  0.00     0.021 C 
BRANCH  26  27
ATOM     27  C   UNL A   1      33.298  36.058  29.442  1.00  0.00     0.116 C 
BRANCH  27  28
ATOM     28  N   UNL A   1      32.443  36.237  30.601  1.00  0.00    -0.352 N 
ATOM     29  C   UNL A   1      32.547  35.713  31.864  1.00  0.00     0.251 C 
ATOM     30  H   UNL A   1      31.667  36.828  30.459  1.00  0.00     0.163 HD
ATOM     31  O   UNL A   1      31.602  35.815  32.641  1.00  0.00    -0.269 OA
BRANCH  29  32
ATOM     32  C   UNL A   1      33.779  35.017  32.297  1.00  0.00     0.039 A 
ATOM     33  C   UNL A   1      33.675  33.692  32.730  1.00  0.00     0.014 A 
ATOM     34  C   UNL A   1      35.016  35.668  32.337  1.00  0.00     0.014 A 
ATOM     35  C   UNL A   1      34.811  33.012  33.170  1.00  0.00     0.010 A 
ATOM     36  C   UNL A   1      36.162  34.969  32.716  1.00  0.00     0.010 A 
ATOM     37  C   UNL A   1      36.068  33.638  33.148  1.00  0.00    -0.014 A 
BRANCH  37  38
ATOM     38  C   UNL A   1      37.280  32.894  33.573  1.00  0.00     0.031 A 
ATOM     39  C   UNL A   1      37.905  31.862  32.676  1.00  0.00     0.074 A 
ATOM     40  C   UNL A   1      37.812  33.143  34.785  1.00  0.00     0.049 A 
ATOM     41  N   UNL A   1      38.994  31.159  32.862  1.00  0.00    -0.248 NA
ATOM     42  C   UNL A   1      37.206  31.565  31.417  1.00  0.00     0.031 C 
ATOM     43  C   UNL A   1      37.262  34.073  35.774  1.00  0.00     0.029 A 
ATOM     44  N   UNL A   1      38.937  32.642  35.390  1.00  0.00    -0.354 N 
ATOM     45  C   UNL A   1      39.108  30.335  31.750  1.00  0.00     0.074 A 
ATOM     46  C   UNL A   1      37.950  30.587  30.919  1.00  0.00     0.031 C 
ATOM     47  C   UNL A   1      38.071  34.104  36.844  1.00  0.00     0.029 A 
ATOM     48  C   UNL A   1      39.183  33.183  36.627  1.00  0.00     0.049 A 
ATOM     49  H   UNL A   1      39.512  31.959  34.976  1.00  0.00     0.167 HD
ATOM     50  C   UNL A   1      40.099  29.465  31.436  1.00  0.00     0.037 A 
ATOM     51  C   UNL A   1      40.199  32.974  37.484  1.00  0.00     0.037 A 
ATOM     52  C   UNL A   1      41.261  29.231  32.253  1.00  0.00     0.049 A 
ATOM     53  C   UNL A   1      41.302  32.029  37.099  1.00  0.00     0.074 A 
ATOM     54  C   UNL A   1      42.351  28.419  31.993  1.00  0.00     0.029 A 
ATOM     55  N   UNL A   1      41.484  29.811  33.493  1.00  0.00    -0.354 N 
ATOM     56  N   UNL A   1      41.438  31.319  36.006  1.00  0.00    -0.248 NA
ATOM     57  C   UNL A   1      42.400  31.870  38.062  1.00  0.00     0.031 C 
ATOM     58  C   UNL A   1      43.215  28.479  33.093  1.00  0.00     0.029 A 
ATOM     59  C   UNL A   1      42.684  29.360  34.019  1.00  0.00     0.049 A 
ATOM     60  H   UNL A   1      40.878  30.449  33.935  1.00  0.00     0.167 HD
ATOM     61  C   UNL A   1      42.644  30.644  36.140  1.00  0.00     0.074 A 
ATOM     62  C   UNL A   1      43.210  31.048  37.411  1.00  0.00     0.031 C 
ATOM     63  C   UNL A   1      43.229  29.765  35.289  1.00  0.00     0.037 A 
BRANCH  50  64
ATOM     64  C   UNL A   1      39.970  28.708  30.147  1.00  0.00     0.057 A 
ATOM     65  C   UNL A   1      40.576  29.156  28.966  1.00  0.00     0.134 A 
ATOM     66  C   UNL A   1      39.262  27.501  30.091  1.00  0.00     0.134 A 
ATOM     67  F   UNL A   1      41.259  30.310  28.948  1.00  0.00    -0.206 F 
ATOM     68  C   UNL A   1      40.460  28.445  27.770  1.00  0.00     0.040 A 
ATOM     69  C   UNL A   1      39.161  26.768  28.907  1.00  0.00     0.040 A 
ATOM     70  F   UNL A   1      38.663  27.010  31.187  1.00  0.00    -0.206 F 
ATOM     71  C   UNL A   1      39.756  27.244  27.740  1.00  0.00     0.006 A 
ENDBRANCH  50  64
BRANCH  51  72
ATOM     72  C   UNL A   1      40.244  33.710  38.771  1.00  0.00     0.057 A 
ATOM     73  C   UNL A   1      41.001  34.879  38.907  1.00  0.00     0.134 A 
ATOM     74  C   UNL A   1      39.533  33.267  39.891  1.00  0.00     0.134 A 
ATOM     75  F   UNL A   1      41.717  35.343  37.871  1.00  0.00    -0.206 F 
ATOM     76  C   UNL A   1      41.064  35.573  40.115  1.00  0.00     0.040 A 
ATOM     77  C   UNL A   1      39.568  33.962  41.101  1.00  0.00     0.040 A 
ATOM     78  F   UNL A   1      38.781  32.158  39.822  1.00  0.00    -0.206 F 
ATOM     79  C   UNL A   1      40.342  35.116  41.216  1.00  0.00     0.006 A 
ENDBRANCH  51  72
BRANCH  63  80
ATOM     80  C   UNL A   1      44.554  29.198  35.706  1.00  0.00     0.057 A 
ATOM     81  C   UNL A   1      45.761  29.824  35.368  1.00  0.00     0.134 A 
ATOM     82  C   UNL A   1      44.623  28.019  36.458  1.00  0.00     0.134 A 
ATOM     83  F   UNL A   1      45.763  30.948  34.635  1.00  0.00    -0.206 F 
ATOM     84  C   UNL A   1      46.992  29.280  35.736  1.00  0.00     0.040 A 
ATOM     85  C   UNL A   1      45.847  27.480  36.856  1.00  0.00     0.040 A 
ATOM     86  F   UNL A   1      43.503  27.376  36.821  1.00  0.00    -0.206 F 
ATOM     87  C   UNL A   1      47.037  28.106  36.487  1.00  0.00     0.006 A 
ENDBRANCH  63  80
ENDBRANCH  37  38
ENDBRANCH  29  32
ENDBRANCH  27  28
ENDBRANCH  26  27
ENDBRANCH  25  26
ENDBRANCH  24  25
ENDBRANCH   1  24
TORSDOF 17
ENDMDL
MODEL 3
REMARK VINA RESULT:     -11.1      2.797      7.423
REMARK SMILES Cc1ccsc1CNS(=O)(=O)c1ccc(C(=O)NCCCCCCNC(=O)c2ccc(-c3c4nc(c(-c5c(F)cccc5F)c5ccc([nH]5)c(-c5c(F)cccc5F)c5nc(c(-c6c(F)cccc6F)c6ccc3[nH]6)C=C5)C=C4)cc2)s1
REMARK SMILES IDX 20 1 19 2 18 3 16 4 17 5 15 7 12 8 13 9 82 10 14 11 9 12
REMARK SMILES IDX 10 13 11 14 8 15 7 17 6 18 1 19 2 20 3 21 4 22 5 23 21 24
REMARK SMILES IDX 22 25 23 26 24 27 25 28 26 29 27 31 28 32 29 33 81 34 30 35
REMARK SMILES IDX 80 36 31 37 32 38 33 39 74 40 34 41 79 42 73 43 75 44 35 45
REMARK SMILES IDX 78 46 72 47 71 48 36 50 62 51 45 52 61 53 46 54 49 55 60 56
REMARK SMILES IDX 76 57 47 58 48 59 59 61 77 62 50 63 37 64 38 65 43 66 39 67
REMARK SMILES IDX 40 68 42 69 44 70 41 71 63 72 64 73 69 74 65 75 66 76 68 77
REMARK SMILES IDX 70 78 67 79 51 80 52 81 57 82 53 83 54 84 56 85 58 86 55 87
REMARK H PARENT 18 6 8 16 25 30 75 49 49 60
REMARK Flexibility Score: inf
ROOT
ATOM      1  C   UNL A   1      36.024  22.128  25.241  1.00  0.00     0.021 C 
ENDROOT
BRANCH   1   2
ATOM      2  C   UNL A   1      34.708  22.513  25.917  1.00  0.00     0.116 C 
BRANCH   2   3
ATOM      3  N   UNL A   1      33.688  21.534  25.616  1.00  0.00    -0.351 N 
ATOM      4  C   UNL A   1      32.462  21.634  25.007  1.00  0.00     0.261 C 
ATOM      5  O   UNL A   1      31.837  20.571  24.933  1.00  0.00    -0.268 OA
ATOM      6  H   UNL A   1      33.918  20.620  25.901  1.00  0.00     0.163 HD
BRANCH   4   7
ATOM      7  C   UNL A   1      31.975  22.888  24.447  1.00  0.00     0.093 A 
ATOM      8  C   UNL A   1      31.949  24.941  23.033  1.00  0.00     0.135 A 
ATOM      9  C   UNL A   1      30.971  24.959  24.007  1.00  0.00     0.034 A 
ATOM     10  S   UNL A   1      32.768  23.453  23.025  1.00  0.00    -0.117 S 
ATOM     11  C   UNL A   1      30.957  23.762  24.788  1.00  0.00     0.027 A 
BRANCH   8  12
ATOM     12  S   UNL A   1      32.442  26.163  21.843  1.00  0.00     0.250 S 
ATOM     13  O   UNL A   1      31.501  26.010  20.754  1.00  0.00    -0.206 OA
ATOM     14  O   UNL A   1      33.854  25.925  21.647  1.00  0.00    -0.206 OA
BRANCH  12  15
ATOM     15  N   UNL A   1      32.297  27.726  22.436  1.00  0.00    -0.205 NA
ATOM     16  H   UNL A   1      32.189  28.349  21.636  1.00  0.00     0.141 HD
BRANCH  15  17
ATOM     17  C   UNL A   1      33.408  28.237  23.250  1.00  0.00     0.145 C 
BRANCH  17  18
ATOM     18  C   UNL A   1      32.987  28.289  24.695  1.00  0.00     0.022 A 
ATOM     19  C   UNL A   1      34.106  26.156  25.616  1.00  0.00     0.045 C 
ATOM     20  C   UNL A   1      33.279  27.398  25.721  1.00  0.00    -0.036 A 
ATOM     21  C   UNL A   1      32.688  27.824  26.958  1.00  0.00     0.015 A 
ATOM     22  C   UNL A   1      31.998  29.007  26.843  1.00  0.00     0.065 A 
ATOM     23  S   UNL A   1      32.067  29.630  25.260  1.00  0.00    -0.147 S 
ENDBRANCH  17  18
ENDBRANCH  15  17
ENDBRANCH  12  15
ENDBRANCH   8  12
ENDBRANCH   4   7
ENDBRANCH   2   3
ENDBRANCH   1   2
BRANCH   1  24
ATOM     24  C   UNL A   1      37.192  23.051  25.622  1.00  0.00     0.002 C 
BRANCH  24  25
ATOM     25  C   UNL A   1      38.491  22.327  26.001  1.00  0.00     0.002 C 
BRANCH  25  26
ATOM     26  C   UNL A   1      38.758  21.025  25.239  1.00  0.00     0.021 C 
BRANCH  26  27
ATOM     27  C   UNL A   1      39.008  19.806  26.124  1.00  0.00     0.116 C 
BRANCH  27  28
ATOM     28  N   UNL A   1      40.277  19.170  25.818  1.00  0.00    -0.352 N 
ATOM     29  C   UNL A   1      41.547  19.686  25.827  1.00  0.00     0.251 C 
ATOM     30  H   UNL A   1      40.216  18.220  25.567  1.00  0.00     0.163 HD
ATOM     31  O   UNL A   1      42.465  19.041  25.329  1.00  0.00    -0.269 OA
BRANCH  29  32
ATOM     32  C   UNL A   1      41.822  21.015  26.418  1.00  0.00     0.039 A 
ATOM     33  C   UNL A   1      41.620  21.184  27.790  1.00  0.00     0.014 A 
ATOM     34  C   UNL A   1      42.216  22.102  25.631  1.00  0.00     0.014 A 
ATOM     35  C   UNL A   1      41.845  22.430  28.378  1.00  0.00     0.010 A 
ATOM     36  C   UNL A   1      42.503  23.330  26.229  1.00  0.00     0.010 A 
ATOM     37  C   UNL A   1      42.308  23.508  27.606  1.00  0.00    -0.014 A 
BRANCH  37  38
ATOM     38  C   UNL A   1      42.589  24.818  28.246  1.00  0.00     0.031 A 
ATOM     39  C   UNL A   1      43.975  25.165  28.713  1.00  0.00     0.074 A 
ATOM     40  C   UNL A   1      41.581  25.694  28.418  1.00  0.00     0.049 A 
ATOM     41  N   UNL A   1      44.412  26.281  29.241  1.00  0.00    -0.248 NA
ATOM     42  C   UNL A   1      44.999  24.117  28.593  1.00  0.00     0.031 C 
ATOM     43  C   UNL A   1      40.181  25.451  28.068  1.00  0.00     0.029 A 
ATOM     44  N   UNL A   1      41.580  26.969  28.926  1.00  0.00    -0.354 N 
ATOM     45  C   UNL A   1      45.756  26.068  29.520  1.00  0.00     0.074 A 
ATOM     46  C   UNL A   1      46.050  24.700  29.152  1.00  0.00     0.031 C 
ATOM     47  C   UNL A   1      39.464  26.554  28.334  1.00  0.00     0.029 A 
ATOM     48  C   UNL A   1      40.347  27.572  28.892  1.00  0.00     0.049 A 
ATOM     49  H   UNL A   1      42.386  27.409  29.280  1.00  0.00     0.167 HD
ATOM     50  C   UNL A   1      46.668  26.940  30.014  1.00  0.00     0.037 A 
ATOM     51  C   UNL A   1      39.974  28.813  29.256  1.00  0.00     0.037 A 
ATOM     52  C   UNL A   1      46.378  28.308  30.358  1.00  0.00     0.049 A 
ATOM     53  C   UNL A   1      41.010  29.771  29.770  1.00  0.00     0.074 A 
ATOM     54  C   UNL A   1      47.247  29.289  30.806  1.00  0.00     0.029 A 
ATOM     55  N   UNL A   1      45.121  28.888  30.295  1.00  0.00    -0.354 N 
ATOM     56  N   UNL A   1      42.294  29.582  29.949  1.00  0.00    -0.248 NA
ATOM     57  C   UNL A   1      40.545  31.122  30.117  1.00  0.00     0.031 C 
ATOM     58  C   UNL A   1      46.507  30.452  31.048  1.00  0.00     0.029 A 
ATOM     59  C   UNL A   1      45.186  30.208  30.713  1.00  0.00     0.049 A 
ATOM     60  H   UNL A   1      44.302  28.430  29.998  1.00  0.00     0.167 HD
ATOM     61  C   UNL A   1      42.795  30.792  30.411  1.00  0.00     0.074 A 
ATOM     62  C   UNL A   1      41.678  31.714  30.462  1.00  0.00     0.031 C 
ATOM     63  C   UNL A   1      44.064  31.111  30.766  1.00  0.00     0.037 A 
BRANCH  50  64
ATOM     64  C   UNL A   1      48.071  26.440  30.201  1.00  0.00     0.057 A 
ATOM     65  C   UNL A   1      48.485  25.838  31.397  1.00  0.00     0.134 A 
ATOM     66  C   UNL A   1      49.009  26.528  29.164  1.00  0.00     0.134 A 
ATOM     67  F   UNL A   1      47.639  25.732  32.432  1.00  0.00    -0.206 F 
ATOM     68  C   UNL A   1      49.788  25.367  31.564  1.00  0.00     0.040 A 
ATOM     69  C   UNL A   1      50.307  26.038  29.311  1.00  0.00     0.040 A 
ATOM     70  F   UNL A   1      48.677  27.086  27.990  1.00  0.00    -0.206 F 
ATOM     71  C   UNL A   1      50.702  25.461  30.517  1.00  0.00     0.006 A 
ENDBRANCH  50  64
BRANCH  51  72
ATOM     72  C   UNL A   1      38.560  29.234  29.100  1.00  0.00     0.057 A 
ATOM     73  C   UNL A   1      37.678  29.217  30.186  1.00  0.00     0.134 A 
ATOM     74  C   UNL A   1      38.058  29.665  27.867  1.00  0.00     0.134 A 
ATOM     75  F   UNL A   1      38.099  28.798  31.389  1.00  0.00    -0.206 F 
ATOM     76  C   UNL A   1      36.343  29.597  30.049  1.00  0.00     0.040 A 
ATOM     77  C   UNL A   1      36.731  30.069  27.719  1.00  0.00     0.040 A 
ATOM     78  F   UNL A   1      38.857  29.714  26.790  1.00  0.00    -0.206 F 
ATOM     79  C   UNL A   1      35.867  30.029  28.813  1.00  0.00     0.006 A 
ENDBRANCH  51  72
BRANCH  63  80
ATOM     80  C   UNL A   1      44.307  32.518  31.224  1.00  0.00     0.057 A 
ATOM     81  C   UNL A   1      44.625  33.541  30.321  1.00  0.00     0.134 A 
ATOM     82  C   UNL A   1      44.215  32.855  32.580  1.00  0.00     0.134 A 
ATOM     83  F   UNL A   1      44.743  33.279  29.010  1.00  0.00    -0.206 F 
ATOM     84  C   UNL A   1      44.874  34.844  30.754  1.00  0.00     0.040 A 
ATOM     85  C   UNL A   1      44.436  34.160  33.022  1.00  0.00     0.040 A 
ATOM     86  F   UNL A   1      43.907  31.924  33.494  1.00  0.00    -0.206 F 
ATOM     87  C   UNL A   1      44.776  35.157  32.109  1.00  0.00     0.006 A 
ENDBRANCH  63  80
ENDBRANCH  37  38
ENDBRANCH  29  32
ENDBRANCH  27  28
ENDBRANCH  26  27
ENDBRANCH  25  26
ENDBRANCH  24  25
ENDBRANCH   1  24
TORSDOF 17
ENDMDL
