MODEL 1
REMARK VINA RESULT:     -11.1      0.000      0.000
REMARK SMILES CSc1nc2nnc(C(=O)NCCCCCCNC(=O)c3ccc(-c4c5nc(c(-c6c(F)cccc6F)c6ccc([nH]6)c(-c6c(F)cccc6F)c6nc(c(-c7c(F)cccc7F)c7ccc4[nH]7)C=C6)C=C5)cc3)c(O)n2n1
REMARK SMILES IDX 15 1 14 2 13 3 12 4 11 5 9 6 10 7 8 9 3 10 4 11 78 12 5 13
REMARK SMILES IDX 77 14 6 15 75 16 7 17 2 18 1 19 76 20 16 22 17 23 18 24
REMARK SMILES IDX 19 25 20 27 21 28 22 29 74 30 23 31 73 32 24 33 25 34 26 35
REMARK SMILES IDX 67 36 27 37 72 38 66 39 68 40 28 41 71 42 65 43 64 44 29 46
REMARK SMILES IDX 55 47 38 48 54 49 39 50 42 51 53 52 69 53 40 54 41 55 52 57
REMARK SMILES IDX 70 58 43 59 30 60 31 61 36 62 32 63 33 64 35 65 37 66 34 67
REMARK SMILES IDX 56 68 57 69 62 70 58 71 59 72 61 73 63 74 60 75 44 76 45 77
REMARK SMILES IDX 50 78 46 79 47 80 49 81 51 82 48 83
REMARK H PARENT 11 8 76 21 18 26 68 45 42 56
REMARK Flexibility Score: inf
ROOT
ATOM      1  C   UNL A   1      40.743  20.305  26.718  1.00  0.00     0.002 C 
ENDROOT
BRANCH   1   2
ATOM      2  C   UNL A   1      39.672  20.912  25.799  1.00  0.00     0.002 C 
BRANCH   2   3
ATOM      3  C   UNL A   1      39.124  22.286  26.205  1.00  0.00     0.021 C 
BRANCH   3   4
ATOM      4  C   UNL A   1      37.684  22.572  25.773  1.00  0.00     0.116 C 
BRANCH   4   5
ATOM      5  N   UNL A   1      37.023  21.370  25.298  1.00  0.00    -0.350 N 
ATOM      6  C   UNL A   1      35.742  20.923  25.339  1.00  0.00     0.277 C 
ATOM      7  O   UNL A   1      35.540  19.795  24.870  1.00  0.00    -0.267 OA
ATOM      8  H   UNL A   1      37.636  20.743  24.849  1.00  0.00     0.163 HD
BRANCH   6   9
ATOM      9  C   UNL A   1      34.588  21.708  25.906  1.00  0.00     0.212 A 
ATOM     10  C   UNL A   1      31.369  24.637  26.138  1.00  0.00     0.210 A 
ATOM     11  N   UNL A   1      31.522  23.888  27.269  1.00  0.00    -0.182 NA
ATOM     12  N   UNL A   1      32.238  24.391  25.164  1.00  0.00    -0.134 NA
ATOM     13  C   UNL A   1      32.536  23.100  26.967  1.00  0.00     0.275 A 
ATOM     14  N   UNL A   1      32.988  23.395  25.687  1.00  0.00    -0.159 N 
ATOM     15  N   UNL A   1      33.146  22.107  27.678  1.00  0.00    -0.108 NA
ATOM     16  C   UNL A   1      34.054  22.685  25.133  1.00  0.00     0.249 A 
ATOM     17  N   UNL A   1      34.106  21.454  27.176  1.00  0.00    -0.136 NA
BRANCH  10  18
ATOM     18  S   UNL A   1      30.098  25.802  25.895  1.00  0.00    -0.088 SA
ATOM     19  C   UNL A   1      30.885  26.938  24.744  1.00  0.00     0.094 C 
ENDBRANCH  10  18
BRANCH  16  20
ATOM     20  O   UNL A   1      34.477  23.029  23.855  1.00  0.00    -0.491 OA
ATOM     21  H   UNL A   1      35.087  23.730  23.737  1.00  0.00     0.295 HD
ENDBRANCH  16  20
ENDBRANCH   6   9
ENDBRANCH   4   5
ENDBRANCH   3   4
ENDBRANCH   2   3
ENDBRANCH   1   2
BRANCH   1  22
ATOM     22  C   UNL A   1      41.618  19.197  26.117  1.00  0.00     0.021 C 
BRANCH  22  23
ATOM     23  C   UNL A   1      43.039  19.154  26.660  1.00  0.00     0.116 C 
BRANCH  23  24
ATOM     24  N   UNL A   1      44.044  19.031  25.611  1.00  0.00    -0.352 N 
ATOM     25  C   UNL A   1      44.549  20.027  24.799  1.00  0.00     0.251 C 
ATOM     26  H   UNL A   1      44.407  18.129  25.465  1.00  0.00     0.163 HD
ATOM     27  O   UNL A   1      45.077  19.755  23.732  1.00  0.00    -0.269 OA
BRANCH  25  28
ATOM     28  C   UNL A   1      44.433  21.435  25.232  1.00  0.00     0.039 A 
ATOM     29  C   UNL A   1      43.359  22.216  24.803  1.00  0.00     0.014 A 
ATOM     30  C   UNL A   1      45.409  21.972  26.072  1.00  0.00     0.014 A 
ATOM     31  C   UNL A   1      43.234  23.511  25.297  1.00  0.00     0.010 A 
ATOM     32  C   UNL A   1      45.217  23.204  26.660  1.00  0.00     0.010 A 
ATOM     33  C   UNL A   1      44.148  23.992  26.255  1.00  0.00    -0.014 A 
BRANCH  33  34
ATOM     34  C   UNL A   1      43.865  25.250  26.947  1.00  0.00     0.031 A 
ATOM     35  C   UNL A   1      44.841  26.320  26.608  1.00  0.00     0.074 A 
ATOM     36  C   UNL A   1      42.758  25.516  27.677  1.00  0.00     0.049 A 
ATOM     37  N   UNL A   1      45.789  26.770  27.359  1.00  0.00    -0.248 NA
ATOM     38  C   UNL A   1      44.891  26.826  25.224  1.00  0.00     0.031 C 
ATOM     39  C   UNL A   1      41.550  24.692  27.801  1.00  0.00     0.029 A 
ATOM     40  N   UNL A   1      42.433  26.632  28.403  1.00  0.00    -0.354 N 
ATOM     41  C   UNL A   1      46.363  27.816  26.643  1.00  0.00     0.074 A 
ATOM     42  C   UNL A   1      45.937  27.656  25.280  1.00  0.00     0.031 C 
ATOM     43  C   UNL A   1      40.550  25.426  28.339  1.00  0.00     0.029 A 
ATOM     44  C   UNL A   1      41.092  26.698  28.779  1.00  0.00     0.049 A 
ATOM     45  H   UNL A   1      43.090  27.326  28.639  1.00  0.00     0.167 HD
ATOM     46  C   UNL A   1      46.835  28.904  27.313  1.00  0.00     0.037 A 
ATOM     47  C   UNL A   1      40.469  27.718  29.419  1.00  0.00     0.037 A 
ATOM     48  C   UNL A   1      46.949  28.619  28.719  1.00  0.00     0.049 A 
ATOM     49  C   UNL A   1      41.503  28.493  30.136  1.00  0.00     0.074 A 
ATOM     50  C   UNL A   1      47.812  27.945  29.555  1.00  0.00     0.029 A 
ATOM     51  N   UNL A   1      45.770  28.776  29.392  1.00  0.00    -0.354 N 
ATOM     52  N   UNL A   1      42.182  28.027  31.146  1.00  0.00    -0.248 NA
ATOM     53  C   UNL A   1      42.022  29.715  29.531  1.00  0.00     0.031 C 
ATOM     54  C   UNL A   1      47.071  27.636  30.735  1.00  0.00     0.029 A 
ATOM     55  C   UNL A   1      45.792  28.164  30.612  1.00  0.00     0.049 A 
ATOM     56  H   UNL A   1      44.997  29.271  29.038  1.00  0.00     0.167 HD
ATOM     57  C   UNL A   1      43.411  28.637  31.027  1.00  0.00     0.074 A 
ATOM     58  C   UNL A   1      43.203  29.781  30.147  1.00  0.00     0.031 C 
ATOM     59  C   UNL A   1      44.556  27.968  31.334  1.00  0.00     0.037 A 
BRANCH  46  60
ATOM     60  C   UNL A   1      46.675  30.339  26.848  1.00  0.00     0.057 A 
ATOM     61  C   UNL A   1      47.793  31.196  26.903  1.00  0.00     0.134 A 
ATOM     62  C   UNL A   1      45.438  30.989  26.665  1.00  0.00     0.134 A 
ATOM     63  F   UNL A   1      49.026  30.707  27.106  1.00  0.00    -0.206 F 
ATOM     64  C   UNL A   1      47.678  32.591  26.835  1.00  0.00     0.040 A 
ATOM     65  C   UNL A   1      45.318  32.378  26.546  1.00  0.00     0.040 A 
ATOM     66  F   UNL A   1      44.270  30.340  26.698  1.00  0.00    -0.206 F 
ATOM     67  C   UNL A   1      46.437  33.187  26.657  1.00  0.00     0.006 A 
ENDBRANCH  46  60
BRANCH  47  68
ATOM     68  C   UNL A   1      39.082  28.228  29.302  1.00  0.00     0.057 A 
ATOM     69  C   UNL A   1      38.243  28.292  30.427  1.00  0.00     0.134 A 
ATOM     70  C   UNL A   1      38.669  28.967  28.182  1.00  0.00     0.134 A 
ATOM     71  F   UNL A   1      38.559  27.634  31.552  1.00  0.00    -0.206 F 
ATOM     72  C   UNL A   1      37.099  29.099  30.462  1.00  0.00     0.040 A 
ATOM     73  C   UNL A   1      37.524  29.774  28.203  1.00  0.00     0.040 A 
ATOM     74  F   UNL A   1      39.415  29.009  27.070  1.00  0.00    -0.206 F 
ATOM     75  C   UNL A   1      36.749  29.863  29.354  1.00  0.00     0.006 A 
ENDBRANCH  47  68
BRANCH  59  76
ATOM     76  C   UNL A   1      44.499  26.872  32.342  1.00  0.00     0.057 A 
ATOM     77  C   UNL A   1      44.388  27.055  33.724  1.00  0.00     0.134 A 
ATOM     78  C   UNL A   1      44.414  25.562  31.856  1.00  0.00     0.134 A 
ATOM     79  F   UNL A   1      44.413  28.280  34.268  1.00  0.00    -0.206 F 
ATOM     80  C   UNL A   1      44.193  25.969  34.586  1.00  0.00     0.040 A 
ATOM     81  C   UNL A   1      44.190  24.476  32.699  1.00  0.00     0.040 A 
ATOM     82  F   UNL A   1      44.493  25.326  30.536  1.00  0.00    -0.206 F 
ATOM     83  C   UNL A   1      44.076  24.678  34.071  1.00  0.00     0.006 A 
ENDBRANCH  59  76
ENDBRANCH  33  34
ENDBRANCH  25  28
ENDBRANCH  23  24
ENDBRANCH  22  23
ENDBRANCH   1  22
TORSDOF 15
ENDMDL
MODEL 2
REMARK VINA RESULT:     -10.9      3.239      8.436
REMARK SMILES CSc1nc2nnc(C(=O)NCCCCCCNC(=O)c3ccc(-c4c5nc(c(-c6c(F)cccc6F)c6ccc([nH]6)c(-c6c(F)cccc6F)c6nc(c(-c7c(F)cccc7F)c7ccc4[nH]7)C=C6)C=C5)cc3)c(O)n2n1
REMARK SMILES IDX 15 1 14 2 13 3 12 4 11 5 9 6 10 7 8 9 3 10 4 11 78 12 5 13
REMARK SMILES IDX 77 14 6 15 75 16 7 17 2 18 1 19 76 20 16 22 17 23 18 24
REMARK SMILES IDX 19 25 20 27 21 28 22 29 74 30 23 31 73 32 24 33 25 34 26 35
REMARK SMILES IDX 67 36 27 37 72 38 66 39 68 40 28 41 71 42 65 43 64 44 29 46
REMARK SMILES IDX 55 47 38 48 54 49 39 50 42 51 53 52 69 53 40 54 41 55 52 57
REMARK SMILES IDX 70 58 43 59 30 60 31 61 36 62 32 63 33 64 35 65 37 66 34 67
REMARK SMILES IDX 56 68 57 69 62 70 58 71 59 72 61 73 63 74 60 75 44 76 45 77
REMARK SMILES IDX 50 78 46 79 47 80 49 81 51 82 48 83
REMARK H PARENT 11 8 76 21 18 26 68 45 42 56
REMARK Flexibility Score: inf
ROOT
ATOM      1  C   UNL A   1      34.198  29.039  27.357  1.00  0.00     0.002 C 
ENDROOT
BRANCH   1   2
ATOM      2  C   UNL A   1      33.108  28.071  26.872  1.00  0.00     0.002 C 
BRANCH   2   3
ATOM      3  C   UNL A   1      33.540  27.019  25.842  1.00  0.00     0.021 C 
BRANCH   3   4
ATOM      4  C   UNL A   1      32.723  25.725  25.844  1.00  0.00     0.116 C 
BRANCH   4   5
ATOM      5  N   UNL A   1      32.722  25.095  24.535  1.00  0.00    -0.350 N 
ATOM      6  C   UNL A   1      31.965  25.247  23.419  1.00  0.00     0.277 C 
ATOM      7  O   UNL A   1      32.216  24.484  22.478  1.00  0.00    -0.267 OA
ATOM      8  H   UNL A   1      33.423  24.410  24.436  1.00  0.00     0.163 HD
BRANCH   6   9
ATOM      9  C   UNL A   1      30.869  26.270  23.271  1.00  0.00     0.212 A 
ATOM     10  C   UNL A   1      28.811  29.887  21.976  1.00  0.00     0.210 A 
ATOM     11  N   UNL A   1      28.064  29.084  22.789  1.00  0.00    -0.182 NA
ATOM     12  N   UNL A   1      30.051  29.472  21.738  1.00  0.00    -0.134 NA
ATOM     13  C   UNL A   1      28.884  28.082  23.048  1.00  0.00     0.275 A 
ATOM     14  N   UNL A   1      30.102  28.304  22.418  1.00  0.00    -0.159 N 
ATOM     15  N   UNL A   1      28.709  26.946  23.783  1.00  0.00    -0.108 NA
ATOM     16  C   UNL A   1      31.137  27.376  22.534  1.00  0.00     0.249 A 
ATOM     17  N   UNL A   1      29.641  26.097  23.883  1.00  0.00    -0.136 NA
BRANCH  10  18
ATOM     18  S   UNL A   1      28.219  31.336  21.213  1.00  0.00    -0.088 SA
ATOM     19  C   UNL A   1      28.665  32.578  22.434  1.00  0.00     0.094 C 
ENDBRANCH  10  18
BRANCH  16  20
ATOM     20  O   UNL A   1      32.340  27.652  21.897  1.00  0.00    -0.491 OA
ATOM     21  H   UNL A   1      32.339  28.030  21.040  1.00  0.00     0.295 HD
ENDBRANCH  16  20
ENDBRANCH   6   9
ENDBRANCH   4   5
ENDBRANCH   3   4
ENDBRANCH   2   3
ENDBRANCH   1   2
BRANCH   1  22
ATOM     22  C   UNL A   1      33.894  30.538  27.225  1.00  0.00     0.021 C 
BRANCH  22  23
ATOM     23  C   UNL A   1      35.027  31.450  27.673  1.00  0.00     0.116 C 
BRANCH  23  24
ATOM     24  N   UNL A   1      34.708  32.200  28.881  1.00  0.00    -0.352 N 
ATOM     25  C   UNL A   1      35.187  31.994  30.160  1.00  0.00     0.251 C 
ATOM     26  H   UNL A   1      34.074  32.945  28.772  1.00  0.00     0.163 HD
ATOM     27  O   UNL A   1      34.576  32.414  31.130  1.00  0.00    -0.269 OA
BRANCH  25  28
ATOM     28  C   UNL A   1      36.447  31.246  30.342  1.00  0.00     0.039 A 
ATOM     29  C   UNL A   1      36.419  29.882  30.636  1.00  0.00     0.014 A 
ATOM     30  C   UNL A   1      37.663  31.918  30.218  1.00  0.00     0.014 A 
ATOM     31  C   UNL A   1      37.624  29.190  30.717  1.00  0.00     0.010 A 
ATOM     32  C   UNL A   1      38.846  31.213  30.171  1.00  0.00     0.010 A 
ATOM     33  C   UNL A   1      38.838  29.853  30.450  1.00  0.00    -0.014 A 
BRANCH  33  34
ATOM     34  C   UNL A   1      40.063  29.067  30.293  1.00  0.00     0.031 A 
ATOM     35  C   UNL A   1      40.780  28.867  31.580  1.00  0.00     0.074 A 
ATOM     36  C   UNL A   1      40.448  28.423  29.168  1.00  0.00     0.049 A 
ATOM     37  N   UNL A   1      41.868  29.448  31.959  1.00  0.00    -0.248 NA
ATOM     38  C   UNL A   1      40.133  28.074  32.641  1.00  0.00     0.031 C 
ATOM     39  C   UNL A   1      39.671  28.231  27.938  1.00  0.00     0.029 A 
ATOM     40  N   UNL A   1      41.594  27.718  28.909  1.00  0.00    -0.354 N 
ATOM     41  C   UNL A   1      42.191  28.870  33.183  1.00  0.00     0.074 A 
ATOM     42  C   UNL A   1      40.997  28.220  33.649  1.00  0.00     0.031 C 
ATOM     43  C   UNL A   1      40.250  27.276  27.177  1.00  0.00     0.029 A 
ATOM     44  C   UNL A   1      41.533  26.930  27.761  1.00  0.00     0.049 A 
ATOM     45  H   UNL A   1      42.391  27.764  29.484  1.00  0.00     0.167 HD
ATOM     46  C   UNL A   1      43.499  28.684  33.510  1.00  0.00     0.037 A 
ATOM     47  C   UNL A   1      42.473  26.065  27.308  1.00  0.00     0.037 A 
ATOM     48  C   UNL A   1      44.350  29.445  32.633  1.00  0.00     0.049 A 
ATOM     49  C   UNL A   1      43.770  26.473  27.888  1.00  0.00     0.074 A 
ATOM     50  C   UNL A   1      44.752  30.754  32.487  1.00  0.00     0.029 A 
ATOM     51  N   UNL A   1      44.605  28.806  31.452  1.00  0.00    -0.354 N 
ATOM     52  N   UNL A   1      44.379  27.585  27.583  1.00  0.00    -0.248 NA
ATOM     53  C   UNL A   1      44.270  25.779  29.071  1.00  0.00     0.031 C 
ATOM     54  C   UNL A   1      45.189  30.893  31.135  1.00  0.00     0.029 A 
ATOM     55  C   UNL A   1      45.087  29.660  30.502  1.00  0.00     0.049 A 
ATOM     56  H   UNL A   1      44.457  27.845  31.303  1.00  0.00     0.167 HD
ATOM     57  C   UNL A   1      45.027  27.935  28.747  1.00  0.00     0.074 A 
ATOM     58  C   UNL A   1      45.079  26.722  29.553  1.00  0.00     0.031 C 
ATOM     59  C   UNL A   1      45.133  29.239  29.121  1.00  0.00     0.037 A 
BRANCH  46  60
ATOM     60  C   UNL A   1      44.048  27.454  34.207  1.00  0.00     0.057 A 
ATOM     61  C   UNL A   1      43.879  26.196  33.594  1.00  0.00     0.134 A 
ATOM     62  C   UNL A   1      44.431  27.405  35.563  1.00  0.00     0.134 A 
ATOM     63  F   UNL A   1      43.484  26.102  32.315  1.00  0.00    -0.206 F 
ATOM     64  C   UNL A   1      44.028  24.990  34.291  1.00  0.00     0.040 A 
ATOM     65  C   UNL A   1      44.631  26.205  36.255  1.00  0.00     0.040 A 
ATOM     66  F   UNL A   1      44.530  28.499  36.324  1.00  0.00    -0.206 F 
ATOM     67  C   UNL A   1      44.404  24.992  35.628  1.00  0.00     0.006 A 
ENDBRANCH  46  60
BRANCH  47  68
ATOM     68  C   UNL A   1      42.334  24.777  26.589  1.00  0.00     0.057 A 
ATOM     69  C   UNL A   1      43.075  24.521  25.423  1.00  0.00     0.134 A 
ATOM     70  C   UNL A   1      41.744  23.659  27.202  1.00  0.00     0.134 A 
ATOM     71  F   UNL A   1      43.692  25.520  24.774  1.00  0.00    -0.206 F 
ATOM     72  C   UNL A   1      43.278  23.224  24.935  1.00  0.00     0.040 A 
ATOM     73  C   UNL A   1      41.935  22.358  26.721  1.00  0.00     0.040 A 
ATOM     74  F   UNL A   1      41.049  23.784  28.341  1.00  0.00    -0.206 F 
ATOM     75  C   UNL A   1      42.726  22.133  25.599  1.00  0.00     0.006 A 
ENDBRANCH  47  68
BRANCH  59  76
ATOM     76  C   UNL A   1      45.130  30.293  28.066  1.00  0.00     0.057 A 
ATOM     77  C   UNL A   1      43.996  30.973  27.612  1.00  0.00     0.134 A 
ATOM     78  C   UNL A   1      46.375  30.727  27.596  1.00  0.00     0.134 A 
ATOM     79  F   UNL A   1      42.770  30.651  28.048  1.00  0.00    -0.206 F 
ATOM     80  C   UNL A   1      44.104  32.050  26.724  1.00  0.00     0.040 A 
ATOM     81  C   UNL A   1      46.499  31.816  26.737  1.00  0.00     0.040 A 
ATOM     82  F   UNL A   1      47.501  30.125  28.014  1.00  0.00    -0.206 F 
ATOM     83  C   UNL A   1      45.359  32.484  26.299  1.00  0.00     0.006 A 
ENDBRANCH  59  76
ENDBRANCH  33  34
ENDBRANCH  25  28
ENDBRANCH  23  24
ENDBRANCH  22  23
ENDBRANCH   1  22
TORSDOF 15
ENDMDL
MODEL 3
REMARK VINA RESULT:     -10.9      4.204      9.739
REMARK SMILES CSc1nc2nnc(C(=O)NCCCCCCNC(=O)c3ccc(-c4c5nc(c(-c6c(F)cccc6F)c6ccc([nH]6)c(-c6c(F)cccc6F)c6nc(c(-c7c(F)cccc7F)c7ccc4[nH]7)C=C6)C=C5)cc3)c(O)n2n1
REMARK SMILES IDX 15 1 14 2 13 3 12 4 11 5 9 6 10 7 8 9 3 10 4 11 78 12 5 13
REMARK SMILES IDX 77 14 6 15 75 16 7 17 2 18 1 19 76 20 16 22 17 23 18 24
REMARK SMILES IDX 19 25 20 27 21 28 22 29 74 30 23 31 73 32 24 33 25 34 26 35
REMARK SMILES IDX 67 36 27 37 72 38 66 39 68 40 28 41 71 42 65 43 64 44 29 46
REMARK SMILES IDX 55 47 38 48 54 49 39 50 42 51 53 52 69 53 40 54 41 55 52 57
REMARK SMILES IDX 70 58 43 59 30 60 31 61 36 62 32 63 33 64 35 65 37 66 34 67
REMARK SMILES IDX 56 68 57 69 62 70 58 71 59 72 61 73 63 74 60 75 44 76 45 77
REMARK SMILES IDX 50 78 46 79 47 80 49 81 51 82 48 83
REMARK H PARENT 11 8 76 21 18 26 68 45 42 56
REMARK Flexibility Score: inf
ROOT
ATOM      1  C   UNL A   1      35.089  33.625  28.058  1.00  0.00     0.002 C 
ENDROOT
BRANCH   1   2
ATOM      2  C   UNL A   1      34.278  32.330  28.215  1.00  0.00     0.002 C 
BRANCH   2   3
ATOM      3  C   UNL A   1      34.834  31.087  27.508  1.00  0.00     0.021 C 
BRANCH   3   4
ATOM      4  C   UNL A   1      33.816  29.980  27.229  1.00  0.00     0.116 C 
BRANCH   4   5
ATOM      5  N   UNL A   1      33.440  29.944  25.827  1.00  0.00    -0.350 N 
ATOM      6  C   UNL A   1      32.899  28.994  25.023  1.00  0.00     0.277 C 
ATOM      7  O   UNL A   1      32.759  29.299  23.832  1.00  0.00    -0.267 OA
ATOM      8  H   UNL A   1      33.615  30.792  25.358  1.00  0.00     0.163 HD
BRANCH   6   9
ATOM      9  C   UNL A   1      32.471  27.629  25.493  1.00  0.00     0.212 A 
ATOM     10  C   UNL A   1      32.330  23.285  25.824  1.00  0.00     0.210 A 
ATOM     11  N   UNL A   1      31.440  23.933  26.630  1.00  0.00    -0.182 NA
ATOM     12  N   UNL A   1      33.068  24.064  25.040  1.00  0.00    -0.134 NA
ATOM     13  C   UNL A   1      31.661  25.204  26.354  1.00  0.00     0.275 A 
ATOM     14  N   UNL A   1      32.649  25.302  25.383  1.00  0.00    -0.159 N 
ATOM     15  N   UNL A   1      31.103  26.344  26.858  1.00  0.00    -0.108 NA
ATOM     16  C   UNL A   1      33.069  26.553  24.926  1.00  0.00     0.249 A 
ATOM     17  N   UNL A   1      31.488  27.479  26.454  1.00  0.00    -0.136 NA
BRANCH  10  18
ATOM     18  S   UNL A   1      32.583  21.562  25.823  1.00  0.00    -0.088 SA
ATOM     19  C   UNL A   1      34.088  21.432  26.799  1.00  0.00     0.094 C 
ENDBRANCH  10  18
BRANCH  16  20
ATOM     20  O   UNL A   1      34.050  26.596  23.944  1.00  0.00    -0.491 OA
ATOM     21  H   UNL A   1      33.806  26.644  23.040  1.00  0.00     0.295 HD
ENDBRANCH  16  20
ENDBRANCH   6   9
ENDBRANCH   4   5
ENDBRANCH   3   4
ENDBRANCH   2   3
ENDBRANCH   1   2
BRANCH   1  22
ATOM     22  C   UNL A   1      34.511  34.883  28.721  1.00  0.00     0.021 C 
BRANCH  22  23
ATOM     23  C   UNL A   1      33.179  34.667  29.424  1.00  0.00     0.116 C 
BRANCH  23  24
ATOM     24  N   UNL A   1      33.037  35.472  30.632  1.00  0.00    -0.352 N 
ATOM     25  C   UNL A   1      33.568  35.227  31.883  1.00  0.00     0.251 C 
ATOM     26  H   UNL A   1      32.498  36.290  30.544  1.00  0.00     0.163 HD
ATOM     27  O   UNL A   1      33.080  35.738  32.878  1.00  0.00    -0.269 OA
BRANCH  25  28
ATOM     28  C   UNL A   1      34.731  34.325  32.005  1.00  0.00     0.039 A 
ATOM     29  C   UNL A   1      34.565  32.944  31.899  1.00  0.00     0.014 A 
ATOM     30  C   UNL A   1      35.996  34.870  32.228  1.00  0.00     0.014 A 
ATOM     31  C   UNL A   1      35.692  32.129  31.934  1.00  0.00     0.010 A 
ATOM     32  C   UNL A   1      37.120  34.078  32.134  1.00  0.00     0.010 A 
ATOM     33  C   UNL A   1      36.976  32.703  32.017  1.00  0.00    -0.014 A 
BRANCH  33  34
ATOM     34  C   UNL A   1      38.153  31.860  31.802  1.00  0.00     0.031 A 
ATOM     35  C   UNL A   1      38.839  31.504  33.072  1.00  0.00     0.074 A 
ATOM     36  C   UNL A   1      38.513  31.294  30.628  1.00  0.00     0.049 A 
ATOM     37  N   UNL A   1      39.955  31.981  33.510  1.00  0.00    -0.248 NA
ATOM     38  C   UNL A   1      38.130  30.661  34.053  1.00  0.00     0.031 C 
ATOM     39  C   UNL A   1      37.743  31.260  29.379  1.00  0.00     0.029 A 
ATOM     40  N   UNL A   1      39.618  30.545  30.317  1.00  0.00    -0.354 N 
ATOM     41  C   UNL A   1      40.224  31.278  34.680  1.00  0.00     0.074 A 
ATOM     42  C   UNL A   1      38.987  30.664  35.078  1.00  0.00     0.031 C 
ATOM     43  C   UNL A   1      38.273  30.341  28.541  1.00  0.00     0.029 A 
ATOM     44  C   UNL A   1      39.524  29.867  29.103  1.00  0.00     0.049 A 
ATOM     45  H   UNL A   1      40.408  30.491  30.901  1.00  0.00     0.167 HD
ATOM     46  C   UNL A   1      41.514  30.983  35.001  1.00  0.00     0.037 A 
ATOM     47  C   UNL A   1      40.417  28.988  28.584  1.00  0.00     0.037 A 
ATOM     48  C   UNL A   1      42.423  31.764  34.202  1.00  0.00     0.049 A 
ATOM     49  C   UNL A   1      41.728  29.262  29.208  1.00  0.00     0.074 A 
ATOM     50  C   UNL A   1      42.905  33.054  34.176  1.00  0.00     0.029 A 
ATOM     51  N   UNL A   1      42.653  31.217  32.971  1.00  0.00    -0.354 N 
ATOM     52  N   UNL A   1      42.407  30.356  29.008  1.00  0.00    -0.248 NA
ATOM     53  C   UNL A   1      42.167  28.438  30.329  1.00  0.00     0.031 C 
ATOM     54  C   UNL A   1      43.368  33.284  32.846  1.00  0.00     0.029 A 
ATOM     55  C   UNL A   1      43.200  32.120  32.105  1.00  0.00     0.049 A 
ATOM     56  H   UNL A   1      42.450  30.284  32.737  1.00  0.00     0.167 HD
ATOM     57  C   UNL A   1      43.060  30.563  30.203  1.00  0.00     0.074 A 
ATOM     58  C   UNL A   1      43.026  29.283  30.900  1.00  0.00     0.031 C 
ATOM     59  C   UNL A   1      43.239  31.820  30.693  1.00  0.00     0.037 A 
BRANCH  46  60
ATOM     60  C   UNL A   1      41.977  29.665  35.591  1.00  0.00     0.057 A 
ATOM     61  C   UNL A   1      42.952  29.684  36.609  1.00  0.00     0.134 A 
ATOM     62  C   UNL A   1      41.762  28.403  35.001  1.00  0.00     0.134 A 
ATOM     63  F   UNL A   1      43.276  30.829  37.230  1.00  0.00    -0.206 F 
ATOM     64  C   UNL A   1      43.688  28.548  36.970  1.00  0.00     0.040 A 
ATOM     65  C   UNL A   1      42.457  27.252  35.389  1.00  0.00     0.040 A 
ATOM     66  F   UNL A   1      40.954  28.226  33.951  1.00  0.00    -0.206 F 
ATOM     67  C   UNL A   1      43.443  27.326  36.358  1.00  0.00     0.006 A 
ENDBRANCH  46  60
BRANCH  47  68
ATOM     68  C   UNL A   1      40.209  27.779  27.752  1.00  0.00     0.057 A 
ATOM     69  C   UNL A   1      40.878  27.626  26.527  1.00  0.00     0.134 A 
ATOM     70  C   UNL A   1      39.629  26.617  28.286  1.00  0.00     0.134 A 
ATOM     71  F   UNL A   1      41.481  28.673  25.943  1.00  0.00    -0.206 F 
ATOM     72  C   UNL A   1      41.026  26.380  25.904  1.00  0.00     0.040 A 
ATOM     73  C   UNL A   1      39.764  25.366  27.671  1.00  0.00     0.040 A 
ATOM     74  F   UNL A   1      39.001  26.642  29.470  1.00  0.00    -0.206 F 
ATOM     75  C   UNL A   1      40.486  25.239  26.489  1.00  0.00     0.006 A 
ENDBRANCH  47  68
BRANCH  59  76
ATOM     76  C   UNL A   1      43.315  32.960  29.735  1.00  0.00     0.057 A 
ATOM     77  C   UNL A   1      42.271  33.848  29.458  1.00  0.00     0.134 A 
ATOM     78  C   UNL A   1      44.568  33.242  29.177  1.00  0.00     0.134 A 
ATOM     79  F   UNL A   1      41.053  33.678  29.989  1.00  0.00    -0.206 F 
ATOM     80  C   UNL A   1      42.475  34.978  28.657  1.00  0.00     0.040 A 
ATOM     81  C   UNL A   1      44.792  34.378  28.404  1.00  0.00     0.040 A 
ATOM     82  F   UNL A   1      45.613  32.435  29.425  1.00  0.00    -0.206 F 
ATOM     83  C   UNL A   1      43.742  35.254  28.142  1.00  0.00     0.006 A 
ENDBRANCH  59  76
ENDBRANCH  33  34
ENDBRANCH  25  28
ENDBRANCH  23  24
ENDBRANCH  22  23
ENDBRANCH   1  22
TORSDOF 15
ENDMDL
