MODEL 1
REMARK VINA RESULT:     -12.5      0.000      0.000
REMARK SMILES O=C(C[C@]1(C(=O)NC2CCCCC2)CC(c2ccc([N+](=O)[O-])cc2)=NO1)NCCCCCCNC(=O)c1ccc(-c2c3nc(c(-c4c(F)cccc4F)c4ccc([nH]4)c(-c4c(F)cccc4F)c4nc(c(-c5c(F)cccc5F)c5ccc2[nH]5)C=C4)C=C3)cc1
REMARK SMILES IDX 30 1 29 2 28 3 27 4 1 5 2 6 3 8 4 9 14 10 26 11 15 12 25 13
REMARK SMILES IDX 5 14 6 15 7 16 8 18 9 19 13 20 10 21 12 22 11 23 16 24 17 25
REMARK SMILES IDX 24 26 18 27 23 28 19 29 20 30 21 31 22 32 31 33 32 34 33 35
REMARK SMILES IDX 34 36 35 37 36 39 37 40 38 41 90 42 39 43 89 44 40 45 41 46
REMARK SMILES IDX 42 47 83 48 43 49 88 50 82 51 84 52 44 53 87 54 81 55 80 56
REMARK SMILES IDX 45 58 71 59 54 60 70 61 55 62 58 63 69 64 85 65 56 66 57 67
REMARK SMILES IDX 68 69 86 70 59 71 46 72 47 73 52 74 48 75 49 76 51 77 53 78
REMARK SMILES IDX 50 79 72 80 73 81 78 82 74 83 75 84 77 85 79 86 76 87 60 88
REMARK SMILES IDX 61 89 66 90 62 91 63 92 65 93 67 94 64 95
REMARK H PARENT 27 7 7 17 34 38 84 57 58 68
REMARK Flexibility Score: inf
ROOT
ATOM      1  C   UNL A   1      37.551  22.061  25.322  1.00  0.00     0.002 C 
ENDROOT
BRANCH   1   2
ATOM      2  C   UNL A   1      37.300  23.314  24.472  1.00  0.00     0.021 C 
BRANCH   2   3
ATOM      3  C   UNL A   1      35.994  23.303  23.674  1.00  0.00     0.116 C 
BRANCH   3   4
ATOM      4  N   UNL A   1      34.848  23.263  24.557  1.00  0.00    -0.356 N 
ATOM      5  O   UNL A   1      34.404  25.502  24.457  1.00  0.00    -0.275 OA
ATOM      6  C   UNL A   1      34.175  24.396  24.937  1.00  0.00     0.224 C 
ATOM      7  H   UNL A   1      34.541  22.392  24.897  1.00  0.00     0.163 HD
BRANCH   6   8
ATOM      8  C   UNL A   1      33.228  24.221  26.099  1.00  0.00     0.162 C 
BRANCH   8   9
ATOM      9  C   UNL A   1      31.787  23.793  25.822  1.00  0.00     0.229 C 
ATOM     10  C   UNL A   1      31.545  22.282  25.908  1.00  0.00     0.123 C 
ATOM     11  O   UNL A   1      31.586  24.012  24.391  1.00  0.00    -0.378 OA
ATOM     12  C   UNL A   1      32.065  21.897  24.572  1.00  0.00     0.092 C 
ATOM     13  N   UNL A   1      32.088  22.860  23.709  1.00  0.00    -0.089 NA
BRANCH   9  14
ATOM     14  C   UNL A   1      30.603  24.550  26.497  1.00  0.00     0.268 C 
ATOM     15  O   UNL A   1      29.739  23.896  27.108  1.00  0.00    -0.270 OA
ATOM     16  N   UNL A   1      30.330  25.878  26.501  1.00  0.00    -0.350 N 
ATOM     17  H   UNL A   1      29.406  26.042  26.799  1.00  0.00     0.163 HD
BRANCH  16  18
ATOM     18  C   UNL A   1      31.007  27.146  26.194  1.00  0.00     0.082 C 
ATOM     19  C   UNL A   1      32.070  27.474  27.251  1.00  0.00     0.025 C 
ATOM     20  C   UNL A   1      31.381  27.300  24.718  1.00  0.00     0.025 C 
ATOM     21  C   UNL A   1      33.162  28.455  26.845  1.00  0.00     0.002 C 
ATOM     22  C   UNL A   1      32.367  28.436  24.472  1.00  0.00     0.002 C 
ATOM     23  C   UNL A   1      33.579  28.343  25.387  1.00  0.00     0.000 C 
ENDBRANCH  16  18
ENDBRANCH   9  14
BRANCH  12  24
ATOM     24  C   UNL A   1      32.530  20.524  24.328  1.00  0.00    -0.000 A 
ATOM     25  C   UNL A   1      33.295  19.873  25.301  1.00  0.00     0.017 A 
ATOM     26  C   UNL A   1      32.153  19.856  23.156  1.00  0.00     0.017 A 
ATOM     27  C   UNL A   1      33.671  18.539  25.111  1.00  0.00     0.086 A 
ATOM     28  C   UNL A   1      32.538  18.529  22.955  1.00  0.00     0.086 A 
ATOM     29  C   UNL A   1      33.291  17.872  23.938  1.00  0.00     0.269 A 
BRANCH  29  30
ATOM     30  N   UNL A   1      33.678  16.468  23.735  1.00  0.00     0.062 N 
ATOM     31  O   UNL A   1      33.269  15.633  24.554  1.00  0.00    -0.258 OA
ATOM     32  O   UNL A   1      34.383  16.203  22.751  1.00  0.00    -0.258 OA
ENDBRANCH  29  30
ENDBRANCH  12  24
ENDBRANCH   8   9
ENDBRANCH   6   8
ENDBRANCH   3   4
ENDBRANCH   2   3
ENDBRANCH   1   2
BRANCH   1  33
ATOM     33  C   UNL A   1      37.215  20.731  24.643  1.00  0.00     0.002 C 
BRANCH  33  34
ATOM     34  C   UNL A   1      38.152  19.574  24.992  1.00  0.00     0.021 C 
BRANCH  34  35
ATOM     35  C   UNL A   1      39.251  19.920  25.989  1.00  0.00     0.116 C 
BRANCH  35  36
ATOM     36  N   UNL A   1      40.344  18.963  25.967  1.00  0.00    -0.352 N 
ATOM     37  C   UNL A   1      41.694  19.191  26.081  1.00  0.00     0.251 C 
ATOM     38  H   UNL A   1      40.081  18.021  25.855  1.00  0.00     0.163 HD
ATOM     39  O   UNL A   1      42.494  18.282  25.881  1.00  0.00    -0.269 OA
BRANCH  37  40
ATOM     40  C   UNL A   1      42.185  20.546  26.416  1.00  0.00     0.039 A 
ATOM     41  C   UNL A   1      42.512  21.420  25.376  1.00  0.00     0.014 A 
ATOM     42  C   UNL A   1      42.313  20.955  27.745  1.00  0.00     0.014 A 
ATOM     43  C   UNL A   1      42.907  22.727  25.670  1.00  0.00     0.010 A 
ATOM     44  C   UNL A   1      42.638  22.278  28.034  1.00  0.00     0.010 A 
ATOM     45  C   UNL A   1      42.940  23.176  27.000  1.00  0.00    -0.014 A 
BRANCH  45  46
ATOM     46  C   UNL A   1      43.282  24.583  27.329  1.00  0.00     0.031 A 
ATOM     47  C   UNL A   1      44.713  25.040  27.304  1.00  0.00     0.074 A 
ATOM     48  C   UNL A   1      42.311  25.433  27.718  1.00  0.00     0.049 A 
ATOM     49  N   UNL A   1      45.217  26.204  27.629  1.00  0.00    -0.248 NA
ATOM     50  C   UNL A   1      45.716  24.049  26.882  1.00  0.00     0.031 C 
ATOM     51  C   UNL A   1      40.890  25.100  27.832  1.00  0.00     0.029 A 
ATOM     52  N   UNL A   1      42.377  26.748  28.104  1.00  0.00    -0.354 N 
ATOM     53  C   UNL A   1      46.590  26.080  27.469  1.00  0.00     0.074 A 
ATOM     54  C   UNL A   1      46.847  24.714  27.064  1.00  0.00     0.031 C 
ATOM     55  C   UNL A   1      40.216  26.188  28.238  1.00  0.00     0.029 A 
ATOM     56  C   UNL A   1      41.159  27.282  28.448  1.00  0.00     0.049 A 
ATOM     57  H   UNL A   1      43.217  27.261  28.131  1.00  0.00     0.167 HD
ATOM     58  C   UNL A   1      47.551  27.024  27.622  1.00  0.00     0.037 A 
ATOM     59  C   UNL A   1      40.838  28.514  28.889  1.00  0.00     0.037 A 
ATOM     60  C   UNL A   1      47.292  28.388  27.997  1.00  0.00     0.049 A 
ATOM     61  C   UNL A   1      41.920  29.544  29.050  1.00  0.00     0.074 A 
ATOM     62  C   UNL A   1      48.190  29.435  28.117  1.00  0.00     0.029 A 
ATOM     63  N   UNL A   1      46.042  28.896  28.317  1.00  0.00    -0.354 N 
ATOM     64  N   UNL A   1      43.208  29.432  28.830  1.00  0.00    -0.248 NA
ATOM     65  C   UNL A   1      41.504  30.875  29.515  1.00  0.00     0.031 C 
ATOM     66  C   UNL A   1      47.489  30.566  28.547  1.00  0.00     0.029 A 
ATOM     67  C   UNL A   1      46.148  30.236  28.653  1.00  0.00     0.049 A 
ATOM     68  H   UNL A   1      45.203  28.381  28.307  1.00  0.00     0.167 HD
ATOM     69  C   UNL A   1      43.751  30.680  29.103  1.00  0.00     0.074 A 
ATOM     70  C   UNL A   1      42.652  31.538  29.493  1.00  0.00     0.031 C 
ATOM     71  C   UNL A   1      45.044  31.080  29.035  1.00  0.00     0.037 A 
BRANCH  58  72
ATOM     72  C   UNL A   1      48.971  26.607  27.379  1.00  0.00     0.057 A 
ATOM     73  C   UNL A   1      49.794  26.147  28.416  1.00  0.00     0.134 A 
ATOM     74  C   UNL A   1      49.516  26.642  26.088  1.00  0.00     0.134 A 
ATOM     75  F   UNL A   1      49.338  26.101  29.676  1.00  0.00    -0.206 F 
ATOM     76  C   UNL A   1      51.116  25.765  28.183  1.00  0.00     0.040 A 
ATOM     77  C   UNL A   1      50.829  26.236  25.840  1.00  0.00     0.040 A 
ATOM     78  F   UNL A   1      48.781  27.067  25.050  1.00  0.00    -0.206 F 
ATOM     79  C   UNL A   1      51.635  25.802  26.890  1.00  0.00     0.006 A 
ENDBRANCH  58  72
BRANCH  59  80
ATOM     80  C   UNL A   1      39.423  28.847  29.186  1.00  0.00     0.057 A 
ATOM     81  C   UNL A   1      38.892  28.656  30.467  1.00  0.00     0.134 A 
ATOM     82  C   UNL A   1      38.571  29.363  28.203  1.00  0.00     0.134 A 
ATOM     83  F   UNL A   1      39.658  28.149  31.445  1.00  0.00    -0.206 F 
ATOM     84  C   UNL A   1      37.560  28.953  30.758  1.00  0.00     0.040 A 
ATOM     85  C   UNL A   1      37.242  29.685  28.486  1.00  0.00     0.040 A 
ATOM     86  F   UNL A   1      39.022  29.575  26.959  1.00  0.00    -0.206 F 
ATOM     87  C   UNL A   1      36.733  29.474  29.765  1.00  0.00     0.006 A 
ENDBRANCH  59  80
BRANCH  71  88
ATOM     88  C   UNL A   1      45.337  32.515  29.357  1.00  0.00     0.057 A 
ATOM     89  C   UNL A   1      45.693  32.924  30.648  1.00  0.00     0.134 A 
ATOM     90  C   UNL A   1      45.300  33.492  28.355  1.00  0.00     0.134 A 
ATOM     91  F   UNL A   1      45.733  32.038  31.655  1.00  0.00    -0.206 F 
ATOM     92  C   UNL A   1      45.983  34.259  30.935  1.00  0.00     0.040 A 
ATOM     93  C   UNL A   1      45.612  34.825  28.624  1.00  0.00     0.040 A 
ATOM     94  F   UNL A   1      44.973  33.165  27.096  1.00  0.00    -0.206 F 
ATOM     95  C   UNL A   1      45.949  35.213  29.919  1.00  0.00     0.006 A 
ENDBRANCH  71  88
ENDBRANCH  45  46
ENDBRANCH  37  40
ENDBRANCH  35  36
ENDBRANCH  34  35
ENDBRANCH  33  34
ENDBRANCH   1  33
TORSDOF 18
ENDMDL
MODEL 2
REMARK VINA RESULT:     -12.2      1.646      2.338
REMARK SMILES O=C(C[C@]1(C(=O)NC2CCCCC2)CC(c2ccc([N+](=O)[O-])cc2)=NO1)NCCCCCCNC(=O)c1ccc(-c2c3nc(c(-c4c(F)cccc4F)c4ccc([nH]4)c(-c4c(F)cccc4F)c4nc(c(-c5c(F)cccc5F)c5ccc2[nH]5)C=C4)C=C3)cc1
REMARK SMILES IDX 30 1 29 2 28 3 27 4 1 5 2 6 3 8 4 9 14 10 26 11 15 12 25 13
REMARK SMILES IDX 5 14 6 15 7 16 8 18 9 19 13 20 10 21 12 22 11 23 16 24 17 25
REMARK SMILES IDX 24 26 18 27 23 28 19 29 20 30 21 31 22 32 31 33 32 34 33 35
REMARK SMILES IDX 34 36 35 37 36 39 37 40 38 41 90 42 39 43 89 44 40 45 41 46
REMARK SMILES IDX 42 47 83 48 43 49 88 50 82 51 84 52 44 53 87 54 81 55 80 56
REMARK SMILES IDX 45 58 71 59 54 60 70 61 55 62 58 63 69 64 85 65 56 66 57 67
REMARK SMILES IDX 68 69 86 70 59 71 46 72 47 73 52 74 48 75 49 76 51 77 53 78
REMARK SMILES IDX 50 79 72 80 73 81 78 82 74 83 75 84 77 85 79 86 76 87 60 88
REMARK SMILES IDX 61 89 66 90 62 91 63 92 65 93 67 94 64 95
REMARK H PARENT 27 7 7 17 34 38 84 57 58 68
REMARK Flexibility Score: inf
ROOT
ATOM      1  C   UNL A   1      35.888  21.433  25.511  1.00  0.00     0.002 C 
ENDROOT
BRANCH   1   2
ATOM      2  C   UNL A   1      36.308  22.709  26.254  1.00  0.00     0.021 C 
BRANCH   2   3
ATOM      3  C   UNL A   1      36.347  23.974  25.396  1.00  0.00     0.116 C 
BRANCH   3   4
ATOM      4  N   UNL A   1      35.010  24.452  25.116  1.00  0.00    -0.356 N 
ATOM      5  O   UNL A   1      34.924  23.655  22.978  1.00  0.00    -0.275 OA
ATOM      6  C   UNL A   1      34.423  24.310  23.886  1.00  0.00     0.224 C 
ATOM      7  H   UNL A   1      34.504  24.896  25.835  1.00  0.00     0.163 HD
BRANCH   6   8
ATOM      8  C   UNL A   1      33.181  25.139  23.666  1.00  0.00     0.162 C 
BRANCH   8   9
ATOM      9  C   UNL A   1      31.896  24.758  24.402  1.00  0.00     0.229 C 
ATOM     10  C   UNL A   1      31.957  23.413  25.133  1.00  0.00     0.123 C 
ATOM     11  O   UNL A   1      30.927  24.446  23.353  1.00  0.00    -0.378 OA
ATOM     12  C   UNL A   1      31.725  22.517  23.972  1.00  0.00     0.092 C 
ATOM     13  N   UNL A   1      31.141  23.086  22.967  1.00  0.00    -0.089 NA
BRANCH   9  14
ATOM     14  C   UNL A   1      31.169  25.806  25.298  1.00  0.00     0.268 C 
ATOM     15  O   UNL A   1      31.351  25.777  26.529  1.00  0.00    -0.270 OA
ATOM     16  N   UNL A   1      30.297  26.780  24.937  1.00  0.00    -0.350 N 
ATOM     17  H   UNL A   1      29.823  27.130  25.726  1.00  0.00     0.163 HD
BRANCH  16  18
ATOM     18  C   UNL A   1      29.853  27.468  23.718  1.00  0.00     0.082 C 
ATOM     19  C   UNL A   1      28.323  27.579  23.673  1.00  0.00     0.025 C 
ATOM     20  C   UNL A   1      30.680  28.710  23.378  1.00  0.00     0.025 C 
ATOM     21  C   UNL A   1      27.739  28.652  22.764  1.00  0.00     0.002 C 
ATOM     22  C   UNL A   1      30.015  29.596  22.330  1.00  0.00     0.002 C 
ATOM     23  C   UNL A   1      28.575  29.920  22.694  1.00  0.00     0.000 C 
ENDBRANCH  16  18
ENDBRANCH   9  14
BRANCH  12  24
ATOM     24  C   UNL A   1      32.176  21.119  24.014  1.00  0.00    -0.000 A 
ATOM     25  C   UNL A   1      32.520  20.544  25.241  1.00  0.00     0.017 A 
ATOM     26  C   UNL A   1      32.195  20.355  22.841  1.00  0.00     0.017 A 
ATOM     27  C   UNL A   1      32.870  19.191  25.300  1.00  0.00     0.086 A 
ATOM     28  C   UNL A   1      32.559  19.007  22.892  1.00  0.00     0.086 A 
ATOM     29  C   UNL A   1      32.889  18.427  24.124  1.00  0.00     0.269 A 
BRANCH  29  30
ATOM     30  N   UNL A   1      33.250  17.004  24.180  1.00  0.00     0.062 N 
ATOM     31  O   UNL A   1      33.154  16.427  25.273  1.00  0.00    -0.258 OA
ATOM     32  O   UNL A   1      33.621  16.463  23.128  1.00  0.00    -0.258 OA
ENDBRANCH  29  30
ENDBRANCH  12  24
ENDBRANCH   8   9
ENDBRANCH   6   8
ENDBRANCH   3   4
ENDBRANCH   2   3
ENDBRANCH   1   2
BRANCH   1  33
ATOM     33  C   UNL A   1      36.881  20.930  24.461  1.00  0.00     0.002 C 
BRANCH  33  34
ATOM     34  C   UNL A   1      37.804  19.806  24.932  1.00  0.00     0.021 C 
BRANCH  34  35
ATOM     35  C   UNL A   1      38.971  20.259  25.800  1.00  0.00     0.116 C 
BRANCH  35  36
ATOM     36  N   UNL A   1      40.081  19.321  25.775  1.00  0.00    -0.352 N 
ATOM     37  C   UNL A   1      41.408  19.546  26.047  1.00  0.00     0.251 C 
ATOM     38  H   UNL A   1      39.849  18.397  25.530  1.00  0.00     0.163 HD
ATOM     39  O   UNL A   1      42.242  18.674  25.823  1.00  0.00    -0.269 OA
BRANCH  37  40
ATOM     40  C   UNL A   1      41.836  20.856  26.583  1.00  0.00     0.039 A 
ATOM     41  C   UNL A   1      42.334  21.816  25.698  1.00  0.00     0.014 A 
ATOM     42  C   UNL A   1      41.741  21.141  27.948  1.00  0.00     0.014 A 
ATOM     43  C   UNL A   1      42.675  23.085  26.173  1.00  0.00     0.010 A 
ATOM     44  C   UNL A   1      42.014  22.426  28.408  1.00  0.00     0.010 A 
ATOM     45  C   UNL A   1      42.485  23.410  27.526  1.00  0.00    -0.014 A 
BRANCH  45  46
ATOM     46  C   UNL A   1      42.768  24.776  28.036  1.00  0.00     0.031 A 
ATOM     47  C   UNL A   1      44.162  25.155  28.450  1.00  0.00     0.074 A 
ATOM     48  C   UNL A   1      41.757  25.653  28.193  1.00  0.00     0.049 A 
ATOM     49  N   UNL A   1      44.592  26.270  28.985  1.00  0.00    -0.248 NA
ATOM     50  C   UNL A   1      45.207  24.138  28.262  1.00  0.00     0.031 C 
ATOM     51  C   UNL A   1      40.352  25.390  27.875  1.00  0.00     0.029 A 
ATOM     52  N   UNL A   1      41.755  26.938  28.673  1.00  0.00    -0.354 N 
ATOM     53  C   UNL A   1      45.948  26.081  29.213  1.00  0.00     0.074 A 
ATOM     54  C   UNL A   1      46.262  24.729  28.803  1.00  0.00     0.031 C 
ATOM     55  C   UNL A   1      39.628  26.488  28.149  1.00  0.00     0.029 A 
ATOM     56  C   UNL A   1      40.510  27.516  28.694  1.00  0.00     0.049 A 
ATOM     57  H   UNL A   1      42.571  27.403  28.973  1.00  0.00     0.167 HD
ATOM     58  C   UNL A   1      46.857  26.962  29.698  1.00  0.00     0.037 A 
ATOM     59  C   UNL A   1      40.120  28.736  29.112  1.00  0.00     0.037 A 
ATOM     60  C   UNL A   1      46.551  28.315  30.080  1.00  0.00     0.049 A 
ATOM     61  C   UNL A   1      41.146  29.696  29.645  1.00  0.00     0.074 A 
ATOM     62  C   UNL A   1      47.413  29.303  30.521  1.00  0.00     0.029 A 
ATOM     63  N   UNL A   1      45.279  28.870  30.066  1.00  0.00    -0.354 N 
ATOM     64  N   UNL A   1      42.438  29.527  29.791  1.00  0.00    -0.248 NA
ATOM     65  C   UNL A   1      40.661  31.019  30.064  1.00  0.00     0.031 C 
ATOM     66  C   UNL A   1      46.658  30.444  30.813  1.00  0.00     0.029 A 
ATOM     67  C   UNL A   1      45.332  30.181  30.512  1.00  0.00     0.049 A 
ATOM     68  H   UNL A   1      44.461  28.402  29.783  1.00  0.00     0.167 HD
ATOM     69  C   UNL A   1      42.924  30.727  30.294  1.00  0.00     0.074 A 
ATOM     70  C   UNL A   1      41.790  31.620  30.416  1.00  0.00     0.031 C 
ATOM     71  C   UNL A   1      44.196  31.060  30.623  1.00  0.00     0.037 A 
BRANCH  58  72
ATOM     72  C   UNL A   1      48.272  26.484  29.839  1.00  0.00     0.057 A 
ATOM     73  C   UNL A   1      49.216  26.658  28.818  1.00  0.00     0.134 A 
ATOM     74  C   UNL A   1      48.704  25.865  31.020  1.00  0.00     0.134 A 
ATOM     75  F   UNL A   1      48.864  27.231  27.658  1.00  0.00    -0.206 F 
ATOM     76  C   UNL A   1      50.530  26.207  28.954  1.00  0.00     0.040 A 
ATOM     77  C   UNL A   1      50.023  25.436  31.177  1.00  0.00     0.040 A 
ATOM     78  F   UNL A   1      47.854  25.673  32.039  1.00  0.00    -0.206 F 
ATOM     79  C   UNL A   1      50.939  25.600  30.139  1.00  0.00     0.006 A 
ENDBRANCH  58  72
BRANCH  59  80
ATOM     80  C   UNL A   1      38.692  29.128  29.018  1.00  0.00     0.057 A 
ATOM     81  C   UNL A   1      37.848  29.045  30.132  1.00  0.00     0.134 A 
ATOM     82  C   UNL A   1      38.137  29.594  27.820  1.00  0.00     0.134 A 
ATOM     83  F   UNL A   1      38.320  28.589  31.302  1.00  0.00    -0.206 F 
ATOM     84  C   UNL A   1      36.500  29.397  30.055  1.00  0.00     0.040 A 
ATOM     85  C   UNL A   1      36.796  29.971  27.736  1.00  0.00     0.040 A 
ATOM     86  F   UNL A   1      38.895  29.702  26.720  1.00  0.00    -0.206 F 
ATOM     87  C   UNL A   1      35.972  29.867  28.854  1.00  0.00     0.006 A 
ENDBRANCH  59  80
BRANCH  71  88
ATOM     88  C   UNL A   1      44.435  32.456  31.116  1.00  0.00     0.057 A 
ATOM     89  C   UNL A   1      44.692  33.515  30.237  1.00  0.00     0.134 A 
ATOM     90  C   UNL A   1      44.368  32.750  32.483  1.00  0.00     0.134 A 
ATOM     91  F   UNL A   1      44.781  33.297  28.916  1.00  0.00    -0.206 F 
ATOM     92  C   UNL A   1      44.893  34.816  30.703  1.00  0.00     0.040 A 
ATOM     93  C   UNL A   1      44.544  34.050  32.959  1.00  0.00     0.040 A 
ATOM     94  F   UNL A   1      44.119  31.782  33.377  1.00  0.00    -0.206 F 
ATOM     95  C   UNL A   1      44.813  35.086  32.068  1.00  0.00     0.006 A 
ENDBRANCH  71  88
ENDBRANCH  45  46
ENDBRANCH  37  40
ENDBRANCH  35  36
ENDBRANCH  34  35
ENDBRANCH  33  34
ENDBRANCH   1  33
TORSDOF 18
ENDMDL
MODEL 3
REMARK VINA RESULT:     -12.2      1.204      5.987
REMARK SMILES O=C(C[C@]1(C(=O)NC2CCCCC2)CC(c2ccc([N+](=O)[O-])cc2)=NO1)NCCCCCCNC(=O)c1ccc(-c2c3nc(c(-c4c(F)cccc4F)c4ccc([nH]4)c(-c4c(F)cccc4F)c4nc(c(-c5c(F)cccc5F)c5ccc2[nH]5)C=C4)C=C3)cc1
REMARK SMILES IDX 30 1 29 2 28 3 27 4 1 5 2 6 3 8 4 9 14 10 26 11 15 12 25 13
REMARK SMILES IDX 5 14 6 15 7 16 8 18 9 19 13 20 10 21 12 22 11 23 16 24 17 25
REMARK SMILES IDX 24 26 18 27 23 28 19 29 20 30 21 31 22 32 31 33 32 34 33 35
REMARK SMILES IDX 34 36 35 37 36 39 37 40 38 41 90 42 39 43 89 44 40 45 41 46
REMARK SMILES IDX 42 47 83 48 43 49 88 50 82 51 84 52 44 53 87 54 81 55 80 56
REMARK SMILES IDX 45 58 71 59 54 60 70 61 55 62 58 63 69 64 85 65 56 66 57 67
REMARK SMILES IDX 68 69 86 70 59 71 46 72 47 73 52 74 48 75 49 76 51 77 53 78
REMARK SMILES IDX 50 79 72 80 73 81 78 82 74 83 75 84 77 85 79 86 76 87 60 88
REMARK SMILES IDX 61 89 66 90 62 91 63 92 65 93 67 94 64 95
REMARK H PARENT 27 7 7 17 34 38 84 57 58 68
REMARK Flexibility Score: inf
ROOT
ATOM      1  C   UNL A   1      38.120  22.327  25.180  1.00  0.00     0.002 C 
ENDROOT
BRANCH   1   2
ATOM      2  C   UNL A   1      37.191  23.326  25.884  1.00  0.00     0.021 C 
BRANCH   2   3
ATOM      3  C   UNL A   1      36.070  22.694  26.712  1.00  0.00     0.116 C 
BRANCH   3   4
ATOM      4  N   UNL A   1      34.798  23.324  26.430  1.00  0.00    -0.356 N 
ATOM      5  O   UNL A   1      34.944  23.125  24.158  1.00  0.00    -0.275 OA
ATOM      6  C   UNL A   1      34.362  23.553  25.150  1.00  0.00     0.224 C 
ATOM      7  H   UNL A   1      34.227  23.599  27.183  1.00  0.00     0.163 HD
BRANCH   6   8
ATOM      8  C   UNL A   1      33.191  24.498  25.030  1.00  0.00     0.162 C 
BRANCH   8   9
ATOM      9  C   UNL A   1      31.782  23.970  25.298  1.00  0.00     0.229 C 
ATOM     10  C   UNL A   1      31.719  22.484  25.666  1.00  0.00     0.123 C 
ATOM     11  O   UNL A   1      31.122  23.948  23.994  1.00  0.00    -0.378 OA
ATOM     12  C   UNL A   1      31.827  21.912  24.300  1.00  0.00     0.092 C 
ATOM     13  N   UNL A   1      31.488  22.724  23.352  1.00  0.00    -0.089 NA
BRANCH   9  14
ATOM     14  C   UNL A   1      30.806  24.774  26.210  1.00  0.00     0.268 C 
ATOM     15  O   UNL A   1      29.894  24.168  26.799  1.00  0.00    -0.270 OA
ATOM     16  N   UNL A   1      30.769  26.108  26.454  1.00  0.00    -0.350 N 
ATOM     17  H   UNL A   1      29.914  26.360  26.874  1.00  0.00     0.163 HD
BRANCH  16  18
ATOM     18  C   UNL A   1      31.629  27.287  26.281  1.00  0.00     0.082 C 
ATOM     19  C   UNL A   1      31.439  27.907  24.890  1.00  0.00     0.025 C 
ATOM     20  C   UNL A   1      31.645  28.218  27.495  1.00  0.00     0.025 C 
ATOM     21  C   UNL A   1      31.864  29.361  24.724  1.00  0.00     0.002 C 
ATOM     22  C   UNL A   1      32.251  29.583  27.186  1.00  0.00     0.002 C 
ATOM     23  C   UNL A   1      31.620  30.218  25.956  1.00  0.00     0.000 C 
ENDBRANCH  16  18
ENDBRANCH   9  14
BRANCH  12  24
ATOM     24  C   UNL A   1      32.316  20.539  24.110  1.00  0.00    -0.000 A 
ATOM     25  C   UNL A   1      32.958  19.884  25.165  1.00  0.00     0.017 A 
ATOM     26  C   UNL A   1      32.080  19.874  22.900  1.00  0.00     0.017 A 
ATOM     27  C   UNL A   1      33.351  18.550  25.018  1.00  0.00     0.086 A 
ATOM     28  C   UNL A   1      32.485  18.547  22.742  1.00  0.00     0.086 A 
ATOM     29  C   UNL A   1      33.114  17.886  23.806  1.00  0.00     0.269 A 
BRANCH  29  30
ATOM     30  N   UNL A   1      33.520  16.483  23.648  1.00  0.00     0.062 N 
ATOM     31  O   UNL A   1      34.258  16.200  22.694  1.00  0.00    -0.258 OA
ATOM     32  O   UNL A   1      33.105  15.666  24.484  1.00  0.00    -0.258 OA
ENDBRANCH  29  30
ENDBRANCH  12  24
ENDBRANCH   8   9
ENDBRANCH   6   8
ENDBRANCH   3   4
ENDBRANCH   2   3
ENDBRANCH   1   2
BRANCH   1  33
ATOM     33  C   UNL A   1      37.452  21.036  24.701  1.00  0.00     0.002 C 
BRANCH  33  34
ATOM     34  C   UNL A   1      38.314  19.780  24.823  1.00  0.00     0.021 C 
BRANCH  34  35
ATOM     35  C   UNL A   1      39.187  19.723  26.070  1.00  0.00     0.116 C 
BRANCH  35  36
ATOM     36  N   UNL A   1      40.457  19.058  25.831  1.00  0.00    -0.352 N 
ATOM     37  C   UNL A   1      41.730  19.566  25.924  1.00  0.00     0.251 C 
ATOM     38  H   UNL A   1      40.397  18.112  25.566  1.00  0.00     0.163 HD
ATOM     39  O   UNL A   1      42.688  18.909  25.531  1.00  0.00    -0.269 OA
BRANCH  37  40
ATOM     40  C   UNL A   1      41.940  20.924  26.471  1.00  0.00     0.039 A 
ATOM     41  C   UNL A   1      41.912  21.104  27.856  1.00  0.00     0.014 A 
ATOM     42  C   UNL A   1      42.172  22.012  25.626  1.00  0.00     0.014 A 
ATOM     43  C   UNL A   1      42.182  22.364  28.396  1.00  0.00     0.010 A 
ATOM     44  C   UNL A   1      42.509  23.250  26.166  1.00  0.00     0.010 A 
ATOM     45  C   UNL A   1      42.516  23.439  27.556  1.00  0.00    -0.014 A 
BRANCH  45  46
ATOM     46  C   UNL A   1      42.881  24.766  28.113  1.00  0.00     0.031 A 
ATOM     47  C   UNL A   1      41.824  25.811  28.334  1.00  0.00     0.074 A 
ATOM     48  C   UNL A   1      44.175  25.056  28.355  1.00  0.00     0.049 A 
ATOM     49  N   UNL A   1      41.955  27.048  28.741  1.00  0.00    -0.248 NA
ATOM     50  C   UNL A   1      40.437  25.422  28.032  1.00  0.00     0.031 C 
ATOM     51  C   UNL A   1      45.301  24.146  28.137  1.00  0.00     0.029 A 
ATOM     52  N   UNL A   1      44.760  26.204  28.826  1.00  0.00    -0.354 N 
ATOM     53  C   UNL A   1      40.676  27.588  28.728  1.00  0.00     0.074 A 
ATOM     54  C   UNL A   1      39.789  26.561  28.226  1.00  0.00     0.031 C 
ATOM     55  C   UNL A   1      46.439  24.764  28.492  1.00  0.00     0.029 A 
ATOM     56  C   UNL A   1      46.127  26.122  28.928  1.00  0.00     0.049 A 
ATOM     57  H   UNL A   1      44.249  27.010  29.068  1.00  0.00     0.167 HD
ATOM     58  C   UNL A   1      40.272  28.821  29.119  1.00  0.00     0.037 A 
ATOM     59  C   UNL A   1      47.030  27.040  29.324  1.00  0.00     0.037 A 
ATOM     60  C   UNL A   1      41.151  29.833  29.643  1.00  0.00     0.049 A 
ATOM     61  C   UNL A   1      46.558  28.400  29.754  1.00  0.00     0.074 A 
ATOM     62  C   UNL A   1      40.828  31.089  30.126  1.00  0.00     0.029 A 
ATOM     63  N   UNL A   1      42.528  29.704  29.751  1.00  0.00    -0.354 N 
ATOM     64  N   UNL A   1      45.337  28.875  29.800  1.00  0.00    -0.248 NA
ATOM     65  C   UNL A   1      47.590  29.351  30.195  1.00  0.00     0.031 C 
ATOM     66  C   UNL A   1      42.015  31.736  30.490  1.00  0.00     0.029 A 
ATOM     67  C   UNL A   1      43.071  30.866  30.275  1.00  0.00     0.049 A 
ATOM     68  H   UNL A   1      43.042  28.906  29.494  1.00  0.00     0.167 HD
ATOM     69  C   UNL A   1      45.449  30.167  30.297  1.00  0.00     0.074 A 
ATOM     70  C   UNL A   1      46.857  30.397  30.550  1.00  0.00     0.031 C 
ATOM     71  C   UNL A   1      44.474  31.080  30.526  1.00  0.00     0.037 A 
BRANCH  58  72
ATOM     72  C   UNL A   1      38.812  29.139  28.995  1.00  0.00     0.057 A 
ATOM     73  C   UNL A   1      38.242  29.538  27.778  1.00  0.00     0.134 A 
ATOM     74  C   UNL A   1      37.957  29.021  30.100  1.00  0.00     0.134 A 
ATOM     75  F   UNL A   1      39.006  29.683  26.686  1.00  0.00    -0.206 F 
ATOM     76  C   UNL A   1      36.883  29.836  27.671  1.00  0.00     0.040 A 
ATOM     77  C   UNL A   1      36.591  29.290  29.997  1.00  0.00     0.040 A 
ATOM     78  F   UNL A   1      38.436  28.639  31.293  1.00  0.00    -0.206 F 
ATOM     79  C   UNL A   1      36.052  29.706  28.782  1.00  0.00     0.006 A 
ENDBRANCH  58  72
BRANCH  59  80
ATOM     80  C   UNL A   1      48.473  26.693  29.355  1.00  0.00     0.057 A 
ATOM     81  C   UNL A   1      49.041  26.079  30.477  1.00  0.00     0.134 A 
ATOM     82  C   UNL A   1      49.314  26.963  28.270  1.00  0.00     0.134 A 
ATOM     83  F   UNL A   1      48.287  25.812  31.553  1.00  0.00    -0.206 F 
ATOM     84  C   UNL A   1      50.398  25.759  30.526  1.00  0.00     0.040 A 
ATOM     85  C   UNL A   1      50.669  26.628  28.296  1.00  0.00     0.040 A 
ATOM     86  F   UNL A   1      48.828  27.544  27.164  1.00  0.00    -0.206 F 
ATOM     87  C   UNL A   1      51.215  26.030  29.430  1.00  0.00     0.006 A 
ENDBRANCH  59  80
BRANCH  71  88
ATOM     88  C   UNL A   1      44.889  32.399  31.107  1.00  0.00     0.057 A 
ATOM     89  C   UNL A   1      44.986  32.599  32.489  1.00  0.00     0.134 A 
ATOM     90  C   UNL A   1      45.234  33.468  30.271  1.00  0.00     0.134 A 
ATOM     91  F   UNL A   1      44.656  31.618  33.343  1.00  0.00    -0.206 F 
ATOM     92  C   UNL A   1      45.393  33.824  33.021  1.00  0.00     0.040 A 
ATOM     93  C   UNL A   1      45.666  34.689  30.789  1.00  0.00     0.040 A 
ATOM     94  F   UNL A   1      45.170  33.338  28.937  1.00  0.00    -0.206 F 
ATOM     95  C   UNL A   1      45.740  34.871  32.169  1.00  0.00     0.006 A 
ENDBRANCH  71  88
ENDBRANCH  45  46
ENDBRANCH  37  40
ENDBRANCH  35  36
ENDBRANCH  34  35
ENDBRANCH  33  34
ENDBRANCH   1  33
TORSDOF 18
ENDMDL
