MODEL 1
REMARK VINA RESULT:     -12.4      0.000      0.000
REMARK SMILES CS(=O)(=O)c1ccc(-n2nc(C(F)(F)F)cc2-c2ccc(CC(=O)NCCCCCCNC(=O)c3ccc(-c4c5nc(c(-c6c(F)cccc6F)c6ccc([nH]6)c(-c6c(F)cccc6F)c6nc(c(-c7c(F)cccc7F)c7ccc4[nH]7)C=C6)C=C5)cc3)cc2)cc1
REMARK SMILES IDX 27 1 26 2 25 3 23 4 24 5 22 7 21 8 18 9 19 10 90 11 20 12
REMARK SMILES IDX 89 13 17 14 9 15 10 16 11 17 16 18 8 19 5 20 6 21 92 22 7 23
REMARK SMILES IDX 91 24 2 25 1 26 3 27 4 28 12 29 13 30 14 31 15 32 28 33
REMARK SMILES IDX 29 34 30 35 31 36 32 37 33 38 34 40 35 41 36 42 88 43 37 44
REMARK SMILES IDX 87 45 38 46 39 47 40 48 81 49 41 50 86 51 80 52 82 53 42 54
REMARK SMILES IDX 85 55 79 56 78 57 43 59 69 60 52 61 68 62 53 63 56 64 67 65
REMARK SMILES IDX 83 66 54 67 55 68 66 70 84 71 57 72 44 73 45 74 50 75 46 76
REMARK SMILES IDX 47 77 49 78 51 79 48 80 70 81 71 82 76 83 72 84 73 85 75 86
REMARK SMILES IDX 77 87 74 88 58 89 59 90 64 91 60 92 61 93 63 94 65 95 62 96
REMARK H PARENT 25 6 32 39 82 58 56 69
REMARK Flexibility Score: inf
ROOT
ATOM      1  C   UNL A   1      31.340  29.330  23.804  1.00  0.00     0.021 C 
ENDROOT
BRANCH   1   2
ATOM      2  C   UNL A   1      32.567  28.621  23.227  1.00  0.00     0.116 C 
BRANCH   2   3
ATOM      3  N   UNL A   1      32.214  27.806  22.082  1.00  0.00    -0.356 N 
ATOM      4  C   UNL A   1      31.886  26.481  22.033  1.00  0.00     0.224 C 
ATOM      5  O   UNL A   1      31.709  25.961  20.931  1.00  0.00    -0.275 OA
ATOM      6  H   UNL A   1      32.209  28.274  21.216  1.00  0.00     0.163 HD
BRANCH   4   7
ATOM      7  C   UNL A   1      31.691  25.694  23.318  1.00  0.00     0.135 C 
BRANCH   7   8
ATOM      8  C   UNL A   1      32.930  24.982  23.803  1.00  0.00    -0.039 A 
ATOM      9  C   UNL A   1      35.317  23.795  24.703  1.00  0.00     0.000 A 
ATOM     10  C   UNL A   1      34.944  23.719  23.353  1.00  0.00     0.010 A 
ATOM     11  C   UNL A   1      34.455  24.416  25.610  1.00  0.00     0.010 A 
ATOM     12  C   UNL A   1      33.767  24.317  22.904  1.00  0.00     0.005 A 
ATOM     13  C   UNL A   1      33.264  24.989  25.165  1.00  0.00     0.005 A 
BRANCH   9  14
ATOM     14  C   UNL A   1      36.565  23.198  25.173  1.00  0.00     0.075 A 
ATOM     15  N   UNL A   1      36.762  21.855  25.455  1.00  0.00    -0.233 N 
ATOM     16  N   UNL A   1      37.916  21.641  26.140  1.00  0.00    -0.163 NA
ATOM     17  C   UNL A   1      38.563  22.823  26.106  1.00  0.00     0.167 A 
ATOM     18  C   UNL A   1      37.742  23.825  25.537  1.00  0.00     0.064 A 
BRANCH  15  19
ATOM     19  C   UNL A   1      35.911  20.768  25.137  1.00  0.00     0.065 A 
ATOM     20  C   UNL A   1      34.291  18.577  24.590  1.00  0.00     0.067 A 
ATOM     21  C   UNL A   1      33.706  19.813  24.884  1.00  0.00     0.022 A 
ATOM     22  C   UNL A   1      35.681  18.425  24.583  1.00  0.00     0.022 A 
ATOM     23  C   UNL A   1      34.518  20.914  25.166  1.00  0.00     0.030 A 
ATOM     24  C   UNL A   1      36.489  19.527  24.850  1.00  0.00     0.030 A 
BRANCH  20  25
ATOM     25  S   UNL A   1      33.266  17.148  24.333  1.00  0.00     0.175 S 
ATOM     26  C   UNL A   1      34.052  15.884  25.293  1.00  0.00     0.163 C 
ATOM     27  O   UNL A   1      33.385  16.784  22.928  1.00  0.00    -0.224 OA
ATOM     28  O   UNL A   1      31.975  17.428  24.920  1.00  0.00    -0.224 OA
ENDBRANCH  20  25
ENDBRANCH  15  19
BRANCH  17  29
ATOM     29  C   UNL A   1      39.957  23.019  26.636  1.00  0.00     0.435 C 
ATOM     30  F   UNL A   1      40.137  22.491  27.874  1.00  0.00    -0.164 F 
ATOM     31  F   UNL A   1      40.896  22.464  25.823  1.00  0.00    -0.164 F 
ATOM     32  F   UNL A   1      40.276  24.342  26.732  1.00  0.00    -0.164 F 
ENDBRANCH  17  29
ENDBRANCH   9  14
ENDBRANCH   7   8
ENDBRANCH   4   7
ENDBRANCH   2   3
ENDBRANCH   1   2
BRANCH   1  33
ATOM     33  C   UNL A   1      31.394  29.520  25.325  1.00  0.00     0.002 C 
BRANCH  33  34
ATOM     34  C   UNL A   1      31.890  28.306  26.127  1.00  0.00     0.002 C 
BRANCH  34  35
ATOM     35  C   UNL A   1      32.963  28.591  27.188  1.00  0.00     0.021 C 
BRANCH  35  36
ATOM     36  C   UNL A   1      34.210  29.255  26.629  1.00  0.00     0.116 C 
BRANCH  36  37
ATOM     37  N   UNL A   1      34.251  30.688  26.917  1.00  0.00    -0.352 N 
ATOM     38  C   UNL A   1      35.046  31.362  27.822  1.00  0.00     0.251 C 
ATOM     39  H   UNL A   1      33.629  31.247  26.397  1.00  0.00     0.163 HD
ATOM     40  O   UNL A   1      34.721  32.463  28.250  1.00  0.00    -0.269 OA
BRANCH  38  41
ATOM     41  C   UNL A   1      36.313  30.746  28.252  1.00  0.00     0.039 A 
ATOM     42  C   UNL A   1      36.543  29.373  28.117  1.00  0.00     0.014 A 
ATOM     43  C   UNL A   1      37.279  31.577  28.818  1.00  0.00     0.014 A 
ATOM     44  C   UNL A   1      37.780  28.859  28.506  1.00  0.00     0.010 A 
ATOM     45  C   UNL A   1      38.543  31.105  29.041  1.00  0.00     0.010 A 
ATOM     46  C   UNL A   1      38.775  29.739  28.960  1.00  0.00    -0.014 A 
BRANCH  46  47
ATOM     47  C   UNL A   1      40.140  29.290  29.204  1.00  0.00     0.031 A 
ATOM     48  C   UNL A   1      40.479  29.250  30.651  1.00  0.00     0.074 A 
ATOM     49  C   UNL A   1      40.895  28.709  28.244  1.00  0.00     0.049 A 
ATOM     50  N   UNL A   1      41.313  30.000  31.288  1.00  0.00    -0.248 NA
ATOM     51  C   UNL A   1      39.652  28.404  31.533  1.00  0.00     0.031 C 
ATOM     52  C   UNL A   1      40.518  28.399  26.859  1.00  0.00     0.029 A 
ATOM     53  N   UNL A   1      42.143  28.169  28.330  1.00  0.00    -0.354 N 
ATOM     54  C   UNL A   1      41.302  29.538  32.602  1.00  0.00     0.074 A 
ATOM     55  C   UNL A   1      40.104  28.758  32.738  1.00  0.00     0.031 C 
ATOM     56  C   UNL A   1      41.415  27.540  26.321  1.00  0.00     0.029 A 
ATOM     57  C   UNL A   1      42.509  27.356  27.255  1.00  0.00     0.049 A 
ATOM     58  H   UNL A   1      42.742  28.340  29.094  1.00  0.00     0.167 HD
ATOM     59  C   UNL A   1      42.439  29.567  33.352  1.00  0.00     0.037 A 
ATOM     60  C   UNL A   1      43.624  26.576  27.174  1.00  0.00     0.037 A 
ATOM     61  C   UNL A   1      43.397  30.486  32.775  1.00  0.00     0.049 A 
ATOM     62  C   UNL A   1      44.563  27.054  28.216  1.00  0.00     0.074 A 
ATOM     63  C   UNL A   1      43.378  31.826  32.435  1.00  0.00     0.029 A 
ATOM     64  N   UNL A   1      44.454  29.947  32.083  1.00  0.00    -0.354 N 
ATOM     65  N   UNL A   1      45.175  28.201  28.160  1.00  0.00    -0.248 NA
ATOM     66  C   UNL A   1      44.438  26.465  29.540  1.00  0.00     0.031 C 
ATOM     67  C   UNL A   1      44.083  31.902  31.197  1.00  0.00     0.029 A 
ATOM     68  C   UNL A   1      44.579  30.633  30.904  1.00  0.00     0.049 A 
ATOM     69  H   UNL A   1      45.023  29.201  32.382  1.00  0.00     0.167 HD
ATOM     70  C   UNL A   1      45.104  28.691  29.453  1.00  0.00     0.074 A 
ATOM     71  C   UNL A   1      44.699  27.549  30.274  1.00  0.00     0.031 C 
ATOM     72  C   UNL A   1      45.073  30.035  29.688  1.00  0.00     0.037 A 
BRANCH  59  73
ATOM     73  C   UNL A   1      42.856  28.466  34.309  1.00  0.00     0.057 A 
ATOM     74  C   UNL A   1      42.981  27.155  33.809  1.00  0.00     0.134 A 
ATOM     75  C   UNL A   1      42.853  28.555  35.718  1.00  0.00     0.134 A 
ATOM     76  F   UNL A   1      43.009  26.920  32.488  1.00  0.00    -0.206 F 
ATOM     77  C   UNL A   1      42.981  26.025  34.638  1.00  0.00     0.040 A 
ATOM     78  C   UNL A   1      42.901  27.436  36.555  1.00  0.00     0.040 A 
ATOM     79  F   UNL A   1      42.710  29.708  36.379  1.00  0.00    -0.206 F 
ATOM     80  C   UNL A   1      42.926  26.164  36.016  1.00  0.00     0.006 A 
ENDBRANCH  59  73
BRANCH  60  81
ATOM     81  C   UNL A   1      43.862  25.276  26.498  1.00  0.00     0.057 A 
ATOM     82  C   UNL A   1      44.730  25.176  25.396  1.00  0.00     0.134 A 
ATOM     83  C   UNL A   1      43.521  24.066  27.114  1.00  0.00     0.134 A 
ATOM     84  F   UNL A   1      45.142  26.279  24.754  1.00  0.00    -0.206 F 
ATOM     85  C   UNL A   1      45.266  23.954  24.967  1.00  0.00     0.040 A 
ATOM     86  C   UNL A   1      44.056  22.840  26.697  1.00  0.00     0.040 A 
ATOM     87  F   UNL A   1      42.732  24.054  28.194  1.00  0.00    -0.206 F 
ATOM     88  C   UNL A   1      44.945  22.780  25.633  1.00  0.00     0.006 A 
ENDBRANCH  60  81
BRANCH  72  89
ATOM     89  C   UNL A   1      45.373  30.961  28.539  1.00  0.00     0.057 A 
ATOM     90  C   UNL A   1      44.426  31.415  27.606  1.00  0.00     0.134 A 
ATOM     91  C   UNL A   1      46.652  31.520  28.460  1.00  0.00     0.134 A 
ATOM     92  F   UNL A   1      43.150  31.013  27.655  1.00  0.00    -0.206 F 
ATOM     93  C   UNL A   1      44.754  32.348  26.616  1.00  0.00     0.040 A 
ATOM     94  C   UNL A   1      46.982  32.480  27.501  1.00  0.00     0.040 A 
ATOM     95  F   UNL A   1      47.596  31.174  29.349  1.00  0.00    -0.206 F 
ATOM     96  C   UNL A   1      46.035  32.889  26.567  1.00  0.00     0.006 A 
ENDBRANCH  72  89
ENDBRANCH  46  47
ENDBRANCH  38  41
ENDBRANCH  36  37
ENDBRANCH  35  36
ENDBRANCH  34  35
ENDBRANCH  33  34
ENDBRANCH   1  33
TORSDOF 18
ENDMDL
MODEL 2
REMARK VINA RESULT:     -12.1      5.111     10.434
REMARK SMILES CS(=O)(=O)c1ccc(-n2nc(C(F)(F)F)cc2-c2ccc(CC(=O)NCCCCCCNC(=O)c3ccc(-c4c5nc(c(-c6c(F)cccc6F)c6ccc([nH]6)c(-c6c(F)cccc6F)c6nc(c(-c7c(F)cccc7F)c7ccc4[nH]7)C=C6)C=C5)cc3)cc2)cc1
REMARK SMILES IDX 27 1 26 2 25 3 23 4 24 5 22 7 21 8 18 9 19 10 90 11 20 12
REMARK SMILES IDX 89 13 17 14 9 15 10 16 11 17 16 18 8 19 5 20 6 21 92 22 7 23
REMARK SMILES IDX 91 24 2 25 1 26 3 27 4 28 12 29 13 30 14 31 15 32 28 33
REMARK SMILES IDX 29 34 30 35 31 36 32 37 33 38 34 40 35 41 36 42 88 43 37 44
REMARK SMILES IDX 87 45 38 46 39 47 40 48 81 49 41 50 86 51 80 52 82 53 42 54
REMARK SMILES IDX 85 55 79 56 78 57 43 59 69 60 52 61 68 62 53 63 56 64 67 65
REMARK SMILES IDX 83 66 54 67 55 68 66 70 84 71 57 72 44 73 45 74 50 75 46 76
REMARK SMILES IDX 47 77 49 78 51 79 48 80 70 81 71 82 76 83 72 84 73 85 75 86
REMARK SMILES IDX 77 87 74 88 58 89 59 90 64 91 60 92 61 93 63 94 65 95 62 96
REMARK H PARENT 25 6 32 39 82 58 56 69
REMARK Flexibility Score: inf
ROOT
ATOM      1  C   UNL A   1      41.388  29.154  35.119  1.00  0.00     0.021 C 
ENDROOT
BRANCH   1   2
ATOM      2  C   UNL A   1      41.682  30.427  34.321  1.00  0.00     0.116 C 
BRANCH   2   3
ATOM      3  N   UNL A   1      41.920  30.129  32.924  1.00  0.00    -0.356 N 
ATOM      4  C   UNL A   1      41.175  30.467  31.830  1.00  0.00     0.224 C 
ATOM      5  O   UNL A   1      41.514  30.027  30.730  1.00  0.00    -0.275 OA
ATOM      6  H   UNL A   1      42.735  29.610  32.735  1.00  0.00     0.163 HD
BRANCH   4   7
ATOM      7  C   UNL A   1      39.992  31.410  31.971  1.00  0.00     0.135 C 
BRANCH   7   8
ATOM      8  C   UNL A   1      38.880  31.162  30.982  1.00  0.00    -0.039 A 
ATOM      9  C   UNL A   1      36.724  30.812  29.209  1.00  0.00     0.000 A 
ATOM     10  C   UNL A   1      36.899  29.950  30.302  1.00  0.00     0.010 A 
ATOM     11  C   UNL A   1      37.671  31.811  28.975  1.00  0.00     0.010 A 
ATOM     12  C   UNL A   1      37.961  30.130  31.188  1.00  0.00     0.005 A 
ATOM     13  C   UNL A   1      38.749  31.972  29.845  1.00  0.00     0.005 A 
BRANCH   9  14
ATOM     14  C   UNL A   1      35.594  30.648  28.296  1.00  0.00     0.075 A 
ATOM     15  N   UNL A   1      34.432  31.404  28.304  1.00  0.00    -0.233 N 
ATOM     16  N   UNL A   1      33.454  30.846  27.544  1.00  0.00    -0.163 NA
ATOM     17  C   UNL A   1      34.063  29.847  26.877  1.00  0.00     0.167 A 
ATOM     18  C   UNL A   1      35.390  29.674  27.338  1.00  0.00     0.064 A 
BRANCH  15  19
ATOM     19  C   UNL A   1      34.186  32.608  29.009  1.00  0.00     0.065 A 
ATOM     20  C   UNL A   1      33.599  34.965  30.360  1.00  0.00     0.067 A 
ATOM     21  C   UNL A   1      34.202  33.906  31.048  1.00  0.00     0.022 A 
ATOM     22  C   UNL A   1      33.274  34.848  29.006  1.00  0.00     0.022 A 
ATOM     23  C   UNL A   1      34.491  32.718  30.372  1.00  0.00     0.030 A 
ATOM     24  C   UNL A   1      33.577  33.669  28.330  1.00  0.00     0.030 A 
BRANCH  20  25
ATOM     25  S   UNL A   1      33.132  36.440  31.235  1.00  0.00     0.175 S 
ATOM     26  C   UNL A   1      34.363  36.591  32.499  1.00  0.00     0.163 C 
ATOM     27  O   UNL A   1      31.856  36.167  31.882  1.00  0.00    -0.224 OA
ATOM     28  O   UNL A   1      33.278  37.551  30.322  1.00  0.00    -0.224 OA
ENDBRANCH  20  25
ENDBRANCH  15  19
BRANCH  17  29
ATOM     29  C   UNL A   1      33.385  29.027  25.812  1.00  0.00     0.435 C 
ATOM     30  F   UNL A   1      32.134  28.631  26.159  1.00  0.00    -0.164 F 
ATOM     31  F   UNL A   1      33.279  29.706  24.636  1.00  0.00    -0.164 F 
ATOM     32  F   UNL A   1      34.085  27.892  25.530  1.00  0.00    -0.164 F 
ENDBRANCH  17  29
ENDBRANCH   9  14
ENDBRANCH   7   8
ENDBRANCH   4   7
ENDBRANCH   2   3
ENDBRANCH   1   2
BRANCH   1  33
ATOM     33  C   UNL A   1      42.217  27.942  34.676  1.00  0.00     0.002 C 
BRANCH  33  34
ATOM     34  C   UNL A   1      41.552  26.573  34.887  1.00  0.00     0.002 C 
BRANCH  34  35
ATOM     35  C   UNL A   1      41.506  26.060  36.334  1.00  0.00     0.021 C 
BRANCH  35  36
ATOM     36  C   UNL A   1      42.132  24.686  36.513  1.00  0.00     0.116 C 
BRANCH  36  37
ATOM     37  N   UNL A   1      43.439  24.753  37.165  1.00  0.00    -0.352 N 
ATOM     38  C   UNL A   1      44.682  24.483  36.631  1.00  0.00     0.251 C 
ATOM     39  H   UNL A   1      43.432  25.027  38.111  1.00  0.00     0.163 HD
ATOM     40  O   UNL A   1      45.629  24.191  37.351  1.00  0.00    -0.269 OA
BRANCH  38  41
ATOM     41  C   UNL A   1      44.864  24.574  35.171  1.00  0.00     0.039 A 
ATOM     42  C   UNL A   1      44.762  23.448  34.348  1.00  0.00     0.014 A 
ATOM     43  C   UNL A   1      45.158  25.825  34.632  1.00  0.00     0.014 A 
ATOM     44  C   UNL A   1      44.904  23.609  32.971  1.00  0.00     0.010 A 
ATOM     45  C   UNL A   1      45.130  26.011  33.277  1.00  0.00     0.010 A 
ATOM     46  C   UNL A   1      45.080  24.900  32.447  1.00  0.00    -0.014 A 
BRANCH  46  47
ATOM     47  C   UNL A   1      45.050  25.154  31.012  1.00  0.00     0.031 A 
ATOM     48  C   UNL A   1      46.166  26.027  30.561  1.00  0.00     0.074 A 
ATOM     49  C   UNL A   1      44.269  24.444  30.167  1.00  0.00     0.049 A 
ATOM     50  N   UNL A   1      46.092  27.233  30.109  1.00  0.00    -0.248 NA
ATOM     51  C   UNL A   1      47.546  25.577  30.824  1.00  0.00     0.031 C 
ATOM     52  C   UNL A   1      43.374  23.324  30.484  1.00  0.00     0.029 A 
ATOM     53  N   UNL A   1      44.185  24.502  28.808  1.00  0.00    -0.354 N 
ATOM     54  C   UNL A   1      47.399  27.591  29.787  1.00  0.00     0.074 A 
ATOM     55  C   UNL A   1      48.246  26.658  30.476  1.00  0.00     0.031 C 
ATOM     56  C   UNL A   1      43.025  22.678  29.347  1.00  0.00     0.029 A 
ATOM     57  C   UNL A   1      43.536  23.418  28.210  1.00  0.00     0.049 A 
ATOM     58  H   UNL A   1      44.553  25.253  28.287  1.00  0.00     0.167 HD
ATOM     59  C   UNL A   1      47.647  28.409  28.726  1.00  0.00     0.037 A 
ATOM     60  C   UNL A   1      43.464  23.156  26.875  1.00  0.00     0.037 A 
ATOM     61  C   UNL A   1      46.447  29.125  28.354  1.00  0.00     0.049 A 
ATOM     62  C   UNL A   1      43.818  24.410  26.167  1.00  0.00     0.074 A 
ATOM     63  C   UNL A   1      45.566  29.960  29.015  1.00  0.00     0.029 A 
ATOM     64  N   UNL A   1      45.774  28.696  27.235  1.00  0.00    -0.354 N 
ATOM     65  N   UNL A   1      43.058  25.466  26.157  1.00  0.00    -0.248 NA
ATOM     66  C   UNL A   1      45.227  24.636  25.886  1.00  0.00     0.031 C 
ATOM     67  C   UNL A   1      44.274  29.585  28.540  1.00  0.00     0.029 A 
ATOM     68  C   UNL A   1      44.442  28.622  27.548  1.00  0.00     0.049 A 
ATOM     69  H   UNL A   1      46.177  28.480  26.363  1.00  0.00     0.167 HD
ATOM     70  C   UNL A   1      43.940  26.522  26.326  1.00  0.00     0.074 A 
ATOM     71  C   UNL A   1      45.267  25.956  26.085  1.00  0.00     0.031 C 
ATOM     72  C   UNL A   1      43.540  27.669  26.948  1.00  0.00     0.037 A 
BRANCH  59  73
ATOM     73  C   UNL A   1      48.808  28.228  27.765  1.00  0.00     0.057 A 
ATOM     74  C   UNL A   1      49.581  29.356  27.427  1.00  0.00     0.134 A 
ATOM     75  C   UNL A   1      49.024  27.103  26.939  1.00  0.00     0.134 A 
ATOM     76  F   UNL A   1      49.485  30.494  28.132  1.00  0.00    -0.206 F 
ATOM     77  C   UNL A   1      50.405  29.398  26.295  1.00  0.00     0.040 A 
ATOM     78  C   UNL A   1      49.883  27.120  25.836  1.00  0.00     0.040 A 
ATOM     79  F   UNL A   1      48.361  25.951  27.081  1.00  0.00    -0.206 F 
ATOM     80  C   UNL A   1      50.547  28.280  25.486  1.00  0.00     0.006 A 
ENDBRANCH  59  73
BRANCH  60  81
ATOM     81  C   UNL A   1      43.410  21.873  26.130  1.00  0.00     0.057 A 
ATOM     82  C   UNL A   1      44.584  21.224  25.711  1.00  0.00     0.134 A 
ATOM     83  C   UNL A   1      42.247  21.095  26.110  1.00  0.00     0.134 A 
ATOM     84  F   UNL A   1      45.759  21.871  25.720  1.00  0.00    -0.206 F 
ATOM     85  C   UNL A   1      44.609  19.870  25.345  1.00  0.00     0.040 A 
ATOM     86  C   UNL A   1      42.260  19.741  25.753  1.00  0.00     0.040 A 
ATOM     87  F   UNL A   1      41.082  21.606  26.526  1.00  0.00    -0.206 F 
ATOM     88  C   UNL A   1      43.444  19.117  25.386  1.00  0.00     0.006 A 
ENDBRANCH  60  81
BRANCH  72  89
ATOM     89  C   UNL A   1      42.070  27.856  27.213  1.00  0.00     0.057 A 
ATOM     90  C   UNL A   1      41.399  27.418  28.367  1.00  0.00     0.134 A 
ATOM     91  C   UNL A   1      41.331  28.632  26.314  1.00  0.00     0.134 A 
ATOM     92  F   UNL A   1      42.041  26.750  29.334  1.00  0.00    -0.206 F 
ATOM     93  C   UNL A   1      40.049  27.706  28.591  1.00  0.00     0.040 A 
ATOM     94  C   UNL A   1      39.993  28.958  26.543  1.00  0.00     0.040 A 
ATOM     95  F   UNL A   1      41.916  29.129  25.213  1.00  0.00    -0.206 F 
ATOM     96  C   UNL A   1      39.343  28.485  27.679  1.00  0.00     0.006 A 
ENDBRANCH  72  89
ENDBRANCH  46  47
ENDBRANCH  38  41
ENDBRANCH  36  37
ENDBRANCH  35  36
ENDBRANCH  34  35
ENDBRANCH  33  34
ENDBRANCH   1  33
TORSDOF 18
ENDMDL
MODEL 3
REMARK VINA RESULT:     -11.7      2.681      3.531
REMARK SMILES CS(=O)(=O)c1ccc(-n2nc(C(F)(F)F)cc2-c2ccc(CC(=O)NCCCCCCNC(=O)c3ccc(-c4c5nc(c(-c6c(F)cccc6F)c6ccc([nH]6)c(-c6c(F)cccc6F)c6nc(c(-c7c(F)cccc7F)c7ccc4[nH]7)C=C6)C=C5)cc3)cc2)cc1
REMARK SMILES IDX 27 1 26 2 25 3 23 4 24 5 22 7 21 8 18 9 19 10 90 11 20 12
REMARK SMILES IDX 89 13 17 14 9 15 10 16 11 17 16 18 8 19 5 20 6 21 92 22 7 23
REMARK SMILES IDX 91 24 2 25 1 26 3 27 4 28 12 29 13 30 14 31 15 32 28 33
REMARK SMILES IDX 29 34 30 35 31 36 32 37 33 38 34 40 35 41 36 42 88 43 37 44
REMARK SMILES IDX 87 45 38 46 39 47 40 48 81 49 41 50 86 51 80 52 82 53 42 54
REMARK SMILES IDX 85 55 79 56 78 57 43 59 69 60 52 61 68 62 53 63 56 64 67 65
REMARK SMILES IDX 83 66 54 67 55 68 66 70 84 71 57 72 44 73 45 74 50 75 46 76
REMARK SMILES IDX 47 77 49 78 51 79 48 80 70 81 71 82 76 83 72 84 73 85 75 86
REMARK SMILES IDX 77 87 74 88 58 89 59 90 64 91 60 92 61 93 63 94 65 95 62 96
REMARK H PARENT 25 6 32 39 82 58 56 69
REMARK Flexibility Score: inf
ROOT
ATOM      1  C   UNL A   1      30.858  29.224  23.840  1.00  0.00     0.021 C 
ENDROOT
BRANCH   1   2
ATOM      2  C   UNL A   1      30.846  27.737  23.480  1.00  0.00     0.116 C 
BRANCH   2   3
ATOM      3  N   UNL A   1      31.828  27.434  22.459  1.00  0.00    -0.356 N 
ATOM      4  C   UNL A   1      33.122  27.020  22.602  1.00  0.00     0.224 C 
ATOM      5  O   UNL A   1      33.817  26.909  21.591  1.00  0.00    -0.275 OA
ATOM      6  H   UNL A   1      31.519  27.541  21.531  1.00  0.00     0.163 HD
BRANCH   4   7
ATOM      7  C   UNL A   1      33.660  26.652  23.974  1.00  0.00     0.135 C 
BRANCH   7   8
ATOM      8  C   UNL A   1      33.849  25.170  24.188  1.00  0.00    -0.039 A 
ATOM      9  C   UNL A   1      34.055  22.385  24.530  1.00  0.00     0.000 A 
ATOM     10  C   UNL A   1      33.741  23.218  25.614  1.00  0.00     0.010 A 
ATOM     11  C   UNL A   1      34.326  22.963  23.288  1.00  0.00     0.010 A 
ATOM     12  C   UNL A   1      33.627  24.598  25.443  1.00  0.00     0.005 A 
ATOM     13  C   UNL A   1      34.241  24.344  23.124  1.00  0.00     0.005 A 
BRANCH   9  14
ATOM     14  C   UNL A   1      34.144  20.936  24.697  1.00  0.00     0.075 A 
ATOM     15  N   UNL A   1      35.314  20.213  24.875  1.00  0.00    -0.233 N 
ATOM     16  N   UNL A   1      35.120  18.878  24.713  1.00  0.00    -0.163 NA
ATOM     17  C   UNL A   1      33.782  18.730  24.646  1.00  0.00     0.167 A 
ATOM     18  C   UNL A   1      33.141  19.991  24.605  1.00  0.00     0.064 A 
BRANCH  15  19
ATOM     19  C   UNL A   1      36.608  20.714  25.164  1.00  0.00     0.065 A 
ATOM     20  C   UNL A   1      39.112  21.718  25.829  1.00  0.00     0.067 A 
ATOM     21  C   UNL A   1      39.003  20.423  25.311  1.00  0.00     0.022 A 
ATOM     22  C   UNL A   1      37.977  22.509  26.030  1.00  0.00     0.022 A 
ATOM     23  C   UNL A   1      37.744  19.914  24.983  1.00  0.00     0.030 A 
ATOM     24  C   UNL A   1      36.725  22.005  25.688  1.00  0.00     0.030 A 
BRANCH  20  25
ATOM     25  S   UNL A   1      40.697  22.336  26.347  1.00  0.00     0.175 S 
ATOM     26  C   UNL A   1      40.915  21.640  27.961  1.00  0.00     0.163 C 
ATOM     27  O   UNL A   1      40.565  23.779  26.494  1.00  0.00    -0.224 OA
ATOM     28  O   UNL A   1      41.693  21.768  25.468  1.00  0.00    -0.224 OA
ENDBRANCH  20  25
ENDBRANCH  15  19
BRANCH  17  29
ATOM     29  C   UNL A   1      33.099  17.390  24.593  1.00  0.00     0.435 C 
ATOM     30  F   UNL A   1      33.362  16.700  23.454  1.00  0.00    -0.164 F 
ATOM     31  F   UNL A   1      33.459  16.592  25.636  1.00  0.00    -0.164 F 
ATOM     32  F   UNL A   1      31.743  17.515  24.664  1.00  0.00    -0.164 F 
ENDBRANCH  17  29
ENDBRANCH   9  14
ENDBRANCH   7   8
ENDBRANCH   4   7
ENDBRANCH   2   3
ENDBRANCH   1   2
BRANCH   1  33
ATOM     33  C   UNL A   1      31.693  29.553  25.083  1.00  0.00     0.002 C 
BRANCH  33  34
ATOM     34  C   UNL A   1      31.633  28.515  26.215  1.00  0.00     0.002 C 
BRANCH  34  35
ATOM     35  C   UNL A   1      32.755  28.592  27.262  1.00  0.00     0.021 C 
BRANCH  35  36
ATOM     36  C   UNL A   1      34.053  29.170  26.722  1.00  0.00     0.116 C 
BRANCH  36  37
ATOM     37  N   UNL A   1      34.109  30.625  26.857  1.00  0.00    -0.352 N 
ATOM     38  C   UNL A   1      34.927  31.382  27.671  1.00  0.00     0.251 C 
ATOM     39  H   UNL A   1      33.481  31.132  26.294  1.00  0.00     0.163 HD
ATOM     40  O   UNL A   1      34.619  32.525  27.988  1.00  0.00    -0.269 OA
BRANCH  38  41
ATOM     41  C   UNL A   1      36.199  30.802  28.139  1.00  0.00     0.039 A 
ATOM     42  C   UNL A   1      36.516  29.458  27.919  1.00  0.00     0.014 A 
ATOM     43  C   UNL A   1      37.077  31.638  28.827  1.00  0.00     0.014 A 
ATOM     44  C   UNL A   1      37.753  28.982  28.351  1.00  0.00     0.010 A 
ATOM     45  C   UNL A   1      38.350  31.217  29.100  1.00  0.00     0.010 A 
ATOM     46  C   UNL A   1      38.665  29.876  28.934  1.00  0.00    -0.014 A 
BRANCH  46  47
ATOM     47  C   UNL A   1      40.036  29.482  29.235  1.00  0.00     0.031 A 
ATOM     48  C   UNL A   1      40.298  29.395  30.696  1.00  0.00     0.074 A 
ATOM     49  C   UNL A   1      40.870  28.981  28.296  1.00  0.00     0.049 A 
ATOM     50  N   UNL A   1      41.058  30.156  31.409  1.00  0.00    -0.248 NA
ATOM     51  C   UNL A   1      39.468  28.473  31.495  1.00  0.00     0.031 C 
ATOM     52  C   UNL A   1      40.584  28.715  26.881  1.00  0.00     0.029 A 
ATOM     53  N   UNL A   1      42.136  28.498  28.429  1.00  0.00    -0.354 N 
ATOM     54  C   UNL A   1      41.000  29.636  32.700  1.00  0.00     0.074 A 
ATOM     55  C   UNL A   1      39.836  28.795  32.736  1.00  0.00     0.031 C 
ATOM     56  C   UNL A   1      41.550  27.924  26.358  1.00  0.00     0.029 A 
ATOM     57  C   UNL A   1      42.601  27.752  27.343  1.00  0.00     0.049 A 
ATOM     58  H   UNL A   1      42.684  28.664  29.231  1.00  0.00     0.167 HD
ATOM     59  C   UNL A   1      42.092  29.687  33.513  1.00  0.00     0.037 A 
ATOM     60  C   UNL A   1      43.755  27.030  27.292  1.00  0.00     0.037 A 
ATOM     61  C   UNL A   1      43.032  30.675  33.029  1.00  0.00     0.049 A 
ATOM     62  C   UNL A   1      44.613  27.506  28.405  1.00  0.00     0.074 A 
ATOM     63  C   UNL A   1      42.964  32.026  32.745  1.00  0.00     0.029 A 
ATOM     64  N   UNL A   1      44.150  30.218  32.376  1.00  0.00    -0.354 N 
ATOM     65  N   UNL A   1      45.168  28.682  28.430  1.00  0.00    -0.248 NA
ATOM     66  C   UNL A   1      44.446  26.854  29.694  1.00  0.00     0.031 C 
ATOM     67  C   UNL A   1      43.730  32.190  31.552  1.00  0.00     0.029 A 
ATOM     68  C   UNL A   1      44.304  30.960  31.235  1.00  0.00     0.049 A 
ATOM     69  H   UNL A   1      44.739  29.487  32.675  1.00  0.00     0.167 HD
ATOM     70  C   UNL A   1      45.003  29.111  29.737  1.00  0.00     0.074 A 
ATOM     71  C   UNL A   1      44.612  27.916  30.486  1.00  0.00     0.031 C 
ATOM     72  C   UNL A   1      44.892  30.440  30.025  1.00  0.00     0.037 A 
BRANCH  59  73
ATOM     73  C   UNL A   1      42.511  28.565  34.446  1.00  0.00     0.057 A 
ATOM     74  C   UNL A   1      42.772  28.877  35.795  1.00  0.00     0.134 A 
ATOM     75  C   UNL A   1      42.955  27.286  34.046  1.00  0.00     0.134 A 
ATOM     76  F   UNL A   1      42.397  30.056  36.315  1.00  0.00    -0.206 F 
ATOM     77  C   UNL A   1      43.513  28.038  36.637  1.00  0.00     0.040 A 
ATOM     78  C   UNL A   1      43.653  26.420  34.894  1.00  0.00     0.040 A 
ATOM     79  F   UNL A   1      42.829  26.822  32.799  1.00  0.00    -0.206 F 
ATOM     80  C   UNL A   1      43.969  26.810  36.182  1.00  0.00     0.006 A 
ENDBRANCH  59  73
BRANCH  60  81
ATOM     81  C   UNL A   1      44.095  25.774  26.578  1.00  0.00     0.057 A 
ATOM     82  C   UNL A   1      44.949  25.779  25.461  1.00  0.00     0.134 A 
ATOM     83  C   UNL A   1      43.871  24.524  27.166  1.00  0.00     0.134 A 
ATOM     84  F   UNL A   1      45.252  26.930  24.843  1.00  0.00    -0.206 F 
ATOM     85  C   UNL A   1      45.582  24.620  24.991  1.00  0.00     0.040 A 
ATOM     86  C   UNL A   1      44.504  23.360  26.708  1.00  0.00     0.040 A 
ATOM     87  F   UNL A   1      43.105  24.414  28.257  1.00  0.00    -0.206 F 
ATOM     88  C   UNL A   1      45.376  23.406  25.630  1.00  0.00     0.006 A 
ENDBRANCH  60  81
BRANCH  72  89
ATOM     89  C   UNL A   1      45.206  31.429  28.934  1.00  0.00     0.057 A 
ATOM     90  C   UNL A   1      44.287  31.887  27.975  1.00  0.00     0.134 A 
ATOM     91  C   UNL A   1      46.463  32.043  28.942  1.00  0.00     0.134 A 
ATOM     92  F   UNL A   1      43.028  31.432  27.944  1.00  0.00    -0.206 F 
ATOM     93  C   UNL A   1      44.621  32.877  27.045  1.00  0.00     0.040 A 
ATOM     94  C   UNL A   1      46.797  33.058  28.044  1.00  0.00     0.040 A 
ATOM     95  F   UNL A   1      47.378  31.694  29.860  1.00  0.00    -0.206 F 
ATOM     96  C   UNL A   1      45.879  33.471  27.082  1.00  0.00     0.006 A 
ENDBRANCH  72  89
ENDBRANCH  46  47
ENDBRANCH  38  41
ENDBRANCH  36  37
ENDBRANCH  35  36
ENDBRANCH  34  35
ENDBRANCH  33  34
ENDBRANCH   1  33
TORSDOF 18
ENDMDL
