MODEL 1
REMARK VINA RESULT:     -12.5      0.000      0.000
REMARK SMILES COc1cc(OC)cc(-c2cc3nc(C)c(CCC(=O)NCCCCCCNC(=O)c4ccc(-c5c6nc(c(-c7c(F)cccc7F)c7ccc([nH]7)c(-c7c(F)cccc7F)c7nc(c(-c8c(F)cccc8F)c8ccc5[nH]8)C=C7)C=C6)cc4)c(C)n3n2)c1
REMARK SMILES IDX 23 1 22 2 21 3 19 4 20 5 18 7 17 8 16 9 10 10 11 11 88 12
REMARK SMILES IDX 12 13 87 14 13 15 85 16 14 17 86 18 15 19 9 20 3 21 4 22
REMARK SMILES IDX 89 23 5 24 8 25 2 26 1 27 6 28 7 29 24 30 25 31 26 32 27 33
REMARK SMILES IDX 28 34 29 35 30 37 31 38 32 39 84 40 33 41 83 42 34 43 35 44
REMARK SMILES IDX 36 45 77 46 37 47 82 48 76 49 78 50 38 51 81 52 75 53 74 54
REMARK SMILES IDX 39 56 65 57 48 58 64 59 49 60 52 61 63 62 79 63 50 64 51 65
REMARK SMILES IDX 62 67 80 68 53 69 40 70 41 71 46 72 42 73 43 74 45 75 47 76
REMARK SMILES IDX 44 77 66 78 67 79 72 80 68 81 69 82 71 83 73 84 70 85 54 86
REMARK SMILES IDX 55 87 60 88 56 89 57 90 59 91 61 92 58 93
REMARK H PARENT 21 6 28 36 78 55 52 66
REMARK Flexibility Score: inf
ROOT
ATOM      1  C   UNL A   1      31.983  23.657  22.889  1.00  0.00     0.021 C 
ENDROOT
BRANCH   1   2
ATOM      2  C   UNL A   1      30.610  23.917  23.479  1.00  0.00     0.116 C 
BRANCH   2   3
ATOM      3  N   UNL A   1      30.628  23.689  24.920  1.00  0.00    -0.356 N 
ATOM      4  C   UNL A   1      30.627  24.581  25.953  1.00  0.00     0.220 C 
ATOM      5  O   UNL A   1      30.855  24.166  27.092  1.00  0.00    -0.275 OA
ATOM      6  H   UNL A   1      30.643  22.742  25.191  1.00  0.00     0.163 HD
BRANCH   4   7
ATOM      7  C   UNL A   1      30.327  26.051  25.715  1.00  0.00     0.105 C 
BRANCH   7   8
ATOM      8  C   UNL A   1      31.185  26.668  24.597  1.00  0.00     0.049 C 
BRANCH   8   9
ATOM      9  C   UNL A   1      32.204  27.660  25.107  1.00  0.00    -0.005 A 
ATOM     10  C   UNL A   1      33.606  31.253  27.432  1.00  0.00     0.095 A 
ATOM     11  C   UNL A   1      34.401  30.089  27.477  1.00  0.00     0.080 A 
ATOM     12  N   UNL A   1      32.730  31.114  26.411  1.00  0.00    -0.166 NA
ATOM     13  C   UNL A   1      33.967  29.196  26.551  1.00  0.00     0.156 A 
ATOM     14  N   UNL A   1      32.896  29.811  25.937  1.00  0.00    -0.219 N 
ATOM     15  N   UNL A   1      34.330  27.899  26.376  1.00  0.00    -0.234 NA
ATOM     16  C   UNL A   1      32.032  29.015  25.144  1.00  0.00     0.046 A 
ATOM     17  C   UNL A   1      33.492  27.146  25.729  1.00  0.00     0.045 A 
ATOM     18  C   UNL A   1      30.877  29.746  24.534  1.00  0.00     0.067 C 
ATOM     19  C   UNL A   1      33.901  25.682  25.633  1.00  0.00     0.067 C 
BRANCH  10  20
ATOM     20  C   UNL A   1      33.692  32.429  28.367  1.00  0.00     0.009 A 
ATOM     21  C   UNL A   1      34.707  33.613  30.286  1.00  0.00     0.123 A 
ATOM     22  C   UNL A   1      34.074  34.787  29.927  1.00  0.00     0.092 A 
ATOM     23  C   UNL A   1      34.519  32.457  29.512  1.00  0.00     0.057 A 
ATOM     24  C   UNL A   1      33.218  34.801  28.827  1.00  0.00     0.123 A 
ATOM     25  C   UNL A   1      33.014  33.625  28.078  1.00  0.00     0.057 A 
BRANCH  21  26
ATOM     26  O   UNL A   1      35.320  33.567  31.511  1.00  0.00    -0.497 OA
ATOM     27  C   UNL A   1      35.294  32.294  32.148  1.00  0.00     0.278 C 
ENDBRANCH  21  26
BRANCH  24  28
ATOM     28  O   UNL A   1      32.658  36.029  28.603  1.00  0.00    -0.497 OA
ATOM     29  C   UNL A   1      33.388  37.186  28.974  1.00  0.00     0.278 C 
ENDBRANCH  24  28
ENDBRANCH  10  20
ENDBRANCH   8   9
ENDBRANCH   7   8
ENDBRANCH   4   7
ENDBRANCH   2   3
ENDBRANCH   1   2
BRANCH   1  30
ATOM     30  C   UNL A   1      32.636  22.348  23.279  1.00  0.00     0.002 C 
BRANCH  30  31
ATOM     31  C   UNL A   1      34.037  22.362  23.914  1.00  0.00     0.002 C 
BRANCH  31  32
ATOM     32  C   UNL A   1      34.405  21.583  25.200  1.00  0.00     0.021 C 
BRANCH  32  33
ATOM     33  C   UNL A   1      35.843  21.540  25.773  1.00  0.00     0.116 C 
BRANCH  33  34
ATOM     34  N   UNL A   1      36.748  20.423  25.439  1.00  0.00    -0.352 N 
ATOM     35  C   UNL A   1      38.146  20.265  25.424  1.00  0.00     0.251 C 
ATOM     36  H   UNL A   1      36.267  19.608  25.166  1.00  0.00     0.163 HD
ATOM     37  O   UNL A   1      38.586  19.231  24.890  1.00  0.00    -0.269 OA
BRANCH  35  38
ATOM     38  C   UNL A   1      39.151  21.198  26.040  1.00  0.00     0.039 A 
ATOM     39  C   UNL A   1      40.376  20.802  26.607  1.00  0.00     0.014 A 
ATOM     40  C   UNL A   1      38.881  22.542  26.095  1.00  0.00     0.014 A 
ATOM     41  C   UNL A   1      41.183  21.731  27.318  1.00  0.00     0.010 A 
ATOM     42  C   UNL A   1      39.575  23.429  26.906  1.00  0.00     0.010 A 
ATOM     43  C   UNL A   1      40.721  23.035  27.558  1.00  0.00    -0.014 A 
BRANCH  43  44
ATOM     44  C   UNL A   1      41.537  24.143  28.082  1.00  0.00     0.031 A 
ATOM     45  C   UNL A   1      40.727  25.390  28.096  1.00  0.00     0.074 A 
ATOM     46  C   UNL A   1      42.648  24.077  28.861  1.00  0.00     0.049 A 
ATOM     47  N   UNL A   1      40.805  26.388  27.280  1.00  0.00    -0.248 NA
ATOM     48  C   UNL A   1      39.527  25.413  28.958  1.00  0.00     0.031 C 
ATOM     49  C   UNL A   1      43.345  22.902  29.380  1.00  0.00     0.029 A 
ATOM     50  N   UNL A   1      43.355  25.099  29.441  1.00  0.00    -0.354 N 
ATOM     51  C   UNL A   1      39.797  27.255  27.686  1.00  0.00     0.074 A 
ATOM     52  C   UNL A   1      38.886  26.476  28.474  1.00  0.00     0.031 C 
ATOM     53  C   UNL A   1      44.251  23.263  30.318  1.00  0.00     0.029 A 
ATOM     54  C   UNL A   1      44.285  24.709  30.407  1.00  0.00     0.049 A 
ATOM     55  H   UNL A   1      43.217  26.042  29.193  1.00  0.00     0.167 HD
ATOM     56  C   UNL A   1      39.964  28.603  27.632  1.00  0.00     0.037 A 
ATOM     57  C   UNL A   1      44.999  25.517  31.241  1.00  0.00     0.037 A 
ATOM     58  C   UNL A   1      41.107  28.945  26.819  1.00  0.00     0.049 A 
ATOM     59  C   UNL A   1      44.913  26.893  30.694  1.00  0.00     0.074 A 
ATOM     60  C   UNL A   1      41.492  28.673  25.519  1.00  0.00     0.029 A 
ATOM     61  N   UNL A   1      42.254  29.323  27.474  1.00  0.00    -0.354 N 
ATOM     62  N   UNL A   1      45.479  27.278  29.587  1.00  0.00    -0.248 NA
ATOM     63  C   UNL A   1      43.817  27.728  31.160  1.00  0.00     0.031 C 
ATOM     64  C   UNL A   1      42.897  28.438  25.589  1.00  0.00     0.029 A 
ATOM     65  C   UNL A   1      43.306  28.652  26.905  1.00  0.00     0.049 A 
ATOM     66  H   UNL A   1      42.311  29.964  28.220  1.00  0.00     0.167 HD
ATOM     67  C   UNL A   1      44.549  28.115  28.991  1.00  0.00     0.074 A 
ATOM     68  C   UNL A   1      43.587  28.428  30.047  1.00  0.00     0.031 C 
ATOM     69  C   UNL A   1      44.481  28.230  27.633  1.00  0.00     0.037 A 
BRANCH  56  70
ATOM     70  C   UNL A   1      39.356  29.567  28.626  1.00  0.00     0.057 A 
ATOM     71  C   UNL A   1      38.251  30.336  28.225  1.00  0.00     0.134 A 
ATOM     72  C   UNL A   1      39.943  29.966  29.847  1.00  0.00     0.134 A 
ATOM     73  F   UNL A   1      37.609  30.071  27.078  1.00  0.00    -0.206 F 
ATOM     74  C   UNL A   1      37.814  31.455  28.944  1.00  0.00     0.040 A 
ATOM     75  C   UNL A   1      39.478  31.045  30.602  1.00  0.00     0.040 A 
ATOM     76  F   UNL A   1      41.059  29.414  30.337  1.00  0.00    -0.206 F 
ATOM     77  C   UNL A   1      38.431  31.816  30.134  1.00  0.00     0.006 A 
ENDBRANCH  56  70
BRANCH  57  78
ATOM     78  C   UNL A   1      45.527  25.274  32.610  1.00  0.00     0.057 A 
ATOM     79  C   UNL A   1      46.905  25.346  32.886  1.00  0.00     0.134 A 
ATOM     80  C   UNL A   1      44.683  25.259  33.733  1.00  0.00     0.134 A 
ATOM     81  F   UNL A   1      47.798  25.399  31.887  1.00  0.00    -0.206 F 
ATOM     82  C   UNL A   1      47.407  25.436  34.193  1.00  0.00     0.040 A 
ATOM     83  C   UNL A   1      45.173  25.343  35.044  1.00  0.00     0.040 A 
ATOM     84  F   UNL A   1      43.351  25.258  33.595  1.00  0.00    -0.206 F 
ATOM     85  C   UNL A   1      46.538  25.450  35.278  1.00  0.00     0.006 A 
ENDBRANCH  57  78
BRANCH  69  86
ATOM     86  C   UNL A   1      45.617  27.661  26.825  1.00  0.00     0.057 A 
ATOM     87  C   UNL A   1      45.669  26.344  26.340  1.00  0.00     0.134 A 
ATOM     88  C   UNL A   1      46.634  28.525  26.406  1.00  0.00     0.134 A 
ATOM     89  F   UNL A   1      44.694  25.467  26.606  1.00  0.00    -0.206 F 
ATOM     90  C   UNL A   1      46.707  25.901  25.513  1.00  0.00     0.040 A 
ATOM     91  C   UNL A   1      47.656  28.105  25.551  1.00  0.00     0.040 A 
ATOM     92  F   UNL A   1      46.626  29.812  26.787  1.00  0.00    -0.206 F 
ATOM     93  C   UNL A   1      47.700  26.787  25.110  1.00  0.00     0.006 A 
ENDBRANCH  69  86
ENDBRANCH  43  44
ENDBRANCH  35  38
ENDBRANCH  33  34
ENDBRANCH  32  33
ENDBRANCH  31  32
ENDBRANCH  30  31
ENDBRANCH   1  30
TORSDOF 18
ENDMDL
MODEL 2
REMARK VINA RESULT:     -12.3      2.475      8.387
REMARK SMILES COc1cc(OC)cc(-c2cc3nc(C)c(CCC(=O)NCCCCCCNC(=O)c4ccc(-c5c6nc(c(-c7c(F)cccc7F)c7ccc([nH]7)c(-c7c(F)cccc7F)c7nc(c(-c8c(F)cccc8F)c8ccc5[nH]8)C=C7)C=C6)cc4)c(C)n3n2)c1
REMARK SMILES IDX 23 1 22 2 21 3 19 4 20 5 18 7 17 8 16 9 10 10 11 11 88 12
REMARK SMILES IDX 12 13 87 14 13 15 85 16 14 17 86 18 15 19 9 20 3 21 4 22
REMARK SMILES IDX 89 23 5 24 8 25 2 26 1 27 6 28 7 29 24 30 25 31 26 32 27 33
REMARK SMILES IDX 28 34 29 35 30 37 31 38 32 39 84 40 33 41 83 42 34 43 35 44
REMARK SMILES IDX 36 45 77 46 37 47 82 48 76 49 78 50 38 51 81 52 75 53 74 54
REMARK SMILES IDX 39 56 65 57 48 58 64 59 49 60 52 61 63 62 79 63 50 64 51 65
REMARK SMILES IDX 62 67 80 68 53 69 40 70 41 71 46 72 42 73 43 74 45 75 47 76
REMARK SMILES IDX 44 77 66 78 67 79 72 80 68 81 69 82 71 83 73 84 70 85 54 86
REMARK SMILES IDX 55 87 60 88 56 89 57 90 59 91 61 92 58 93
REMARK H PARENT 21 6 28 36 78 55 52 66
REMARK Flexibility Score: inf
ROOT
ATOM      1  C   UNL A   1      31.062  27.405  25.074  1.00  0.00     0.021 C 
ENDROOT
BRANCH   1   2
ATOM      2  C   UNL A   1      30.396  26.246  24.357  1.00  0.00     0.116 C 
BRANCH   2   3
ATOM      3  N   UNL A   1      31.245  25.773  23.267  1.00  0.00    -0.356 N 
ATOM      4  C   UNL A   1      31.797  24.543  23.052  1.00  0.00     0.220 C 
ATOM      5  O   UNL A   1      32.652  24.426  22.171  1.00  0.00    -0.275 OA
ATOM      6  H   UNL A   1      31.450  26.446  22.579  1.00  0.00     0.163 HD
BRANCH   4   7
ATOM      7  C   UNL A   1      31.355  23.336  23.860  1.00  0.00     0.105 C 
BRANCH   7   8
ATOM      8  C   UNL A   1      32.183  23.130  25.140  1.00  0.00     0.049 C 
BRANCH   8   9
ATOM      9  C   UNL A   1      33.553  22.552  24.877  1.00  0.00    -0.005 A 
ATOM     10  C   UNL A   1      37.937  21.894  25.671  1.00  0.00     0.095 A 
ATOM     11  C   UNL A   1      37.160  20.776  25.305  1.00  0.00     0.080 A 
ATOM     12  N   UNL A   1      37.219  23.004  25.388  1.00  0.00    -0.166 NA
ATOM     13  C   UNL A   1      35.936  21.181  24.881  1.00  0.00     0.156 A 
ATOM     14  N   UNL A   1      35.957  22.556  24.992  1.00  0.00    -0.219 N 
ATOM     15  N   UNL A   1      34.834  20.436  24.605  1.00  0.00    -0.234 NA
ATOM     16  C   UNL A   1      34.725  23.253  24.924  1.00  0.00     0.046 A 
ATOM     17  C   UNL A   1      33.693  21.057  24.636  1.00  0.00     0.045 A 
ATOM     18  C   UNL A   1      34.825  24.737  25.081  1.00  0.00     0.067 C 
ATOM     19  C   UNL A   1      32.482  20.164  24.406  1.00  0.00     0.067 C 
BRANCH  10  20
ATOM     20  C   UNL A   1      39.307  21.863  26.293  1.00  0.00     0.009 A 
ATOM     21  C   UNL A   1      41.022  22.771  27.825  1.00  0.00     0.123 A 
ATOM     22  C   UNL A   1      41.771  21.616  27.710  1.00  0.00     0.092 A 
ATOM     23  C   UNL A   1      39.809  22.885  27.130  1.00  0.00     0.057 A 
ATOM     24  C   UNL A   1      41.338  20.594  26.867  1.00  0.00     0.123 A 
ATOM     25  C   UNL A   1      40.133  20.735  26.150  1.00  0.00     0.057 A 
BRANCH  21  26
ATOM     26  O   UNL A   1      41.603  23.849  28.442  1.00  0.00    -0.497 OA
ATOM     27  C   UNL A   1      42.890  23.602  28.996  1.00  0.00     0.278 C 
ENDBRANCH  21  26
BRANCH  24  28
ATOM     28  O   UNL A   1      42.187  19.523  26.849  1.00  0.00    -0.497 OA
ATOM     29  C   UNL A   1      42.913  19.250  25.662  1.00  0.00     0.278 C 
ENDBRANCH  24  28
ENDBRANCH  10  20
ENDBRANCH   8   9
ENDBRANCH   7   8
ENDBRANCH   4   7
ENDBRANCH   2   3
ENDBRANCH   1   2
BRANCH   1  30
ATOM     30  C   UNL A   1      31.343  27.200  26.548  1.00  0.00     0.002 C 
BRANCH  30  31
ATOM     31  C   UNL A   1      32.262  28.188  27.286  1.00  0.00     0.002 C 
BRANCH  31  32
ATOM     32  C   UNL A   1      32.248  29.718  27.046  1.00  0.00     0.021 C 
BRANCH  32  33
ATOM     33  C   UNL A   1      33.536  30.577  27.033  1.00  0.00     0.116 C 
BRANCH  33  34
ATOM     34  N   UNL A   1      33.828  31.504  28.144  1.00  0.00    -0.352 N 
ATOM     35  C   UNL A   1      34.904  31.654  29.039  1.00  0.00     0.251 C 
ATOM     36  H   UNL A   1      33.112  32.163  28.292  1.00  0.00     0.163 HD
ATOM     37  O   UNL A   1      34.730  32.429  29.997  1.00  0.00    -0.269 OA
BRANCH  35  38
ATOM     38  C   UNL A   1      36.257  31.010  28.915  1.00  0.00     0.039 A 
ATOM     39  C   UNL A   1      36.479  29.658  28.594  1.00  0.00     0.014 A 
ATOM     40  C   UNL A   1      37.384  31.755  29.147  1.00  0.00     0.014 A 
ATOM     41  C   UNL A   1      37.783  29.098  28.667  1.00  0.00     0.010 A 
ATOM     42  C   UNL A   1      38.637  31.200  29.368  1.00  0.00     0.010 A 
ATOM     43  C   UNL A   1      38.855  29.857  29.164  1.00  0.00    -0.014 A 
BRANCH  43  44
ATOM     44  C   UNL A   1      40.275  29.473  29.087  1.00  0.00     0.031 A 
ATOM     45  C   UNL A   1      40.785  29.191  30.455  1.00  0.00     0.074 A 
ATOM     46  C   UNL A   1      40.960  28.985  28.021  1.00  0.00     0.049 A 
ATOM     47  N   UNL A   1      41.549  29.938  31.179  1.00  0.00    -0.248 NA
ATOM     48  C   UNL A   1      40.168  28.070  31.194  1.00  0.00     0.031 C 
ATOM     49  C   UNL A   1      40.489  28.719  26.663  1.00  0.00     0.029 A 
ATOM     50  N   UNL A   1      42.251  28.526  27.963  1.00  0.00    -0.354 N 
ATOM     51  C   UNL A   1      41.676  29.252  32.382  1.00  0.00     0.074 A 
ATOM     52  C   UNL A   1      40.586  28.321  32.433  1.00  0.00     0.031 C 
ATOM     53  C   UNL A   1      41.407  28.000  25.974  1.00  0.00     0.029 A 
ATOM     54  C   UNL A   1      42.587  27.833  26.798  1.00  0.00     0.049 A 
ATOM     55  H   UNL A   1      42.895  28.674  28.692  1.00  0.00     0.167 HD
ATOM     56  C   UNL A   1      42.844  29.260  33.078  1.00  0.00     0.037 A 
ATOM     57  C   UNL A   1      43.735  27.143  26.549  1.00  0.00     0.037 A 
ATOM     58  C   UNL A   1      43.722  30.298  32.591  1.00  0.00     0.049 A 
ATOM     59  C   UNL A   1      44.728  27.567  27.566  1.00  0.00     0.074 A 
ATOM     60  C   UNL A   1      43.612  31.666  32.425  1.00  0.00     0.029 A 
ATOM     61  N   UNL A   1      44.771  29.910  31.791  1.00  0.00    -0.354 N 
ATOM     62  N   UNL A   1      45.269  28.751  27.613  1.00  0.00    -0.248 NA
ATOM     63  C   UNL A   1      44.783  26.804  28.803  1.00  0.00     0.031 C 
ATOM     64  C   UNL A   1      44.272  31.945  31.190  1.00  0.00     0.029 A 
ATOM     65  C   UNL A   1      44.811  30.752  30.710  1.00  0.00     0.049 A 
ATOM     66  H   UNL A   1      45.385  29.160  31.966  1.00  0.00     0.167 HD
ATOM     67  C   UNL A   1      45.323  29.056  28.964  1.00  0.00     0.074 A 
ATOM     68  C   UNL A   1      45.098  27.786  29.651  1.00  0.00     0.031 C 
ATOM     69  C   UNL A   1      45.245  30.350  29.391  1.00  0.00     0.037 A 
BRANCH  56  70
ATOM     70  C   UNL A   1      43.342  28.093  33.899  1.00  0.00     0.057 A 
ATOM     71  C   UNL A   1      43.535  26.857  33.261  1.00  0.00     0.134 A 
ATOM     72  C   UNL A   1      43.395  28.045  35.310  1.00  0.00     0.134 A 
ATOM     73  F   UNL A   1      43.494  26.760  31.924  1.00  0.00    -0.206 F 
ATOM     74  C   UNL A   1      43.692  25.661  33.971  1.00  0.00     0.040 A 
ATOM     75  C   UNL A   1      43.612  26.867  36.028  1.00  0.00     0.040 A 
ATOM     76  F   UNL A   1      43.141  29.103  36.089  1.00  0.00    -0.206 F 
ATOM     77  C   UNL A   1      43.727  25.662  35.360  1.00  0.00     0.006 A 
ENDBRANCH  56  70
BRANCH  57  78
ATOM     78  C   UNL A   1      43.988  25.955  25.690  1.00  0.00     0.057 A 
ATOM     79  C   UNL A   1      45.294  25.579  25.327  1.00  0.00     0.134 A 
ATOM     80  C   UNL A   1      42.991  24.995  25.448  1.00  0.00     0.134 A 
ATOM     81  F   UNL A   1      46.327  26.406  25.544  1.00  0.00    -0.206 F 
ATOM     82  C   UNL A   1      45.593  24.315  24.795  1.00  0.00     0.040 A 
ATOM     83  C   UNL A   1      43.275  23.732  24.913  1.00  0.00     0.040 A 
ATOM     84  F   UNL A   1      41.720  25.215  25.811  1.00  0.00    -0.206 F 
ATOM     85  C   UNL A   1      44.582  23.381  24.600  1.00  0.00     0.006 A 
ENDBRANCH  57  78
BRANCH  69  86
ATOM     86  C   UNL A   1      45.395  31.438  28.361  1.00  0.00     0.057 A 
ATOM     87  C   UNL A   1      46.625  31.928  27.892  1.00  0.00     0.134 A 
ATOM     88  C   UNL A   1      44.246  31.909  27.718  1.00  0.00     0.134 A 
ATOM     89  F   UNL A   1      47.786  31.469  28.376  1.00  0.00    -0.206 F 
ATOM     90  C   UNL A   1      46.701  32.873  26.864  1.00  0.00     0.040 A 
ATOM     91  C   UNL A   1      44.310  32.826  26.666  1.00  0.00     0.040 A 
ATOM     92  F   UNL A   1      43.036  31.451  28.077  1.00  0.00    -0.206 F 
ATOM     93  C   UNL A   1      45.540  33.319  26.242  1.00  0.00     0.006 A 
ENDBRANCH  69  86
ENDBRANCH  43  44
ENDBRANCH  35  38
ENDBRANCH  33  34
ENDBRANCH  32  33
ENDBRANCH  31  32
ENDBRANCH  30  31
ENDBRANCH   1  30
TORSDOF 18
ENDMDL
MODEL 3
REMARK VINA RESULT:     -12.1      3.444      8.488
REMARK SMILES COc1cc(OC)cc(-c2cc3nc(C)c(CCC(=O)NCCCCCCNC(=O)c4ccc(-c5c6nc(c(-c7c(F)cccc7F)c7ccc([nH]7)c(-c7c(F)cccc7F)c7nc(c(-c8c(F)cccc8F)c8ccc5[nH]8)C=C7)C=C6)cc4)c(C)n3n2)c1
REMARK SMILES IDX 23 1 22 2 21 3 19 4 20 5 18 7 17 8 16 9 10 10 11 11 88 12
REMARK SMILES IDX 12 13 87 14 13 15 85 16 14 17 86 18 15 19 9 20 3 21 4 22
REMARK SMILES IDX 89 23 5 24 8 25 2 26 1 27 6 28 7 29 24 30 25 31 26 32 27 33
REMARK SMILES IDX 28 34 29 35 30 37 31 38 32 39 84 40 33 41 83 42 34 43 35 44
REMARK SMILES IDX 36 45 77 46 37 47 82 48 76 49 78 50 38 51 81 52 75 53 74 54
REMARK SMILES IDX 39 56 65 57 48 58 64 59 49 60 52 61 63 62 79 63 50 64 51 65
REMARK SMILES IDX 62 67 80 68 53 69 40 70 41 71 46 72 42 73 43 74 45 75 47 76
REMARK SMILES IDX 44 77 66 78 67 79 72 80 68 81 69 82 71 83 73 84 70 85 54 86
REMARK SMILES IDX 55 87 60 88 56 89 57 90 59 91 61 92 58 93
REMARK H PARENT 21 6 28 36 78 55 52 66
REMARK Flexibility Score: inf
ROOT
ATOM      1  C   UNL A   1      33.263  25.377  22.405  1.00  0.00     0.021 C 
ENDROOT
BRANCH   1   2
ATOM      2  C   UNL A   1      33.572  26.858  22.286  1.00  0.00     0.116 C 
BRANCH   2   3
ATOM      3  N   UNL A   1      32.427  27.569  21.725  1.00  0.00    -0.356 N 
ATOM      4  C   UNL A   1      31.464  28.311  22.344  1.00  0.00     0.220 C 
ATOM      5  O   UNL A   1      30.471  28.649  21.695  1.00  0.00    -0.275 OA
ATOM      6  H   UNL A   1      32.336  27.503  20.747  1.00  0.00     0.163 HD
BRANCH   4   7
ATOM      7  C   UNL A   1      31.616  28.737  23.794  1.00  0.00     0.105 C 
BRANCH   7   8
ATOM      8  C   UNL A   1      30.451  28.272  24.685  1.00  0.00     0.049 C 
BRANCH   8   9
ATOM      9  C   UNL A   1      30.726  26.965  25.391  1.00  0.00    -0.005 A 
ATOM     10  C   UNL A   1      32.205  22.725  25.715  1.00  0.00     0.095 A 
ATOM     11  C   UNL A   1      32.496  23.605  26.777  1.00  0.00     0.080 A 
ATOM     12  N   UNL A   1      31.245  23.298  24.955  1.00  0.00    -0.166 NA
ATOM     13  C   UNL A   1      31.790  24.755  26.631  1.00  0.00     0.156 A 
ATOM     14  N   UNL A   1      31.064  24.584  25.470  1.00  0.00    -0.219 N 
ATOM     15  N   UNL A   1      31.897  25.920  27.321  1.00  0.00    -0.234 NA
ATOM     16  C   UNL A   1      30.469  25.725  24.878  1.00  0.00     0.046 A 
ATOM     17  C   UNL A   1      31.435  26.984  26.735  1.00  0.00     0.045 A 
ATOM     18  C   UNL A   1      29.723  25.465  23.607  1.00  0.00     0.067 C 
ATOM     19  C   UNL A   1      31.657  28.277  27.508  1.00  0.00     0.067 C 
BRANCH  10  20
ATOM     20  C   UNL A   1      32.862  21.396  25.453  1.00  0.00     0.009 A 
ATOM     21  C   UNL A   1      32.786  19.041  24.703  1.00  0.00     0.123 A 
ATOM     22  C   UNL A   1      34.165  18.989  24.649  1.00  0.00     0.092 A 
ATOM     23  C   UNL A   1      32.150  20.229  25.094  1.00  0.00     0.057 A 
ATOM     24  C   UNL A   1      34.913  20.101  25.030  1.00  0.00     0.123 A 
ATOM     25  C   UNL A   1      34.262  21.278  25.451  1.00  0.00     0.057 A 
BRANCH  21  26
ATOM     26  O   UNL A   1      32.097  17.862  24.584  1.00  0.00    -0.497 OA
ATOM     27  C   UNL A   1      32.560  16.808  25.422  1.00  0.00     0.278 C 
ENDBRANCH  21  26
BRANCH  24  28
ATOM     28  O   UNL A   1      36.262  19.894  24.934  1.00  0.00    -0.497 OA
ATOM     29  C   UNL A   1      36.747  18.562  24.924  1.00  0.00     0.278 C 
ENDBRANCH  24  28
ENDBRANCH  10  20
ENDBRANCH   8   9
ENDBRANCH   7   8
ENDBRANCH   4   7
ENDBRANCH   2   3
ENDBRANCH   1   2
BRANCH   1  30
ATOM     30  C   UNL A   1      34.167  24.583  23.324  1.00  0.00     0.002 C 
BRANCH  30  31
ATOM     31  C   UNL A   1      34.924  23.364  22.770  1.00  0.00     0.002 C 
BRANCH  31  32
ATOM     32  C   UNL A   1      36.356  22.970  23.208  1.00  0.00     0.021 C 
BRANCH  32  33
ATOM     33  C   UNL A   1      37.022  23.521  24.492  1.00  0.00     0.116 C 
BRANCH  33  34
ATOM     34  N   UNL A   1      37.936  22.675  25.284  1.00  0.00    -0.352 N 
ATOM     35  C   UNL A   1      39.013  22.937  26.149  1.00  0.00     0.251 C 
ATOM     36  H   UNL A   1      37.750  21.712  25.184  1.00  0.00     0.163 HD
ATOM     37  O   UNL A   1      39.701  21.960  26.498  1.00  0.00    -0.269 OA
BRANCH  35  38
ATOM     38  C   UNL A   1      39.377  24.274  26.732  1.00  0.00     0.039 A 
ATOM     39  C   UNL A   1      40.168  25.245  26.091  1.00  0.00     0.014 A 
ATOM     40  C   UNL A   1      38.945  24.603  27.992  1.00  0.00     0.014 A 
ATOM     41  C   UNL A   1      40.601  26.406  26.786  1.00  0.00     0.010 A 
ATOM     42  C   UNL A   1      39.474  25.649  28.734  1.00  0.00     0.010 A 
ATOM     43  C   UNL A   1      40.336  26.553  28.156  1.00  0.00    -0.014 A 
BRANCH  43  44
ATOM     44  C   UNL A   1      40.534  27.790  28.932  1.00  0.00     0.031 A 
ATOM     45  C   UNL A   1      41.704  28.531  28.389  1.00  0.00     0.074 A 
ATOM     46  C   UNL A   1      39.633  28.460  29.694  1.00  0.00     0.049 A 
ATOM     47  N   UNL A   1      42.886  28.620  28.902  1.00  0.00    -0.248 NA
ATOM     48  C   UNL A   1      41.618  29.012  26.995  1.00  0.00     0.031 C 
ATOM     49  C   UNL A   1      38.233  28.140  29.968  1.00  0.00     0.029 A 
ATOM     50  N   UNL A   1      39.773  29.665  30.335  1.00  0.00    -0.354 N 
ATOM     51  C   UNL A   1      43.615  29.364  27.982  1.00  0.00     0.074 A 
ATOM     52  C   UNL A   1      42.896  29.290  26.743  1.00  0.00     0.031 C 
ATOM     53  C   UNL A   1      37.613  29.187  30.561  1.00  0.00     0.029 A 
ATOM     54  C   UNL A   1      38.588  30.230  30.812  1.00  0.00     0.049 A 
ATOM     55  H   UNL A   1      40.648  30.101  30.450  1.00  0.00     0.167 HD
ATOM     56  C   UNL A   1      44.559  30.255  28.386  1.00  0.00     0.037 A 
ATOM     57  C   UNL A   1      38.419  31.475  31.338  1.00  0.00     0.037 A 
ATOM     58  C   UNL A   1      44.898  30.047  29.774  1.00  0.00     0.049 A 
ATOM     59  C   UNL A   1      39.767  31.993  31.675  1.00  0.00     0.074 A 
ATOM     60  C   UNL A   1      45.351  28.970  30.514  1.00  0.00     0.029 A 
ATOM     61  N   UNL A   1      44.377  30.932  30.688  1.00  0.00    -0.354 N 
ATOM     62  N   UNL A   1      40.515  31.523  32.633  1.00  0.00    -0.248 NA
ATOM     63  C   UNL A   1      40.468  32.747  30.647  1.00  0.00     0.031 C 
ATOM     64  C   UNL A   1      44.651  29.051  31.755  1.00  0.00     0.029 A 
ATOM     65  C   UNL A   1      43.871  30.207  31.736  1.00  0.00     0.049 A 
ATOM     66  H   UNL A   1      44.369  31.913  30.604  1.00  0.00     0.167 HD
ATOM     67  C   UNL A   1      41.798  31.529  32.109  1.00  0.00     0.074 A 
ATOM     68  C   UNL A   1      41.721  32.378  30.922  1.00  0.00     0.031 C 
ATOM     69  C   UNL A   1      42.722  30.610  32.514  1.00  0.00     0.037 A 
BRANCH  56  70
ATOM     70  C   UNL A   1      44.865  31.545  27.659  1.00  0.00     0.057 A 
ATOM     71  C   UNL A   1      46.069  31.642  26.943  1.00  0.00     0.134 A 
ATOM     72  C   UNL A   1      44.179  32.767  27.833  1.00  0.00     0.134 A 
ATOM     73  F   UNL A   1      46.825  30.558  26.719  1.00  0.00    -0.206 F 
ATOM     74  C   UNL A   1      46.584  32.867  26.501  1.00  0.00     0.040 A 
ATOM     75  C   UNL A   1      44.654  33.987  27.345  1.00  0.00     0.040 A 
ATOM     76  F   UNL A   1      43.068  32.885  28.569  1.00  0.00    -0.206 F 
ATOM     77  C   UNL A   1      45.878  34.045  26.705  1.00  0.00     0.006 A 
ENDBRANCH  56  70
BRANCH  57  78
ATOM     78  C   UNL A   1      37.237  32.378  31.335  1.00  0.00     0.057 A 
ATOM     79  C   UNL A   1      36.773  32.971  30.147  1.00  0.00     0.134 A 
ATOM     80  C   UNL A   1      36.362  32.450  32.431  1.00  0.00     0.134 A 
ATOM     81  F   UNL A   1      37.513  32.931  29.029  1.00  0.00    -0.206 F 
ATOM     82  C   UNL A   1      35.503  33.561  30.046  1.00  0.00     0.040 A 
ATOM     83  C   UNL A   1      35.094  33.041  32.345  1.00  0.00     0.040 A 
ATOM     84  F   UNL A   1      36.668  31.865  33.597  1.00  0.00    -0.206 F 
ATOM     85  C   UNL A   1      34.653  33.584  31.145  1.00  0.00     0.006 A 
ENDBRANCH  57  78
BRANCH  69  86
ATOM     86  C   UNL A   1      42.405  29.791  33.738  1.00  0.00     0.057 A 
ATOM     87  C   UNL A   1      41.770  28.539  33.717  1.00  0.00     0.134 A 
ATOM     88  C   UNL A   1      42.888  30.229  34.975  1.00  0.00     0.134 A 
ATOM     89  F   UNL A   1      41.356  27.989  32.568  1.00  0.00    -0.206 F 
ATOM     90  C   UNL A   1      41.588  27.782  34.879  1.00  0.00     0.040 A 
ATOM     91  C   UNL A   1      42.745  29.467  36.137  1.00  0.00     0.040 A 
ATOM     92  F   UNL A   1      43.550  31.393  35.068  1.00  0.00    -0.206 F 
ATOM     93  C   UNL A   1      42.084  28.243  36.093  1.00  0.00     0.006 A 
ENDBRANCH  69  86
ENDBRANCH  43  44
ENDBRANCH  35  38
ENDBRANCH  33  34
ENDBRANCH  32  33
ENDBRANCH  31  32
ENDBRANCH  30  31
ENDBRANCH   1  30
TORSDOF 18
ENDMDL
