MODEL 1
REMARK VINA RESULT:     -12.3      0.000      0.000
REMARK SMILES CN(c1ccc(C(=O)NCCCCCCNC(=O)c2ccc(-c3c4nc(c(-c5c(F)cccc5F)c5ccc([nH]5)c(-c5c(F)cccc5F)c5nc(c(-c6c(F)cccc6F)c6ccc3[nH]6)C=C5)C=C4)cc2)c(F)c1F)[C@H]1C[C@H]2CC[C@@H](C1)[NH2+]2
REMARK SMILES IDX 12 1 11 2 10 3 9 4 7 5 8 6 6 8 3 9 4 10 75 11 5 12 73 13
REMARK SMILES IDX 76 14 74 15 2 16 1 17 77 18 78 19 83 20 79 21 82 22 80 23
REMARK SMILES IDX 84 24 81 25 13 28 14 29 15 30 16 31 17 32 18 34 19 35 20 36
REMARK SMILES IDX 72 37 21 38 71 39 22 40 23 41 24 42 65 43 25 44 70 45 64 46
REMARK SMILES IDX 66 47 26 48 69 49 63 50 62 51 27 53 53 54 36 55 52 56 37 57
REMARK SMILES IDX 40 58 51 59 67 60 38 61 39 62 50 64 68 65 41 66 28 67 29 68
REMARK SMILES IDX 34 69 30 70 31 71 33 72 35 73 32 74 54 75 55 76 60 77 56 78
REMARK SMILES IDX 57 79 59 80 61 81 58 82 42 83 43 84 48 85 44 86 45 87 47 88
REMARK SMILES IDX 49 89 46 90
REMARK H PARENT 9 7 84 26 84 27 16 33 66 52 40 63
REMARK Flexibility Score: inf
ROOT
ATOM      1  C   UNL A   1      32.885  30.038  26.159  1.00  0.00     0.002 C 
ENDROOT
BRANCH   1   2
ATOM      2  C   UNL A   1      32.991  28.815  25.246  1.00  0.00     0.021 C 
BRANCH   2   3
ATOM      3  C   UNL A   1      33.184  29.102  23.761  1.00  0.00     0.116 C 
BRANCH   3   4
ATOM      4  N   UNL A   1      31.948  29.224  23.008  1.00  0.00    -0.352 N 
ATOM      5  C   UNL A   1      31.068  28.255  22.582  1.00  0.00     0.254 C 
ATOM      6  O   UNL A   1      30.065  28.604  21.961  1.00  0.00    -0.269 OA
ATOM      7  H   UNL A   1      31.700  30.145  22.764  1.00  0.00     0.163 HD
BRANCH   5   8
ATOM      8  C   UNL A   1      31.339  26.807  22.742  1.00  0.00     0.078 A 
ATOM      9  C   UNL A   1      32.296  24.169  23.199  1.00  0.00     0.076 A 
ATOM     10  C   UNL A   1      32.677  24.902  22.058  1.00  0.00     0.030 A 
ATOM     11  C   UNL A   1      31.301  24.747  24.005  1.00  0.00     0.182 A 
ATOM     12  C   UNL A   1      32.230  26.210  21.844  1.00  0.00     0.019 A 
ATOM     13  C   UNL A   1      30.797  26.020  23.748  1.00  0.00     0.173 A 
ATOM     14  F   UNL A   1      30.887  24.146  25.133  1.00  0.00    -0.201 F 
ATOM     15  F   UNL A   1      29.808  26.472  24.534  1.00  0.00    -0.203 F 
BRANCH   9  16
ATOM     16  N   UNL A   1      32.985  22.995  23.528  1.00  0.00    -0.369 N 
ATOM     17  C   UNL A   1      32.368  21.775  23.011  1.00  0.00     0.144 C 
BRANCH  16  18
ATOM     18  C   UNL A   1      34.367  23.028  24.079  1.00  0.00     0.093 C 
ATOM     19  C   UNL A   1      34.542  24.102  25.174  1.00  0.00     0.090 C 
ATOM     20  C   UNL A   1      34.945  21.653  24.469  1.00  0.00     0.090 C 
ATOM     21  C   UNL A   1      34.653  23.551  26.600  1.00  0.00     0.184 C 
ATOM     22  C   UNL A   1      35.000  21.370  25.979  1.00  0.00     0.184 C 
ATOM     23  C   UNL A   1      33.392  22.824  27.049  1.00  0.00     0.071 C 
ATOM     24  N   UNL A   1      35.667  22.489  26.650  1.00  0.00    -0.341 N 
ATOM     25  C   UNL A   1      33.662  21.360  26.710  1.00  0.00     0.071 C 
ATOM     26  H   UNL A   1      35.903  22.253  27.614  1.00  0.00     0.346 HD
ATOM     27  H   UNL A   1      36.550  22.754  26.213  1.00  0.00     0.346 HD
ENDBRANCH  16  18
ENDBRANCH   9  16
ENDBRANCH   5   8
ENDBRANCH   3   4
ENDBRANCH   2   3
ENDBRANCH   1   2
BRANCH   1  28
ATOM     28  C   UNL A   1      31.485  30.627  26.349  1.00  0.00     0.002 C 
BRANCH  28  29
ATOM     29  C   UNL A   1      31.406  32.147  26.515  1.00  0.00     0.021 C 
BRANCH  29  30
ATOM     30  C   UNL A   1      32.554  32.787  27.288  1.00  0.00     0.116 C 
BRANCH  30  31
ATOM     31  N   UNL A   1      32.312  34.187  27.596  1.00  0.00    -0.352 N 
ATOM     32  C   UNL A   1      32.928  35.003  28.511  1.00  0.00     0.251 C 
ATOM     33  H   UNL A   1      31.598  34.613  27.069  1.00  0.00     0.163 HD
ATOM     34  O   UNL A   1      32.479  36.120  28.741  1.00  0.00    -0.269 OA
BRANCH  32  35
ATOM     35  C   UNL A   1      34.122  34.526  29.244  1.00  0.00     0.039 A 
ATOM     36  C   UNL A   1      33.958  34.028  30.539  1.00  0.00     0.014 A 
ATOM     37  C   UNL A   1      35.392  34.571  28.664  1.00  0.00     0.014 A 
ATOM     38  C   UNL A   1      35.058  33.510  31.225  1.00  0.00     0.010 A 
ATOM     39  C   UNL A   1      36.474  33.987  29.319  1.00  0.00     0.010 A 
ATOM     40  C   UNL A   1      36.317  33.446  30.605  1.00  0.00    -0.014 A 
BRANCH  40  41
ATOM     41  C   UNL A   1      37.468  32.790  31.276  1.00  0.00     0.031 A 
ATOM     42  C   UNL A   1      38.126  31.587  30.663  1.00  0.00     0.074 A 
ATOM     43  C   UNL A   1      37.878  33.244  32.476  1.00  0.00     0.049 A 
ATOM     44  N   UNL A   1      39.103  30.852  31.129  1.00  0.00    -0.248 NA
ATOM     45  C   UNL A   1      37.599  31.132  29.368  1.00  0.00     0.031 C 
ATOM     46  C   UNL A   1      37.289  34.373  33.198  1.00  0.00     0.029 A 
ATOM     47  N   UNL A   1      38.879  32.805  33.306  1.00  0.00    -0.354 N 
ATOM     48  C   UNL A   1      39.302  29.846  30.193  1.00  0.00     0.074 A 
ATOM     49  C   UNL A   1      38.307  30.032  29.158  1.00  0.00     0.031 C 
ATOM     50  C   UNL A   1      37.952  34.551  34.351  1.00  0.00     0.029 A 
ATOM     51  C   UNL A   1      38.982  33.525  34.472  1.00  0.00     0.049 A 
ATOM     52  H   UNL A   1      39.467  32.047  33.087  1.00  0.00     0.167 HD
ATOM     53  C   UNL A   1      40.239  28.868  30.186  1.00  0.00     0.037 A 
ATOM     54  C   UNL A   1      39.804  33.369  35.527  1.00  0.00     0.037 A 
ATOM     55  C   UNL A   1      41.234  28.695  31.214  1.00  0.00     0.049 A 
ATOM     56  C   UNL A   1      40.822  32.263  35.507  1.00  0.00     0.074 A 
ATOM     57  C   UNL A   1      42.270  27.779  31.264  1.00  0.00     0.029 A 
ATOM     58  N   UNL A   1      41.308  29.444  32.378  1.00  0.00    -0.354 N 
ATOM     59  N   UNL A   1      41.052  31.369  34.576  1.00  0.00    -0.248 NA
ATOM     60  C   UNL A   1      41.696  32.146  36.682  1.00  0.00     0.031 C 
ATOM     61  C   UNL A   1      42.932  27.933  32.486  1.00  0.00     0.029 A 
ATOM     62  C   UNL A   1      42.348  28.987  33.171  1.00  0.00     0.049 A 
ATOM     63  H   UNL A   1      40.710  30.192  32.608  1.00  0.00     0.167 HD
ATOM     64  C   UNL A   1      42.108  30.597  35.042  1.00  0.00     0.074 A 
ATOM     65  C   UNL A   1      42.487  31.142  36.329  1.00  0.00     0.031 C 
ATOM     66  C   UNL A   1      42.709  29.533  34.456  1.00  0.00     0.037 A 
BRANCH  53  67
ATOM     67  C   UNL A   1      40.226  27.903  29.035  1.00  0.00     0.057 A 
ATOM     68  C   UNL A   1      39.498  26.705  29.077  1.00  0.00     0.134 A 
ATOM     69  C   UNL A   1      40.927  28.186  27.856  1.00  0.00     0.134 A 
ATOM     70  F   UNL A   1      38.811  26.367  30.178  1.00  0.00    -0.206 F 
ATOM     71  C   UNL A   1      39.495  25.812  28.004  1.00  0.00     0.040 A 
ATOM     72  C   UNL A   1      40.907  27.316  26.765  1.00  0.00     0.040 A 
ATOM     73  F   UNL A   1      41.639  29.318  27.740  1.00  0.00    -0.206 F 
ATOM     74  C   UNL A   1      40.196  26.120  26.840  1.00  0.00     0.006 A 
ENDBRANCH  53  67
BRANCH  54  75
ATOM     75  C   UNL A   1      39.702  34.291  36.686  1.00  0.00     0.057 A 
ATOM     76  C   UNL A   1      38.929  33.964  37.807  1.00  0.00     0.134 A 
ATOM     77  C   UNL A   1      40.381  35.517  36.708  1.00  0.00     0.134 A 
ATOM     78  F   UNL A   1      38.241  32.813  37.838  1.00  0.00    -0.206 F 
ATOM     79  C   UNL A   1      38.822  34.827  38.898  1.00  0.00     0.040 A 
ATOM     80  C   UNL A   1      40.305  36.376  37.804  1.00  0.00     0.040 A 
ATOM     81  F   UNL A   1      41.144  35.886  35.669  1.00  0.00    -0.206 F 
ATOM     82  C   UNL A   1      39.516  36.034  38.902  1.00  0.00     0.006 A 
ENDBRANCH  54  75
BRANCH  66  83
ATOM     83  C   UNL A   1      43.852  28.896  35.194  1.00  0.00     0.057 A 
ATOM     84  C   UNL A   1      45.173  29.335  35.030  1.00  0.00     0.134 A 
ATOM     85  C   UNL A   1      43.625  27.860  36.109  1.00  0.00     0.134 A 
ATOM     86  F   UNL A   1      45.462  30.314  34.159  1.00  0.00    -0.206 F 
ATOM     87  C   UNL A   1      46.229  28.750  35.732  1.00  0.00     0.040 A 
ATOM     88  C   UNL A   1      44.668  27.288  36.840  1.00  0.00     0.040 A 
ATOM     89  F   UNL A   1      42.384  27.399  36.321  1.00  0.00    -0.206 F 
ATOM     90  C   UNL A   1      45.975  27.729  36.647  1.00  0.00     0.006 A 
ENDBRANCH  66  83
ENDBRANCH  40  41
ENDBRANCH  32  35
ENDBRANCH  30  31
ENDBRANCH  29  30
ENDBRANCH  28  29
ENDBRANCH   1  28
TORSDOF 15
ENDMDL
MODEL 2
REMARK VINA RESULT:     -12.3      5.116     10.249
REMARK SMILES CN(c1ccc(C(=O)NCCCCCCNC(=O)c2ccc(-c3c4nc(c(-c5c(F)cccc5F)c5ccc([nH]5)c(-c5c(F)cccc5F)c5nc(c(-c6c(F)cccc6F)c6ccc3[nH]6)C=C5)C=C4)cc2)c(F)c1F)[C@H]1C[C@H]2CC[C@@H](C1)[NH2+]2
REMARK SMILES IDX 12 1 11 2 10 3 9 4 7 5 8 6 6 8 3 9 4 10 75 11 5 12 73 13
REMARK SMILES IDX 76 14 74 15 2 16 1 17 77 18 78 19 83 20 79 21 82 22 80 23
REMARK SMILES IDX 84 24 81 25 13 28 14 29 15 30 16 31 17 32 18 34 19 35 20 36
REMARK SMILES IDX 72 37 21 38 71 39 22 40 23 41 24 42 65 43 25 44 70 45 64 46
REMARK SMILES IDX 66 47 26 48 69 49 63 50 62 51 27 53 53 54 36 55 52 56 37 57
REMARK SMILES IDX 40 58 51 59 67 60 38 61 39 62 50 64 68 65 41 66 28 67 29 68
REMARK SMILES IDX 34 69 30 70 31 71 33 72 35 73 32 74 54 75 55 76 60 77 56 78
REMARK SMILES IDX 57 79 59 80 61 81 58 82 42 83 43 84 48 85 44 86 45 87 47 88
REMARK SMILES IDX 49 89 46 90
REMARK H PARENT 9 7 84 26 84 27 16 33 66 52 40 63
REMARK Flexibility Score: inf
ROOT
ATOM      1  C   UNL A   1      35.321  20.612  25.050  1.00  0.00     0.002 C 
ENDROOT
BRANCH   1   2
ATOM      2  C   UNL A   1      34.140  21.224  24.294  1.00  0.00     0.021 C 
BRANCH   2   3
ATOM      3  C   UNL A   1      32.774  21.086  24.959  1.00  0.00     0.116 C 
BRANCH   3   4
ATOM      4  N   UNL A   1      32.794  21.223  26.404  1.00  0.00    -0.352 N 
ATOM      5  C   UNL A   1      32.613  22.335  27.193  1.00  0.00     0.254 C 
ATOM      6  O   UNL A   1      32.662  22.204  28.416  1.00  0.00    -0.269 OA
ATOM      7  H   UNL A   1      32.964  20.388  26.897  1.00  0.00     0.163 HD
BRANCH   5   8
ATOM      8  C   UNL A   1      32.476  23.699  26.630  1.00  0.00     0.078 A 
ATOM      9  C   UNL A   1      32.082  26.443  25.997  1.00  0.00     0.076 A 
ATOM     10  C   UNL A   1      30.995  25.562  26.156  1.00  0.00     0.030 A 
ATOM     11  C   UNL A   1      33.361  25.861  26.010  1.00  0.00     0.182 A 
ATOM     12  C   UNL A   1      31.184  24.217  26.493  1.00  0.00     0.019 A 
ATOM     13  C   UNL A   1      33.547  24.504  26.269  1.00  0.00     0.173 A 
ATOM     14  F   UNL A   1      34.467  26.615  25.898  1.00  0.00    -0.201 F 
ATOM     15  F   UNL A   1      34.796  24.021  26.204  1.00  0.00    -0.203 F 
BRANCH   9  16
ATOM     16  N   UNL A   1      31.852  27.823  25.953  1.00  0.00    -0.369 N 
ATOM     17  C   UNL A   1      31.638  28.437  27.263  1.00  0.00     0.144 C 
BRANCH  16  18
ATOM     18  C   UNL A   1      32.113  28.620  24.723  1.00  0.00     0.093 C 
ATOM     19  C   UNL A   1      32.437  27.733  23.502  1.00  0.00     0.090 C 
ATOM     20  C   UNL A   1      31.071  29.717  24.426  1.00  0.00     0.090 C 
ATOM     21  C   UNL A   1      31.317  27.644  22.458  1.00  0.00     0.184 C 
ATOM     22  C   UNL A   1      30.092  29.400  23.283  1.00  0.00     0.184 C 
ATOM     23  C   UNL A   1      30.052  26.998  23.007  1.00  0.00     0.071 C 
ATOM     24  N   UNL A   1      30.857  28.992  22.100  1.00  0.00    -0.341 N 
ATOM     25  C   UNL A   1      29.203  28.177  23.480  1.00  0.00     0.071 C 
ATOM     26  H   UNL A   1      30.266  28.970  21.270  1.00  0.00     0.346 HD
ATOM     27  H   UNL A   1      31.618  29.632  21.872  1.00  0.00     0.346 HD
ENDBRANCH  16  18
ENDBRANCH   9  16
ENDBRANCH   5   8
ENDBRANCH   3   4
ENDBRANCH   2   3
ENDBRANCH   1   2
BRANCH   1  28
ATOM     28  C   UNL A   1      36.712  21.121  24.667  1.00  0.00     0.002 C 
BRANCH  28  29
ATOM     29  C   UNL A   1      37.847  20.096  24.718  1.00  0.00     0.021 C 
BRANCH  29  30
ATOM     30  C   UNL A   1      38.895  20.323  25.802  1.00  0.00     0.116 C 
BRANCH  30  31
ATOM     31  N   UNL A   1      39.885  19.260  25.859  1.00  0.00    -0.352 N 
ATOM     32  C   UNL A   1      41.233  19.329  26.105  1.00  0.00     0.251 C 
ATOM     33  H   UNL A   1      39.535  18.354  25.697  1.00  0.00     0.163 HD
ATOM     34  O   UNL A   1      41.938  18.338  25.956  1.00  0.00    -0.269 OA
BRANCH  32  35
ATOM     35  C   UNL A   1      41.845  20.610  26.524  1.00  0.00     0.039 A 
ATOM     36  C   UNL A   1      42.270  21.504  25.538  1.00  0.00     0.014 A 
ATOM     37  C   UNL A   1      42.004  20.927  27.876  1.00  0.00     0.014 A 
ATOM     38  C   UNL A   1      42.788  22.746  25.908  1.00  0.00     0.010 A 
ATOM     39  C   UNL A   1      42.451  22.194  28.242  1.00  0.00     0.010 A 
ATOM     40  C   UNL A   1      42.844  23.118  27.261  1.00  0.00    -0.014 A 
BRANCH  40  41
ATOM     41  C   UNL A   1      43.281  24.480  27.663  1.00  0.00     0.031 A 
ATOM     42  C   UNL A   1      42.272  25.525  28.045  1.00  0.00     0.074 A 
ATOM     43  C   UNL A   1      44.590  24.793  27.618  1.00  0.00     0.049 A 
ATOM     44  N   UNL A   1      42.463  26.778  28.370  1.00  0.00    -0.248 NA
ATOM     45  C   UNL A   1      40.859  25.116  28.037  1.00  0.00     0.031 C 
ATOM     46  C   UNL A   1      45.663  23.881  27.215  1.00  0.00     0.029 A 
ATOM     47  N   UNL A   1      45.242  25.966  27.903  1.00  0.00    -0.354 N 
ATOM     48  C   UNL A   1      41.200  27.309  28.593  1.00  0.00     0.074 A 
ATOM     49  C   UNL A   1      40.245  26.257  28.316  1.00  0.00     0.031 C 
ATOM     50  C   UNL A   1      46.839  24.521  27.299  1.00  0.00     0.029 A 
ATOM     51  C   UNL A   1      46.603  25.899  27.718  1.00  0.00     0.049 A 
ATOM     52  H   UNL A   1      44.780  26.779  28.210  1.00  0.00     0.167 HD
ATOM     53  C   UNL A   1      40.865  28.554  29.012  1.00  0.00     0.037 A 
ATOM     54  C   UNL A   1      47.552  26.844  27.857  1.00  0.00     0.037 A 
ATOM     55  C   UNL A   1      41.820  29.594  29.297  1.00  0.00     0.049 A 
ATOM     56  C   UNL A   1      47.155  28.223  28.301  1.00  0.00     0.074 A 
ATOM     57  C   UNL A   1      41.586  30.865  29.791  1.00  0.00     0.029 A 
ATOM     58  N   UNL A   1      43.189  29.488  29.100  1.00  0.00    -0.354 N 
ATOM     59  N   UNL A   1      45.963  28.688  28.588  1.00  0.00    -0.248 NA
ATOM     60  C   UNL A   1      48.235  29.210  28.441  1.00  0.00     0.031 C 
ATOM     61  C   UNL A   1      42.806  31.549  29.835  1.00  0.00     0.029 A 
ATOM     62  C   UNL A   1      43.809  30.683  29.427  1.00  0.00     0.049 A 
ATOM     63  H   UNL A   1      43.652  28.682  28.776  1.00  0.00     0.167 HD
ATOM     64  C   UNL A   1      46.150  30.011  28.963  1.00  0.00     0.074 A 
ATOM     65  C   UNL A   1      47.574  30.270  28.886  1.00  0.00     0.031 C 
ATOM     66  C   UNL A   1      45.227  30.930  29.337  1.00  0.00     0.037 A 
BRANCH  53  67
ATOM     67  C   UNL A   1      39.404  28.861  29.175  1.00  0.00     0.057 A 
ATOM     68  C   UNL A   1      38.742  28.700  30.400  1.00  0.00     0.134 A 
ATOM     69  C   UNL A   1      38.652  29.354  28.099  1.00  0.00     0.134 A 
ATOM     70  F   UNL A   1      39.398  28.224  31.468  1.00  0.00    -0.206 F 
ATOM     71  C   UNL A   1      37.382  28.984  30.540  1.00  0.00     0.040 A 
ATOM     72  C   UNL A   1      37.300  29.672  28.236  1.00  0.00     0.040 A 
ATOM     73  F   UNL A   1      39.222  29.543  26.899  1.00  0.00    -0.206 F 
ATOM     74  C   UNL A   1      36.659  29.479  29.457  1.00  0.00     0.006 A 
ENDBRANCH  53  67
BRANCH  54  75
ATOM     75  C   UNL A   1      48.973  26.509  27.580  1.00  0.00     0.057 A 
ATOM     76  C   UNL A   1      49.538  26.737  26.320  1.00  0.00     0.134 A 
ATOM     77  C   UNL A   1      49.801  25.965  28.570  1.00  0.00     0.134 A 
ATOM     78  F   UNL A   1      48.790  27.240  25.327  1.00  0.00    -0.206 F 
ATOM     79  C   UNL A   1      50.870  26.421  26.049  1.00  0.00     0.040 A 
ATOM     80  C   UNL A   1      51.142  25.669  28.320  1.00  0.00     0.040 A 
ATOM     81  F   UNL A   1      49.322  25.730  29.800  1.00  0.00    -0.206 F 
ATOM     82  C   UNL A   1      51.678  25.892  27.052  1.00  0.00     0.006 A 
ENDBRANCH  54  75
BRANCH  66  83
ATOM     83  C   UNL A   1      45.727  32.297  29.709  1.00  0.00     0.057 A 
ATOM     84  C   UNL A   1      45.809  33.335  28.771  1.00  0.00     0.134 A 
ATOM     85  C   UNL A   1      46.091  32.590  31.029  1.00  0.00     0.134 A 
ATOM     86  F   UNL A   1      45.488  33.118  27.486  1.00  0.00    -0.206 F 
ATOM     87  C   UNL A   1      46.259  34.608  29.128  1.00  0.00     0.040 A 
ATOM     88  C   UNL A   1      46.513  33.866  31.406  1.00  0.00     0.040 A 
ATOM     89  F   UNL A   1      46.028  31.645  31.979  1.00  0.00    -0.206 F 
ATOM     90  C   UNL A   1      46.604  34.878  30.452  1.00  0.00     0.006 A 
ENDBRANCH  66  83
ENDBRANCH  40  41
ENDBRANCH  32  35
ENDBRANCH  30  31
ENDBRANCH  29  30
ENDBRANCH  28  29
ENDBRANCH   1  28
TORSDOF 15
ENDMDL
MODEL 3
REMARK VINA RESULT:     -12.2      5.224     10.120
REMARK SMILES CN(c1ccc(C(=O)NCCCCCCNC(=O)c2ccc(-c3c4nc(c(-c5c(F)cccc5F)c5ccc([nH]5)c(-c5c(F)cccc5F)c5nc(c(-c6c(F)cccc6F)c6ccc3[nH]6)C=C5)C=C4)cc2)c(F)c1F)[C@H]1C[C@H]2CC[C@@H](C1)[NH2+]2
REMARK SMILES IDX 12 1 11 2 10 3 9 4 7 5 8 6 6 8 3 9 4 10 75 11 5 12 73 13
REMARK SMILES IDX 76 14 74 15 2 16 1 17 77 18 78 19 83 20 79 21 82 22 80 23
REMARK SMILES IDX 84 24 81 25 13 28 14 29 15 30 16 31 17 32 18 34 19 35 20 36
REMARK SMILES IDX 72 37 21 38 71 39 22 40 23 41 24 42 65 43 25 44 70 45 64 46
REMARK SMILES IDX 66 47 26 48 69 49 63 50 62 51 27 53 53 54 36 55 52 56 37 57
REMARK SMILES IDX 40 58 51 59 67 60 38 61 39 62 50 64 68 65 41 66 28 67 29 68
REMARK SMILES IDX 34 69 30 70 31 71 33 72 35 73 32 74 54 75 55 76 60 77 56 78
REMARK SMILES IDX 57 79 59 80 61 81 58 82 42 83 43 84 48 85 44 86 45 87 47 88
REMARK SMILES IDX 49 89 46 90
REMARK H PARENT 9 7 84 26 84 27 16 33 66 52 40 63
REMARK Flexibility Score: inf
ROOT
ATOM      1  C   UNL A   1      36.540  22.157  25.650  1.00  0.00     0.002 C 
ENDROOT
BRANCH   1   2
ATOM      2  C   UNL A   1      35.095  22.484  26.028  1.00  0.00     0.021 C 
BRANCH   2   3
ATOM      3  C   UNL A   1      34.402  21.489  26.954  1.00  0.00     0.116 C 
BRANCH   3   4
ATOM      4  N   UNL A   1      33.663  20.445  26.266  1.00  0.00    -0.352 N 
ATOM      5  C   UNL A   1      32.642  20.537  25.349  1.00  0.00     0.254 C 
ATOM      6  O   UNL A   1      32.172  19.499  24.885  1.00  0.00    -0.269 OA
ATOM      7  H   UNL A   1      33.935  19.526  26.493  1.00  0.00     0.163 HD
BRANCH   5   8
ATOM      8  C   UNL A   1      32.013  21.828  24.982  1.00  0.00     0.078 A 
ATOM      9  C   UNL A   1      31.128  24.500  24.585  1.00  0.00     0.076 A 
ATOM     10  C   UNL A   1      30.783  23.776  25.743  1.00  0.00     0.030 A 
ATOM     11  C   UNL A   1      31.790  23.781  23.576  1.00  0.00     0.182 A 
ATOM     12  C   UNL A   1      31.239  22.471  25.955  1.00  0.00     0.019 A 
ATOM     13  C   UNL A   1      32.178  22.454  23.756  1.00  0.00     0.173 A 
ATOM     14  F   UNL A   1      32.192  24.383  22.444  1.00  0.00    -0.201 F 
ATOM     15  F   UNL A   1      32.753  21.825  22.720  1.00  0.00    -0.203 F 
BRANCH   9  16
ATOM     16  N   UNL A   1      30.906  25.882  24.542  1.00  0.00    -0.369 N 
ATOM     17  C   UNL A   1      29.620  26.264  23.960  1.00  0.00     0.144 C 
BRANCH  16  18
ATOM     18  C   UNL A   1      31.762  26.835  25.301  1.00  0.00     0.093 C 
ATOM     19  C   UNL A   1      33.266  26.636  25.013  1.00  0.00     0.090 C 
ATOM     20  C   UNL A   1      31.314  28.309  25.232  1.00  0.00     0.090 C 
ATOM     21  C   UNL A   1      33.902  27.725  24.142  1.00  0.00     0.184 C 
ATOM     22  C   UNL A   1      32.163  29.211  24.323  1.00  0.00     0.184 C 
ATOM     23  C   UNL A   1      33.304  27.781  22.742  1.00  0.00     0.071 C 
ATOM     24  N   UNL A   1      33.577  29.052  24.680  1.00  0.00    -0.341 N 
ATOM     25  C   UNL A   1      32.202  28.833  22.846  1.00  0.00     0.071 C 
ATOM     26  H   UNL A   1      34.149  29.775  24.245  1.00  0.00     0.346 HD
ATOM     27  H   UNL A   1      33.751  29.136  25.681  1.00  0.00     0.346 HD
ENDBRANCH  16  18
ENDBRANCH   9  16
ENDBRANCH   5   8
ENDBRANCH   3   4
ENDBRANCH   2   3
ENDBRANCH   1   2
BRANCH   1  28
ATOM     28  C   UNL A   1      36.739  21.049  24.613  1.00  0.00     0.002 C 
BRANCH  28  29
ATOM     29  C   UNL A   1      37.690  19.916  25.004  1.00  0.00     0.021 C 
BRANCH  29  30
ATOM     30  C   UNL A   1      38.946  20.339  25.759  1.00  0.00     0.116 C 
BRANCH  30  31
ATOM     31  N   UNL A   1      39.938  19.280  25.837  1.00  0.00    -0.352 N 
ATOM     32  C   UNL A   1      41.283  19.355  26.100  1.00  0.00     0.251 C 
ATOM     33  H   UNL A   1      39.593  18.372  25.677  1.00  0.00     0.163 HD
ATOM     34  O   UNL A   1      41.993  18.364  25.968  1.00  0.00    -0.269 OA
BRANCH  32  35
ATOM     35  C   UNL A   1      41.886  20.640  26.518  1.00  0.00     0.039 A 
ATOM     36  C   UNL A   1      42.305  21.535  25.531  1.00  0.00     0.014 A 
ATOM     37  C   UNL A   1      42.041  20.960  27.870  1.00  0.00     0.014 A 
ATOM     38  C   UNL A   1      42.814  22.782  25.900  1.00  0.00     0.010 A 
ATOM     39  C   UNL A   1      42.479  22.231  28.234  1.00  0.00     0.010 A 
ATOM     40  C   UNL A   1      42.866  23.156  27.253  1.00  0.00    -0.014 A 
BRANCH  40  41
ATOM     41  C   UNL A   1      43.293  24.522  27.653  1.00  0.00     0.031 A 
ATOM     42  C   UNL A   1      42.276  25.564  28.022  1.00  0.00     0.074 A 
ATOM     43  C   UNL A   1      44.602  24.840  27.619  1.00  0.00     0.049 A 
ATOM     44  N   UNL A   1      42.458  26.819  28.342  1.00  0.00    -0.248 NA
ATOM     45  C   UNL A   1      40.866  25.148  28.002  1.00  0.00     0.031 C 
ATOM     46  C   UNL A   1      45.682  23.931  27.230  1.00  0.00     0.029 A 
ATOM     47  N   UNL A   1      45.246  26.018  27.905  1.00  0.00    -0.354 N 
ATOM     48  C   UNL A   1      41.190  27.345  28.552  1.00  0.00     0.074 A 
ATOM     49  C   UNL A   1      40.244  26.287  28.270  1.00  0.00     0.031 C 
ATOM     50  C   UNL A   1      46.854  24.578  27.322  1.00  0.00     0.029 A 
ATOM     51  C   UNL A   1      46.608  25.956  27.733  1.00  0.00     0.049 A 
ATOM     52  H   UNL A   1      44.777  26.830  28.204  1.00  0.00     0.167 HD
ATOM     53  C   UNL A   1      40.847  28.590  28.962  1.00  0.00     0.037 A 
ATOM     54  C   UNL A   1      47.552  26.906  27.877  1.00  0.00     0.037 A 
ATOM     55  C   UNL A   1      41.794  29.636  29.252  1.00  0.00     0.049 A 
ATOM     56  C   UNL A   1      47.144  28.285  28.311  1.00  0.00     0.074 A 
ATOM     57  C   UNL A   1      41.550  30.908  29.739  1.00  0.00     0.029 A 
ATOM     58  N   UNL A   1      43.165  29.535  29.068  1.00  0.00    -0.354 N 
ATOM     59  N   UNL A   1      45.948  28.746  28.586  1.00  0.00    -0.248 NA
ATOM     60  C   UNL A   1      48.218  29.278  28.458  1.00  0.00     0.031 C 
ATOM     61  C   UNL A   1      42.766  31.597  29.791  1.00  0.00     0.029 A 
ATOM     62  C   UNL A   1      43.777  30.735  29.396  1.00  0.00     0.049 A 
ATOM     63  H   UNL A   1      43.635  28.730  28.752  1.00  0.00     0.167 HD
ATOM     64  C   UNL A   1      46.125  30.071  28.957  1.00  0.00     0.074 A 
ATOM     65  C   UNL A   1      47.548  30.336  28.892  1.00  0.00     0.031 C 
ATOM     66  C   UNL A   1      45.194  30.988  29.318  1.00  0.00     0.037 A 
BRANCH  53  67
ATOM     67  C   UNL A   1      39.382  28.892  29.110  1.00  0.00     0.057 A 
ATOM     68  C   UNL A   1      38.709  28.731  30.329  1.00  0.00     0.134 A 
ATOM     69  C   UNL A   1      38.639  29.378  28.026  1.00  0.00     0.134 A 
ATOM     70  F   UNL A   1      39.357  28.262  31.406  1.00  0.00    -0.206 F 
ATOM     71  C   UNL A   1      37.347  29.010  30.456  1.00  0.00     0.040 A 
ATOM     72  C   UNL A   1      37.284  29.690  28.149  1.00  0.00     0.040 A 
ATOM     73  F   UNL A   1      39.220  29.565  26.830  1.00  0.00    -0.206 F 
ATOM     74  C   UNL A   1      36.632  29.498  29.364  1.00  0.00     0.006 A 
ENDBRANCH  53  67
BRANCH  54  75
ATOM     75  C   UNL A   1      48.976  26.577  27.615  1.00  0.00     0.057 A 
ATOM     76  C   UNL A   1      49.797  26.056  28.622  1.00  0.00     0.134 A 
ATOM     77  C   UNL A   1      49.549  26.764  26.350  1.00  0.00     0.134 A 
ATOM     78  F   UNL A   1      49.311  25.871  29.858  1.00  0.00    -0.206 F 
ATOM     79  C   UNL A   1      51.137  25.749  28.387  1.00  0.00     0.040 A 
ATOM     80  C   UNL A   1      50.880  26.435  26.094  1.00  0.00     0.040 A 
ATOM     81  F   UNL A   1      48.814  27.252  25.340  1.00  0.00    -0.206 F 
ATOM     82  C   UNL A   1      51.681  25.932  27.118  1.00  0.00     0.006 A 
ENDBRANCH  54  75
BRANCH  66  83
ATOM     83  C   UNL A   1      45.685  32.358  29.689  1.00  0.00     0.057 A 
ATOM     84  C   UNL A   1      46.091  32.669  30.993  1.00  0.00     0.134 A 
ATOM     85  C   UNL A   1      45.790  33.366  28.722  1.00  0.00     0.134 A 
ATOM     86  F   UNL A   1      46.004  31.754  31.970  1.00  0.00    -0.206 F 
ATOM     87  C   UNL A   1      46.563  33.941  31.327  1.00  0.00     0.040 A 
ATOM     88  C   UNL A   1      46.288  34.632  29.036  1.00  0.00     0.040 A 
ATOM     89  F   UNL A   1      45.426  33.133  27.452  1.00  0.00    -0.206 F 
ATOM     90  C   UNL A   1      46.670  34.924  30.344  1.00  0.00     0.006 A 
ENDBRANCH  66  83
ENDBRANCH  40  41
ENDBRANCH  32  35
ENDBRANCH  30  31
ENDBRANCH  29  30
ENDBRANCH  28  29
ENDBRANCH   1  28
TORSDOF 15
ENDMDL
