MODEL 1
REMARK VINA RESULT:     -12.8      0.000      0.000
REMARK SMILES O=C1C[C@H](C(=O)NCCCCCCNC(=O)c2ccc(-c3c4nc(c(-c5c(F)cccc5F)c5ccc([nH]5)c(-c5c(F)cccc5F)c5nc(c(-c6c(F)cccc6F)c6ccc3[nH]6)C=C5)C=C4)cc2)c2c(nc(Nc3ccc(Oc4ccccc4)cc3)[nH]c2=O)N1
REMARK SMILES IDX 9 1 8 2 7 3 5 4 6 5 4 7 1 8 2 9 3 10 92 11 72 12 71 14 73 15
REMARK SMILES IDX 90 16 74 17 89 18 91 19 75 21 76 23 77 24 88 25 78 26 87 27
REMARK SMILES IDX 79 28 80 29 81 30 82 31 86 32 83 33 85 34 84 35 10 36 11 37
REMARK SMILES IDX 12 38 13 39 14 40 15 41 16 43 17 44 18 45 70 46 19 47 69 48
REMARK SMILES IDX 20 49 21 50 22 51 63 52 23 53 68 54 62 55 64 56 24 57 67 58
REMARK SMILES IDX 61 59 60 60 25 62 51 63 34 64 50 65 35 66 38 67 49 68 65 69
REMARK SMILES IDX 36 70 37 71 48 73 66 74 39 75 26 76 27 77 32 78 28 79 29 80
REMARK SMILES IDX 31 81 33 82 30 83 52 84 53 85 58 86 54 87 55 88 57 89 59 90
REMARK SMILES IDX 56 91 40 92 41 93 46 94 42 95 43 96 45 97 47 98 44 99
REMARK H PARENT 7 6 92 13 89 20 75 22 14 42 64 61 38 72
REMARK Flexibility Score: inf
ROOT
ATOM      1  C   UNL A   1      31.443  28.552  27.214  1.00  0.00     0.021 C 
ENDROOT
BRANCH   1   2
ATOM      2  C   UNL A   1      31.824  27.306  26.420  1.00  0.00     0.116 C 
BRANCH   2   3
ATOM      3  N   UNL A   1      31.048  26.159  26.852  1.00  0.00    -0.356 N 
ATOM      4  C   UNL A   1      30.458  25.156  26.144  1.00  0.00     0.228 C 
ATOM      5  O   UNL A   1      29.706  24.394  26.757  1.00  0.00    -0.274 OA
ATOM      6  H   UNL A   1      30.926  26.093  27.826  1.00  0.00     0.163 HD
BRANCH   4   7
ATOM      7  C   UNL A   1      30.662  25.000  24.637  1.00  0.00     0.127 C 
ATOM      8  O   UNL A   1      30.673  27.612  21.998  1.00  0.00    -0.275 OA
ATOM      9  C   UNL A   1      31.048  26.728  22.766  1.00  0.00     0.226 C 
ATOM     10  C   UNL A   1      30.187  26.269  23.920  1.00  0.00     0.119 C 
ATOM     11  N   UNL A   1      32.285  26.177  22.642  1.00  0.00    -0.310 N 
ATOM     12  C   UNL A   1      32.801  25.167  23.387  1.00  0.00     0.146 A 
ATOM     13  H   UNL A   1      32.867  26.551  21.942  1.00  0.00     0.171 HD
ATOM     14  C   UNL A   1      32.059  24.569  24.321  1.00  0.00     0.073 A 
ATOM     15  N   UNL A   1      34.081  24.849  23.075  1.00  0.00    -0.196 NA
ATOM     16  C   UNL A   1      32.693  23.440  25.024  1.00  0.00     0.258 A 
ATOM     17  C   UNL A   1      34.652  23.864  23.698  1.00  0.00     0.209 A 
ATOM     18  N   UNL A   1      33.980  23.164  24.661  1.00  0.00    -0.292 N 
ATOM     19  O   UNL A   1      32.116  22.778  25.877  1.00  0.00    -0.269 OA
ATOM     20  H   UNL A   1      34.446  22.426  25.115  1.00  0.00     0.173 HD
BRANCH  17  21
ATOM     21  N   UNL A   1      35.928  23.441  23.423  1.00  0.00    -0.326 N 
ATOM     22  H   UNL A   1      36.266  23.530  22.504  1.00  0.00     0.170 HD
BRANCH  21  23
ATOM     23  C   UNL A   1      36.773  22.884  24.399  1.00  0.00     0.041 A 
ATOM     24  C   UNL A   1      37.133  21.535  24.324  1.00  0.00     0.030 A 
ATOM     25  C   UNL A   1      37.392  23.693  25.360  1.00  0.00     0.030 A 
ATOM     26  C   UNL A   1      38.118  21.019  25.172  1.00  0.00     0.049 A 
ATOM     27  C   UNL A   1      38.361  23.176  26.222  1.00  0.00     0.049 A 
ATOM     28  C   UNL A   1      38.743  21.838  26.117  1.00  0.00     0.127 A 
BRANCH  28  29
ATOM     29  O   UNL A   1      39.741  21.234  26.855  1.00  0.00    -0.457 OA
BRANCH  29  30
ATOM     30  C   UNL A   1      40.930  21.906  26.975  1.00  0.00     0.127 A 
ATOM     31  C   UNL A   1      41.771  22.024  25.868  1.00  0.00     0.047 A 
ATOM     32  C   UNL A   1      41.301  22.424  28.214  1.00  0.00     0.047 A 
ATOM     33  C   UNL A   1      42.972  22.725  25.989  1.00  0.00     0.004 A 
ATOM     34  C   UNL A   1      42.509  23.108  28.331  1.00  0.00     0.004 A 
ATOM     35  C   UNL A   1      43.335  23.274  27.219  1.00  0.00     0.000 A 
ENDBRANCH  29  30
ENDBRANCH  28  29
ENDBRANCH  21  23
ENDBRANCH  17  21
ENDBRANCH   4   7
ENDBRANCH   2   3
ENDBRANCH   1   2
BRANCH   1  36
ATOM     36  C   UNL A   1      32.197  29.820  26.800  1.00  0.00     0.002 C 
BRANCH  36  37
ATOM     37  C   UNL A   1      31.374  30.835  25.999  1.00  0.00     0.002 C 
BRANCH  37  38
ATOM     38  C   UNL A   1      31.279  32.228  26.624  1.00  0.00     0.021 C 
BRANCH  38  39
ATOM     39  C   UNL A   1      32.625  32.885  26.907  1.00  0.00     0.116 C 
BRANCH  39  40
ATOM     40  N   UNL A   1      32.479  34.144  27.623  1.00  0.00    -0.352 N 
ATOM     41  C   UNL A   1      33.175  34.590  28.716  1.00  0.00     0.251 C 
ATOM     42  H   UNL A   1      31.788  34.754  27.275  1.00  0.00     0.163 HD
ATOM     43  O   UNL A   1      32.822  35.595  29.324  1.00  0.00    -0.269 OA
BRANCH  41  44
ATOM     44  C   UNL A   1      34.354  33.828  29.169  1.00  0.00     0.039 A 
ATOM     45  C   UNL A   1      35.628  34.321  28.885  1.00  0.00     0.014 A 
ATOM     46  C   UNL A   1      34.188  32.647  29.901  1.00  0.00     0.014 A 
ATOM     47  C   UNL A   1      36.746  33.651  29.381  1.00  0.00     0.010 A 
ATOM     48  C   UNL A   1      35.301  32.015  30.446  1.00  0.00     0.010 A 
ATOM     49  C   UNL A   1      36.588  32.508  30.183  1.00  0.00    -0.014 A 
BRANCH  49  50
ATOM     50  C   UNL A   1      37.771  31.797  30.723  1.00  0.00     0.031 A 
ATOM     51  C   UNL A   1      38.210  32.051  32.135  1.00  0.00     0.074 A 
ATOM     52  C   UNL A   1      38.443  30.929  29.944  1.00  0.00     0.049 A 
ATOM     53  N   UNL A   1      39.193  31.509  32.804  1.00  0.00    -0.248 NA
ATOM     54  C   UNL A   1      37.443  33.053  32.892  1.00  0.00     0.031 C 
ATOM     55  C   UNL A   1      38.101  30.602  28.561  1.00  0.00     0.029 A 
ATOM     56  N   UNL A   1      39.542  30.153  30.211  1.00  0.00    -0.354 N 
ATOM     57  C   UNL A   1      39.149  32.085  34.065  1.00  0.00     0.074 A 
ATOM     58  C   UNL A   1      38.095  33.076  34.044  1.00  0.00     0.031 C 
ATOM     59  C   UNL A   1      38.940  29.651  28.118  1.00  0.00     0.029 A 
ATOM     60  C   UNL A   1      39.907  29.338  29.165  1.00  0.00     0.049 A 
ATOM     61  H   UNL A   1      40.024  30.176  31.069  1.00  0.00     0.167 HD
ATOM     62  C   UNL A   1      39.895  31.791  35.157  1.00  0.00     0.037 A 
ATOM     63  C   UNL A   1      40.908  28.441  29.072  1.00  0.00     0.037 A 
ATOM     64  C   UNL A   1      40.949  30.813  35.172  1.00  0.00     0.049 A 
ATOM     65  C   UNL A   1      41.816  28.244  30.259  1.00  0.00     0.074 A 
ATOM     66  C   UNL A   1      41.750  30.421  36.229  1.00  0.00     0.029 A 
ATOM     67  N   UNL A   1      41.356  30.080  34.066  1.00  0.00    -0.354 N 
ATOM     68  N   UNL A   1      41.724  28.747  31.466  1.00  0.00    -0.248 NA
ATOM     69  C   UNL A   1      42.974  27.359  30.065  1.00  0.00     0.031 C 
ATOM     70  C   UNL A   1      42.671  29.481  35.751  1.00  0.00     0.029 A 
ATOM     71  C   UNL A   1      42.417  29.260  34.407  1.00  0.00     0.049 A 
ATOM     72  H   UNL A   1      40.949  30.137  33.171  1.00  0.00     0.167 HD
ATOM     73  C   UNL A   1      42.770  28.192  32.192  1.00  0.00     0.074 A 
ATOM     74  C   UNL A   1      43.491  27.322  31.285  1.00  0.00     0.031 C 
ATOM     75  C   UNL A   1      43.101  28.377  33.495  1.00  0.00     0.037 A 
BRANCH  62  76
ATOM     76  C   UNL A   1      39.577  32.544  36.415  1.00  0.00     0.057 A 
ATOM     77  C   UNL A   1      40.296  33.690  36.770  1.00  0.00     0.134 A 
ATOM     78  C   UNL A   1      38.539  32.141  37.267  1.00  0.00     0.134 A 
ATOM     79  F   UNL A   1      41.302  34.130  36.000  1.00  0.00    -0.206 F 
ATOM     80  C   UNL A   1      39.987  34.415  37.923  1.00  0.00     0.040 A 
ATOM     81  C   UNL A   1      38.203  32.872  38.406  1.00  0.00     0.040 A 
ATOM     82  F   UNL A   1      37.799  31.060  36.973  1.00  0.00    -0.206 F 
ATOM     83  C   UNL A   1      38.930  34.013  38.738  1.00  0.00     0.006 A 
ENDBRANCH  62  76
BRANCH  63  84
ATOM     84  C   UNL A   1      41.084  27.630  27.836  1.00  0.00     0.057 A 
ATOM     85  C   UNL A   1      41.927  28.036  26.796  1.00  0.00     0.134 A 
ATOM     86  C   UNL A   1      40.414  26.411  27.669  1.00  0.00     0.134 A 
ATOM     87  F   UNL A   1      42.603  29.191  26.887  1.00  0.00    -0.206 F 
ATOM     88  C   UNL A   1      42.083  27.277  25.634  1.00  0.00     0.040 A 
ATOM     89  C   UNL A   1      40.592  25.621  26.532  1.00  0.00     0.040 A 
ATOM     90  F   UNL A   1      39.598  25.954  28.630  1.00  0.00    -0.206 F 
ATOM     91  C   UNL A   1      41.426  26.057  25.505  1.00  0.00     0.006 A 
ENDBRANCH  63  84
BRANCH  75  92
ATOM     92  C   UNL A   1      44.246  27.567  34.030  1.00  0.00     0.057 A 
ATOM     93  C   UNL A   1      44.012  26.328  34.642  1.00  0.00     0.134 A 
ATOM     94  C   UNL A   1      45.570  28.017  33.964  1.00  0.00     0.134 A 
ATOM     95  F   UNL A   1      42.765  25.843  34.745  1.00  0.00    -0.206 F 
ATOM     96  C   UNL A   1      45.055  25.566  35.170  1.00  0.00     0.040 A 
ATOM     97  C   UNL A   1      46.624  27.252  34.466  1.00  0.00     0.040 A 
ATOM     98  F   UNL A   1      45.862  29.188  33.377  1.00  0.00    -0.206 F 
ATOM     99  C   UNL A   1      46.367  26.025  35.075  1.00  0.00     0.006 A 
ENDBRANCH  75  92
ENDBRANCH  49  50
ENDBRANCH  41  44
ENDBRANCH  39  40
ENDBRANCH  38  39
ENDBRANCH  37  38
ENDBRANCH  36  37
ENDBRANCH   1  36
TORSDOF 17
ENDMDL
MODEL 2
REMARK VINA RESULT:     -12.5      3.848     10.216
REMARK SMILES O=C1C[C@H](C(=O)NCCCCCCNC(=O)c2ccc(-c3c4nc(c(-c5c(F)cccc5F)c5ccc([nH]5)c(-c5c(F)cccc5F)c5nc(c(-c6c(F)cccc6F)c6ccc3[nH]6)C=C5)C=C4)cc2)c2c(nc(Nc3ccc(Oc4ccccc4)cc3)[nH]c2=O)N1
REMARK SMILES IDX 9 1 8 2 7 3 5 4 6 5 4 7 1 8 2 9 3 10 92 11 72 12 71 14 73 15
REMARK SMILES IDX 90 16 74 17 89 18 91 19 75 21 76 23 77 24 88 25 78 26 87 27
REMARK SMILES IDX 79 28 80 29 81 30 82 31 86 32 83 33 85 34 84 35 10 36 11 37
REMARK SMILES IDX 12 38 13 39 14 40 15 41 16 43 17 44 18 45 70 46 19 47 69 48
REMARK SMILES IDX 20 49 21 50 22 51 63 52 23 53 68 54 62 55 64 56 24 57 67 58
REMARK SMILES IDX 61 59 60 60 25 62 51 63 34 64 50 65 35 66 38 67 49 68 65 69
REMARK SMILES IDX 36 70 37 71 48 73 66 74 39 75 26 76 27 77 32 78 28 79 29 80
REMARK SMILES IDX 31 81 33 82 30 83 52 84 53 85 58 86 54 87 55 88 57 89 59 90
REMARK SMILES IDX 56 91 40 92 41 93 46 94 42 95 43 96 45 97 47 98 44 99
REMARK H PARENT 7 6 92 13 89 20 75 22 14 42 64 61 38 72
REMARK Flexibility Score: inf
ROOT
ATOM      1  C   UNL A   1      36.727  22.679  23.732  1.00  0.00     0.021 C 
ENDROOT
BRANCH   1   2
ATOM      2  C   UNL A   1      35.264  23.079  23.895  1.00  0.00     0.116 C 
BRANCH   2   3
ATOM      3  N   UNL A   1      34.695  23.491  22.627  1.00  0.00    -0.356 N 
ATOM      4  C   UNL A   1      33.405  23.535  22.194  1.00  0.00     0.228 C 
ATOM      5  O   UNL A   1      33.214  23.767  20.997  1.00  0.00    -0.274 OA
ATOM      6  H   UNL A   1      35.356  23.792  21.963  1.00  0.00     0.163 HD
BRANCH   4   7
ATOM      7  C   UNL A   1      32.227  23.253  23.126  1.00  0.00     0.127 C 
ATOM      8  O   UNL A   1      31.773  20.471  25.543  1.00  0.00    -0.275 OA
ATOM      9  C   UNL A   1      31.937  21.597  25.078  1.00  0.00     0.226 C 
ATOM     10  C   UNL A   1      32.302  21.806  23.627  1.00  0.00     0.119 C 
ATOM     11  N   UNL A   1      31.861  22.697  25.875  1.00  0.00    -0.310 N 
ATOM     12  C   UNL A   1      31.970  23.991  25.484  1.00  0.00     0.146 A 
ATOM     13  H   UNL A   1      31.712  22.537  26.835  1.00  0.00     0.171 HD
ATOM     14  C   UNL A   1      32.119  24.296  24.194  1.00  0.00     0.073 A 
ATOM     15  N   UNL A   1      31.900  24.884  26.502  1.00  0.00    -0.196 NA
ATOM     16  C   UNL A   1      32.161  25.734  23.871  1.00  0.00     0.258 A 
ATOM     17  C   UNL A   1      31.949  26.151  26.228  1.00  0.00     0.209 A 
ATOM     18  N   UNL A   1      32.079  26.582  24.937  1.00  0.00    -0.292 N 
ATOM     19  O   UNL A   1      32.256  26.156  22.726  1.00  0.00    -0.269 OA
ATOM     20  H   UNL A   1      32.115  27.551  24.768  1.00  0.00     0.173 HD
BRANCH  17  21
ATOM     21  N   UNL A   1      31.843  27.130  27.184  1.00  0.00    -0.326 N 
ATOM     22  H   UNL A   1      31.319  26.942  27.995  1.00  0.00     0.170 HD
BRANCH  21  23
ATOM     23  C   UNL A   1      32.452  28.390  27.054  1.00  0.00     0.041 A 
ATOM     24  C   UNL A   1      31.664  29.538  26.933  1.00  0.00     0.030 A 
ATOM     25  C   UNL A   1      33.837  28.539  27.204  1.00  0.00     0.030 A 
ATOM     26  C   UNL A   1      32.248  30.807  26.996  1.00  0.00     0.049 A 
ATOM     27  C   UNL A   1      34.427  29.804  27.246  1.00  0.00     0.049 A 
ATOM     28  C   UNL A   1      33.629  30.946  27.162  1.00  0.00     0.127 A 
BRANCH  28  29
ATOM     29  O   UNL A   1      34.083  32.245  27.271  1.00  0.00    -0.457 OA
BRANCH  29  30
ATOM     30  C   UNL A   1      34.937  32.529  28.306  1.00  0.00     0.127 A 
ATOM     31  C   UNL A   1      36.251  32.909  28.032  1.00  0.00     0.047 A 
ATOM     32  C   UNL A   1      34.491  32.393  29.618  1.00  0.00     0.047 A 
ATOM     33  C   UNL A   1      37.112  33.215  29.086  1.00  0.00     0.004 A 
ATOM     34  C   UNL A   1      35.360  32.685  30.666  1.00  0.00     0.004 A 
ATOM     35  C   UNL A   1      36.662  33.112  30.403  1.00  0.00     0.000 A 
ENDBRANCH  29  30
ENDBRANCH  28  29
ENDBRANCH  21  23
ENDBRANCH  17  21
ENDBRANCH   4   7
ENDBRANCH   2   3
ENDBRANCH   1   2
BRANCH   1  36
ATOM     36  C   UNL A   1      37.302  21.889  24.914  1.00  0.00     0.002 C 
BRANCH  36  37
ATOM     37  C   UNL A   1      36.951  20.398  24.932  1.00  0.00     0.002 C 
BRANCH  37  38
ATOM     38  C   UNL A   1      38.151  19.453  25.024  1.00  0.00     0.021 C 
BRANCH  38  39
ATOM     39  C   UNL A   1      39.315  19.989  25.848  1.00  0.00     0.116 C 
BRANCH  39  40
ATOM     40  N   UNL A   1      40.418  19.043  25.917  1.00  0.00    -0.352 N 
ATOM     41  C   UNL A   1      41.754  19.299  26.091  1.00  0.00     0.251 C 
ATOM     42  H   UNL A   1      40.171  18.094  25.827  1.00  0.00     0.163 HD
ATOM     43  O   UNL A   1      42.592  18.414  25.949  1.00  0.00    -0.269 OA
BRANCH  41  44
ATOM     44  C   UNL A   1      42.177  20.670  26.433  1.00  0.00     0.039 A 
ATOM     45  C   UNL A   1      42.436  21.575  25.403  1.00  0.00     0.014 A 
ATOM     46  C   UNL A   1      42.282  21.059  27.773  1.00  0.00     0.014 A 
ATOM     47  C   UNL A   1      42.756  22.895  25.718  1.00  0.00     0.010 A 
ATOM     48  C   UNL A   1      42.542  22.390  28.084  1.00  0.00     0.010 A 
ATOM     49  C   UNL A   1      42.787  23.316  27.059  1.00  0.00    -0.014 A 
BRANCH  49  50
ATOM     50  C   UNL A   1      43.116  24.720  27.401  1.00  0.00     0.031 A 
ATOM     51  C   UNL A   1      44.491  25.250  27.122  1.00  0.00     0.074 A 
ATOM     52  C   UNL A   1      42.180  25.509  27.959  1.00  0.00     0.049 A 
ATOM     53  N   UNL A   1      44.967  26.452  27.314  1.00  0.00    -0.248 NA
ATOM     54  C   UNL A   1      45.461  24.298  26.557  1.00  0.00     0.031 C 
ATOM     55  C   UNL A   1      40.810  25.100  28.268  1.00  0.00     0.029 A 
ATOM     56  N   UNL A   1      42.234  26.823  28.351  1.00  0.00    -0.354 N 
ATOM     57  C   UNL A   1      46.282  26.408  26.874  1.00  0.00     0.074 A 
ATOM     58  C   UNL A   1      46.553  25.042  26.479  1.00  0.00     0.031 C 
ATOM     59  C   UNL A   1      40.137  26.158  28.750  1.00  0.00     0.029 A 
ATOM     60  C   UNL A   1      41.039  27.303  28.831  1.00  0.00     0.049 A 
ATOM     61  H   UNL A   1      43.049  27.370  28.292  1.00  0.00     0.167 HD
ATOM     62  C   UNL A   1      47.175  27.421  26.770  1.00  0.00     0.037 A 
ATOM     63  C   UNL A   1      40.714  28.531  29.280  1.00  0.00     0.037 A 
ATOM     64  C   UNL A   1      46.906  28.775  27.173  1.00  0.00     0.049 A 
ATOM     65  C   UNL A   1      41.776  29.601  29.292  1.00  0.00     0.074 A 
ATOM     66  C   UNL A   1      47.730  29.882  27.090  1.00  0.00     0.029 A 
ATOM     67  N   UNL A   1      45.718  29.201  27.749  1.00  0.00    -0.354 N 
ATOM     68  N   UNL A   1      42.995  29.565  28.812  1.00  0.00    -0.248 NA
ATOM     69  C   UNL A   1      41.416  30.882  29.917  1.00  0.00     0.031 C 
ATOM     70  C   UNL A   1      47.056  30.970  27.657  1.00  0.00     0.029 A 
ATOM     71  C   UNL A   1      45.797  30.549  28.056  1.00  0.00     0.049 A 
ATOM     72  H   UNL A   1      44.934  28.629  27.916  1.00  0.00     0.167 HD
ATOM     73  C   UNL A   1      43.525  30.832  29.019  1.00  0.00     0.074 A 
ATOM     74  C   UNL A   1      42.497  31.611  29.677  1.00  0.00     0.031 C 
ATOM     75  C   UNL A   1      44.749  31.313  28.685  1.00  0.00     0.037 A 
BRANCH  62  76
ATOM     76  C   UNL A   1      48.517  27.082  26.192  1.00  0.00     0.057 A 
ATOM     77  C   UNL A   1      49.560  26.631  27.009  1.00  0.00     0.134 A 
ATOM     78  C   UNL A   1      48.770  27.184  24.818  1.00  0.00     0.134 A 
ATOM     79  F   UNL A   1      49.386  26.511  28.334  1.00  0.00    -0.206 F 
ATOM     80  C   UNL A   1      50.803  26.283  26.476  1.00  0.00     0.040 A 
ATOM     81  C   UNL A   1      49.998  26.814  24.270  1.00  0.00     0.040 A 
ATOM     82  F   UNL A   1      47.805  27.594  23.978  1.00  0.00    -0.206 F 
ATOM     83  C   UNL A   1      51.021  26.363  25.102  1.00  0.00     0.006 A 
ENDBRANCH  62  76
BRANCH  63  84
ATOM     84  C   UNL A   1      39.322  28.835  29.715  1.00  0.00     0.057 A 
ATOM     85  C   UNL A   1      38.336  29.245  28.812  1.00  0.00     0.134 A 
ATOM     86  C   UNL A   1      38.942  28.712  31.058  1.00  0.00     0.134 A 
ATOM     87  F   UNL A   1      38.628  29.382  27.510  1.00  0.00    -0.206 F 
ATOM     88  C   UNL A   1      37.034  29.537  29.224  1.00  0.00     0.040 A 
ATOM     89  C   UNL A   1      37.634  28.960  31.478  1.00  0.00     0.040 A 
ATOM     90  F   UNL A   1      39.832  28.313  31.978  1.00  0.00    -0.206 F 
ATOM     91  C   UNL A   1      36.675  29.381  30.560  1.00  0.00     0.006 A 
ENDBRANCH  63  84
BRANCH  75  92
ATOM     92  C   UNL A   1      45.011  32.765  28.961  1.00  0.00     0.057 A 
ATOM     93  C   UNL A   1      44.704  33.736  27.997  1.00  0.00     0.134 A 
ATOM     94  C   UNL A   1      45.584  33.203  30.160  1.00  0.00     0.134 A 
ATOM     95  F   UNL A   1      44.160  33.382  26.822  1.00  0.00    -0.206 F 
ATOM     96  C   UNL A   1      44.959  35.090  28.217  1.00  0.00     0.040 A 
ATOM     97  C   UNL A   1      45.820  34.557  30.403  1.00  0.00     0.040 A 
ATOM     98  F   UNL A   1      45.886  32.325  31.130  1.00  0.00    -0.206 F 
ATOM     99  C   UNL A   1      45.512  35.504  29.427  1.00  0.00     0.006 A 
ENDBRANCH  75  92
ENDBRANCH  49  50
ENDBRANCH  41  44
ENDBRANCH  39  40
ENDBRANCH  38  39
ENDBRANCH  37  38
ENDBRANCH  36  37
ENDBRANCH   1  36
TORSDOF 17
ENDMDL
MODEL 3
REMARK VINA RESULT:     -12.5      1.095      6.011
REMARK SMILES O=C1C[C@H](C(=O)NCCCCCCNC(=O)c2ccc(-c3c4nc(c(-c5c(F)cccc5F)c5ccc([nH]5)c(-c5c(F)cccc5F)c5nc(c(-c6c(F)cccc6F)c6ccc3[nH]6)C=C5)C=C4)cc2)c2c(nc(Nc3ccc(Oc4ccccc4)cc3)[nH]c2=O)N1
REMARK SMILES IDX 9 1 8 2 7 3 5 4 6 5 4 7 1 8 2 9 3 10 92 11 72 12 71 14 73 15
REMARK SMILES IDX 90 16 74 17 89 18 91 19 75 21 76 23 77 24 88 25 78 26 87 27
REMARK SMILES IDX 79 28 80 29 81 30 82 31 86 32 83 33 85 34 84 35 10 36 11 37
REMARK SMILES IDX 12 38 13 39 14 40 15 41 16 43 17 44 18 45 70 46 19 47 69 48
REMARK SMILES IDX 20 49 21 50 22 51 63 52 23 53 68 54 62 55 64 56 24 57 67 58
REMARK SMILES IDX 61 59 60 60 25 62 51 63 34 64 50 65 35 66 38 67 49 68 65 69
REMARK SMILES IDX 36 70 37 71 48 73 66 74 39 75 26 76 27 77 32 78 28 79 29 80
REMARK SMILES IDX 31 81 33 82 30 83 52 84 53 85 58 86 54 87 55 88 57 89 59 90
REMARK SMILES IDX 56 91 40 92 41 93 46 94 42 95 43 96 45 97 47 98 44 99
REMARK H PARENT 7 6 92 13 89 20 75 22 14 42 64 61 38 72
REMARK Flexibility Score: inf
ROOT
ATOM      1  C   UNL A   1      32.787  28.314  27.168  1.00  0.00     0.021 C 
ENDROOT
BRANCH   1   2
ATOM      2  C   UNL A   1      31.915  27.680  26.088  1.00  0.00     0.116 C 
BRANCH   2   3
ATOM      3  N   UNL A   1      31.116  26.601  26.634  1.00  0.00    -0.356 N 
ATOM      4  C   UNL A   1      30.471  25.566  26.029  1.00  0.00     0.228 C 
ATOM      5  O   UNL A   1      29.714  24.882  26.724  1.00  0.00    -0.274 OA
ATOM      6  H   UNL A   1      31.024  26.619  27.614  1.00  0.00     0.163 HD
BRANCH   4   7
ATOM      7  C   UNL A   1      30.621  25.281  24.535  1.00  0.00     0.127 C 
ATOM      8  O   UNL A   1      30.665  27.670  21.693  1.00  0.00    -0.275 OA
ATOM      9  C   UNL A   1      31.024  26.834  22.519  1.00  0.00     0.226 C 
ATOM     10  C   UNL A   1      30.180  26.508  23.730  1.00  0.00     0.119 C 
ATOM     11  N   UNL A   1      32.232  26.219  22.408  1.00  0.00    -0.310 N 
ATOM     12  C   UNL A   1      32.726  25.249  23.217  1.00  0.00     0.146 A 
ATOM     13  H   UNL A   1      32.808  26.509  21.664  1.00  0.00     0.171 HD
ATOM     14  C   UNL A   1      31.988  24.762  24.216  1.00  0.00     0.073 A 
ATOM     15  N   UNL A   1      33.981  24.848  22.897  1.00  0.00    -0.196 NA
ATOM     16  C   UNL A   1      32.594  23.665  24.992  1.00  0.00     0.258 A 
ATOM     17  C   UNL A   1      34.527  23.892  23.583  1.00  0.00     0.209 A 
ATOM     18  N   UNL A   1      33.855  23.302  24.617  1.00  0.00    -0.292 N 
ATOM     19  O   UNL A   1      32.015  23.100  25.910  1.00  0.00    -0.269 OA
ATOM     20  H   UNL A   1      34.302  22.582  25.116  1.00  0.00     0.173 HD
BRANCH  17  21
ATOM     21  N   UNL A   1      35.774  23.390  23.308  1.00  0.00    -0.326 N 
ATOM     22  H   UNL A   1      36.085  23.384  22.375  1.00  0.00     0.170 HD
BRANCH  21  23
ATOM     23  C   UNL A   1      36.627  22.882  24.303  1.00  0.00     0.041 A 
ATOM     24  C   UNL A   1      37.048  21.549  24.250  1.00  0.00     0.030 A 
ATOM     25  C   UNL A   1      37.194  23.728  25.265  1.00  0.00     0.030 A 
ATOM     26  C   UNL A   1      38.041  21.087  25.119  1.00  0.00     0.049 A 
ATOM     27  C   UNL A   1      38.171  23.263  26.148  1.00  0.00     0.049 A 
ATOM     28  C   UNL A   1      38.613  21.942  26.064  1.00  0.00     0.127 A 
BRANCH  28  29
ATOM     29  O   UNL A   1      39.625  21.391  26.825  1.00  0.00    -0.457 OA
BRANCH  29  30
ATOM     30  C   UNL A   1      40.775  22.124  26.970  1.00  0.00     0.127 A 
ATOM     31  C   UNL A   1      41.547  22.426  25.847  1.00  0.00     0.047 A 
ATOM     32  C   UNL A   1      41.178  22.520  28.242  1.00  0.00     0.047 A 
ATOM     33  C   UNL A   1      42.707  23.187  25.995  1.00  0.00     0.004 A 
ATOM     34  C   UNL A   1      42.346  23.266  28.384  1.00  0.00     0.004 A 
ATOM     35  C   UNL A   1      43.100  23.615  27.263  1.00  0.00     0.000 A 
ENDBRANCH  29  30
ENDBRANCH  28  29
ENDBRANCH  21  23
ENDBRANCH  17  21
ENDBRANCH   4   7
ENDBRANCH   2   3
ENDBRANCH   1   2
BRANCH   1  36
ATOM     36  C   UNL A   1      32.809  29.847  27.143  1.00  0.00     0.002 C 
BRANCH  36  37
ATOM     37  C   UNL A   1      31.648  30.503  26.388  1.00  0.00     0.002 C 
BRANCH  37  38
ATOM     38  C   UNL A   1      31.503  32.010  26.608  1.00  0.00     0.021 C 
BRANCH  38  39
ATOM     39  C   UNL A   1      32.686  32.661  27.314  1.00  0.00     0.116 C 
BRANCH  39  40
ATOM     40  N   UNL A   1      32.444  34.066  27.604  1.00  0.00    -0.352 N 
ATOM     41  C   UNL A   1      33.018  34.850  28.571  1.00  0.00     0.251 C 
ATOM     42  H   UNL A   1      31.781  34.512  27.028  1.00  0.00     0.163 HD
ATOM     43  O   UNL A   1      32.586  35.972  28.816  1.00  0.00    -0.269 OA
BRANCH  41  44
ATOM     44  C   UNL A   1      34.160  34.314  29.337  1.00  0.00     0.039 A 
ATOM     45  C   UNL A   1      33.913  33.617  30.520  1.00  0.00     0.014 A 
ATOM     46  C   UNL A   1      35.465  34.479  28.860  1.00  0.00     0.014 A 
ATOM     47  C   UNL A   1      34.980  33.037  31.205  1.00  0.00     0.010 A 
ATOM     48  C   UNL A   1      36.519  33.848  29.512  1.00  0.00     0.010 A 
ATOM     49  C   UNL A   1      36.285  33.129  30.693  1.00  0.00    -0.014 A 
BRANCH  49  50
ATOM     50  C   UNL A   1      37.422  32.505  31.411  1.00  0.00     0.031 A 
ATOM     51  C   UNL A   1      38.123  31.324  30.807  1.00  0.00     0.074 A 
ATOM     52  C   UNL A   1      37.819  33.001  32.597  1.00  0.00     0.049 A 
ATOM     53  N   UNL A   1      39.154  30.658  31.255  1.00  0.00    -0.248 NA
ATOM     54  C   UNL A   1      37.586  30.821  29.532  1.00  0.00     0.031 C 
ATOM     55  C   UNL A   1      37.214  34.149  33.272  1.00  0.00     0.029 A 
ATOM     56  N   UNL A   1      38.832  32.615  33.435  1.00  0.00    -0.354 N 
ATOM     57  C   UNL A   1      39.405  29.675  30.309  1.00  0.00     0.074 A 
ATOM     58  C   UNL A   1      38.370  29.780  29.303  1.00  0.00     0.031 C 
ATOM     59  C   UNL A   1      37.904  34.408  34.395  1.00  0.00     0.029 A 
ATOM     60  C   UNL A   1      38.966  33.417  34.544  1.00  0.00     0.049 A 
ATOM     61  H   UNL A   1      39.411  31.838  33.260  1.00  0.00     0.167 HD
ATOM     62  C   UNL A   1      40.427  28.788  30.260  1.00  0.00     0.037 A 
ATOM     63  C   UNL A   1      39.850  33.354  35.559  1.00  0.00     0.037 A 
ATOM     64  C   UNL A   1      41.448  28.679  31.267  1.00  0.00     0.049 A 
ATOM     65  C   UNL A   1      40.885  32.260  35.551  1.00  0.00     0.074 A 
ATOM     66  C   UNL A   1      42.540  27.832  31.304  1.00  0.00     0.029 A 
ATOM     67  N   UNL A   1      41.491  29.442  32.426  1.00  0.00    -0.354 N 
ATOM     68  N   UNL A   1      41.152  31.378  34.619  1.00  0.00    -0.248 NA
ATOM     69  C   UNL A   1      41.737  32.147  36.744  1.00  0.00     0.031 C 
ATOM     70  C   UNL A   1      43.220  28.052  32.507  1.00  0.00     0.029 A 
ATOM     71  C   UNL A   1      42.574  29.063  33.200  1.00  0.00     0.049 A 
ATOM     72  H   UNL A   1      40.846  30.147  32.662  1.00  0.00     0.167 HD
ATOM     73  C   UNL A   1      42.240  30.649  35.082  1.00  0.00     0.074 A 
ATOM     74  C   UNL A   1      42.577  31.187  36.385  1.00  0.00     0.031 C 
ATOM     75  C   UNL A   1      42.909  29.633  34.481  1.00  0.00     0.037 A 
BRANCH  62  76
ATOM     76  C   UNL A   1      40.474  27.877  29.069  1.00  0.00     0.057 A 
ATOM     77  C   UNL A   1      39.718  26.700  29.031  1.00  0.00     0.134 A 
ATOM     78  C   UNL A   1      41.257  28.179  27.946  1.00  0.00     0.134 A 
ATOM     79  F   UNL A   1      38.948  26.351  30.072  1.00  0.00    -0.206 F 
ATOM     80  C   UNL A   1      39.731  25.863  27.914  1.00  0.00     0.040 A 
ATOM     81  C   UNL A   1      41.258  27.364  26.814  1.00  0.00     0.040 A 
ATOM     82  F   UNL A   1      41.992  29.303  27.913  1.00  0.00    -0.206 F 
ATOM     83  C   UNL A   1      40.493  26.200  26.797  1.00  0.00     0.006 A 
ENDBRANCH  62  76
BRANCH  63  84
ATOM     84  C   UNL A   1      39.829  34.375  36.644  1.00  0.00     0.057 A 
ATOM     85  C   UNL A   1      39.109  34.184  37.828  1.00  0.00     0.134 A 
ATOM     86  C   UNL A   1      40.545  35.573  36.523  1.00  0.00     0.134 A 
ATOM     87  F   UNL A   1      38.401  33.060  38.014  1.00  0.00    -0.206 F 
ATOM     88  C   UNL A   1      39.084  35.147  38.839  1.00  0.00     0.040 A 
ATOM     89  C   UNL A   1      40.564  36.526  37.543  1.00  0.00     0.040 A 
ATOM     90  F   UNL A   1      41.267  35.818  35.420  1.00  0.00    -0.206 F 
ATOM     91  C   UNL A   1      39.826  36.317  38.705  1.00  0.00     0.006 A 
ENDBRANCH  63  84
BRANCH  75  92
ATOM     92  C   UNL A   1      44.113  29.091  35.196  1.00  0.00     0.057 A 
ATOM     93  C   UNL A   1      45.384  29.629  34.949  1.00  0.00     0.134 A 
ATOM     94  C   UNL A   1      44.024  28.030  36.103  1.00  0.00     0.134 A 
ATOM     95  F   UNL A   1      45.540  30.642  34.084  1.00  0.00    -0.206 F 
ATOM     96  C   UNL A   1      46.524  29.129  35.581  1.00  0.00     0.040 A 
ATOM     97  C   UNL A   1      45.153  27.538  36.761  1.00  0.00     0.040 A 
ATOM     98  F   UNL A   1      42.834  27.482  36.395  1.00  0.00    -0.206 F 
ATOM     99  C   UNL A   1      46.408  28.084  36.496  1.00  0.00     0.006 A 
ENDBRANCH  75  92
ENDBRANCH  49  50
ENDBRANCH  41  44
ENDBRANCH  39  40
ENDBRANCH  38  39
ENDBRANCH  37  38
ENDBRANCH  36  37
ENDBRANCH   1  36
TORSDOF 17
ENDMDL
