MODEL 1
REMARK VINA RESULT:     -11.5      0.000      0.000
REMARK SMILES O=C(NCCCCCCNC(=O)[C@@H]1Cc2[nH]cnc2CN1C(=O)NCC(F)(F)F)c1ccc(-c2c3nc(c(-c4c(F)cccc4F)c4ccc([nH]4)c(-c4c(F)cccc4F)c4nc(c(-c5c(F)cccc5F)c5ccc2[nH]5)C=C4)C=C3)cc1
REMARK SMILES IDX 7 1 6 2 5 3 4 4 3 5 1 6 2 7 30 9 31 10 83 11 32 12 82 13
REMARK SMILES IDX 33 14 34 15 35 16 76 17 36 18 81 19 75 20 77 21 37 22 80 23
REMARK SMILES IDX 74 24 73 25 38 27 64 28 47 29 63 30 48 31 51 32 62 33 78 34
REMARK SMILES IDX 49 35 50 36 61 38 79 39 52 40 39 41 40 42 45 43 41 44 42 45
REMARK SMILES IDX 44 46 46 47 43 48 65 49 66 50 71 51 67 52 68 53 70 54 72 55
REMARK SMILES IDX 69 56 53 57 54 58 59 59 55 60 56 61 58 62 60 63 57 64 8 65
REMARK SMILES IDX 9 66 10 67 11 68 12 70 13 71 14 72 21 73 15 74 20 75 16 76
REMARK SMILES IDX 19 77 17 78 18 80 22 81 23 82 24 83 25 85 26 86 27 87 28 88
REMARK SMILES IDX 29 89
REMARK H PARENT 3 8 77 26 51 37 10 69 16 79 24 84
REMARK Flexibility Score: inf
ROOT
ATOM      1  C   UNL A   1      40.216  21.796  26.770  1.00  0.00     0.002 C 
ENDROOT
BRANCH   1   2
ATOM      2  C   UNL A   1      41.241  20.718  27.148  1.00  0.00     0.002 C 
BRANCH   2   3
ATOM      3  C   UNL A   1      41.536  19.661  26.073  1.00  0.00     0.021 C 
BRANCH   3   4
ATOM      4  C   UNL A   1      42.864  18.929  26.250  1.00  0.00     0.116 C 
BRANCH   4   5
ATOM      5  N   UNL A   1      43.862  19.290  25.268  1.00  0.00    -0.352 N 
ATOM      6  O   UNL A   1      45.342  20.329  24.016  1.00  0.00    -0.269 OA
ATOM      7  C   UNL A   1      44.489  20.446  24.877  1.00  0.00     0.251 C 
ATOM      8  H   UNL A   1      44.169  18.511  24.751  1.00  0.00     0.163 HD
BRANCH   7   9
ATOM      9  C   UNL A   1      44.146  21.816  25.367  1.00  0.00     0.039 A 
ATOM     10  C   UNL A   1      43.295  22.736  24.757  1.00  0.00     0.014 A 
ATOM     11  C   UNL A   1      44.763  22.182  26.581  1.00  0.00     0.014 A 
ATOM     12  C   UNL A   1      43.147  24.019  25.299  1.00  0.00     0.010 A 
ATOM     13  C   UNL A   1      44.616  23.454  27.126  1.00  0.00     0.010 A 
ATOM     14  C   UNL A   1      43.836  24.393  26.465  1.00  0.00    -0.014 A 
BRANCH  14  15
ATOM     15  C   UNL A   1      43.507  25.665  27.121  1.00  0.00     0.031 A 
ATOM     16  C   UNL A   1      44.481  26.736  26.762  1.00  0.00     0.074 A 
ATOM     17  C   UNL A   1      42.401  25.930  27.855  1.00  0.00     0.049 A 
ATOM     18  N   UNL A   1      45.388  27.242  27.529  1.00  0.00    -0.248 NA
ATOM     19  C   UNL A   1      44.592  27.160  25.355  1.00  0.00     0.031 C 
ATOM     20  C   UNL A   1      41.231  25.077  28.072  1.00  0.00     0.029 A 
ATOM     21  N   UNL A   1      42.057  27.072  28.535  1.00  0.00    -0.354 N 
ATOM     22  C   UNL A   1      46.033  28.216  26.771  1.00  0.00     0.074 A 
ATOM     23  C   UNL A   1      45.637  27.989  25.406  1.00  0.00     0.031 C 
ATOM     24  C   UNL A   1      40.232  25.801  28.636  1.00  0.00     0.029 A 
ATOM     25  C   UNL A   1      40.724  27.131  28.958  1.00  0.00     0.049 A 
ATOM     26  H   UNL A   1      42.700  27.796  28.712  1.00  0.00     0.167 HD
ATOM     27  C   UNL A   1      46.624  29.281  27.378  1.00  0.00     0.037 A 
ATOM     28  C   UNL A   1      40.076  28.192  29.522  1.00  0.00     0.037 A 
ATOM     29  C   UNL A   1      46.802  29.027  28.787  1.00  0.00     0.049 A 
ATOM     30  C   UNL A   1      41.108  29.103  30.066  1.00  0.00     0.074 A 
ATOM     31  C   UNL A   1      47.492  28.099  29.541  1.00  0.00     0.029 A 
ATOM     32  N   UNL A   1      45.872  29.582  29.627  1.00  0.00    -0.354 N 
ATOM     33  N   UNL A   1      41.854  28.818  31.092  1.00  0.00    -0.248 NA
ATOM     34  C   UNL A   1      41.620  30.130  29.176  1.00  0.00     0.031 C 
ATOM     35  C   UNL A   1      46.639  27.816  30.648  1.00  0.00     0.029 A 
ATOM     36  C   UNL A   1      45.524  28.650  30.564  1.00  0.00     0.049 A 
ATOM     37  H   UNL A   1      45.517  30.498  29.567  1.00  0.00     0.167 HD
ATOM     38  C   UNL A   1      43.117  29.245  30.719  1.00  0.00     0.074 A 
ATOM     39  C   UNL A   1      42.898  30.115  29.562  1.00  0.00     0.031 C 
ATOM     40  C   UNL A   1      44.229  28.614  31.196  1.00  0.00     0.037 A 
BRANCH  27  41
ATOM     41  C   UNL A   1      46.618  30.692  26.832  1.00  0.00     0.057 A 
ATOM     42  C   UNL A   1      47.812  31.439  26.870  1.00  0.00     0.134 A 
ATOM     43  C   UNL A   1      45.453  31.447  26.588  1.00  0.00     0.134 A 
ATOM     44  F   UNL A   1      48.991  30.843  27.108  1.00  0.00    -0.206 F 
ATOM     45  C   UNL A   1      47.831  32.836  26.769  1.00  0.00     0.040 A 
ATOM     46  C   UNL A   1      45.468  32.836  26.437  1.00  0.00     0.040 A 
ATOM     47  F   UNL A   1      44.230  30.907  26.589  1.00  0.00    -0.206 F 
ATOM     48  C   UNL A   1      46.654  33.541  26.562  1.00  0.00     0.006 A 
ENDBRANCH  27  41
BRANCH  28  49
ATOM     49  C   UNL A   1      38.668  28.663  29.394  1.00  0.00     0.057 A 
ATOM     50  C   UNL A   1      37.816  28.758  30.512  1.00  0.00     0.134 A 
ATOM     51  C   UNL A   1      38.237  29.346  28.246  1.00  0.00     0.134 A 
ATOM     52  F   UNL A   1      38.153  28.183  31.677  1.00  0.00    -0.206 F 
ATOM     53  C   UNL A   1      36.632  29.512  30.499  1.00  0.00     0.040 A 
ATOM     54  C   UNL A   1      37.056  30.103  28.219  1.00  0.00     0.040 A 
ATOM     55  F   UNL A   1      38.999  29.384  27.145  1.00  0.00    -0.206 F 
ATOM     56  C   UNL A   1      36.257  30.201  29.352  1.00  0.00     0.006 A 
ENDBRANCH  28  49
BRANCH  40  57
ATOM     57  C   UNL A   1      44.061  27.669  32.354  1.00  0.00     0.057 A 
ATOM     58  C   UNL A   1      43.931  26.276  32.248  1.00  0.00     0.134 A 
ATOM     59  C   UNL A   1      44.165  28.197  33.647  1.00  0.00     0.134 A 
ATOM     60  F   UNL A   1      43.916  25.666  31.055  1.00  0.00    -0.206 F 
ATOM     61  C   UNL A   1      43.867  25.455  33.380  1.00  0.00     0.040 A 
ATOM     62  C   UNL A   1      44.140  27.388  34.782  1.00  0.00     0.040 A 
ATOM     63  F   UNL A   1      44.339  29.518  33.824  1.00  0.00    -0.206 F 
ATOM     64  C   UNL A   1      43.979  26.012  34.651  1.00  0.00     0.006 A 
ENDBRANCH  40  57
ENDBRANCH  14  15
ENDBRANCH   7   9
ENDBRANCH   4   5
ENDBRANCH   3   4
ENDBRANCH   2   3
ENDBRANCH   1   2
BRANCH   1  65
ATOM     65  C   UNL A   1      39.013  21.295  25.969  1.00  0.00     0.021 C 
BRANCH  65  66
ATOM     66  C   UNL A   1      37.977  22.384  25.699  1.00  0.00     0.116 C 
BRANCH  66  67
ATOM     67  N   UNL A   1      37.625  22.484  24.302  1.00  0.00    -0.354 N 
ATOM     68  C   UNL A   1      36.637  23.116  23.622  1.00  0.00     0.243 C 
ATOM     69  H   UNL A   1      38.237  21.985  23.715  1.00  0.00     0.163 HD
ATOM     70  O   UNL A   1      36.688  22.969  22.392  1.00  0.00    -0.273 OA
BRANCH  68  71
ATOM     71  C   UNL A   1      35.455  23.933  24.231  1.00  0.00     0.182 C 
ATOM     72  C   UNL A   1      35.434  24.131  25.773  1.00  0.00     0.091 C 
ATOM     73  N   UNL A   1      34.096  23.609  23.707  1.00  0.00    -0.306 N 
ATOM     74  C   UNL A   1      34.531  23.119  26.382  1.00  0.00     0.042 A 
ATOM     75  C   UNL A   1      33.529  22.328  24.185  1.00  0.00     0.180 C 
ATOM     76  N   UNL A   1      34.508  22.671  27.670  1.00  0.00    -0.348 N 
ATOM     77  C   UNL A   1      33.690  22.284  25.674  1.00  0.00     0.081 A 
ATOM     78  C   UNL A   1      33.745  21.532  27.672  1.00  0.00     0.197 A 
ATOM     79  H   UNL A   1      34.952  23.085  28.446  1.00  0.00     0.167 HD
ATOM     80  N   UNL A   1      33.229  21.281  26.488  1.00  0.00    -0.240 NA
BRANCH  73  81
ATOM     81  C   UNL A   1      33.269  24.348  22.920  1.00  0.00     0.318 C 
ATOM     82  O   UNL A   1      33.224  24.188  21.696  1.00  0.00    -0.249 OA
ATOM     83  N   UNL A   1      32.383  25.241  23.380  1.00  0.00    -0.329 N 
ATOM     84  H   UNL A   1      31.863  25.634  22.641  1.00  0.00     0.165 HD
BRANCH  83  85
ATOM     85  C   UNL A   1      31.972  25.802  24.667  1.00  0.00     0.233 C 
BRANCH  85  86
ATOM     86  C   UNL A   1      30.971  24.931  25.432  1.00  0.00     0.405 C 
ATOM     87  F   UNL A   1      29.844  25.633  25.699  1.00  0.00    -0.169 F 
ATOM     88  F   UNL A   1      30.615  23.856  24.693  1.00  0.00    -0.169 F 
ATOM     89  F   UNL A   1      31.466  24.484  26.602  1.00  0.00    -0.169 F 
ENDBRANCH  85  86
ENDBRANCH  83  85
ENDBRANCH  73  81
ENDBRANCH  68  71
ENDBRANCH  66  67
ENDBRANCH  65  66
ENDBRANCH   1  65
TORSDOF 16
ENDMDL
MODEL 2
REMARK VINA RESULT:     -11.2      2.842      4.331
REMARK SMILES O=C(NCCCCCCNC(=O)[C@@H]1Cc2[nH]cnc2CN1C(=O)NCC(F)(F)F)c1ccc(-c2c3nc(c(-c4c(F)cccc4F)c4ccc([nH]4)c(-c4c(F)cccc4F)c4nc(c(-c5c(F)cccc5F)c5ccc2[nH]5)C=C4)C=C3)cc1
REMARK SMILES IDX 7 1 6 2 5 3 4 4 3 5 1 6 2 7 30 9 31 10 83 11 32 12 82 13
REMARK SMILES IDX 33 14 34 15 35 16 76 17 36 18 81 19 75 20 77 21 37 22 80 23
REMARK SMILES IDX 74 24 73 25 38 27 64 28 47 29 63 30 48 31 51 32 62 33 78 34
REMARK SMILES IDX 49 35 50 36 61 38 79 39 52 40 39 41 40 42 45 43 41 44 42 45
REMARK SMILES IDX 44 46 46 47 43 48 65 49 66 50 71 51 67 52 68 53 70 54 72 55
REMARK SMILES IDX 69 56 53 57 54 58 59 59 55 60 56 61 58 62 60 63 57 64 8 65
REMARK SMILES IDX 9 66 10 67 11 68 12 70 13 71 14 72 21 73 15 74 20 75 16 76
REMARK SMILES IDX 19 77 17 78 18 80 22 81 23 82 24 83 25 85 26 86 27 87 28 88
REMARK SMILES IDX 29 89
REMARK H PARENT 3 8 77 26 51 37 10 69 16 79 24 84
REMARK Flexibility Score: inf
ROOT
ATOM      1  C   UNL A   1      34.217  22.660  23.510  1.00  0.00     0.002 C 
ENDROOT
BRANCH   1   2
ATOM      2  C   UNL A   1      35.673  23.139  23.426  1.00  0.00     0.002 C 
BRANCH   2   3
ATOM      3  C   UNL A   1      36.737  22.156  23.934  1.00  0.00     0.021 C 
BRANCH   3   4
ATOM      4  C   UNL A   1      37.390  22.554  25.255  1.00  0.00     0.116 C 
BRANCH   4   5
ATOM      5  N   UNL A   1      38.598  21.818  25.551  1.00  0.00    -0.352 N 
ATOM      6  O   UNL A   1      40.530  21.120  26.338  1.00  0.00    -0.269 OA
ATOM      7  C   UNL A   1      39.731  22.038  26.293  1.00  0.00     0.251 C 
ATOM      8  H   UNL A   1      38.611  20.937  25.111  1.00  0.00     0.163 HD
BRANCH   7   9
ATOM      9  C   UNL A   1      40.080  23.326  26.966  1.00  0.00     0.039 A 
ATOM     10  C   UNL A   1      41.211  23.591  27.736  1.00  0.00     0.014 A 
ATOM     11  C   UNL A   1      39.145  24.365  26.774  1.00  0.00     0.014 A 
ATOM     12  C   UNL A   1      41.348  24.829  28.376  1.00  0.00     0.010 A 
ATOM     13  C   UNL A   1      39.280  25.600  27.404  1.00  0.00     0.010 A 
ATOM     14  C   UNL A   1      40.364  25.823  28.241  1.00  0.00    -0.014 A 
BRANCH  14  15
ATOM     15  C   UNL A   1      40.629  27.175  28.751  1.00  0.00     0.031 A 
ATOM     16  C   UNL A   1      41.820  27.786  28.093  1.00  0.00     0.074 A 
ATOM     17  C   UNL A   1      39.851  27.880  29.605  1.00  0.00     0.049 A 
ATOM     18  N   UNL A   1      42.978  27.985  28.626  1.00  0.00    -0.248 NA
ATOM     19  C   UNL A   1      41.786  28.030  26.640  1.00  0.00     0.031 C 
ATOM     20  C   UNL A   1      38.528  27.532  30.125  1.00  0.00     0.029 A 
ATOM     21  N   UNL A   1      40.063  29.118  30.159  1.00  0.00    -0.354 N 
ATOM     22  C   UNL A   1      43.754  28.596  27.643  1.00  0.00     0.074 A 
ATOM     23  C   UNL A   1      43.040  28.424  26.406  1.00  0.00     0.031 C 
ATOM     24  C   UNL A   1      37.971  28.611  30.730  1.00  0.00     0.029 A 
ATOM     25  C   UNL A   1      38.943  29.692  30.775  1.00  0.00     0.049 A 
ATOM     26  H   UNL A   1      40.937  29.570  30.127  1.00  0.00     0.167 HD
ATOM     27  C   UNL A   1      44.783  29.417  27.990  1.00  0.00     0.037 A 
ATOM     28  C   UNL A   1      38.825  30.955  31.276  1.00  0.00     0.037 A 
ATOM     29  C   UNL A   1      45.139  29.225  29.375  1.00  0.00     0.049 A 
ATOM     30  C   UNL A   1      40.193  31.468  31.513  1.00  0.00     0.074 A 
ATOM     31  C   UNL A   1      45.604  28.171  30.136  1.00  0.00     0.029 A 
ATOM     32  N   UNL A   1      44.644  30.145  30.263  1.00  0.00    -0.354 N 
ATOM     33  N   UNL A   1      40.985  31.012  32.438  1.00  0.00    -0.248 NA
ATOM     34  C   UNL A   1      40.840  32.166  30.415  1.00  0.00     0.031 C 
ATOM     35  C   UNL A   1      44.945  28.305  31.393  1.00  0.00     0.029 A 
ATOM     36  C   UNL A   1      44.191  29.478  31.367  1.00  0.00     0.049 A 
ATOM     37  H   UNL A   1      44.620  31.119  30.128  1.00  0.00     0.167 HD
ATOM     38  C   UNL A   1      42.216  30.920  31.813  1.00  0.00     0.074 A 
ATOM     39  C   UNL A   1      42.084  31.717  30.593  1.00  0.00     0.031 C 
ATOM     40  C   UNL A   1      43.115  29.966  32.195  1.00  0.00     0.037 A 
BRANCH  27  41
ATOM     41  C   UNL A   1      45.153  30.686  27.255  1.00  0.00     0.057 A 
ATOM     42  C   UNL A   1      46.506  30.913  26.934  1.00  0.00     0.134 A 
ATOM     43  C   UNL A   1      44.319  31.817  27.148  1.00  0.00     0.134 A 
ATOM     44  F   UNL A   1      47.408  29.923  27.008  1.00  0.00    -0.206 F 
ATOM     45  C   UNL A   1      47.003  32.186  26.626  1.00  0.00     0.040 A 
ATOM     46  C   UNL A   1      44.797  33.081  26.794  1.00  0.00     0.040 A 
ATOM     47  F   UNL A   1      43.025  31.793  27.482  1.00  0.00    -0.206 F 
ATOM     48  C   UNL A   1      46.149  33.278  26.565  1.00  0.00     0.006 A 
ENDBRANCH  27  41
BRANCH  28  49
ATOM     49  C   UNL A   1      37.669  31.895  31.306  1.00  0.00     0.057 A 
ATOM     50  C   UNL A   1      37.191  32.515  30.134  1.00  0.00     0.134 A 
ATOM     51  C   UNL A   1      36.805  31.942  32.411  1.00  0.00     0.134 A 
ATOM     52  F   UNL A   1      37.914  32.489  29.004  1.00  0.00    -0.206 F 
ATOM     53  C   UNL A   1      35.921  33.109  30.058  1.00  0.00     0.040 A 
ATOM     54  C   UNL A   1      35.534  32.533  32.348  1.00  0.00     0.040 A 
ATOM     55  F   UNL A   1      37.124  31.327  33.557  1.00  0.00    -0.206 F 
ATOM     56  C   UNL A   1      35.081  33.106  31.165  1.00  0.00     0.006 A 
ENDBRANCH  28  49
BRANCH  40  57
ATOM     57  C   UNL A   1      42.867  29.241  33.488  1.00  0.00     0.057 A 
ATOM     58  C   UNL A   1      42.019  28.133  33.643  1.00  0.00     0.134 A 
ATOM     59  C   UNL A   1      43.630  29.613  34.601  1.00  0.00     0.134 A 
ATOM     60  F   UNL A   1      41.318  27.641  32.614  1.00  0.00    -0.206 F 
ATOM     61  C   UNL A   1      41.909  27.457  34.865  1.00  0.00     0.040 A 
ATOM     62  C   UNL A   1      43.558  28.926  35.812  1.00  0.00     0.040 A 
ATOM     63  F   UNL A   1      44.499  30.634  34.513  1.00  0.00    -0.206 F 
ATOM     64  C   UNL A   1      42.686  27.850  35.951  1.00  0.00     0.006 A 
ENDBRANCH  40  57
ENDBRANCH  14  15
ENDBRANCH   7   9
ENDBRANCH   4   5
ENDBRANCH   3   4
ENDBRANCH   2   3
ENDBRANCH   1   2
BRANCH   1  65
ATOM     65  C   UNL A   1      33.308  23.143  22.377  1.00  0.00     0.021 C 
BRANCH  65  66
ATOM     66  C   UNL A   1      32.479  24.368  22.755  1.00  0.00     0.116 C 
BRANCH  66  67
ATOM     67  N   UNL A   1      33.032  25.597  22.234  1.00  0.00    -0.354 N 
ATOM     68  C   UNL A   1      33.588  26.695  22.802  1.00  0.00     0.243 C 
ATOM     69  H   UNL A   1      32.999  25.647  21.252  1.00  0.00     0.163 HD
ATOM     70  O   UNL A   1      33.968  27.553  21.992  1.00  0.00    -0.273 OA
BRANCH  68  71
ATOM     71  C   UNL A   1      33.734  26.988  24.328  1.00  0.00     0.182 C 
ATOM     72  C   UNL A   1      34.027  25.786  25.269  1.00  0.00     0.091 C 
ATOM     73  N   UNL A   1      32.716  27.905  24.920  1.00  0.00    -0.306 N 
ATOM     74  C   UNL A   1      32.753  25.323  25.880  1.00  0.00     0.042 A 
ATOM     75  C   UNL A   1      31.373  27.311  25.106  1.00  0.00     0.180 C 
ATOM     76  N   UNL A   1      32.471  24.108  26.432  1.00  0.00    -0.348 N 
ATOM     77  C   UNL A   1      31.547  25.989  25.789  1.00  0.00     0.081 A 
ATOM     78  C   UNL A   1      31.107  24.045  26.557  1.00  0.00     0.197 A 
ATOM     79  H   UNL A   1      33.120  23.414  26.691  1.00  0.00     0.167 HD
ATOM     80  N   UNL A   1      30.525  25.167  26.190  1.00  0.00    -0.240 NA
BRANCH  73  81
ATOM     81  C   UNL A   1      32.854  29.174  25.384  1.00  0.00     0.318 C 
ATOM     82  O   UNL A   1      32.083  30.077  25.045  1.00  0.00    -0.249 OA
ATOM     83  N   UNL A   1      33.761  29.554  26.294  1.00  0.00    -0.329 N 
ATOM     84  H   UNL A   1      33.662  30.509  26.514  1.00  0.00     0.165 HD
BRANCH  83  85
ATOM     85  C   UNL A   1      34.860  28.953  27.051  1.00  0.00     0.233 C 
BRANCH  85  86
ATOM     86  C   UNL A   1      35.743  29.970  27.778  1.00  0.00     0.405 C 
ATOM     87  F   UNL A   1      35.527  29.911  29.114  1.00  0.00    -0.169 F 
ATOM     88  F   UNL A   1      37.051  29.701  27.566  1.00  0.00    -0.169 F 
ATOM     89  F   UNL A   1      35.510  31.234  27.377  1.00  0.00    -0.169 F 
ENDBRANCH  85  86
ENDBRANCH  83  85
ENDBRANCH  73  81
ENDBRANCH  68  71
ENDBRANCH  66  67
ENDBRANCH  65  66
ENDBRANCH   1  65
TORSDOF 16
ENDMDL
MODEL 3
REMARK VINA RESULT:     -11.2      2.466      3.503
REMARK SMILES O=C(NCCCCCCNC(=O)[C@@H]1Cc2[nH]cnc2CN1C(=O)NCC(F)(F)F)c1ccc(-c2c3nc(c(-c4c(F)cccc4F)c4ccc([nH]4)c(-c4c(F)cccc4F)c4nc(c(-c5c(F)cccc5F)c5ccc2[nH]5)C=C4)C=C3)cc1
REMARK SMILES IDX 7 1 6 2 5 3 4 4 3 5 1 6 2 7 30 9 31 10 83 11 32 12 82 13
REMARK SMILES IDX 33 14 34 15 35 16 76 17 36 18 81 19 75 20 77 21 37 22 80 23
REMARK SMILES IDX 74 24 73 25 38 27 64 28 47 29 63 30 48 31 51 32 62 33 78 34
REMARK SMILES IDX 49 35 50 36 61 38 79 39 52 40 39 41 40 42 45 43 41 44 42 45
REMARK SMILES IDX 44 46 46 47 43 48 65 49 66 50 71 51 67 52 68 53 70 54 72 55
REMARK SMILES IDX 69 56 53 57 54 58 59 59 55 60 56 61 58 62 60 63 57 64 8 65
REMARK SMILES IDX 9 66 10 67 11 68 12 70 13 71 14 72 21 73 15 74 20 75 16 76
REMARK SMILES IDX 19 77 17 78 18 80 22 81 23 82 24 83 25 85 26 86 27 87 28 88
REMARK SMILES IDX 29 89
REMARK H PARENT 3 8 77 26 51 37 10 69 16 79 24 84
REMARK Flexibility Score: inf
ROOT
ATOM      1  C   UNL A   1      37.356  23.719  25.607  1.00  0.00     0.002 C 
ENDROOT
BRANCH   1   2
ATOM      2  C   UNL A   1      38.541  23.189  26.426  1.00  0.00     0.002 C 
BRANCH   2   3
ATOM      3  C   UNL A   1      39.097  21.822  26.002  1.00  0.00     0.021 C 
BRANCH   3   4
ATOM      4  C   UNL A   1      40.505  21.523  26.510  1.00  0.00     0.116 C 
BRANCH   4   5
ATOM      5  N   UNL A   1      41.552  22.025  25.649  1.00  0.00    -0.352 N 
ATOM      6  O   UNL A   1      43.168  23.188  24.713  1.00  0.00    -0.269 OA
ATOM      7  C   UNL A   1      42.327  23.156  25.594  1.00  0.00     0.251 C 
ATOM      8  H   UNL A   1      41.762  21.399  24.919  1.00  0.00     0.163 HD
BRANCH   7   9
ATOM      9  C   UNL A   1      42.159  24.356  26.470  1.00  0.00     0.039 A 
ATOM     10  C   UNL A   1      42.720  24.560  27.729  1.00  0.00     0.014 A 
ATOM     11  C   UNL A   1      41.343  25.372  25.930  1.00  0.00     0.014 A 
ATOM     12  C   UNL A   1      42.392  25.706  28.464  1.00  0.00     0.010 A 
ATOM     13  C   UNL A   1      41.018  26.515  26.655  1.00  0.00     0.010 A 
ATOM     14  C   UNL A   1      41.510  26.668  27.944  1.00  0.00    -0.014 A 
BRANCH  14  15
ATOM     15  C   UNL A   1      41.344  27.949  28.643  1.00  0.00     0.031 A 
ATOM     16  C   UNL A   1      42.428  28.911  28.291  1.00  0.00     0.074 A 
ATOM     17  C   UNL A   1      40.293  28.316  29.413  1.00  0.00     0.049 A 
ATOM     18  N   UNL A   1      43.404  29.285  29.049  1.00  0.00    -0.248 NA
ATOM     19  C   UNL A   1      42.556  29.363  26.895  1.00  0.00     0.031 C 
ATOM     20  C   UNL A   1      39.037  27.597  29.635  1.00  0.00     0.029 A 
ATOM     21  N   UNL A   1      40.098  29.468  30.133  1.00  0.00    -0.354 N 
ATOM     22  C   UNL A   1      44.140  30.202  28.303  1.00  0.00     0.074 A 
ATOM     23  C   UNL A   1      43.691  30.065  26.943  1.00  0.00     0.031 C 
ATOM     24  C   UNL A   1      38.140  28.414  30.244  1.00  0.00     0.029 A 
ATOM     25  C   UNL A   1      38.790  29.668  30.591  1.00  0.00     0.049 A 
ATOM     26  H   UNL A   1      40.824  30.108  30.315  1.00  0.00     0.167 HD
ATOM     27  C   UNL A   1      44.863  31.173  28.925  1.00  0.00     0.037 A 
ATOM     28  C   UNL A   1      38.282  30.777  31.201  1.00  0.00     0.037 A 
ATOM     29  C   UNL A   1      45.041  30.855  30.321  1.00  0.00     0.049 A 
ATOM     30  C   UNL A   1      39.423  31.547  31.745  1.00  0.00     0.074 A 
ATOM     31  C   UNL A   1      45.636  29.831  31.031  1.00  0.00     0.029 A 
ATOM     32  N   UNL A   1      44.200  31.488  31.200  1.00  0.00    -0.354 N 
ATOM     33  N   UNL A   1      40.154  31.146  32.743  1.00  0.00    -0.248 NA
ATOM     34  C   UNL A   1      40.032  32.535  30.872  1.00  0.00     0.031 C 
ATOM     35  C   UNL A   1      44.780  29.614  32.151  1.00  0.00     0.029 A 
ATOM     36  C   UNL A   1      43.767  30.573  32.118  1.00  0.00     0.049 A 
ATOM     37  H   UNL A   1      43.952  32.440  31.174  1.00  0.00     0.167 HD
ATOM     38  C   UNL A   1      41.449  31.437  32.351  1.00  0.00     0.074 A 
ATOM     39  C   UNL A   1      41.307  32.361  31.225  1.00  0.00     0.031 C 
ATOM     40  C   UNL A   1      42.490  30.667  32.782  1.00  0.00     0.037 A 
BRANCH  27  41
ATOM     41  C   UNL A   1      45.009  32.591  28.420  1.00  0.00     0.057 A 
ATOM     42  C   UNL A   1      43.855  33.389  28.296  1.00  0.00     0.134 A 
ATOM     43  C   UNL A   1      46.148  33.085  27.753  1.00  0.00     0.134 A 
ATOM     44  F   UNL A   1      42.699  33.024  28.871  1.00  0.00    -0.206 F 
ATOM     45  C   UNL A   1      43.815  34.535  27.491  1.00  0.00     0.040 A 
ATOM     46  C   UNL A   1      46.130  34.255  26.987  1.00  0.00     0.040 A 
ATOM     47  F   UNL A   1      47.306  32.419  27.710  1.00  0.00    -0.206 F 
ATOM     48  C   UNL A   1      44.953  34.967  26.825  1.00  0.00     0.006 A 
ENDBRANCH  27  41
BRANCH  28  49
ATOM     49  C   UNL A   1      36.935  31.411  31.122  1.00  0.00     0.057 A 
ATOM     50  C   UNL A   1      36.199  31.729  32.281  1.00  0.00     0.134 A 
ATOM     51  C   UNL A   1      36.494  32.023  29.938  1.00  0.00     0.134 A 
ATOM     52  F   UNL A   1      36.561  31.238  33.476  1.00  0.00    -0.206 F 
ATOM     53  C   UNL A   1      35.118  32.626  32.267  1.00  0.00     0.040 A 
ATOM     54  C   UNL A   1      35.415  32.919  29.911  1.00  0.00     0.040 A 
ATOM     55  F   UNL A   1      37.158  31.849  28.788  1.00  0.00    -0.206 F 
ATOM     56  C   UNL A   1      34.733  33.236  31.080  1.00  0.00     0.006 A 
ENDBRANCH  28  49
BRANCH  40  57
ATOM     57  C   UNL A   1      42.239  29.712  33.916  1.00  0.00     0.057 A 
ATOM     58  C   UNL A   1      41.798  28.388  33.775  1.00  0.00     0.134 A 
ATOM     59  C   UNL A   1      42.588  30.128  35.207  1.00  0.00     0.134 A 
ATOM     60  F   UNL A   1      41.528  27.867  32.570  1.00  0.00    -0.206 F 
ATOM     61  C   UNL A   1      41.672  27.533  34.877  1.00  0.00     0.040 A 
ATOM     62  C   UNL A   1      42.503  29.275  36.307  1.00  0.00     0.040 A 
ATOM     63  F   UNL A   1      43.064  31.367  35.411  1.00  0.00    -0.206 F 
ATOM     64  C   UNL A   1      42.032  27.976  36.147  1.00  0.00     0.006 A 
ENDBRANCH  40  57
ENDBRANCH  14  15
ENDBRANCH   7   9
ENDBRANCH   4   5
ENDBRANCH   3   4
ENDBRANCH   2   3
ENDBRANCH   1   2
BRANCH   1  65
ATOM     65  C   UNL A   1      36.823  22.760  24.541  1.00  0.00     0.021 C 
BRANCH  65  66
ATOM     66  C   UNL A   1      35.392  23.076  24.112  1.00  0.00     0.116 C 
BRANCH  66  67
ATOM     67  N   UNL A   1      34.912  24.326  24.655  1.00  0.00    -0.354 N 
ATOM     68  C   UNL A   1      34.034  24.651  25.636  1.00  0.00     0.243 C 
ATOM     69  H   UNL A   1      35.309  25.113  24.218  1.00  0.00     0.163 HD
ATOM     70  O   UNL A   1      33.901  25.870  25.820  1.00  0.00    -0.273 OA
BRANCH  68  71
ATOM     71  C   UNL A   1      33.169  23.666  26.483  1.00  0.00     0.182 C 
ATOM     72  C   UNL A   1      33.832  22.339  26.947  1.00  0.00     0.091 C 
ATOM     73  N   UNL A   1      31.775  23.437  26.000  1.00  0.00    -0.306 N 
ATOM     74  C   UNL A   1      33.449  21.249  26.010  1.00  0.00     0.042 A 
ATOM     75  C   UNL A   1      31.662  22.586  24.794  1.00  0.00     0.180 C 
ATOM     76  N   UNL A   1      34.078  20.058  25.795  1.00  0.00    -0.348 N 
ATOM     77  C   UNL A   1      32.493  21.360  25.020  1.00  0.00     0.081 A 
ATOM     78  C   UNL A   1      33.556  19.548  24.635  1.00  0.00     0.197 A 
ATOM     79  H   UNL A   1      34.770  19.647  26.362  1.00  0.00     0.167 HD
ATOM     80  N   UNL A   1      32.591  20.302  24.153  1.00  0.00    -0.240 NA
BRANCH  73  81
ATOM     81  C   UNL A   1      30.592  23.826  26.544  1.00  0.00     0.318 C 
ATOM     82  O   UNL A   1      30.009  23.139  27.389  1.00  0.00    -0.249 OA
ATOM     83  N   UNL A   1      29.990  24.996  26.292  1.00  0.00    -0.329 N 
ATOM     84  H   UNL A   1      29.163  25.088  26.820  1.00  0.00     0.165 HD
BRANCH  83  85
ATOM     85  C   UNL A   1      30.211  26.174  25.454  1.00  0.00     0.233 C 
BRANCH  85  86
ATOM     86  C   UNL A   1      29.566  26.081  24.068  1.00  0.00     0.405 C 
ATOM     87  F   UNL A   1      28.249  26.390  24.139  1.00  0.00    -0.169 F 
ATOM     88  F   UNL A   1      30.143  26.956  23.215  1.00  0.00    -0.169 F 
ATOM     89  F   UNL A   1      29.673  24.850  23.533  1.00  0.00    -0.169 F 
ENDBRANCH  85  86
ENDBRANCH  83  85
ENDBRANCH  73  81
ENDBRANCH  68  71
ENDBRANCH  66  67
ENDBRANCH  65  66
ENDBRANCH   1  65
TORSDOF 16
ENDMDL
