MODEL 1
REMARK VINA RESULT:     -10.3      0.000      0.000
REMARK SMILES NC(=O)CC[C@H](NC(=O)CC1CC1)C(=O)NCCCCCCNC(=O)c1ccc(-c2c3nc(c(-c4c(F)cccc4F)c4ccc([nH]4)c(-c4c(F)cccc4F)c4nc(c(-c5c(F)cccc5F)c5ccc2[nH]5)C=C4)C=C3)cc1
REMARK SMILES IDX 19 1 18 2 17 3 16 4 14 5 15 6 6 8 5 9 4 10 2 11 1 12 3 15
REMARK SMILES IDX 7 16 8 17 9 19 10 20 11 21 12 22 13 23 20 24 21 25 22 26
REMARK SMILES IDX 23 27 24 28 25 30 26 31 27 32 79 33 28 34 78 35 29 36 30 37
REMARK SMILES IDX 31 38 72 39 32 40 77 41 71 42 73 43 33 44 76 45 70 46 69 47
REMARK SMILES IDX 34 49 60 50 43 51 59 52 44 53 47 54 58 55 74 56 45 57 46 58
REMARK SMILES IDX 57 60 75 61 48 62 35 63 36 64 41 65 37 66 38 67 40 68 42 69
REMARK SMILES IDX 39 70 61 71 62 72 67 73 63 74 64 75 66 76 68 77 65 78 49 79
REMARK SMILES IDX 50 80 55 81 51 82 52 83 54 84 56 85 53 86
REMARK H PARENT 16 7 1 13 1 14 7 18 23 29 73 48 47 59
REMARK Flexibility Score: inf
ROOT
ATOM      1  C   UNL A   1      36.521  21.838  24.202  1.00  0.00     0.002 C 
ENDROOT
BRANCH   1   2
ATOM      2  C   UNL A   1      36.197  22.982  25.177  1.00  0.00     0.021 C 
BRANCH   2   3
ATOM      3  C   UNL A   1      36.257  22.596  26.657  1.00  0.00     0.116 C 
BRANCH   3   4
ATOM      4  N   UNL A   1      35.062  22.929  27.405  1.00  0.00    -0.354 N 
ATOM      5  C   UNL A   1      33.807  22.400  27.332  1.00  0.00     0.242 C 
ATOM      6  O   UNL A   1      33.090  22.539  28.332  1.00  0.00    -0.273 OA
ATOM      7  H   UNL A   1      35.172  23.650  28.066  1.00  0.00     0.163 HD
BRANCH   5   8
ATOM      8  C   UNL A   1      33.269  21.591  26.111  1.00  0.00     0.171 C 
BRANCH   8   9
ATOM      9  C   UNL A   1      32.272  22.403  25.273  1.00  0.00     0.045 C 
BRANCH   9  10
ATOM     10  C   UNL A   1      30.804  22.313  25.721  1.00  0.00     0.102 C 
BRANCH  10  11
ATOM     11  C   UNL A   1      30.368  23.301  26.778  1.00  0.00     0.217 C 
ATOM     12  N   UNL A   1      30.998  24.506  26.763  1.00  0.00    -0.370 N 
ATOM     13  H   UNL A   1      30.762  25.194  27.426  1.00  0.00     0.159 HD
ATOM     14  H   UNL A   1      31.693  24.690  26.090  1.00  0.00     0.159 HD
ATOM     15  O   UNL A   1      29.498  23.059  27.608  1.00  0.00    -0.275 OA
ENDBRANCH  10  11
ENDBRANCH   9  10
ENDBRANCH   8   9
BRANCH   8  16
ATOM     16  N   UNL A   1      32.996  20.178  26.393  1.00  0.00    -0.344 N 
ATOM     17  C   UNL A   1      32.909  19.012  25.711  1.00  0.00     0.220 C 
ATOM     18  H   UNL A   1      32.830  20.037  27.353  1.00  0.00     0.164 HD
ATOM     19  O   UNL A   1      32.439  18.057  26.344  1.00  0.00    -0.275 OA
BRANCH  17  20
ATOM     20  C   UNL A   1      33.339  18.823  24.271  1.00  0.00     0.103 C 
BRANCH  20  21
ATOM     21  C   UNL A   1      34.250  17.657  24.019  1.00  0.00    -0.002 C 
ATOM     22  C   UNL A   1      33.681  16.263  23.918  1.00  0.00     0.004 C 
ATOM     23  C   UNL A   1      34.247  16.932  22.703  1.00  0.00     0.004 C 
ENDBRANCH  20  21
ENDBRANCH  17  20
ENDBRANCH   8  16
ENDBRANCH   5   8
ENDBRANCH   3   4
ENDBRANCH   2   3
ENDBRANCH   1   2
BRANCH   1  24
ATOM     24  C   UNL A   1      36.581  20.423  24.802  1.00  0.00     0.002 C 
BRANCH  24  25
ATOM     25  C   UNL A   1      37.933  19.710  24.736  1.00  0.00     0.021 C 
BRANCH  25  26
ATOM     26  C   UNL A   1      39.012  20.208  25.689  1.00  0.00     0.116 C 
BRANCH  26  27
ATOM     27  N   UNL A   1      40.069  19.231  25.873  1.00  0.00    -0.352 N 
ATOM     28  C   UNL A   1      41.407  19.406  26.130  1.00  0.00     0.251 C 
ATOM     29  H   UNL A   1      39.781  18.292  25.801  1.00  0.00     0.163 HD
ATOM     30  O   UNL A   1      42.167  18.446  26.029  1.00  0.00    -0.269 OA
BRANCH  28  31
ATOM     31  C   UNL A   1      41.956  20.727  26.526  1.00  0.00     0.039 A 
ATOM     32  C   UNL A   1      41.999  21.051  27.888  1.00  0.00     0.014 A 
ATOM     33  C   UNL A   1      42.336  21.685  25.582  1.00  0.00     0.014 A 
ATOM     34  C   UNL A   1      42.441  22.313  28.300  1.00  0.00     0.010 A 
ATOM     35  C   UNL A   1      42.846  22.918  25.996  1.00  0.00     0.010 A 
ATOM     36  C   UNL A   1      42.876  23.257  27.357  1.00  0.00    -0.014 A 
BRANCH  36  37
ATOM     37  C   UNL A   1      43.296  24.621  27.775  1.00  0.00     0.031 A 
ATOM     38  C   UNL A   1      42.257  25.664  28.096  1.00  0.00     0.074 A 
ATOM     39  C   UNL A   1      44.603  24.941  27.838  1.00  0.00     0.049 A 
ATOM     40  N   UNL A   1      42.417  26.920  28.436  1.00  0.00    -0.248 NA
ATOM     41  C   UNL A   1      40.849  25.248  28.000  1.00  0.00     0.031 C 
ATOM     42  C   UNL A   1      45.712  24.041  27.519  1.00  0.00     0.029 A 
ATOM     43  N   UNL A   1      45.220  26.117  28.189  1.00  0.00    -0.354 N 
ATOM     44  C   UNL A   1      41.137  27.443  28.570  1.00  0.00     0.074 A 
ATOM     45  C   UNL A   1      40.211  26.386  28.230  1.00  0.00     0.031 C 
ATOM     46  C   UNL A   1      46.873  24.690  27.707  1.00  0.00     0.029 A 
ATOM     47  C   UNL A   1      46.591  26.059  28.133  1.00  0.00     0.049 A 
ATOM     48  H   UNL A   1      44.726  26.926  28.454  1.00  0.00     0.167 HD
ATOM     49  C   UNL A   1      40.763  28.684  28.964  1.00  0.00     0.037 A 
ATOM     50  C   UNL A   1      47.516  27.001  28.395  1.00  0.00     0.037 A 
ATOM     51  C   UNL A   1      41.679  29.728  29.342  1.00  0.00     0.049 A 
ATOM     52  C   UNL A   1      47.078  28.367  28.844  1.00  0.00     0.074 A 
ATOM     53  C   UNL A   1      41.394  30.996  29.816  1.00  0.00     0.029 A 
ATOM     54  N   UNL A   1      43.060  29.619  29.292  1.00  0.00    -0.354 N 
ATOM     55  N   UNL A   1      45.864  28.827  29.026  1.00  0.00    -0.248 NA
ATOM     56  C   UNL A   1      48.139  29.343  29.133  1.00  0.00     0.031 C 
ATOM     57  C   UNL A   1      42.604  31.668  30.024  1.00  0.00     0.029 A 
ATOM     58  C   UNL A   1      43.640  30.804  29.713  1.00  0.00     0.049 A 
ATOM     59  H   UNL A   1      43.554  28.819  29.001  1.00  0.00     0.167 HD
ATOM     60  C   UNL A   1      46.014  30.134  29.473  1.00  0.00     0.074 A 
ATOM     61  C   UNL A   1      47.438  30.390  29.547  1.00  0.00     0.031 C 
ATOM     62  C   UNL A   1      45.059  31.040  29.792  1.00  0.00     0.037 A 
BRANCH  49  63
ATOM     63  C   UNL A   1      39.292  28.978  29.013  1.00  0.00     0.057 A 
ATOM     64  C   UNL A   1      38.592  29.429  27.887  1.00  0.00     0.134 A 
ATOM     65  C   UNL A   1      38.562  28.783  30.192  1.00  0.00     0.134 A 
ATOM     66  F   UNL A   1      39.234  29.647  26.730  1.00  0.00    -0.206 F 
ATOM     67  C   UNL A   1      37.223  29.700  27.938  1.00  0.00     0.040 A 
ATOM     68  C   UNL A   1      37.188  29.026  30.249  1.00  0.00     0.040 A 
ATOM     69  F   UNL A   1      39.169  28.346  31.305  1.00  0.00    -0.206 F 
ATOM     70  C   UNL A   1      36.517  29.493  29.120  1.00  0.00     0.006 A 
ENDBRANCH  49  63
BRANCH  50  71
ATOM     71  C   UNL A   1      48.960  26.678  28.269  1.00  0.00     0.057 A 
ATOM     72  C   UNL A   1      49.694  26.220  29.370  1.00  0.00     0.134 A 
ATOM     73  C   UNL A   1      49.640  26.826  27.056  1.00  0.00     0.134 A 
ATOM     74  F   UNL A   1      49.101  26.079  30.565  1.00  0.00    -0.206 F 
ATOM     75  C   UNL A   1      51.057  25.937  29.273  1.00  0.00     0.040 A 
ATOM     76  C   UNL A   1      50.998  26.525  26.939  1.00  0.00     0.040 A 
ATOM     77  F   UNL A   1      48.991  27.256  25.964  1.00  0.00    -0.206 F 
ATOM     78  C   UNL A   1      51.711  26.085  28.052  1.00  0.00     0.006 A 
ENDBRANCH  50  71
BRANCH  62  79
ATOM     79  C   UNL A   1      45.519  32.381  30.284  1.00  0.00     0.057 A 
ATOM     80  C   UNL A   1      45.676  33.469  29.417  1.00  0.00     0.134 A 
ATOM     81  C   UNL A   1      45.769  32.593  31.645  1.00  0.00     0.134 A 
ATOM     82  F   UNL A   1      45.465  33.326  28.100  1.00  0.00    -0.206 F 
ATOM     83  C   UNL A   1      46.082  34.720  29.886  1.00  0.00     0.040 A 
ATOM     84  C   UNL A   1      46.153  33.844  32.128  1.00  0.00     0.040 A 
ATOM     85  F   UNL A   1      45.629  31.593  32.528  1.00  0.00    -0.206 F 
ATOM     86  C   UNL A   1      46.316  34.911  31.246  1.00  0.00     0.006 A 
ENDBRANCH  62  79
ENDBRANCH  36  37
ENDBRANCH  28  31
ENDBRANCH  26  27
ENDBRANCH  25  26
ENDBRANCH  24  25
ENDBRANCH   1  24
TORSDOF 19
ENDMDL
MODEL 2
REMARK VINA RESULT:     -10.1      5.366      9.403
REMARK SMILES NC(=O)CC[C@H](NC(=O)CC1CC1)C(=O)NCCCCCCNC(=O)c1ccc(-c2c3nc(c(-c4c(F)cccc4F)c4ccc([nH]4)c(-c4c(F)cccc4F)c4nc(c(-c5c(F)cccc5F)c5ccc2[nH]5)C=C4)C=C3)cc1
REMARK SMILES IDX 19 1 18 2 17 3 16 4 14 5 15 6 6 8 5 9 4 10 2 11 1 12 3 15
REMARK SMILES IDX 7 16 8 17 9 19 10 20 11 21 12 22 13 23 20 24 21 25 22 26
REMARK SMILES IDX 23 27 24 28 25 30 26 31 27 32 79 33 28 34 78 35 29 36 30 37
REMARK SMILES IDX 31 38 72 39 32 40 77 41 71 42 73 43 33 44 76 45 70 46 69 47
REMARK SMILES IDX 34 49 60 50 43 51 59 52 44 53 47 54 58 55 74 56 45 57 46 58
REMARK SMILES IDX 57 60 75 61 48 62 35 63 36 64 41 65 37 66 38 67 40 68 42 69
REMARK SMILES IDX 39 70 61 71 62 72 67 73 63 74 64 75 66 76 68 77 65 78 49 79
REMARK SMILES IDX 50 80 55 81 51 82 52 83 54 84 56 85 53 86
REMARK H PARENT 16 7 1 13 1 14 7 18 23 29 73 48 47 59
REMARK Flexibility Score: inf
ROOT
ATOM      1  C   UNL A   1      31.655  29.549  27.050  1.00  0.00     0.002 C 
ENDROOT
BRANCH   1   2
ATOM      2  C   UNL A   1      32.871  28.665  26.728  1.00  0.00     0.021 C 
BRANCH   2   3
ATOM      3  C   UNL A   1      32.573  27.484  25.801  1.00  0.00     0.116 C 
BRANCH   3   4
ATOM      4  N   UNL A   1      31.162  27.245  25.581  1.00  0.00    -0.354 N 
ATOM      5  C   UNL A   1      30.430  27.321  24.433  1.00  0.00     0.242 C 
ATOM      6  O   UNL A   1      29.374  26.675  24.406  1.00  0.00    -0.273 OA
ATOM      7  H   UNL A   1      30.652  26.990  26.384  1.00  0.00     0.163 HD
BRANCH   5   8
ATOM      8  C   UNL A   1      30.878  28.105  23.160  1.00  0.00     0.171 C 
BRANCH   8   9
ATOM      9  C   UNL A   1      30.179  29.465  23.040  1.00  0.00     0.045 C 
BRANCH   9  10
ATOM     10  C   UNL A   1      28.893  29.476  22.197  1.00  0.00     0.102 C 
BRANCH  10  11
ATOM     11  C   UNL A   1      27.593  29.551  22.964  1.00  0.00     0.217 C 
ATOM     12  N   UNL A   1      26.914  28.382  23.101  1.00  0.00    -0.370 N 
ATOM     13  H   UNL A   1      26.060  28.362  23.590  1.00  0.00     0.159 HD
ATOM     14  H   UNL A   1      27.276  27.553  22.710  1.00  0.00     0.159 HD
ATOM     15  O   UNL A   1      27.157  30.590  23.449  1.00  0.00    -0.275 OA
ENDBRANCH  10  11
ENDBRANCH   9  10
ENDBRANCH   8   9
BRANCH   8  16
ATOM     16  N   UNL A   1      31.052  27.272  21.965  1.00  0.00    -0.344 N 
ATOM     17  C   UNL A   1      31.721  26.152  21.605  1.00  0.00     0.220 C 
ATOM     18  H   UNL A   1      30.532  27.629  21.209  1.00  0.00     0.164 HD
ATOM     19  O   UNL A   1      31.742  25.909  20.390  1.00  0.00    -0.275 OA
BRANCH  17  20
ATOM     20  C   UNL A   1      32.419  25.218  22.572  1.00  0.00     0.103 C 
BRANCH  20  21
ATOM     21  C   UNL A   1      31.695  23.935  22.862  1.00  0.00    -0.002 C 
ATOM     22  C   UNL A   1      32.347  22.878  23.719  1.00  0.00     0.004 C 
ATOM     23  C   UNL A   1      31.160  23.632  24.233  1.00  0.00     0.004 C 
ENDBRANCH  20  21
ENDBRANCH  17  20
ENDBRANCH   8  16
ENDBRANCH   5   8
ENDBRANCH   3   4
ENDBRANCH   2   3
ENDBRANCH   1   2
BRANCH   1  24
ATOM     24  C   UNL A   1      31.440  30.776  26.149  1.00  0.00     0.002 C 
BRANCH  24  25
ATOM     25  C   UNL A   1      31.413  32.138  26.844  1.00  0.00     0.021 C 
BRANCH  25  26
ATOM     26  C   UNL A   1      32.756  32.830  27.039  1.00  0.00     0.116 C 
BRANCH  26  27
ATOM     27  N   UNL A   1      32.614  34.124  27.680  1.00  0.00    -0.352 N 
ATOM     28  C   UNL A   1      33.229  34.635  28.797  1.00  0.00     0.251 C 
ATOM     29  H   UNL A   1      31.974  34.732  27.245  1.00  0.00     0.163 HD
ATOM     30  O   UNL A   1      32.797  35.672  29.296  1.00  0.00    -0.269 OA
BRANCH  28  31
ATOM     31  C   UNL A   1      34.400  33.964  29.416  1.00  0.00     0.039 A 
ATOM     32  C   UNL A   1      35.682  34.352  29.010  1.00  0.00     0.014 A 
ATOM     33  C   UNL A   1      34.257  32.901  30.312  1.00  0.00     0.014 A 
ATOM     34  C   UNL A   1      36.811  33.696  29.513  1.00  0.00     0.010 A 
ATOM     35  C   UNL A   1      35.385  32.295  30.870  1.00  0.00     0.010 A 
ATOM     36  C   UNL A   1      36.673  32.665  30.455  1.00  0.00    -0.014 A 
BRANCH  36  37
ATOM     37  C   UNL A   1      37.859  31.921  30.958  1.00  0.00     0.031 A 
ATOM     38  C   UNL A   1      38.433  32.246  32.312  1.00  0.00     0.074 A 
ATOM     39  C   UNL A   1      38.444  30.978  30.195  1.00  0.00     0.049 A 
ATOM     40  N   UNL A   1      39.485  31.745  32.911  1.00  0.00    -0.248 NA
ATOM     41  C   UNL A   1      37.747  33.292  33.088  1.00  0.00     0.031 C 
ATOM     42  C   UNL A   1      38.015  30.589  28.851  1.00  0.00     0.029 A 
ATOM     43  N   UNL A   1      39.532  30.176  30.442  1.00  0.00    -0.354 N 
ATOM     44  C   UNL A   1      39.597  32.427  34.116  1.00  0.00     0.074 A 
ATOM     45  C   UNL A   1      38.537  33.411  34.145  1.00  0.00     0.031 C 
ATOM     46  C   UNL A   1      38.818  29.610  28.400  1.00  0.00     0.029 A 
ATOM     47  C   UNL A   1      39.834  29.323  29.409  1.00  0.00     0.049 A 
ATOM     48  H   UNL A   1      40.048  30.212  31.280  1.00  0.00     0.167 HD
ATOM     49  C   UNL A   1      40.486  32.238  35.121  1.00  0.00     0.037 A 
ATOM     50  C   UNL A   1      40.817  28.411  29.290  1.00  0.00     0.037 A 
ATOM     51  C   UNL A   1      41.518  31.235  35.115  1.00  0.00     0.049 A 
ATOM     52  C   UNL A   1      41.784  28.209  30.423  1.00  0.00     0.074 A 
ATOM     53  C   UNL A   1      42.425  30.925  36.113  1.00  0.00     0.029 A 
ATOM     54  N   UNL A   1      41.775  30.376  34.058  1.00  0.00    -0.354 N 
ATOM     55  N   UNL A   1      41.839  28.820  31.581  1.00  0.00    -0.248 NA
ATOM     56  C   UNL A   1      42.822  27.185  30.235  1.00  0.00     0.031 C 
ATOM     57  C   UNL A   1      43.254  29.898  35.647  1.00  0.00     0.029 A 
ATOM     58  C   UNL A   1      42.837  29.545  34.374  1.00  0.00     0.049 A 
ATOM     59  H   UNL A   1      41.276  30.359  33.209  1.00  0.00     0.167 HD
ATOM     60  C   UNL A   1      42.896  28.239  32.269  1.00  0.00     0.074 A 
ATOM     61  C   UNL A   1      43.448  27.218  31.404  1.00  0.00     0.031 C 
ATOM     62  C   UNL A   1      43.368  28.526  33.507  1.00  0.00     0.037 A 
BRANCH  49  63
ATOM     63  C   UNL A   1      40.375  33.136  36.319  1.00  0.00     0.057 A 
ATOM     64  C   UNL A   1      41.169  34.281  36.458  1.00  0.00     0.134 A 
ATOM     65  C   UNL A   1      39.445  32.867  37.330  1.00  0.00     0.134 A 
ATOM     66  F   UNL A   1      42.087  34.589  35.530  1.00  0.00    -0.206 F 
ATOM     67  C   UNL A   1      41.062  35.113  37.574  1.00  0.00     0.040 A 
ATOM     68  C   UNL A   1      39.310  33.706  38.439  1.00  0.00     0.040 A 
ATOM     69  F   UNL A   1      38.648  31.791  37.256  1.00  0.00    -0.206 F 
ATOM     70  C   UNL A   1      40.125  34.829  38.566  1.00  0.00     0.006 A 
ENDBRANCH  49  63
BRANCH  50  71
ATOM     71  C   UNL A   1      40.923  27.592  28.056  1.00  0.00     0.057 A 
ATOM     72  C   UNL A   1      40.227  26.383  27.932  1.00  0.00     0.134 A 
ATOM     73  C   UNL A   1      41.723  27.990  26.979  1.00  0.00     0.134 A 
ATOM     74  F   UNL A   1      39.461  25.939  28.940  1.00  0.00    -0.206 F 
ATOM     75  C   UNL A   1      40.337  25.590  26.790  1.00  0.00     0.040 A 
ATOM     76  C   UNL A   1      41.824  27.217  25.821  1.00  0.00     0.040 A 
ATOM     77  F   UNL A   1      42.410  29.140  27.035  1.00  0.00    -0.206 F 
ATOM     78  C   UNL A   1      41.134  26.010  25.727  1.00  0.00     0.006 A 
ENDBRANCH  50  71
BRANCH  62  79
ATOM     79  C   UNL A   1      44.517  27.704  34.013  1.00  0.00     0.057 A 
ATOM     80  C   UNL A   1      44.317  26.485  34.670  1.00  0.00     0.134 A 
ATOM     81  C   UNL A   1      45.837  28.120  33.803  1.00  0.00     0.134 A 
ATOM     82  F   UNL A   1      43.075  26.039  34.914  1.00  0.00    -0.206 F 
ATOM     83  C   UNL A   1      45.392  25.714  35.117  1.00  0.00     0.040 A 
ATOM     84  C   UNL A   1      46.920  27.348  34.224  1.00  0.00     0.040 A 
ATOM     85  F   UNL A   1      46.096  29.275  33.172  1.00  0.00    -0.206 F 
ATOM     86  C   UNL A   1      46.698  26.143  34.889  1.00  0.00     0.006 A 
ENDBRANCH  62  79
ENDBRANCH  36  37
ENDBRANCH  28  31
ENDBRANCH  26  27
ENDBRANCH  25  26
ENDBRANCH  24  25
ENDBRANCH   1  24
TORSDOF 19
ENDMDL
MODEL 3
REMARK VINA RESULT:     -10.0      5.866     10.667
REMARK SMILES NC(=O)CC[C@H](NC(=O)CC1CC1)C(=O)NCCCCCCNC(=O)c1ccc(-c2c3nc(c(-c4c(F)cccc4F)c4ccc([nH]4)c(-c4c(F)cccc4F)c4nc(c(-c5c(F)cccc5F)c5ccc2[nH]5)C=C4)C=C3)cc1
REMARK SMILES IDX 19 1 18 2 17 3 16 4 14 5 15 6 6 8 5 9 4 10 2 11 1 12 3 15
REMARK SMILES IDX 7 16 8 17 9 19 10 20 11 21 12 22 13 23 20 24 21 25 22 26
REMARK SMILES IDX 23 27 24 28 25 30 26 31 27 32 79 33 28 34 78 35 29 36 30 37
REMARK SMILES IDX 31 38 72 39 32 40 77 41 71 42 73 43 33 44 76 45 70 46 69 47
REMARK SMILES IDX 34 49 60 50 43 51 59 52 44 53 47 54 58 55 74 56 45 57 46 58
REMARK SMILES IDX 57 60 75 61 48 62 35 63 36 64 41 65 37 66 38 67 40 68 42 69
REMARK SMILES IDX 39 70 61 71 62 72 67 73 63 74 64 75 66 76 68 77 65 78 49 79
REMARK SMILES IDX 50 80 55 81 51 82 52 83 54 84 56 85 53 86
REMARK H PARENT 16 7 1 13 1 14 7 18 23 29 73 48 47 59
REMARK Flexibility Score: inf
ROOT
ATOM      1  C   UNL A   1      32.421  29.936  26.619  1.00  0.00     0.002 C 
ENDROOT
BRANCH   1   2
ATOM      2  C   UNL A   1      31.856  28.921  27.626  1.00  0.00     0.021 C 
BRANCH   2   3
ATOM      3  C   UNL A   1      31.359  27.614  27.004  1.00  0.00     0.116 C 
BRANCH   3   4
ATOM      4  N   UNL A   1      32.397  26.624  26.798  1.00  0.00    -0.354 N 
ATOM      5  C   UNL A   1      32.911  26.122  25.639  1.00  0.00     0.242 C 
ATOM      6  O   UNL A   1      34.044  25.630  25.704  1.00  0.00    -0.273 OA
ATOM      7  H   UNL A   1      32.790  26.256  27.622  1.00  0.00     0.163 HD
BRANCH   5   8
ATOM      8  C   UNL A   1      32.189  26.198  24.257  1.00  0.00     0.171 C 
BRANCH   8   9
ATOM      9  C   UNL A   1      32.343  24.901  23.451  1.00  0.00     0.045 C 
BRANCH   9  10
ATOM     10  C   UNL A   1      31.770  24.937  22.025  1.00  0.00     0.102 C 
BRANCH  10  11
ATOM     11  C   UNL A   1      32.615  25.635  20.985  1.00  0.00     0.217 C 
ATOM     12  N   UNL A   1      32.154  25.578  19.707  1.00  0.00    -0.370 N 
ATOM     13  H   UNL A   1      32.657  26.012  18.981  1.00  0.00     0.159 HD
ATOM     14  H   UNL A   1      31.317  25.099  19.506  1.00  0.00     0.159 HD
ATOM     15  O   UNL A   1      33.653  26.231  21.250  1.00  0.00    -0.275 OA
ENDBRANCH  10  11
ENDBRANCH   9  10
ENDBRANCH   8   9
BRANCH   8  16
ATOM     16  N   UNL A   1      32.314  27.492  23.578  1.00  0.00    -0.344 N 
ATOM     17  C   UNL A   1      31.502  28.480  23.133  1.00  0.00     0.220 C 
ATOM     18  H   UNL A   1      33.258  27.703  23.395  1.00  0.00     0.164 HD
ATOM     19  O   UNL A   1      32.041  29.328  22.409  1.00  0.00    -0.275 OA
BRANCH  17  20
ATOM     20  C   UNL A   1      30.028  28.596  23.461  1.00  0.00     0.103 C 
BRANCH  20  21
ATOM     21  C   UNL A   1      29.294  29.693  22.746  1.00  0.00    -0.002 C 
ATOM     22  C   UNL A   1      27.788  29.752  22.797  1.00  0.00     0.004 C 
ATOM     23  C   UNL A   1      28.603  30.793  23.501  1.00  0.00     0.004 C 
ENDBRANCH  20  21
ENDBRANCH  17  20
ENDBRANCH   8  16
ENDBRANCH   5   8
ENDBRANCH   3   4
ENDBRANCH   2   3
ENDBRANCH   1   2
BRANCH   1  24
ATOM     24  C   UNL A   1      31.405  30.874  25.947  1.00  0.00     0.002 C 
BRANCH  24  25
ATOM     25  C   UNL A   1      31.317  32.297  26.502  1.00  0.00     0.021 C 
BRANCH  25  26
ATOM     26  C   UNL A   1      32.523  32.797  27.286  1.00  0.00     0.116 C 
BRANCH  26  27
ATOM     27  N   UNL A   1      32.407  34.203  27.625  1.00  0.00    -0.352 N 
ATOM     28  C   UNL A   1      33.002  34.928  28.629  1.00  0.00     0.251 C 
ATOM     29  H   UNL A   1      31.805  34.720  27.043  1.00  0.00     0.163 HD
ATOM     30  O   UNL A   1      32.593  36.060  28.873  1.00  0.00    -0.269 OA
BRANCH  28  31
ATOM     31  C   UNL A   1      34.126  34.375  29.426  1.00  0.00     0.039 A 
ATOM     32  C   UNL A   1      35.420  34.450  28.896  1.00  0.00     0.014 A 
ATOM     33  C   UNL A   1      33.918  33.702  30.633  1.00  0.00     0.014 A 
ATOM     34  C   UNL A   1      36.498  33.877  29.580  1.00  0.00     0.010 A 
ATOM     35  C   UNL A   1      35.003  33.194  31.351  1.00  0.00     0.010 A 
ATOM     36  C   UNL A   1      36.300  33.249  30.819  1.00  0.00    -0.014 A 
BRANCH  36  37
ATOM     37  C   UNL A   1      37.425  32.587  31.532  1.00  0.00     0.031 A 
ATOM     38  C   UNL A   1      38.152  31.436  30.888  1.00  0.00     0.074 A 
ATOM     39  C   UNL A   1      37.779  32.992  32.768  1.00  0.00     0.049 A 
ATOM     40  N   UNL A   1      39.128  30.699  31.361  1.00  0.00    -0.248 NA
ATOM     41  C   UNL A   1      37.709  31.043  29.541  1.00  0.00     0.031 C 
ATOM     42  C   UNL A   1      37.138  34.068  33.523  1.00  0.00     0.029 A 
ATOM     43  N   UNL A   1      38.767  32.538  33.608  1.00  0.00    -0.354 N 
ATOM     44  C   UNL A   1      39.395  29.749  30.383  1.00  0.00     0.074 A 
ATOM     45  C   UNL A   1      38.450  29.970  29.310  1.00  0.00     0.031 C 
ATOM     46  C   UNL A   1      37.760  34.205  34.707  1.00  0.00     0.029 A 
ATOM     47  C   UNL A   1      38.824  33.210  34.805  1.00  0.00     0.049 A 
ATOM     48  H   UNL A   1      39.375  31.799  33.375  1.00  0.00     0.167 HD
ATOM     49  C   UNL A   1      40.355  28.794  30.365  1.00  0.00     0.037 A 
ATOM     50  C   UNL A   1      39.643  33.043  35.861  1.00  0.00     0.037 A 
ATOM     51  C   UNL A   1      41.324  28.596  31.411  1.00  0.00     0.049 A 
ATOM     52  C   UNL A   1      40.710  31.985  35.813  1.00  0.00     0.074 A 
ATOM     53  C   UNL A   1      42.375  27.697  31.454  1.00  0.00     0.029 A 
ATOM     54  N   UNL A   1      41.361  29.314  32.596  1.00  0.00    -0.354 N 
ATOM     55  N   UNL A   1      40.989  31.136  34.855  1.00  0.00    -0.248 NA
ATOM     56  C   UNL A   1      41.581  31.869  36.991  1.00  0.00     0.031 C 
ATOM     57  C   UNL A   1      43.030  27.848  32.682  1.00  0.00     0.029 A 
ATOM     58  C   UNL A   1      42.408  28.867  33.384  1.00  0.00     0.049 A 
ATOM     59  H   UNL A   1      40.736  30.034  32.841  1.00  0.00     0.167 HD
ATOM     60  C   UNL A   1      42.081  30.403  35.302  1.00  0.00     0.074 A 
ATOM     61  C   UNL A   1      42.422  30.916  36.612  1.00  0.00     0.031 C 
ATOM     62  C   UNL A   1      42.742  29.395  34.682  1.00  0.00     0.037 A 
BRANCH  49  63
ATOM     63  C   UNL A   1      40.409  27.892  29.167  1.00  0.00     0.057 A 
ATOM     64  C   UNL A   1      39.665  26.707  29.102  1.00  0.00     0.134 A 
ATOM     65  C   UNL A   1      41.194  28.224  28.055  1.00  0.00     0.134 A 
ATOM     66  F   UNL A   1      38.902  26.326  30.137  1.00  0.00    -0.206 F 
ATOM     67  C   UNL A   1      39.718  25.872  27.985  1.00  0.00     0.040 A 
ATOM     68  C   UNL A   1      41.235  27.409  26.922  1.00  0.00     0.040 A 
ATOM     69  F   UNL A   1      41.926  29.348  28.048  1.00  0.00    -0.206 F 
ATOM     70  C   UNL A   1      40.500  26.225  26.888  1.00  0.00     0.006 A 
ENDBRANCH  49  63
BRANCH  50  71
ATOM     71  C   UNL A   1      39.506  33.921  37.050  1.00  0.00     0.057 A 
ATOM     72  C   UNL A   1      40.130  35.174  37.095  1.00  0.00     0.134 A 
ATOM     73  C   UNL A   1      38.761  33.530  38.167  1.00  0.00     0.134 A 
ATOM     74  F   UNL A   1      40.876  35.594  36.063  1.00  0.00    -0.206 F 
ATOM     75  C   UNL A   1      40.032  35.999  38.216  1.00  0.00     0.040 A 
ATOM     76  C   UNL A   1      38.636  34.355  39.287  1.00  0.00     0.040 A 
ATOM     77  F   UNL A   1      38.135  32.344  38.183  1.00  0.00    -0.206 F 
ATOM     78  C   UNL A   1      39.278  35.591  39.315  1.00  0.00     0.006 A 
ENDBRANCH  50  71
BRANCH  62  79
ATOM     79  C   UNL A   1      43.920  28.802  35.397  1.00  0.00     0.057 A 
ATOM     80  C   UNL A   1      43.775  27.748  36.306  1.00  0.00     0.134 A 
ATOM     81  C   UNL A   1      45.216  29.267  35.142  1.00  0.00     0.134 A 
ATOM     82  F   UNL A   1      42.559  27.268  36.604  1.00  0.00    -0.206 F 
ATOM     83  C   UNL A   1      44.880  27.186  36.951  1.00  0.00     0.040 A 
ATOM     84  C   UNL A   1      46.329  28.698  35.762  1.00  0.00     0.040 A 
ATOM     85  F   UNL A   1      45.422  30.269  34.275  1.00  0.00    -0.206 F 
ATOM     86  C   UNL A   1      46.161  27.658  36.674  1.00  0.00     0.006 A 
ENDBRANCH  62  79
ENDBRANCH  36  37
ENDBRANCH  28  31
ENDBRANCH  26  27
ENDBRANCH  25  26
ENDBRANCH  24  25
ENDBRANCH   1  24
TORSDOF 19
ENDMDL
