MODEL 1
REMARK VINA RESULT:     -11.1      0.000      0.000
REMARK SMILES COc1ccc(CC(=O)N[C@H](C)C(=O)NCCCCCCNC(=O)c2ccc(-c3c4nc(c(-c5c(F)cccc5F)c5ccc([nH]5)c(-c5c(F)cccc5F)c5nc(c(-c6c(F)cccc6F)c6ccc3[nH]6)C=C5)C=C4)cc2)cc1F
REMARK SMILES IDX 17 1 16 2 15 3 13 4 14 5 11 7 12 8 10 9 8 10 9 11 7 13 6 14
REMARK SMILES IDX 3 15 4 16 80 17 5 18 79 19 81 20 2 21 1 22 18 23 19 24 20 25
REMARK SMILES IDX 21 26 22 27 23 28 24 30 25 31 26 32 78 33 27 34 77 35 28 36
REMARK SMILES IDX 29 37 30 38 71 39 31 40 76 41 70 42 72 43 32 44 75 45 69 46
REMARK SMILES IDX 68 47 33 49 59 50 42 51 58 52 43 53 46 54 57 55 73 56 44 57
REMARK SMILES IDX 45 58 56 60 74 61 47 62 34 63 35 64 40 65 36 66 37 67 39 68
REMARK SMILES IDX 41 69 38 70 60 71 61 72 66 73 62 74 63 75 65 76 67 77 64 78
REMARK SMILES IDX 48 79 49 80 54 81 50 82 51 83 53 84 55 85 52 86
REMARK H PARENT 15 6 10 12 22 29 72 48 46 59
REMARK Flexibility Score: inf
ROOT
ATOM      1  C   UNL A   1      31.583  28.294  27.483  1.00  0.00     0.021 C 
ENDROOT
BRANCH   1   2
ATOM      2  C   UNL A   1      31.445  27.403  26.252  1.00  0.00     0.116 C 
BRANCH   2   3
ATOM      3  N   UNL A   1      32.633  26.589  26.065  1.00  0.00    -0.354 N 
ATOM      4  C   UNL A   1      33.466  26.511  24.988  1.00  0.00     0.242 C 
ATOM      5  O   UNL A   1      34.335  25.635  24.984  1.00  0.00    -0.273 OA
ATOM      6  H   UNL A   1      32.870  26.010  26.825  1.00  0.00     0.163 HD
BRANCH   4   7
ATOM      7  C   UNL A   1      33.231  27.382  23.743  1.00  0.00     0.168 C 
ATOM      8  C   UNL A   1      34.059  28.662  23.902  1.00  0.00     0.041 C 
BRANCH   7   9
ATOM      9  N   UNL A   1      33.537  26.698  22.484  1.00  0.00    -0.344 N 
ATOM     10  C   UNL A   1      32.772  25.814  21.778  1.00  0.00     0.225 C 
ATOM     11  O   UNL A   1      33.184  25.458  20.671  1.00  0.00    -0.275 OA
ATOM     12  H   UNL A   1      34.417  26.902  22.093  1.00  0.00     0.164 HD
BRANCH  10  13
ATOM     13  C   UNL A   1      31.480  25.249  22.358  1.00  0.00     0.135 C 
BRANCH  13  14
ATOM     14  C   UNL A   1      31.679  23.973  23.147  1.00  0.00    -0.036 A 
ATOM     15  C   UNL A   1      32.224  21.764  24.824  1.00  0.00     0.154 A 
ATOM     16  C   UNL A   1      32.949  21.964  23.647  1.00  0.00     0.050 A 
ATOM     17  C   UNL A   1      31.146  22.605  25.086  1.00  0.00     0.165 A 
ATOM     18  C   UNL A   1      32.689  23.061  22.818  1.00  0.00     0.008 A 
ATOM     19  C   UNL A   1      30.861  23.687  24.249  1.00  0.00     0.047 A 
ATOM     20  F   UNL A   1      30.367  22.430  26.162  1.00  0.00    -0.203 F 
BRANCH  15  21
ATOM     21  O   UNL A   1      32.693  20.748  25.612  1.00  0.00    -0.494 OA
ATOM     22  C   UNL A   1      33.276  19.635  24.945  1.00  0.00     0.278 C 
ENDBRANCH  15  21
ENDBRANCH  13  14
ENDBRANCH  10  13
ENDBRANCH   7   9
ENDBRANCH   4   7
ENDBRANCH   2   3
ENDBRANCH   1   2
BRANCH   1  23
ATOM     23  C   UNL A   1      32.404  29.564  27.239  1.00  0.00     0.002 C 
BRANCH  23  24
ATOM     24  C   UNL A   1      31.796  30.530  26.219  1.00  0.00     0.002 C 
BRANCH  24  25
ATOM     25  C   UNL A   1      31.465  31.923  26.741  1.00  0.00     0.021 C 
BRANCH  25  26
ATOM     26  C   UNL A   1      32.653  32.688  27.300  1.00  0.00     0.116 C 
BRANCH  26  27
ATOM     27  N   UNL A   1      32.340  34.082  27.577  1.00  0.00    -0.352 N 
ATOM     28  C   UNL A   1      32.939  34.929  28.476  1.00  0.00     0.251 C 
ATOM     29  H   UNL A   1      31.603  34.467  27.050  1.00  0.00     0.163 HD
ATOM     30  O   UNL A   1      32.463  36.036  28.709  1.00  0.00    -0.269 OA
BRANCH  28  31
ATOM     31  C   UNL A   1      34.150  34.475  29.188  1.00  0.00     0.039 A 
ATOM     32  C   UNL A   1      34.013  33.858  30.433  1.00  0.00     0.014 A 
ATOM     33  C   UNL A   1      35.409  34.614  28.600  1.00  0.00     0.014 A 
ATOM     34  C   UNL A   1      35.139  33.317  31.057  1.00  0.00     0.010 A 
ATOM     35  C   UNL A   1      36.512  33.998  29.179  1.00  0.00     0.010 A 
ATOM     36  C   UNL A   1      36.389  33.348  30.417  1.00  0.00    -0.014 A 
BRANCH  36  37
ATOM     37  C   UNL A   1      37.587  32.719  31.027  1.00  0.00     0.031 A 
ATOM     38  C   UNL A   1      38.208  31.512  30.381  1.00  0.00     0.074 A 
ATOM     39  C   UNL A   1      38.079  33.198  32.187  1.00  0.00     0.049 A 
ATOM     40  N   UNL A   1      39.201  30.771  30.800  1.00  0.00    -0.248 NA
ATOM     41  C   UNL A   1      37.620  31.058  29.109  1.00  0.00     0.031 C 
ATOM     42  C   UNL A   1      37.539  34.339  32.931  1.00  0.00     0.029 A 
ATOM     43  N   UNL A   1      39.142  32.780  32.949  1.00  0.00    -0.354 N 
ATOM     44  C   UNL A   1      39.347  29.766  29.855  1.00  0.00     0.074 A 
ATOM     45  C   UNL A   1      38.307  29.951  28.869  1.00  0.00     0.031 C 
ATOM     46  C   UNL A   1      38.296  34.550  34.020  1.00  0.00     0.029 A 
ATOM     47  C   UNL A   1      39.343  33.536  34.080  1.00  0.00     0.049 A 
ATOM     48  H   UNL A   1      39.708  32.012  32.708  1.00  0.00     0.167 HD
ATOM     49  C   UNL A   1      40.285  28.792  29.796  1.00  0.00     0.037 A 
ATOM     50  C   UNL A   1      40.266  33.421  35.055  1.00  0.00     0.037 A 
ATOM     51  C   UNL A   1      41.345  28.635  30.757  1.00  0.00     0.049 A 
ATOM     52  C   UNL A   1      41.287  32.320  34.972  1.00  0.00     0.074 A 
ATOM     53  C   UNL A   1      42.374  27.710  30.753  1.00  0.00     0.029 A 
ATOM     54  N   UNL A   1      41.516  29.426  31.882  1.00  0.00    -0.354 N 
ATOM     55  N   UNL A   1      41.442  31.405  34.045  1.00  0.00    -0.248 NA
ATOM     56  C   UNL A   1      42.264  32.233  36.067  1.00  0.00     0.031 C 
ATOM     57  C   UNL A   1      43.143  27.912  31.900  1.00  0.00     0.029 A 
ATOM     58  C   UNL A   1      42.626  28.997  32.590  1.00  0.00     0.049 A 
ATOM     59  H   UNL A   1      40.936  30.178  32.139  1.00  0.00     0.167 HD
ATOM     60  C   UNL A   1      42.547  30.658  34.427  1.00  0.00     0.074 A 
ATOM     61  C   UNL A   1      43.032  31.230  35.665  1.00  0.00     0.031 C 
ATOM     62  C   UNL A   1      43.108  29.591  33.809  1.00  0.00     0.037 A 
BRANCH  49  63
ATOM     63  C   UNL A   1      40.237  27.834  28.645  1.00  0.00     0.057 A 
ATOM     64  C   UNL A   1      39.582  26.601  28.765  1.00  0.00     0.134 A 
ATOM     65  C   UNL A   1      40.922  28.089  27.450  1.00  0.00     0.134 A 
ATOM     66  F   UNL A   1      38.912  26.293  29.886  1.00  0.00    -0.206 F 
ATOM     67  C   UNL A   1      39.629  25.648  27.748  1.00  0.00     0.040 A 
ATOM     68  C   UNL A   1      40.954  27.155  26.415  1.00  0.00     0.040 A 
ATOM     69  F   UNL A   1      41.558  29.256  27.267  1.00  0.00    -0.206 F 
ATOM     70  C   UNL A   1      40.318  25.924  26.567  1.00  0.00     0.006 A 
ENDBRANCH  49  63
BRANCH  50  71
ATOM     71  C   UNL A   1      40.285  34.391  36.180  1.00  0.00     0.057 A 
ATOM     72  C   UNL A   1      41.047  35.565  36.128  1.00  0.00     0.134 A 
ATOM     73  C   UNL A   1      39.532  34.165  37.338  1.00  0.00     0.134 A 
ATOM     74  F   UNL A   1      41.796  35.839  35.049  1.00  0.00    -0.206 F 
ATOM     75  C   UNL A   1      41.066  36.473  37.188  1.00  0.00     0.040 A 
ATOM     76  C   UNL A   1      39.520  35.076  38.396  1.00  0.00     0.040 A 
ATOM     77  F   UNL A   1      38.767  33.067  37.443  1.00  0.00    -0.206 F 
ATOM     78  C   UNL A   1      40.294  36.232  38.324  1.00  0.00     0.006 A 
ENDBRANCH  50  71
BRANCH  62  79
ATOM     79  C   UNL A   1      44.332  28.987  34.429  1.00  0.00     0.057 A 
ATOM     80  C   UNL A   1      44.215  27.991  35.408  1.00  0.00     0.134 A 
ATOM     81  C   UNL A   1      45.618  29.453  34.130  1.00  0.00     0.134 A 
ATOM     82  F   UNL A   1      43.010  27.510  35.750  1.00  0.00    -0.206 F 
ATOM     83  C   UNL A   1      45.331  27.494  36.081  1.00  0.00     0.040 A 
ATOM     84  C   UNL A   1      46.745  28.945  34.777  1.00  0.00     0.040 A 
ATOM     85  F   UNL A   1      45.797  30.399  33.196  1.00  0.00    -0.206 F 
ATOM     86  C   UNL A   1      46.601  27.971  35.765  1.00  0.00     0.006 A 
ENDBRANCH  62  79
ENDBRANCH  36  37
ENDBRANCH  28  31
ENDBRANCH  26  27
ENDBRANCH  25  26
ENDBRANCH  24  25
ENDBRANCH  23  24
ENDBRANCH   1  23
TORSDOF 17
ENDMDL
MODEL 2
REMARK VINA RESULT:     -11.0      1.981      6.889
REMARK SMILES COc1ccc(CC(=O)N[C@H](C)C(=O)NCCCCCCNC(=O)c2ccc(-c3c4nc(c(-c5c(F)cccc5F)c5ccc([nH]5)c(-c5c(F)cccc5F)c5nc(c(-c6c(F)cccc6F)c6ccc3[nH]6)C=C5)C=C4)cc2)cc1F
REMARK SMILES IDX 17 1 16 2 15 3 13 4 14 5 11 7 12 8 10 9 8 10 9 11 7 13 6 14
REMARK SMILES IDX 3 15 4 16 80 17 5 18 79 19 81 20 2 21 1 22 18 23 19 24 20 25
REMARK SMILES IDX 21 26 22 27 23 28 24 30 25 31 26 32 78 33 27 34 77 35 28 36
REMARK SMILES IDX 29 37 30 38 71 39 31 40 76 41 70 42 72 43 32 44 75 45 69 46
REMARK SMILES IDX 68 47 33 49 59 50 42 51 58 52 43 53 46 54 57 55 73 56 44 57
REMARK SMILES IDX 45 58 56 60 74 61 47 62 34 63 35 64 40 65 36 66 37 67 39 68
REMARK SMILES IDX 41 69 38 70 60 71 61 72 66 73 62 74 63 75 65 76 67 77 64 78
REMARK SMILES IDX 48 79 49 80 54 81 50 82 51 83 53 84 55 85 52 86
REMARK H PARENT 15 6 10 12 22 29 72 48 46 59
REMARK Flexibility Score: inf
ROOT
ATOM      1  C   UNL A   1      31.740  28.792  27.177  1.00  0.00     0.021 C 
ENDROOT
BRANCH   1   2
ATOM      2  C   UNL A   1      32.452  27.476  26.881  1.00  0.00     0.116 C 
BRANCH   2   3
ATOM      3  N   UNL A   1      31.543  26.352  27.014  1.00  0.00    -0.354 N 
ATOM      4  C   UNL A   1      31.638  25.096  26.492  1.00  0.00     0.242 C 
ATOM      5  O   UNL A   1      30.670  24.339  26.606  1.00  0.00    -0.273 OA
ATOM      6  H   UNL A   1      30.741  26.522  27.559  1.00  0.00     0.163 HD
BRANCH   4   7
ATOM      7  C   UNL A   1      32.854  24.684  25.645  1.00  0.00     0.168 C 
ATOM      8  C   UNL A   1      33.503  23.467  26.315  1.00  0.00     0.041 C 
BRANCH   7   9
ATOM      9  N   UNL A   1      32.525  24.411  24.243  1.00  0.00    -0.344 N 
ATOM     10  C   UNL A   1      32.543  25.263  23.175  1.00  0.00     0.225 C 
ATOM     11  O   UNL A   1      32.348  24.781  22.056  1.00  0.00    -0.275 OA
ATOM     12  H   UNL A   1      32.254  23.487  24.043  1.00  0.00     0.164 HD
BRANCH  10  13
ATOM     13  C   UNL A   1      32.744  26.762  23.365  1.00  0.00     0.135 C 
BRANCH  13  14
ATOM     14  C   UNL A   1      31.461  27.560  23.280  1.00  0.00    -0.036 A 
ATOM     15  C   UNL A   1      29.018  28.912  22.838  1.00  0.00     0.154 A 
ATOM     16  C   UNL A   1      30.240  29.547  22.600  1.00  0.00     0.050 A 
ATOM     17  C   UNL A   1      29.035  27.645  23.415  1.00  0.00     0.165 A 
ATOM     18  C   UNL A   1      31.451  28.879  22.809  1.00  0.00     0.008 A 
ATOM     19  C   UNL A   1      30.241  26.981  23.653  1.00  0.00     0.047 A 
ATOM     20  F   UNL A   1      27.900  27.005  23.731  1.00  0.00    -0.203 F 
BRANCH  15  21
ATOM     21  O   UNL A   1      27.921  29.625  22.437  1.00  0.00    -0.494 OA
ATOM     22  C   UNL A   1      28.067  30.425  21.269  1.00  0.00     0.278 C 
ENDBRANCH  15  21
ENDBRANCH  13  14
ENDBRANCH  10  13
ENDBRANCH   7   9
ENDBRANCH   4   7
ENDBRANCH   2   3
ENDBRANCH   1   2
BRANCH   1  23
ATOM     23  C   UNL A   1      32.316  29.992  26.419  1.00  0.00     0.002 C 
BRANCH  23  24
ATOM     24  C   UNL A   1      31.271  30.999  25.934  1.00  0.00     0.002 C 
BRANCH  24  25
ATOM     25  C   UNL A   1      31.244  32.333  26.672  1.00  0.00     0.021 C 
BRANCH  25  26
ATOM     26  C   UNL A   1      32.611  32.954  26.907  1.00  0.00     0.116 C 
BRANCH  26  27
ATOM     27  N   UNL A   1      32.538  34.198  27.659  1.00  0.00    -0.352 N 
ATOM     28  C   UNL A   1      33.309  34.600  28.721  1.00  0.00     0.251 C 
ATOM     29  H   UNL A   1      31.845  34.833  27.367  1.00  0.00     0.163 HD
ATOM     30  O   UNL A   1      33.028  35.614  29.353  1.00  0.00    -0.269 OA
BRANCH  28  31
ATOM     31  C   UNL A   1      34.468  33.775  29.115  1.00  0.00     0.039 A 
ATOM     32  C   UNL A   1      35.753  34.204  28.775  1.00  0.00     0.014 A 
ATOM     33  C   UNL A   1      34.284  32.609  29.862  1.00  0.00     0.014 A 
ATOM     34  C   UNL A   1      36.859  33.495  29.247  1.00  0.00     0.010 A 
ATOM     35  C   UNL A   1      35.385  31.958  30.404  1.00  0.00     0.010 A 
ATOM     36  C   UNL A   1      36.684  32.391  30.097  1.00  0.00    -0.014 A 
BRANCH  36  37
ATOM     37  C   UNL A   1      37.845  31.663  30.669  1.00  0.00     0.031 A 
ATOM     38  C   UNL A   1      38.334  32.003  32.050  1.00  0.00     0.074 A 
ATOM     39  C   UNL A   1      38.491  30.741  29.927  1.00  0.00     0.049 A 
ATOM     40  N   UNL A   1      39.377  31.543  32.692  1.00  0.00    -0.248 NA
ATOM     41  C   UNL A   1      37.567  33.012  32.800  1.00  0.00     0.031 C 
ATOM     42  C   UNL A   1      38.137  30.353  28.560  1.00  0.00     0.029 A 
ATOM     43  N   UNL A   1      39.586  29.966  30.217  1.00  0.00    -0.354 N 
ATOM     44  C   UNL A   1      39.395  32.211  33.908  1.00  0.00     0.074 A 
ATOM     45  C   UNL A   1      38.297  33.151  33.896  1.00  0.00     0.031 C 
ATOM     46  C   UNL A   1      38.975  29.389  28.145  1.00  0.00     0.029 A 
ATOM     47  C   UNL A   1      39.954  29.123  29.194  1.00  0.00     0.049 A 
ATOM     48  H   UNL A   1      40.063  30.009  31.077  1.00  0.00     0.167 HD
ATOM     49  C   UNL A   1      40.235  32.036  34.955  1.00  0.00     0.037 A 
ATOM     50  C   UNL A   1      40.968  28.240  29.112  1.00  0.00     0.037 A 
ATOM     51  C   UNL A   1      41.302  31.071  34.979  1.00  0.00     0.049 A 
ATOM     52  C   UNL A   1      41.894  28.075  30.285  1.00  0.00     0.074 A 
ATOM     53  C   UNL A   1      42.172  30.783  36.015  1.00  0.00     0.029 A 
ATOM     54  N   UNL A   1      41.635  30.233  33.927  1.00  0.00    -0.354 N 
ATOM     55  N   UNL A   1      41.869  28.681  31.449  1.00  0.00    -0.248 NA
ATOM     56  C   UNL A   1      42.990  27.106  30.139  1.00  0.00     0.031 C 
ATOM     57  C   UNL A   1      43.062  29.801  35.574  1.00  0.00     0.029 A 
ATOM     58  C   UNL A   1      42.711  29.440  34.284  1.00  0.00     0.049 A 
ATOM     59  H   UNL A   1      41.175  30.207  33.057  1.00  0.00     0.167 HD
ATOM     60  C   UNL A   1      42.920  28.145  32.180  1.00  0.00     0.074 A 
ATOM     61  C   UNL A   1      43.559  27.158  31.336  1.00  0.00     0.031 C 
ATOM     62  C   UNL A   1      43.322  28.446  33.439  1.00  0.00     0.037 A 
BRANCH  49  63
ATOM     63  C   UNL A   1      40.024  32.877  36.177  1.00  0.00     0.057 A 
ATOM     64  C   UNL A   1      40.798  34.023  36.400  1.00  0.00     0.134 A 
ATOM     65  C   UNL A   1      39.124  32.498  37.181  1.00  0.00     0.134 A 
ATOM     66  F   UNL A   1      41.682  34.438  35.480  1.00  0.00    -0.206 F 
ATOM     67  C   UNL A   1      40.699  34.750  37.586  1.00  0.00     0.040 A 
ATOM     68  C   UNL A   1      38.997  33.231  38.361  1.00  0.00     0.040 A 
ATOM     69  F   UNL A   1      38.344  31.418  37.023  1.00  0.00    -0.206 F 
ATOM     70  C   UNL A   1      39.797  34.354  38.573  1.00  0.00     0.006 A 
ENDBRANCH  49  63
BRANCH  50  71
ATOM     71  C   UNL A   1      41.144  27.421  27.886  1.00  0.00     0.057 A 
ATOM     72  C   UNL A   1      41.926  27.862  26.811  1.00  0.00     0.134 A 
ATOM     73  C   UNL A   1      40.534  26.166  27.764  1.00  0.00     0.134 A 
ATOM     74  F   UNL A   1      42.534  29.057  26.862  1.00  0.00    -0.206 F 
ATOM     75  C   UNL A   1      42.088  27.092  25.658  1.00  0.00     0.040 A 
ATOM     76  C   UNL A   1      40.708  25.373  26.628  1.00  0.00     0.040 A 
ATOM     77  F   UNL A   1      39.787  25.679  28.765  1.00  0.00    -0.206 F 
ATOM     78  C   UNL A   1      41.483  25.839  25.568  1.00  0.00     0.006 A 
ENDBRANCH  50  71
BRANCH  62  79
ATOM     79  C   UNL A   1      44.480  27.682  34.006  1.00  0.00     0.057 A 
ATOM     80  C   UNL A   1      45.791  28.149  33.837  1.00  0.00     0.134 A 
ATOM     81  C   UNL A   1      44.309  26.441  34.632  1.00  0.00     0.134 A 
ATOM     82  F   UNL A   1      46.023  29.324  33.233  1.00  0.00    -0.206 F 
ATOM     83  C   UNL A   1      46.891  27.401  34.255  1.00  0.00     0.040 A 
ATOM     84  C   UNL A   1      45.402  25.695  35.078  1.00  0.00     0.040 A 
ATOM     85  F   UNL A   1      43.080  25.944  34.830  1.00  0.00    -0.206 F 
ATOM     86  C   UNL A   1      46.697  26.170  34.879  1.00  0.00     0.006 A 
ENDBRANCH  62  79
ENDBRANCH  36  37
ENDBRANCH  28  31
ENDBRANCH  26  27
ENDBRANCH  25  26
ENDBRANCH  24  25
ENDBRANCH  23  24
ENDBRANCH   1  23
TORSDOF 17
ENDMDL
MODEL 3
REMARK VINA RESULT:     -11.0      4.137      8.867
REMARK SMILES COc1ccc(CC(=O)N[C@H](C)C(=O)NCCCCCCNC(=O)c2ccc(-c3c4nc(c(-c5c(F)cccc5F)c5ccc([nH]5)c(-c5c(F)cccc5F)c5nc(c(-c6c(F)cccc6F)c6ccc3[nH]6)C=C5)C=C4)cc2)cc1F
REMARK SMILES IDX 17 1 16 2 15 3 13 4 14 5 11 7 12 8 10 9 8 10 9 11 7 13 6 14
REMARK SMILES IDX 3 15 4 16 80 17 5 18 79 19 81 20 2 21 1 22 18 23 19 24 20 25
REMARK SMILES IDX 21 26 22 27 23 28 24 30 25 31 26 32 78 33 27 34 77 35 28 36
REMARK SMILES IDX 29 37 30 38 71 39 31 40 76 41 70 42 72 43 32 44 75 45 69 46
REMARK SMILES IDX 68 47 33 49 59 50 42 51 58 52 43 53 46 54 57 55 73 56 44 57
REMARK SMILES IDX 45 58 56 60 74 61 47 62 34 63 35 64 40 65 36 66 37 67 39 68
REMARK SMILES IDX 41 69 38 70 60 71 61 72 66 73 62 74 63 75 65 76 67 77 64 78
REMARK SMILES IDX 48 79 49 80 54 81 50 82 51 83 53 84 55 85 52 86
REMARK H PARENT 15 6 10 12 22 29 72 48 46 59
REMARK Flexibility Score: inf
ROOT
ATOM      1  C   UNL A   1      37.219  23.523  25.920  1.00  0.00     0.021 C 
ENDROOT
BRANCH   1   2
ATOM      2  C   UNL A   1      35.706  23.709  25.992  1.00  0.00     0.116 C 
BRANCH   2   3
ATOM      3  N   UNL A   1      35.208  24.380  24.805  1.00  0.00    -0.354 N 
ATOM      4  C   UNL A   1      34.233  25.326  24.691  1.00  0.00     0.242 C 
ATOM      5  O   UNL A   1      33.862  25.651  23.560  1.00  0.00    -0.273 OA
ATOM      6  H   UNL A   1      35.636  24.112  23.960  1.00  0.00     0.163 HD
BRANCH   4   7
ATOM      7  C   UNL A   1      33.501  25.858  25.935  1.00  0.00     0.168 C 
ATOM      8  C   UNL A   1      33.756  27.367  26.020  1.00  0.00     0.041 C 
BRANCH   7   9
ATOM      9  N   UNL A   1      32.067  25.556  25.944  1.00  0.00    -0.344 N 
ATOM     10  C   UNL A   1      31.413  24.511  26.532  1.00  0.00     0.225 C 
ATOM     11  O   UNL A   1      30.179  24.527  26.516  1.00  0.00    -0.275 OA
ATOM     12  H   UNL A   1      31.496  26.193  25.458  1.00  0.00     0.164 HD
BRANCH  10  13
ATOM     13  C   UNL A   1      32.179  23.342  27.141  1.00  0.00     0.135 C 
BRANCH  13  14
ATOM     14  C   UNL A   1      32.521  22.257  26.143  1.00  0.00    -0.036 A 
ATOM     15  C   UNL A   1      32.873  20.105  24.345  1.00  0.00     0.154 A 
ATOM     16  C   UNL A   1      33.451  20.075  25.617  1.00  0.00     0.050 A 
ATOM     17  C   UNL A   1      32.227  21.270  23.941  1.00  0.00     0.165 A 
ATOM     18  C   UNL A   1      33.272  21.134  26.514  1.00  0.00     0.008 A 
ATOM     19  C   UNL A   1      32.068  22.344  24.820  1.00  0.00     0.047 A 
ATOM     20  F   UNL A   1      31.708  21.391  22.711  1.00  0.00    -0.203 F 
BRANCH  15  21
ATOM     21  O   UNL A   1      32.995  18.938  23.641  1.00  0.00    -0.494 OA
ATOM     22  C   UNL A   1      33.954  17.999  24.115  1.00  0.00     0.278 C 
ENDBRANCH  15  21
ENDBRANCH  13  14
ENDBRANCH  10  13
ENDBRANCH   7   9
ENDBRANCH   4   7
ENDBRANCH   2   3
ENDBRANCH   1   2
BRANCH   1  23
ATOM     23  C   UNL A   1      37.680  22.644  24.754  1.00  0.00     0.002 C 
BRANCH  23  24
ATOM     24  C   UNL A   1      36.990  21.281  24.673  1.00  0.00     0.002 C 
BRANCH  24  25
ATOM     25  C   UNL A   1      37.883  20.070  24.919  1.00  0.00     0.021 C 
BRANCH  25  26
ATOM     26  C   UNL A   1      38.963  20.284  25.966  1.00  0.00     0.116 C 
BRANCH  26  27
ATOM     27  N   UNL A   1      40.047  19.319  25.856  1.00  0.00    -0.352 N 
ATOM     28  C   UNL A   1      41.391  19.519  26.050  1.00  0.00     0.251 C 
ATOM     29  H   UNL A   1      39.781  18.404  25.610  1.00  0.00     0.163 HD
ATOM     30  O   UNL A   1      42.204  18.643  25.769  1.00  0.00    -0.269 OA
BRANCH  28  31
ATOM     31  C   UNL A   1      41.851  20.820  26.573  1.00  0.00     0.039 A 
ATOM     32  C   UNL A   1      42.272  21.803  25.675  1.00  0.00     0.014 A 
ATOM     33  C   UNL A   1      41.816  21.082  27.945  1.00  0.00     0.014 A 
ATOM     34  C   UNL A   1      42.592  23.075  26.151  1.00  0.00     0.010 A 
ATOM     35  C   UNL A   1      42.049  22.372  28.406  1.00  0.00     0.010 A 
ATOM     36  C   UNL A   1      42.445  23.381  27.514  1.00  0.00    -0.014 A 
BRANCH  36  37
ATOM     37  C   UNL A   1      42.713  24.745  28.034  1.00  0.00     0.031 A 
ATOM     38  C   UNL A   1      44.110  25.130  28.438  1.00  0.00     0.074 A 
ATOM     39  C   UNL A   1      41.695  25.613  28.197  1.00  0.00     0.049 A 
ATOM     40  N   UNL A   1      44.532  26.238  28.990  1.00  0.00    -0.248 NA
ATOM     41  C   UNL A   1      45.168  24.130  28.218  1.00  0.00     0.031 C 
ATOM     42  C   UNL A   1      40.291  25.342  27.879  1.00  0.00     0.029 A 
ATOM     43  N   UNL A   1      41.683  26.900  28.675  1.00  0.00    -0.354 N 
ATOM     44  C   UNL A   1      45.894  26.063  29.190  1.00  0.00     0.074 A 
ATOM     45  C   UNL A   1      46.222  24.724  28.758  1.00  0.00     0.031 C 
ATOM     46  C   UNL A   1      39.562  26.440  28.138  1.00  0.00     0.029 A 
ATOM     47  C   UNL A   1      40.434  27.476  28.682  1.00  0.00     0.049 A 
ATOM     48  H   UNL A   1      42.493  27.367  28.983  1.00  0.00     0.167 HD
ATOM     49  C   UNL A   1      46.798  26.952  29.664  1.00  0.00     0.037 A 
ATOM     50  C   UNL A   1      40.039  28.699  29.085  1.00  0.00     0.037 A 
ATOM     51  C   UNL A   1      46.477  28.298  30.055  1.00  0.00     0.049 A 
ATOM     52  C   UNL A   1      41.063  29.661  29.621  1.00  0.00     0.074 A 
ATOM     53  C   UNL A   1      47.334  29.289  30.498  1.00  0.00     0.029 A 
ATOM     54  N   UNL A   1      45.203  28.843  30.040  1.00  0.00    -0.354 N 
ATOM     55  N   UNL A   1      42.357  29.497  29.760  1.00  0.00    -0.248 NA
ATOM     56  C   UNL A   1      40.576  30.979  30.057  1.00  0.00     0.031 C 
ATOM     57  C   UNL A   1      46.573  30.422  30.794  1.00  0.00     0.029 A 
ATOM     58  C   UNL A   1      45.250  30.154  30.484  1.00  0.00     0.049 A 
ATOM     59  H   UNL A   1      44.388  28.370  29.756  1.00  0.00     0.167 HD
ATOM     60  C   UNL A   1      42.841  30.696  30.267  1.00  0.00     0.074 A 
ATOM     61  C   UNL A   1      41.706  31.583  30.402  1.00  0.00     0.031 C 
ATOM     62  C   UNL A   1      44.113  31.030  30.593  1.00  0.00     0.037 A 
BRANCH  49  63
ATOM     63  C   UNL A   1      48.230  26.518  29.762  1.00  0.00     0.057 A 
ATOM     64  C   UNL A   1      49.113  26.713  28.693  1.00  0.00     0.134 A 
ATOM     65  C   UNL A   1      48.709  25.819  30.878  1.00  0.00     0.134 A 
ATOM     66  F   UNL A   1      48.715  27.370  27.593  1.00  0.00    -0.206 F 
ATOM     67  C   UNL A   1      50.414  26.210  28.720  1.00  0.00     0.040 A 
ATOM     68  C   UNL A   1      50.015  25.334  30.928  1.00  0.00     0.040 A 
ATOM     69  F   UNL A   1      47.918  25.611  31.941  1.00  0.00    -0.206 F 
ATOM     70  C   UNL A   1      50.869  25.517  29.841  1.00  0.00     0.006 A 
ENDBRANCH  49  63
BRANCH  50  71
ATOM     71  C   UNL A   1      38.612  29.096  28.971  1.00  0.00     0.057 A 
ATOM     72  C   UNL A   1      37.738  29.023  30.062  1.00  0.00     0.134 A 
ATOM     73  C   UNL A   1      38.090  29.565  27.759  1.00  0.00     0.134 A 
ATOM     74  F   UNL A   1      38.173  28.577  31.250  1.00  0.00    -0.206 F 
ATOM     75  C   UNL A   1      36.396  29.394  29.951  1.00  0.00     0.040 A 
ATOM     76  C   UNL A   1      36.757  29.964  27.640  1.00  0.00     0.040 A 
ATOM     77  F   UNL A   1      38.880  29.675  26.681  1.00  0.00    -0.206 F 
ATOM     78  C   UNL A   1      35.905  29.873  28.738  1.00  0.00     0.006 A 
ENDBRANCH  50  71
BRANCH  62  79
ATOM     79  C   UNL A   1      44.364  32.421  31.092  1.00  0.00     0.057 A 
ATOM     80  C   UNL A   1      44.272  32.713  32.460  1.00  0.00     0.134 A 
ATOM     81  C   UNL A   1      44.603  33.488  30.217  1.00  0.00     0.134 A 
ATOM     82  F   UNL A   1      44.032  31.738  33.350  1.00  0.00    -0.206 F 
ATOM     83  C   UNL A   1      44.389  34.018  32.937  1.00  0.00     0.040 A 
ATOM     84  C   UNL A   1      44.749  34.795  30.685  1.00  0.00     0.040 A 
ATOM     85  F   UNL A   1      44.711  33.273  28.897  1.00  0.00    -0.206 F 
ATOM     86  C   UNL A   1      44.630  35.063  32.048  1.00  0.00     0.006 A 
ENDBRANCH  62  79
ENDBRANCH  36  37
ENDBRANCH  28  31
ENDBRANCH  26  27
ENDBRANCH  25  26
ENDBRANCH  24  25
ENDBRANCH  23  24
ENDBRANCH   1  23
TORSDOF 17
ENDMDL
