MODEL 1
REMARK VINA RESULT:     -12.0      0.000      0.000
REMARK SMILES O=C(NCCCCCCNC(=O)c1cccc2c1cc(Br)c1ccccc12)c1ccc(-c2c3nc(c(-c4c(F)cccc4F)c4ccc([nH]4)c(-c4c(F)cccc4F)c4nc(c(-c5c(F)cccc5F)c5ccc2[nH]5)C=C4)C=C3)cc1
REMARK SMILES IDX 5 1 4 2 3 3 1 4 2 5 28 7 29 8 81 9 30 10 80 11 31 12 32 13
REMARK SMILES IDX 33 14 74 15 34 16 79 17 73 18 75 19 35 20 78 21 72 22 71 23
REMARK SMILES IDX 36 25 62 26 45 27 61 28 46 29 49 30 60 31 76 32 47 33 48 34
REMARK SMILES IDX 59 36 77 37 50 38 37 39 38 40 43 41 39 42 40 43 42 44 44 45
REMARK SMILES IDX 41 46 63 47 64 48 69 49 65 50 66 51 68 52 70 53 67 54 51 55
REMARK SMILES IDX 52 56 57 57 53 58 54 59 56 60 58 61 55 62 6 63 7 64 8 65
REMARK SMILES IDX 9 66 10 67 11 68 12 70 13 71 14 72 18 73 15 74 17 75 19 76
REMARK SMILES IDX 16 77 27 78 20 79 22 80 26 81 21 82 23 83 25 84 24 85
REMARK H PARENT 3 6 75 24 49 35 10 69
REMARK Flexibility Score: inf
ROOT
ATOM      1  C   UNL A   1      31.502  30.672  26.044  1.00  0.00     0.021 C 
ENDROOT
BRANCH   1   2
ATOM      2  C   UNL A   1      32.591  31.319  26.893  1.00  0.00     0.116 C 
BRANCH   2   3
ATOM      3  N   UNL A   1      32.291  32.696  27.233  1.00  0.00    -0.352 N 
ATOM      4  O   UNL A   1      32.468  34.659  28.318  1.00  0.00    -0.269 OA
ATOM      5  C   UNL A   1      32.970  33.569  28.045  1.00  0.00     0.251 C 
ATOM      6  H   UNL A   1      31.476  33.061  26.818  1.00  0.00     0.163 HD
BRANCH   5   7
ATOM      7  C   UNL A   1      34.295  33.220  28.607  1.00  0.00     0.039 A 
ATOM      8  C   UNL A   1      35.439  33.557  27.875  1.00  0.00     0.014 A 
ATOM      9  C   UNL A   1      34.423  32.497  29.798  1.00  0.00     0.014 A 
ATOM     10  C   UNL A   1      36.704  33.188  28.338  1.00  0.00     0.010 A 
ATOM     11  C   UNL A   1      35.689  32.184  30.293  1.00  0.00     0.010 A 
ATOM     12  C   UNL A   1      36.839  32.499  29.553  1.00  0.00    -0.014 A 
BRANCH  12  13
ATOM     13  C   UNL A   1      38.164  32.011  30.014  1.00  0.00     0.031 A 
ATOM     14  C   UNL A   1      38.690  30.699  29.495  1.00  0.00     0.074 A 
ATOM     15  C   UNL A   1      38.882  32.719  30.905  1.00  0.00     0.049 A 
ATOM     16  N   UNL A   1      39.781  30.054  29.823  1.00  0.00    -0.248 NA
ATOM     17  C   UNL A   1      37.865  30.011  28.489  1.00  0.00     0.031 C 
ATOM     18  C   UNL A   1      38.483  33.996  31.495  1.00  0.00     0.029 A 
ATOM     19  N   UNL A   1      40.103  32.455  31.473  1.00  0.00    -0.354 N 
ATOM     20  C   UNL A   1      39.760  28.879  29.081  1.00  0.00     0.074 A 
ATOM     21  C   UNL A   1      38.528  28.878  28.323  1.00  0.00     0.031 C 
ATOM     22  C   UNL A   1      39.451  34.415  32.327  1.00  0.00     0.029 A 
ATOM     23  C   UNL A   1      40.522  33.422  32.353  1.00  0.00     0.049 A 
ATOM     24  H   UNL A   1      40.629  31.648  31.270  1.00  0.00     0.167 HD
ATOM     25  C   UNL A   1      40.692  27.898  29.016  1.00  0.00     0.037 A 
ATOM     26  C   UNL A   1      41.641  33.495  33.097  1.00  0.00     0.037 A 
ATOM     27  C   UNL A   1      41.936  27.913  29.737  1.00  0.00     0.049 A 
ATOM     28  C   UNL A   1      42.656  32.388  33.018  1.00  0.00     0.074 A 
ATOM     29  C   UNL A   1      42.967  26.990  29.702  1.00  0.00     0.029 A 
ATOM     30  N   UNL A   1      42.321  28.911  30.619  1.00  0.00    -0.354 N 
ATOM     31  N   UNL A   1      42.637  31.297  32.290  1.00  0.00    -0.248 NA
ATOM     32  C   UNL A   1      43.849  32.523  33.867  1.00  0.00     0.031 C 
ATOM     33  C   UNL A   1      43.965  27.417  30.586  1.00  0.00     0.029 A 
ATOM     34  C   UNL A   1      43.568  28.620  31.146  1.00  0.00     0.049 A 
ATOM     35  H   UNL A   1      41.787  29.708  30.839  1.00  0.00     0.167 HD
ATOM     36  C   UNL A   1      43.820  30.629  32.577  1.00  0.00     0.074 A 
ATOM     37  C   UNL A   1      44.541  31.443  33.533  1.00  0.00     0.031 C 
ATOM     38  C   UNL A   1      44.270  29.445  32.094  1.00  0.00     0.037 A 
BRANCH  25  39
ATOM     39  C   UNL A   1      40.392  26.728  28.127  1.00  0.00     0.057 A 
ATOM     40  C   UNL A   1      39.523  25.714  28.548  1.00  0.00     0.134 A 
ATOM     41  C   UNL A   1      40.963  26.606  26.854  1.00  0.00     0.134 A 
ATOM     42  F   UNL A   1      38.944  25.769  29.756  1.00  0.00    -0.206 F 
ATOM     43  C   UNL A   1      39.229  24.621  27.729  1.00  0.00     0.040 A 
ATOM     44  C   UNL A   1      40.658  25.530  26.018  1.00  0.00     0.040 A 
ATOM     45  F   UNL A   1      41.791  27.553  26.387  1.00  0.00    -0.206 F 
ATOM     46  C   UNL A   1      39.791  24.533  26.457  1.00  0.00     0.006 A 
ENDBRANCH  25  39
BRANCH  26  47
ATOM     47  C   UNL A   1      41.880  34.668  33.974  1.00  0.00     0.057 A 
ATOM     48  C   UNL A   1      42.529  35.814  33.503  1.00  0.00     0.134 A 
ATOM     49  C   UNL A   1      41.433  34.675  35.300  1.00  0.00     0.134 A 
ATOM     50  F   UNL A   1      42.982  35.868  32.241  1.00  0.00    -0.206 F 
ATOM     51  C   UNL A   1      42.728  36.927  34.321  1.00  0.00     0.040 A 
ATOM     52  C   UNL A   1      41.607  35.788  36.123  1.00  0.00     0.040 A 
ATOM     53  F   UNL A   1      40.784  33.613  35.799  1.00  0.00    -0.206 F 
ATOM     54  C   UNL A   1      42.260  36.919  35.634  1.00  0.00     0.006 A 
ENDBRANCH  26  47
BRANCH  38  55
ATOM     55  C   UNL A   1      45.611  28.979  32.576  1.00  0.00     0.057 A 
ATOM     56  C   UNL A   1      46.778  29.335  31.891  1.00  0.00     0.134 A 
ATOM     57  C   UNL A   1      45.741  28.162  33.706  1.00  0.00     0.134 A 
ATOM     58  F   UNL A   1      46.719  30.109  30.799  1.00  0.00    -0.206 F 
ATOM     59  C   UNL A   1      48.033  28.891  32.314  1.00  0.00     0.040 A 
ATOM     60  C   UNL A   1      46.992  27.732  34.152  1.00  0.00     0.040 A 
ATOM     61  F   UNL A   1      44.660  27.803  34.414  1.00  0.00    -0.206 F 
ATOM     62  C   UNL A   1      48.142  28.092  33.450  1.00  0.00     0.006 A 
ENDBRANCH  38  55
ENDBRANCH  12  13
ENDBRANCH   5   7
ENDBRANCH   2   3
ENDBRANCH   1   2
BRANCH   1  63
ATOM     63  C   UNL A   1      31.873  29.338  25.393  1.00  0.00     0.002 C 
BRANCH  63  64
ATOM     64  C   UNL A   1      33.347  28.932  25.482  1.00  0.00     0.002 C 
BRANCH  64  65
ATOM     65  C   UNL A   1      34.052  28.652  24.151  1.00  0.00     0.021 C 
BRANCH  65  66
ATOM     66  C   UNL A   1      33.247  28.969  22.893  1.00  0.00     0.116 C 
BRANCH  66  67
ATOM     67  N   UNL A   1      33.410  27.968  21.855  1.00  0.00    -0.352 N 
ATOM     68  C   UNL A   1      33.024  26.651  21.855  1.00  0.00     0.251 C 
ATOM     69  H   UNL A   1      33.862  28.278  21.037  1.00  0.00     0.163 HD
ATOM     70  O   UNL A   1      33.264  25.939  20.882  1.00  0.00    -0.269 OA
BRANCH  68  71
ATOM     71  C   UNL A   1      32.307  26.097  23.027  1.00  0.00     0.047 A 
ATOM     72  C   UNL A   1      30.969  26.473  23.181  1.00  0.00     0.014 A 
ATOM     73  C   UNL A   1      32.939  25.195  23.927  1.00  0.00    -0.004 A 
ATOM     74  C   UNL A   1      30.254  26.006  24.267  1.00  0.00     0.002 A 
ATOM     75  C   UNL A   1      32.211  24.696  25.039  1.00  0.00    -0.010 A 
ATOM     76  C   UNL A   1      34.270  24.774  23.761  1.00  0.00     0.026 A 
ATOM     77  C   UNL A   1      30.867  25.143  25.177  1.00  0.00     0.009 A 
ATOM     78  C   UNL A   1      32.836  23.771  25.959  1.00  0.00    -0.009 A 
ATOM     79  C   UNL A   1      34.874  23.872  24.638  1.00  0.00     0.026 A 
ATOM     80  C   UNL A   1      34.178  23.349  25.745  1.00  0.00    -0.004 A 
ATOM     81  C   UNL A   1      32.167  23.236  27.093  1.00  0.00     0.009 A 
ATOM     82  Br  UNL A   1      36.681  23.404  24.234  1.00  0.00    -0.050 Br
ATOM     83  C   UNL A   1      34.758  22.420  26.647  1.00  0.00     0.010 A 
ATOM     84  C   UNL A   1      32.764  22.325  27.969  1.00  0.00     0.001 A 
ATOM     85  C   UNL A   1      34.062  21.912  27.743  1.00  0.00     0.001 A 
ENDBRANCH  68  71
ENDBRANCH  66  67
ENDBRANCH  65  66
ENDBRANCH  64  65
ENDBRANCH  63  64
ENDBRANCH   1  63
TORSDOF 13
ENDMDL
MODEL 2
REMARK VINA RESULT:     -12.0      2.469      7.111
REMARK SMILES O=C(NCCCCCCNC(=O)c1cccc2c1cc(Br)c1ccccc12)c1ccc(-c2c3nc(c(-c4c(F)cccc4F)c4ccc([nH]4)c(-c4c(F)cccc4F)c4nc(c(-c5c(F)cccc5F)c5ccc2[nH]5)C=C4)C=C3)cc1
REMARK SMILES IDX 5 1 4 2 3 3 1 4 2 5 28 7 29 8 81 9 30 10 80 11 31 12 32 13
REMARK SMILES IDX 33 14 74 15 34 16 79 17 73 18 75 19 35 20 78 21 72 22 71 23
REMARK SMILES IDX 36 25 62 26 45 27 61 28 46 29 49 30 60 31 76 32 47 33 48 34
REMARK SMILES IDX 59 36 77 37 50 38 37 39 38 40 43 41 39 42 40 43 42 44 44 45
REMARK SMILES IDX 41 46 63 47 64 48 69 49 65 50 66 51 68 52 70 53 67 54 51 55
REMARK SMILES IDX 52 56 57 57 53 58 54 59 56 60 58 61 55 62 6 63 7 64 8 65
REMARK SMILES IDX 9 66 10 67 11 68 12 70 13 71 14 72 18 73 15 74 17 75 19 76
REMARK SMILES IDX 16 77 27 78 20 79 22 80 26 81 21 82 23 83 25 84 24 85
REMARK H PARENT 3 6 75 24 49 35 10 69
REMARK Flexibility Score: inf
ROOT
ATOM      1  C   UNL A   1      32.248  28.113  26.946  1.00  0.00     0.021 C 
ENDROOT
BRANCH   1   2
ATOM      2  C   UNL A   1      33.651  28.610  27.277  1.00  0.00     0.116 C 
BRANCH   2   3
ATOM      3  N   UNL A   1      33.659  29.970  27.779  1.00  0.00    -0.352 N 
ATOM      4  O   UNL A   1      34.418  31.780  28.877  1.00  0.00    -0.269 OA
ATOM      5  C   UNL A   1      34.661  30.674  28.395  1.00  0.00     0.251 C 
ATOM      6  H   UNL A   1      32.816  30.465  27.658  1.00  0.00     0.163 HD
BRANCH   5   7
ATOM      7  C   UNL A   1      36.033  30.123  28.499  1.00  0.00     0.039 A 
ATOM      8  C   UNL A   1      36.417  29.515  29.699  1.00  0.00     0.014 A 
ATOM      9  C   UNL A   1      36.965  30.268  27.467  1.00  0.00     0.014 A 
ATOM     10  C   UNL A   1      37.721  29.042  29.861  1.00  0.00     0.010 A 
ATOM     11  C   UNL A   1      38.248  29.739  27.603  1.00  0.00     0.010 A 
ATOM     12  C   UNL A   1      38.647  29.148  28.812  1.00  0.00    -0.014 A 
BRANCH  12  13
ATOM     13  C   UNL A   1      40.064  28.742  28.997  1.00  0.00     0.031 A 
ATOM     14  C   UNL A   1      41.032  29.703  29.632  1.00  0.00     0.074 A 
ATOM     15  C   UNL A   1      40.490  27.535  28.580  1.00  0.00     0.049 A 
ATOM     16  N   UNL A   1      42.323  29.582  29.817  1.00  0.00    -0.248 NA
ATOM     17  C   UNL A   1      40.476  30.983  30.101  1.00  0.00     0.031 C 
ATOM     18  C   UNL A   1      39.659  26.516  27.939  1.00  0.00     0.029 A 
ATOM     19  N   UNL A   1      41.737  26.965  28.633  1.00  0.00    -0.354 N 
ATOM     20  C   UNL A   1      42.732  30.774  30.402  1.00  0.00     0.074 A 
ATOM     21  C   UNL A   1      41.565  31.623  30.498  1.00  0.00     0.031 C 
ATOM     22  C   UNL A   1      40.416  25.437  27.677  1.00  0.00     0.029 A 
ATOM     23  C   UNL A   1      41.788  25.701  28.101  1.00  0.00     0.049 A 
ATOM     24  H   UNL A   1      42.521  27.421  29.016  1.00  0.00     0.167 HD
ATOM     25  C   UNL A   1      43.965  31.126  30.842  1.00  0.00     0.037 A 
ATOM     26  C   UNL A   1      42.826  24.854  27.969  1.00  0.00     0.037 A 
ATOM     27  C   UNL A   1      45.120  30.271  30.786  1.00  0.00     0.049 A 
ATOM     28  C   UNL A   1      44.188  25.271  28.454  1.00  0.00     0.074 A 
ATOM     29  C   UNL A   1      46.400  30.516  31.249  1.00  0.00     0.029 A 
ATOM     30  N   UNL A   1      45.129  28.998  30.238  1.00  0.00    -0.354 N 
ATOM     31  N   UNL A   1      44.554  26.389  29.032  1.00  0.00    -0.248 NA
ATOM     32  C   UNL A   1      45.280  24.305  28.267  1.00  0.00     0.031 C 
ATOM     33  C   UNL A   1      47.192  29.400  30.955  1.00  0.00     0.029 A 
ATOM     34  C   UNL A   1      46.396  28.450  30.338  1.00  0.00     0.049 A 
ATOM     35  H   UNL A   1      44.350  28.549  29.836  1.00  0.00     0.167 HD
ATOM     36  C   UNL A   1      45.911  26.253  29.294  1.00  0.00     0.074 A 
ATOM     37  C   UNL A   1      46.300  24.939  28.828  1.00  0.00     0.031 C 
ATOM     38  C   UNL A   1      46.762  27.139  29.869  1.00  0.00     0.037 A 
BRANCH  25  39
ATOM     39  C   UNL A   1      44.115  32.498  31.428  1.00  0.00     0.057 A 
ATOM     40  C   UNL A   1      44.438  33.591  30.615  1.00  0.00     0.134 A 
ATOM     41  C   UNL A   1      43.941  32.737  32.797  1.00  0.00     0.134 A 
ATOM     42  F   UNL A   1      44.620  33.430  29.296  1.00  0.00    -0.206 F 
ATOM     43  C   UNL A   1      44.576  34.876  31.144  1.00  0.00     0.040 A 
ATOM     44  C   UNL A   1      44.053  34.021  33.333  1.00  0.00     0.040 A 
ATOM     45  F   UNL A   1      43.614  31.734  33.626  1.00  0.00    -0.206 F 
ATOM     46  C   UNL A   1      44.374  35.095  32.506  1.00  0.00     0.006 A 
ENDBRANCH  25  39
BRANCH  26  47
ATOM     47  C   UNL A   1      42.625  23.513  27.366  1.00  0.00     0.057 A 
ATOM     48  C   UNL A   1      42.243  22.412  28.140  1.00  0.00     0.134 A 
ATOM     49  C   UNL A   1      42.782  23.314  25.990  1.00  0.00     0.134 A 
ATOM     50  F   UNL A   1      42.077  22.539  29.465  1.00  0.00    -0.206 F 
ATOM     51  C   UNL A   1      42.026  21.159  27.567  1.00  0.00     0.040 A 
ATOM     52  C   UNL A   1      42.549  22.072  25.401  1.00  0.00     0.040 A 
ATOM     53  F   UNL A   1      43.124  24.339  25.195  1.00  0.00    -0.206 F 
ATOM     54  C   UNL A   1      42.173  20.987  26.192  1.00  0.00     0.006 A 
ENDBRANCH  26  47
BRANCH  38  55
ATOM     55  C   UNL A   1      48.184  26.699  30.044  1.00  0.00     0.057 A 
ATOM     56  C   UNL A   1      48.581  26.003  31.191  1.00  0.00     0.134 A 
ATOM     57  C   UNL A   1      49.164  26.985  29.085  1.00  0.00     0.134 A 
ATOM     58  F   UNL A   1      47.692  25.704  32.149  1.00  0.00    -0.206 F 
ATOM     59  C   UNL A   1      49.906  25.606  31.380  1.00  0.00     0.040 A 
ATOM     60  C   UNL A   1      50.487  26.574  29.251  1.00  0.00     0.040 A 
ATOM     61  F   UNL A   1      48.841  27.635  27.957  1.00  0.00    -0.206 F 
ATOM     62  C   UNL A   1      50.862  25.886  30.406  1.00  0.00     0.006 A 
ENDBRANCH  38  55
ENDBRANCH  12  13
ENDBRANCH   5   7
ENDBRANCH   2   3
ENDBRANCH   1   2
BRANCH   1  63
ATOM     63  C   UNL A   1      31.723  28.485  25.557  1.00  0.00     0.002 C 
BRANCH  63  64
ATOM     64  C   UNL A   1      32.646  29.354  24.699  1.00  0.00     0.002 C 
BRANCH  64  65
ATOM     65  C   UNL A   1      32.718  28.998  23.211  1.00  0.00     0.021 C 
BRANCH  65  66
ATOM     66  C   UNL A   1      33.965  28.235  22.770  1.00  0.00     0.116 C 
BRANCH  66  67
ATOM     67  N   UNL A   1      33.722  27.377  21.626  1.00  0.00    -0.352 N 
ATOM     68  C   UNL A   1      32.988  26.220  21.553  1.00  0.00     0.251 C 
ATOM     69  H   UNL A   1      34.144  27.666  20.784  1.00  0.00     0.163 HD
ATOM     70  O   UNL A   1      32.906  25.608  20.489  1.00  0.00    -0.269 OA
BRANCH  68  71
ATOM     71  C   UNL A   1      32.287  25.719  22.757  1.00  0.00     0.047 A 
ATOM     72  C   UNL A   1      30.937  26.062  22.887  1.00  0.00     0.014 A 
ATOM     73  C   UNL A   1      32.944  24.895  23.713  1.00  0.00    -0.004 A 
ATOM     74  C   UNL A   1      30.235  25.643  24.000  1.00  0.00     0.002 A 
ATOM     75  C   UNL A   1      32.230  24.445  24.854  1.00  0.00    -0.010 A 
ATOM     76  C   UNL A   1      34.288  24.506  23.573  1.00  0.00     0.026 A 
ATOM     77  C   UNL A   1      30.873  24.859  24.963  1.00  0.00     0.009 A 
ATOM     78  C   UNL A   1      32.881  23.599  25.830  1.00  0.00    -0.009 A 
ATOM     79  C   UNL A   1      34.918  23.680  24.505  1.00  0.00     0.026 A 
ATOM     80  C   UNL A   1      34.235  23.207  25.643  1.00  0.00    -0.004 A 
ATOM     81  C   UNL A   1      32.227  23.117  26.996  1.00  0.00     0.009 A 
ATOM     82  Br  UNL A   1      36.739  23.244  24.132  1.00  0.00    -0.050 Br
ATOM     83  C   UNL A   1      34.842  22.355  26.602  1.00  0.00     0.010 A 
ATOM     84  C   UNL A   1      32.850  22.282  27.927  1.00  0.00     0.001 A 
ATOM     85  C   UNL A   1      34.161  21.896  27.728  1.00  0.00     0.001 A 
ENDBRANCH  68  71
ENDBRANCH  66  67
ENDBRANCH  65  66
ENDBRANCH  64  65
ENDBRANCH  63  64
ENDBRANCH   1  63
TORSDOF 13
ENDMDL
MODEL 3
REMARK VINA RESULT:     -12.0      3.500      8.420
REMARK SMILES O=C(NCCCCCCNC(=O)c1cccc2c1cc(Br)c1ccccc12)c1ccc(-c2c3nc(c(-c4c(F)cccc4F)c4ccc([nH]4)c(-c4c(F)cccc4F)c4nc(c(-c5c(F)cccc5F)c5ccc2[nH]5)C=C4)C=C3)cc1
REMARK SMILES IDX 5 1 4 2 3 3 1 4 2 5 28 7 29 8 81 9 30 10 80 11 31 12 32 13
REMARK SMILES IDX 33 14 74 15 34 16 79 17 73 18 75 19 35 20 78 21 72 22 71 23
REMARK SMILES IDX 36 25 62 26 45 27 61 28 46 29 49 30 60 31 76 32 47 33 48 34
REMARK SMILES IDX 59 36 77 37 50 38 37 39 38 40 43 41 39 42 40 43 42 44 44 45
REMARK SMILES IDX 41 46 63 47 64 48 69 49 65 50 66 51 68 52 70 53 67 54 51 55
REMARK SMILES IDX 52 56 57 57 53 58 54 59 56 60 58 61 55 62 6 63 7 64 8 65
REMARK SMILES IDX 9 66 10 67 11 68 12 70 13 71 14 72 18 73 15 74 17 75 19 76
REMARK SMILES IDX 16 77 27 78 20 79 22 80 26 81 21 82 23 83 25 84 24 85
REMARK H PARENT 3 6 75 24 49 35 10 69
REMARK Flexibility Score: inf
ROOT
ATOM      1  C   UNL A   1      37.253  20.541  24.699  1.00  0.00     0.021 C 
ENDROOT
BRANCH   1   2
ATOM      2  C   UNL A   1      38.363  20.815  25.708  1.00  0.00     0.116 C 
BRANCH   2   3
ATOM      3  N   UNL A   1      39.393  19.793  25.698  1.00  0.00    -0.352 N 
ATOM      4  O   UNL A   1      41.466  18.926  25.784  1.00  0.00    -0.269 OA
ATOM      5  C   UNL A   1      40.729  19.888  25.993  1.00  0.00     0.251 C 
ATOM      6  H   UNL A   1      39.086  18.894  25.440  1.00  0.00     0.163 HD
BRANCH   5   7
ATOM      7  C   UNL A   1      41.303  21.134  26.552  1.00  0.00     0.039 A 
ATOM      8  C   UNL A   1      41.232  21.339  27.935  1.00  0.00     0.014 A 
ATOM      9  C   UNL A   1      41.833  22.134  25.731  1.00  0.00     0.014 A 
ATOM     10  C   UNL A   1      41.703  22.529  28.494  1.00  0.00     0.010 A 
ATOM     11  C   UNL A   1      42.362  23.295  26.295  1.00  0.00     0.010 A 
ATOM     12  C   UNL A   1      42.274  23.516  27.678  1.00  0.00    -0.014 A 
BRANCH  12  13
ATOM     13  C   UNL A   1      42.688  24.828  28.239  1.00  0.00     0.031 A 
ATOM     14  C   UNL A   1      41.655  25.901  28.454  1.00  0.00     0.074 A 
ATOM     15  C   UNL A   1      43.980  25.069  28.532  1.00  0.00     0.049 A 
ATOM     16  N   UNL A   1      41.812  27.137  28.857  1.00  0.00    -0.248 NA
ATOM     17  C   UNL A   1      40.260  25.541  28.151  1.00  0.00     0.031 C 
ATOM     18  C   UNL A   1      45.081  24.122  28.360  1.00  0.00     0.029 A 
ATOM     19  N   UNL A   1      44.582  26.195  29.035  1.00  0.00    -0.354 N 
ATOM     20  C   UNL A   1      40.543  27.703  28.835  1.00  0.00     0.074 A 
ATOM     21  C   UNL A   1      39.636  26.693  28.336  1.00  0.00     0.031 C 
ATOM     22  C   UNL A   1      46.223  24.700  28.771  1.00  0.00     0.029 A 
ATOM     23  C   UNL A   1      45.939  26.065  29.204  1.00  0.00     0.049 A 
ATOM     24  H   UNL A   1      44.088  27.018  29.254  1.00  0.00     0.167 HD
ATOM     25  C   UNL A   1      40.160  28.945  29.219  1.00  0.00     0.037 A 
ATOM     26  C   UNL A   1      46.847  26.951  29.653  1.00  0.00     0.037 A 
ATOM     27  C   UNL A   1      41.051  29.939  29.754  1.00  0.00     0.049 A 
ATOM     28  C   UNL A   1      46.400  28.328  30.062  1.00  0.00     0.074 A 
ATOM     29  C   UNL A   1      40.752  31.209  30.216  1.00  0.00     0.029 A 
ATOM     30  N   UNL A   1      42.418  29.768  29.907  1.00  0.00    -0.354 N 
ATOM     31  N   UNL A   1      45.194  28.840  30.063  1.00  0.00    -0.248 NA
ATOM     32  C   UNL A   1      47.446  29.250  30.529  1.00  0.00     0.031 C 
ATOM     33  C   UNL A   1      41.946  31.817  30.623  1.00  0.00     0.029 A 
ATOM     34  C   UNL A   1      42.980  30.914  30.443  1.00  0.00     0.049 A 
ATOM     35  H   UNL A   1      42.916  28.952  29.669  1.00  0.00     0.167 HD
ATOM     36  C   UNL A   1      45.331  30.133  30.551  1.00  0.00     0.074 A 
ATOM     37  C   UNL A   1      46.736  30.322  30.848  1.00  0.00     0.031 C 
ATOM     38  C   UNL A   1      44.380  31.082  30.734  1.00  0.00     0.037 A 
BRANCH  25  39
ATOM     39  C   UNL A   1      38.707  29.287  29.073  1.00  0.00     0.057 A 
ATOM     40  C   UNL A   1      38.177  29.636  27.825  1.00  0.00     0.134 A 
ATOM     41  C   UNL A   1      37.833  29.272  30.168  1.00  0.00     0.134 A 
ATOM     42  F   UNL A   1      38.960  29.673  26.737  1.00  0.00    -0.206 F 
ATOM     43  C   UNL A   1      36.825  29.952  27.671  1.00  0.00     0.040 A 
ATOM     44  C   UNL A   1      36.476  29.562  30.021  1.00  0.00     0.040 A 
ATOM     45  F   UNL A   1      38.277  28.929  31.386  1.00  0.00    -0.206 F 
ATOM     46  C   UNL A   1      35.970  29.906  28.770  1.00  0.00     0.006 A 
ENDBRANCH  25  39
BRANCH  26  47
ATOM     47  C   UNL A   1      48.276  26.565  29.762  1.00  0.00     0.057 A 
ATOM     48  C   UNL A   1      48.770  25.896  30.887  1.00  0.00     0.134 A 
ATOM     49  C   UNL A   1      49.173  26.833  28.721  1.00  0.00     0.134 A 
ATOM     50  F   UNL A   1      47.960  25.612  31.917  1.00  0.00    -0.206 F 
ATOM     51  C   UNL A   1      50.108  25.509  30.974  1.00  0.00     0.040 A 
ATOM     52  C   UNL A   1      50.508  26.434  28.787  1.00  0.00     0.040 A 
ATOM     53  F   UNL A   1      48.750  27.450  27.609  1.00  0.00    -0.206 F 
ATOM     54  C   UNL A   1      50.980  25.772  29.919  1.00  0.00     0.006 A 
ENDBRANCH  26  47
BRANCH  38  55
ATOM     55  C   UNL A   1      44.829  32.394  31.303  1.00  0.00     0.057 A 
ATOM     56  C   UNL A   1      44.853  32.601  32.687  1.00  0.00     0.134 A 
ATOM     57  C   UNL A   1      45.217  33.457  30.478  1.00  0.00     0.134 A 
ATOM     58  F   UNL A   1      44.487  31.624  33.529  1.00  0.00    -0.206 F 
ATOM     59  C   UNL A   1      45.248  33.824  33.232  1.00  0.00     0.040 A 
ATOM     60  C   UNL A   1      45.635  34.677  31.012  1.00  0.00     0.040 A 
ATOM     61  F   UNL A   1      45.231  33.313  29.145  1.00  0.00    -0.206 F 
ATOM     62  C   UNL A   1      45.645  34.864  32.395  1.00  0.00     0.006 A 
ENDBRANCH  38  55
ENDBRANCH  12  13
ENDBRANCH   5   7
ENDBRANCH   2   3
ENDBRANCH   1   2
BRANCH   1  63
ATOM     63  C   UNL A   1      35.869  21.075  25.075  1.00  0.00     0.002 C 
BRANCH  63  64
ATOM     64  C   UNL A   1      35.832  22.478  25.687  1.00  0.00     0.002 C 
BRANCH  64  65
ATOM     65  C   UNL A   1      35.043  22.624  26.992  1.00  0.00     0.021 C 
BRANCH  65  66
ATOM     66  C   UNL A   1      34.010  21.535  27.270  1.00  0.00     0.116 C 
BRANCH  66  67
ATOM     67  N   UNL A   1      32.719  22.071  27.658  1.00  0.00    -0.352 N 
ATOM     68  C   UNL A   1      31.860  22.862  26.938  1.00  0.00     0.251 C 
ATOM     69  H   UNL A   1      32.418  21.833  28.565  1.00  0.00     0.163 HD
ATOM     70  O   UNL A   1      30.803  23.241  27.440  1.00  0.00    -0.269 OA
BRANCH  68  71
ATOM     71  C   UNL A   1      32.205  23.248  25.551  1.00  0.00     0.047 A 
ATOM     72  C   UNL A   1      32.122  22.244  24.580  1.00  0.00     0.014 A 
ATOM     73  C   UNL A   1      32.566  24.582  25.216  1.00  0.00    -0.004 A 
ATOM     74  C   UNL A   1      32.454  22.537  23.271  1.00  0.00     0.002 A 
ATOM     75  C   UNL A   1      32.895  24.901  23.872  1.00  0.00    -0.010 A 
ATOM     76  C   UNL A   1      32.612  25.612  26.174  1.00  0.00     0.026 A 
ATOM     77  C   UNL A   1      32.838  23.836  22.931  1.00  0.00     0.009 A 
ATOM     78  C   UNL A   1      33.254  26.256  23.516  1.00  0.00    -0.009 A 
ATOM     79  C   UNL A   1      32.946  26.923  25.832  1.00  0.00     0.026 A 
ATOM     80  C   UNL A   1      33.267  27.275  24.507  1.00  0.00    -0.004 A 
ATOM     81  C   UNL A   1      33.598  26.642  22.191  1.00  0.00     0.009 A 
ATOM     82  Br  UNL A   1      32.934  28.184  27.267  1.00  0.00    -0.050 Br
ATOM     83  C   UNL A   1      33.598  28.601  24.124  1.00  0.00     0.010 A 
ATOM     84  C   UNL A   1      33.924  27.955  21.843  1.00  0.00     0.001 A 
ATOM     85  C   UNL A   1      33.919  28.939  22.811  1.00  0.00     0.001 A 
ENDBRANCH  68  71
ENDBRANCH  66  67
ENDBRANCH  65  66
ENDBRANCH  64  65
ENDBRANCH  63  64
ENDBRANCH   1  63
TORSDOF 13
ENDMDL
