MODEL 1
REMARK VINA RESULT:     -11.6      0.000      0.000
REMARK SMILES Cc1cc(C(=O)N2C[C@@H](C(=O)NCCCCCCNC(=O)c3ccc(-c4c5nc(c(-c6c(F)cccc6F)c6ccc([nH]6)c(-c6c(F)cccc6F)c6nc(c(-c7c(F)cccc7F)c7ccc4[nH]7)C=C6)C=C5)cc3)[C@H](C3CC3)C2)sc1C
REMARK SMILES IDX 15 1 14 2 13 3 12 4 10 5 11 6 9 8 7 9 8 10 80 11 76 12 5 13
REMARK SMILES IDX 6 14 4 15 1 16 2 17 3 18 82 19 81 20 83 21 77 22 78 23 79 24
REMARK SMILES IDX 16 25 17 26 18 27 19 28 20 29 21 31 22 32 23 33 75 34 24 35
REMARK SMILES IDX 74 36 25 37 26 38 27 39 68 40 28 41 73 42 67 43 69 44 29 45
REMARK SMILES IDX 72 46 66 47 65 48 30 50 56 51 39 52 55 53 40 54 43 55 54 56
REMARK SMILES IDX 70 57 41 58 42 59 53 61 71 62 44 63 31 64 32 65 37 66 33 67
REMARK SMILES IDX 34 68 36 69 38 70 35 71 57 72 58 73 63 74 59 75 60 76 62 77
REMARK SMILES IDX 64 78 61 79 45 80 46 81 51 82 47 83 48 84 50 85 52 86 49 87
REMARK H PARENT 12 7 19 30 69 49 43 60
REMARK Flexibility Score: inf
ROOT
ATOM      1  C   UNL A   1      35.928  22.066  25.289  1.00  0.00     0.002 C 
ENDROOT
BRANCH   1   2
ATOM      2  C   UNL A   1      35.145  22.394  26.562  1.00  0.00     0.021 C 
BRANCH   2   3
ATOM      3  C   UNL A   1      33.983  21.465  26.883  1.00  0.00     0.116 C 
BRANCH   3   4
ATOM      4  N   UNL A   1      32.847  22.137  27.480  1.00  0.00    -0.356 N 
ATOM      5  C   UNL A   1      31.960  23.006  26.911  1.00  0.00     0.225 C 
ATOM      6  O   UNL A   1      30.987  23.358  27.580  1.00  0.00    -0.275 OA
ATOM      7  H   UNL A   1      32.690  21.938  28.432  1.00  0.00     0.163 HD
BRANCH   5   8
ATOM      8  C   UNL A   1      32.192  23.525  25.504  1.00  0.00     0.103 C 
ATOM      9  N   UNL A   1      31.327  24.918  23.866  1.00  0.00    -0.337 N 
ATOM     10  C   UNL A   1      31.405  24.820  25.308  1.00  0.00     0.133 C 
ATOM     11  C   UNL A   1      31.141  23.599  23.302  1.00  0.00     0.124 C 
ATOM     12  C   UNL A   1      31.612  22.608  24.397  1.00  0.00     0.026 C 
BRANCH   9  13
ATOM     13  C   UNL A   1      31.434  26.012  23.027  1.00  0.00     0.263 C 
ATOM     14  O   UNL A   1      32.362  26.047  22.213  1.00  0.00    -0.268 OA
BRANCH  13  15
ATOM     15  C   UNL A   1      30.540  27.157  23.181  1.00  0.00     0.093 A 
ATOM     16  C   UNL A   1      27.020  28.502  23.342  1.00  0.00     0.045 C 
ATOM     17  C   UNL A   1      28.504  28.350  23.258  1.00  0.00    -0.037 A 
ATOM     18  C   UNL A   1      29.173  27.088  23.389  1.00  0.00     0.029 A 
ATOM     19  C   UNL A   1      29.413  29.363  23.006  1.00  0.00     0.005 A 
ATOM     20  S   UNL A   1      31.004  28.766  22.844  1.00  0.00    -0.135 S 
ATOM     21  C   UNL A   1      29.154  30.821  22.814  1.00  0.00     0.056 C 
ENDBRANCH  13  15
ENDBRANCH   9  13
BRANCH  12  22
ATOM     22  C   UNL A   1      32.525  21.568  23.781  1.00  0.00    -0.005 C 
ATOM     23  C   UNL A   1      32.375  20.076  23.944  1.00  0.00     0.004 C 
ATOM     24  C   UNL A   1      32.084  20.724  22.616  1.00  0.00     0.004 C 
ENDBRANCH  12  22
ENDBRANCH   5   8
ENDBRANCH   3   4
ENDBRANCH   2   3
ENDBRANCH   1   2
BRANCH   1  25
ATOM     25  C   UNL A   1      36.154  20.579  24.996  1.00  0.00     0.002 C 
BRANCH  25  26
ATOM     26  C   UNL A   1      37.585  20.169  24.642  1.00  0.00     0.021 C 
BRANCH  26  27
ATOM     27  C   UNL A   1      38.635  20.444  25.713  1.00  0.00     0.116 C 
BRANCH  27  28
ATOM     28  N   UNL A   1      39.701  19.460  25.726  1.00  0.00    -0.352 N 
ATOM     29  C   UNL A   1      41.026  19.606  26.056  1.00  0.00     0.251 C 
ATOM     30  H   UNL A   1      39.436  18.551  25.457  1.00  0.00     0.163 HD
ATOM     31  O   UNL A   1      41.811  18.684  25.867  1.00  0.00    -0.269 OA
BRANCH  29  32
ATOM     32  C   UNL A   1      41.516  20.884  26.617  1.00  0.00     0.039 A 
ATOM     33  C   UNL A   1      41.949  21.880  25.736  1.00  0.00     0.014 A 
ATOM     34  C   UNL A   1      41.567  21.099  27.996  1.00  0.00     0.014 A 
ATOM     35  C   UNL A   1      42.377  23.111  26.238  1.00  0.00     0.010 A 
ATOM     36  C   UNL A   1      41.923  22.352  28.491  1.00  0.00     0.010 A 
ATOM     37  C   UNL A   1      42.337  23.369  27.618  1.00  0.00    -0.014 A 
BRANCH  37  38
ATOM     38  C   UNL A   1      42.727  24.694  28.163  1.00  0.00     0.031 A 
ATOM     39  C   UNL A   1      41.690  25.761  28.376  1.00  0.00     0.074 A 
ATOM     40  C   UNL A   1      44.026  24.956  28.412  1.00  0.00     0.049 A 
ATOM     41  N   UNL A   1      41.844  26.997  28.777  1.00  0.00    -0.248 NA
ATOM     42  C   UNL A   1      40.296  25.398  28.074  1.00  0.00     0.031 C 
ATOM     43  C   UNL A   1      45.132  24.021  28.208  1.00  0.00     0.029 A 
ATOM     44  N   UNL A   1      44.635  26.094  28.880  1.00  0.00    -0.354 N 
ATOM     45  C   UNL A   1      40.575  27.561  28.763  1.00  0.00     0.074 A 
ATOM     46  C   UNL A   1      39.669  26.550  28.260  1.00  0.00     0.031 C 
ATOM     47  C   UNL A   1      46.282  24.614  28.570  1.00  0.00     0.029 A 
ATOM     48  C   UNL A   1      45.999  25.982  28.991  1.00  0.00     0.049 A 
ATOM     49  H   UNL A   1      44.140  26.912  29.114  1.00  0.00     0.167 HD
ATOM     50  C   UNL A   1      40.193  28.800  29.155  1.00  0.00     0.037 A 
ATOM     51  C   UNL A   1      46.921  26.884  29.378  1.00  0.00     0.037 A 
ATOM     52  C   UNL A   1      41.094  29.797  29.672  1.00  0.00     0.049 A 
ATOM     53  C   UNL A   1      46.475  28.260  29.789  1.00  0.00     0.074 A 
ATOM     54  C   UNL A   1      40.797  31.063  30.147  1.00  0.00     0.029 A 
ATOM     55  N   UNL A   1      42.468  29.644  29.777  1.00  0.00    -0.354 N 
ATOM     56  N   UNL A   1      45.262  28.758  29.833  1.00  0.00    -0.248 NA
ATOM     57  C   UNL A   1      47.525  29.199  30.208  1.00  0.00     0.031 C 
ATOM     58  C   UNL A   1      41.997  31.693  30.492  1.00  0.00     0.029 A 
ATOM     59  C   UNL A   1      43.036  30.800  30.284  1.00  0.00     0.049 A 
ATOM     60  H   UNL A   1      42.967  28.832  29.527  1.00  0.00     0.167 HD
ATOM     61  C   UNL A   1      45.401  30.055  30.311  1.00  0.00     0.074 A 
ATOM     62  C   UNL A   1      46.813  30.261  30.558  1.00  0.00     0.031 C 
ATOM     63  C   UNL A   1      44.444  30.990  30.528  1.00  0.00     0.037 A 
BRANCH  50  64
ATOM     64  C   UNL A   1      38.737  29.146  29.037  1.00  0.00     0.057 A 
ATOM     65  C   UNL A   1      37.866  29.072  30.133  1.00  0.00     0.134 A 
ATOM     66  C   UNL A   1      38.203  29.592  27.820  1.00  0.00     0.134 A 
ATOM     67  F   UNL A   1      38.309  28.643  31.325  1.00  0.00    -0.206 F 
ATOM     68  C   UNL A   1      36.514  29.399  30.017  1.00  0.00     0.040 A 
ATOM     69  C   UNL A   1      36.859  29.950  27.699  1.00  0.00     0.040 A 
ATOM     70  F   UNL A   1      38.980  29.694  26.732  1.00  0.00    -0.206 F 
ATOM     71  C   UNL A   1      36.008  29.846  28.798  1.00  0.00     0.006 A 
ENDBRANCH  50  64
BRANCH  51  72
ATOM     72  C   UNL A   1      48.359  26.512  29.413  1.00  0.00     0.057 A 
ATOM     73  C   UNL A   1      48.916  25.887  30.533  1.00  0.00     0.134 A 
ATOM     74  C   UNL A   1      49.212  26.783  28.335  1.00  0.00     0.134 A 
ATOM     75  F   UNL A   1      48.155  25.618  31.605  1.00  0.00    -0.206 F 
ATOM     76  C   UNL A   1      50.273  25.562  30.592  1.00  0.00     0.040 A 
ATOM     77  C   UNL A   1      50.564  26.440  28.370  1.00  0.00     0.040 A 
ATOM     78  F   UNL A   1      48.738  27.374  27.228  1.00  0.00    -0.206 F 
ATOM     79  C   UNL A   1      51.100  25.835  29.504  1.00  0.00     0.006 A 
ENDBRANCH  51  72
BRANCH  63  80
ATOM     80  C   UNL A   1      44.887  32.309  31.092  1.00  0.00     0.057 A 
ATOM     81  C   UNL A   1      45.008  32.524  32.470  1.00  0.00     0.134 A 
ATOM     82  C   UNL A   1      45.234  33.367  30.240  1.00  0.00     0.134 A 
ATOM     83  F   UNL A   1      44.679  31.557  33.341  1.00  0.00    -0.206 F 
ATOM     84  C   UNL A   1      45.432  33.751  32.984  1.00  0.00     0.040 A 
ATOM     85  C   UNL A   1      45.689  34.588  30.742  1.00  0.00     0.040 A 
ATOM     86  F   UNL A   1      45.152  33.226  28.909  1.00  0.00    -0.206 F 
ATOM     87  C   UNL A   1      45.782  34.784  32.117  1.00  0.00     0.006 A 
ENDBRANCH  63  80
ENDBRANCH  37  38
ENDBRANCH  29  32
ENDBRANCH  27  28
ENDBRANCH  26  27
ENDBRANCH  25  26
ENDBRANCH   1  25
TORSDOF 16
ENDMDL
MODEL 2
REMARK VINA RESULT:     -11.6      0.795      6.164
REMARK SMILES Cc1cc(C(=O)N2C[C@@H](C(=O)NCCCCCCNC(=O)c3ccc(-c4c5nc(c(-c6c(F)cccc6F)c6ccc([nH]6)c(-c6c(F)cccc6F)c6nc(c(-c7c(F)cccc7F)c7ccc4[nH]7)C=C6)C=C5)cc3)[C@H](C3CC3)C2)sc1C
REMARK SMILES IDX 15 1 14 2 13 3 12 4 10 5 11 6 9 8 7 9 8 10 80 11 76 12 5 13
REMARK SMILES IDX 6 14 4 15 1 16 2 17 3 18 82 19 81 20 83 21 77 22 78 23 79 24
REMARK SMILES IDX 16 25 17 26 18 27 19 28 20 29 21 31 22 32 23 33 75 34 24 35
REMARK SMILES IDX 74 36 25 37 26 38 27 39 68 40 28 41 73 42 67 43 69 44 29 45
REMARK SMILES IDX 72 46 66 47 65 48 30 50 56 51 39 52 55 53 40 54 43 55 54 56
REMARK SMILES IDX 70 57 41 58 42 59 53 61 71 62 44 63 31 64 32 65 37 66 33 67
REMARK SMILES IDX 34 68 36 69 38 70 35 71 57 72 58 73 63 74 59 75 60 76 62 77
REMARK SMILES IDX 64 78 61 79 45 80 46 81 51 82 47 83 48 84 50 85 52 86 49 87
REMARK H PARENT 12 7 19 30 69 49 43 60
REMARK Flexibility Score: inf
ROOT
ATOM      1  C   UNL A   1      36.202  21.943  25.716  1.00  0.00     0.002 C 
ENDROOT
BRANCH   1   2
ATOM      2  C   UNL A   1      35.170  22.400  26.749  1.00  0.00     0.021 C 
BRANCH   2   3
ATOM      3  C   UNL A   1      33.994  21.460  26.970  1.00  0.00     0.116 C 
BRANCH   3   4
ATOM      4  N   UNL A   1      32.785  22.129  27.407  1.00  0.00    -0.356 N 
ATOM      5  C   UNL A   1      32.026  23.056  26.752  1.00  0.00     0.225 C 
ATOM      6  O   UNL A   1      30.960  23.397  27.268  1.00  0.00    -0.275 OA
ATOM      7  H   UNL A   1      32.465  21.881  28.305  1.00  0.00     0.163 HD
BRANCH   5   8
ATOM      8  C   UNL A   1      32.502  23.648  25.439  1.00  0.00     0.103 C 
ATOM      9  N   UNL A   1      32.085  25.318  23.887  1.00  0.00    -0.337 N 
ATOM     10  C   UNL A   1      31.980  25.078  25.310  1.00  0.00     0.133 C 
ATOM     11  C   UNL A   1      31.739  24.112  23.167  1.00  0.00     0.124 C 
ATOM     12  C   UNL A   1      31.903  22.957  24.187  1.00  0.00     0.026 C 
BRANCH   9  13
ATOM     13  C   UNL A   1      32.476  26.445  23.186  1.00  0.00     0.263 C 
ATOM     14  O   UNL A   1      33.415  26.352  22.390  1.00  0.00    -0.268 OA
BRANCH  13  15
ATOM     15  C   UNL A   1      31.870  27.743  23.470  1.00  0.00     0.093 A 
ATOM     16  C   UNL A   1      31.418  30.640  25.842  1.00  0.00     0.045 C 
ATOM     17  C   UNL A   1      31.303  29.669  24.713  1.00  0.00    -0.037 A 
ATOM     18  C   UNL A   1      32.216  28.579  24.518  1.00  0.00     0.029 A 
ATOM     19  C   UNL A   1      30.308  29.653  23.751  1.00  0.00     0.005 A 
ATOM     20  S   UNL A   1      30.442  28.301  22.717  1.00  0.00    -0.135 S 
ATOM     21  C   UNL A   1      29.168  30.601  23.573  1.00  0.00     0.056 C 
ENDBRANCH  13  15
ENDBRANCH   9  13
BRANCH  12  22
ATOM     22  C   UNL A   1      32.686  21.826  23.552  1.00  0.00    -0.005 C 
ATOM     23  C   UNL A   1      32.446  20.358  23.802  1.00  0.00     0.004 C 
ATOM     24  C   UNL A   1      32.090  20.966  22.471  1.00  0.00     0.004 C 
ENDBRANCH  12  22
ENDBRANCH   5   8
ENDBRANCH   3   4
ENDBRANCH   2   3
ENDBRANCH   1   2
BRANCH   1  25
ATOM     25  C   UNL A   1      36.026  20.527  25.160  1.00  0.00     0.002 C 
BRANCH  25  26
ATOM     26  C   UNL A   1      37.310  19.733  24.910  1.00  0.00     0.021 C 
BRANCH  26  27
ATOM     27  C   UNL A   1      38.585  20.341  25.483  1.00  0.00     0.116 C 
BRANCH  27  28
ATOM     28  N   UNL A   1      39.665  19.379  25.605  1.00  0.00    -0.352 N 
ATOM     29  C   UNL A   1      40.958  19.561  26.028  1.00  0.00     0.251 C 
ATOM     30  H   UNL A   1      39.436  18.458  25.344  1.00  0.00     0.163 HD
ATOM     31  O   UNL A   1      41.771  18.649  25.926  1.00  0.00    -0.269 OA
BRANCH  29  32
ATOM     32  C   UNL A   1      41.382  20.864  26.586  1.00  0.00     0.039 A 
ATOM     33  C   UNL A   1      41.927  21.817  25.720  1.00  0.00     0.014 A 
ATOM     34  C   UNL A   1      41.261  21.145  27.949  1.00  0.00     0.014 A 
ATOM     35  C   UNL A   1      42.297  23.071  26.212  1.00  0.00     0.010 A 
ATOM     36  C   UNL A   1      41.560  22.419  28.424  1.00  0.00     0.010 A 
ATOM     37  C   UNL A   1      42.086  23.394  27.563  1.00  0.00    -0.014 A 
BRANCH  37  38
ATOM     38  C   UNL A   1      42.413  24.742  28.090  1.00  0.00     0.031 A 
ATOM     39  C   UNL A   1      43.814  25.063  28.533  1.00  0.00     0.074 A 
ATOM     40  C   UNL A   1      41.436  25.661  28.226  1.00  0.00     0.049 A 
ATOM     41  N   UNL A   1      44.279  26.157  29.081  1.00  0.00    -0.248 NA
ATOM     42  C   UNL A   1      44.822  24.005  28.359  1.00  0.00     0.031 C 
ATOM     43  C   UNL A   1      40.031  25.459  27.872  1.00  0.00     0.029 A 
ATOM     44  N   UNL A   1      41.476  26.945  28.710  1.00  0.00    -0.354 N 
ATOM     45  C   UNL A   1      45.624  25.915  29.329  1.00  0.00     0.074 A 
ATOM     46  C   UNL A   1      45.889  24.551  28.923  1.00  0.00     0.031 C 
ATOM     47  C   UNL A   1      39.346  26.586  28.130  1.00  0.00     0.029 A 
ATOM     48  C   UNL A   1      40.255  27.573  28.704  1.00  0.00     0.049 A 
ATOM     49  H   UNL A   1      42.302  27.374  29.030  1.00  0.00     0.167 HD
ATOM     50  C   UNL A   1      46.559  26.757  29.827  1.00  0.00     0.037 A 
ATOM     51  C   UNL A   1      39.903  28.804  29.124  1.00  0.00     0.037 A 
ATOM     52  C   UNL A   1      46.297  28.119  30.213  1.00  0.00     0.049 A 
ATOM     53  C   UNL A   1      40.957  29.714  29.692  1.00  0.00     0.074 A 
ATOM     54  C   UNL A   1      47.189  29.071  30.676  1.00  0.00     0.029 A 
ATOM     55  N   UNL A   1      45.049  28.723  30.184  1.00  0.00    -0.354 N 
ATOM     56  N   UNL A   1      42.239  29.494  29.859  1.00  0.00    -0.248 NA
ATOM     57  C   UNL A   1      40.515  31.047  30.127  1.00  0.00     0.031 C 
ATOM     58  C   UNL A   1      46.471  30.233  30.977  1.00  0.00     0.029 A 
ATOM     59  C   UNL A   1      45.142  30.025  30.647  1.00  0.00     0.049 A 
ATOM     60  H   UNL A   1      44.218  28.290  29.880  1.00  0.00     0.167 HD
ATOM     61  C   UNL A   1      42.761  30.667  30.389  1.00  0.00     0.074 A 
ATOM     62  C   UNL A   1      41.660  31.601  30.502  1.00  0.00     0.031 C 
ATOM     63  C   UNL A   1      44.037  30.946  30.750  1.00  0.00     0.037 A 
BRANCH  50  64
ATOM     64  C   UNL A   1      47.956  26.228  29.985  1.00  0.00     0.057 A 
ATOM     65  C   UNL A   1      48.873  26.228  28.924  1.00  0.00     0.134 A 
ATOM     66  C   UNL A   1      48.402  25.742  31.221  1.00  0.00     0.134 A 
ATOM     67  F   UNL A   1      48.509  26.670  27.711  1.00  0.00    -0.206 F 
ATOM     68  C   UNL A   1      50.171  25.737  29.079  1.00  0.00     0.040 A 
ATOM     69  C   UNL A   1      49.707  25.276  31.395  1.00  0.00     0.040 A 
ATOM     70  F   UNL A   1      47.580  25.719  32.281  1.00  0.00    -0.206 F 
ATOM     71  C   UNL A   1      50.592  25.265  30.320  1.00  0.00     0.006 A 
ENDBRANCH  50  64
BRANCH  51  72
ATOM     72  C   UNL A   1      38.493  29.256  29.008  1.00  0.00     0.057 A 
ATOM     73  C   UNL A   1      37.632  29.226  30.111  1.00  0.00     0.134 A 
ATOM     74  C   UNL A   1      37.968  29.714  27.794  1.00  0.00     0.134 A 
ATOM     75  F   UNL A   1      38.071  28.778  31.297  1.00  0.00    -0.206 F 
ATOM     76  C   UNL A   1      36.295  29.615  30.007  1.00  0.00     0.040 A 
ATOM     77  C   UNL A   1      36.641  30.132  27.682  1.00  0.00     0.040 A 
ATOM     78  F   UNL A   1      38.742  29.775  26.700  1.00  0.00    -0.206 F 
ATOM     79  C   UNL A   1      35.798  30.074  28.790  1.00  0.00     0.006 A 
ENDBRANCH  51  72
BRANCH  63  80
ATOM     80  C   UNL A   1      44.320  32.326  31.266  1.00  0.00     0.057 A 
ATOM     81  C   UNL A   1      44.275  32.631  32.632  1.00  0.00     0.134 A 
ATOM     82  C   UNL A   1      44.679  33.356  30.386  1.00  0.00     0.134 A 
ATOM     83  F   UNL A   1      43.925  31.694  33.527  1.00  0.00    -0.206 F 
ATOM     84  C   UNL A   1      44.552  33.916  33.103  1.00  0.00     0.040 A 
ATOM     85  C   UNL A   1      44.988  34.637  30.848  1.00  0.00     0.040 A 
ATOM     86  F   UNL A   1      44.751  33.131  29.066  1.00  0.00    -0.206 F 
ATOM     87  C   UNL A   1      44.918  34.921  32.209  1.00  0.00     0.006 A 
ENDBRANCH  63  80
ENDBRANCH  37  38
ENDBRANCH  29  32
ENDBRANCH  27  28
ENDBRANCH  26  27
ENDBRANCH  25  26
ENDBRANCH   1  25
TORSDOF 16
ENDMDL
MODEL 3
REMARK VINA RESULT:     -11.4      4.605      9.756
REMARK SMILES Cc1cc(C(=O)N2C[C@@H](C(=O)NCCCCCCNC(=O)c3ccc(-c4c5nc(c(-c6c(F)cccc6F)c6ccc([nH]6)c(-c6c(F)cccc6F)c6nc(c(-c7c(F)cccc7F)c7ccc4[nH]7)C=C6)C=C5)cc3)[C@H](C3CC3)C2)sc1C
REMARK SMILES IDX 15 1 14 2 13 3 12 4 10 5 11 6 9 8 7 9 8 10 80 11 76 12 5 13
REMARK SMILES IDX 6 14 4 15 1 16 2 17 3 18 82 19 81 20 83 21 77 22 78 23 79 24
REMARK SMILES IDX 16 25 17 26 18 27 19 28 20 29 21 31 22 32 23 33 75 34 24 35
REMARK SMILES IDX 74 36 25 37 26 38 27 39 68 40 28 41 73 42 67 43 69 44 29 45
REMARK SMILES IDX 72 46 66 47 65 48 30 50 56 51 39 52 55 53 40 54 43 55 54 56
REMARK SMILES IDX 70 57 41 58 42 59 53 61 71 62 44 63 31 64 32 65 37 66 33 67
REMARK SMILES IDX 34 68 36 69 38 70 35 71 57 72 58 73 63 74 59 75 60 76 62 77
REMARK SMILES IDX 64 78 61 79 45 80 46 81 51 82 47 83 48 84 50 85 52 86 49 87
REMARK H PARENT 12 7 19 30 69 49 43 60
REMARK Flexibility Score: inf
ROOT
ATOM      1  C   UNL A   1      32.368  29.799  25.777  1.00  0.00     0.002 C 
ENDROOT
BRANCH   1   2
ATOM      2  C   UNL A   1      32.889  29.328  24.418  1.00  0.00     0.021 C 
BRANCH   2   3
ATOM      3  C   UNL A   1      33.918  28.207  24.456  1.00  0.00     0.116 C 
BRANCH   3   4
ATOM      4  N   UNL A   1      34.049  27.493  23.202  1.00  0.00    -0.356 N 
ATOM      5  C   UNL A   1      33.502  26.299  22.826  1.00  0.00     0.225 C 
ATOM      6  O   UNL A   1      33.645  25.942  21.656  1.00  0.00    -0.275 OA
ATOM      7  H   UNL A   1      34.612  27.931  22.523  1.00  0.00     0.163 HD
BRANCH   5   8
ATOM      8  C   UNL A   1      32.757  25.446  23.836  1.00  0.00     0.103 C 
ATOM      9  N   UNL A   1      32.160  23.267  24.355  1.00  0.00    -0.337 N 
ATOM     10  C   UNL A   1      33.240  24.000  23.729  1.00  0.00     0.133 C 
ATOM     11  C   UNL A   1      30.897  23.875  24.003  1.00  0.00     0.124 C 
ATOM     12  C   UNL A   1      31.240  25.316  23.548  1.00  0.00     0.026 C 
BRANCH   9  13
ATOM     13  C   UNL A   1      32.182  22.175  25.204  1.00  0.00     0.263 C 
ATOM     14  O   UNL A   1      32.022  22.362  26.415  1.00  0.00    -0.268 OA
BRANCH  13  15
ATOM     15  C   UNL A   1      32.507  20.845  24.696  1.00  0.00     0.093 A 
ATOM     16  C   UNL A   1      32.153  18.258  21.975  1.00  0.00     0.045 C 
ATOM     17  C   UNL A   1      32.451  18.982  23.247  1.00  0.00    -0.037 A 
ATOM     18  C   UNL A   1      32.264  20.395  23.409  1.00  0.00     0.029 A 
ATOM     19  C   UNL A   1      32.894  18.407  24.426  1.00  0.00     0.005 A 
ATOM     20  S   UNL A   1      32.979  19.544  25.696  1.00  0.00    -0.135 S 
ATOM     21  C   UNL A   1      33.224  16.976  24.699  1.00  0.00     0.056 C 
ENDBRANCH  13  15
ENDBRANCH   9  13
BRANCH  12  22
ATOM     22  C   UNL A   1      30.300  26.297  24.217  1.00  0.00    -0.005 C 
ATOM     23  C   UNL A   1      29.715  27.524  23.560  1.00  0.00     0.004 C 
ATOM     24  C   UNL A   1      28.835  26.342  23.875  1.00  0.00     0.004 C 
ENDBRANCH  12  22
ENDBRANCH   5   8
ENDBRANCH   3   4
ENDBRANCH   2   3
ENDBRANCH   1   2
BRANCH   1  25
ATOM     25  C   UNL A   1      31.377  30.967  25.757  1.00  0.00     0.002 C 
BRANCH  25  26
ATOM     26  C   UNL A   1      31.398  31.894  26.975  1.00  0.00     0.021 C 
BRANCH  26  27
ATOM     27  C   UNL A   1      32.667  32.722  27.153  1.00  0.00     0.116 C 
BRANCH  27  28
ATOM     28  N   UNL A   1      32.397  34.088  27.561  1.00  0.00    -0.352 N 
ATOM     29  C   UNL A   1      32.991  34.844  28.541  1.00  0.00     0.251 C 
ATOM     30  H   UNL A   1      31.680  34.541  27.061  1.00  0.00     0.163 HD
ATOM     31  O   UNL A   1      32.527  35.940  28.837  1.00  0.00    -0.269 OA
BRANCH  29  32
ATOM     32  C   UNL A   1      34.177  34.330  29.261  1.00  0.00     0.039 A 
ATOM     33  C   UNL A   1      33.993  33.728  30.510  1.00  0.00     0.014 A 
ATOM     34  C   UNL A   1      35.460  34.450  28.725  1.00  0.00     0.014 A 
ATOM     35  C   UNL A   1      35.090  33.197  31.193  1.00  0.00     0.010 A 
ATOM     36  C   UNL A   1      36.541  33.855  29.370  1.00  0.00     0.010 A 
ATOM     37  C   UNL A   1      36.369  33.227  30.613  1.00  0.00    -0.014 A 
BRANCH  37  38
ATOM     38  C   UNL A   1      37.535  32.611  31.295  1.00  0.00     0.031 A 
ATOM     39  C   UNL A   1      38.222  31.418  30.689  1.00  0.00     0.074 A 
ATOM     40  C   UNL A   1      37.938  33.087  32.489  1.00  0.00     0.049 A 
ATOM     41  N   UNL A   1      39.210  30.703  31.165  1.00  0.00    -0.248 NA
ATOM     42  C   UNL A   1      37.718  30.954  29.388  1.00  0.00     0.031 C 
ATOM     43  C   UNL A   1      37.329  34.212  33.201  1.00  0.00     0.029 A 
ATOM     44  N   UNL A   1      38.951  32.678  33.320  1.00  0.00    -0.354 N 
ATOM     45  C   UNL A   1      39.434  29.699  30.231  1.00  0.00     0.074 A 
ATOM     46  C   UNL A   1      38.444  29.864  29.188  1.00  0.00     0.031 C 
ATOM     47  C   UNL A   1      37.993  34.416  34.350  1.00  0.00     0.029 A 
ATOM     48  C   UNL A   1      39.047  33.415  34.476  1.00  0.00     0.049 A 
ATOM     49  H   UNL A   1      39.552  31.928  33.107  1.00  0.00     0.167 HD
ATOM     50  C   UNL A   1      40.391  28.741  30.229  1.00  0.00     0.037 A 
ATOM     51  C   UNL A   1      39.883  33.290  35.524  1.00  0.00     0.037 A 
ATOM     52  C   UNL A   1      41.386  28.591  31.259  1.00  0.00     0.049 A 
ATOM     53  C   UNL A   1      40.924  32.205  35.508  1.00  0.00     0.074 A 
ATOM     54  C   UNL A   1      42.433  27.687  31.321  1.00  0.00     0.029 A 
ATOM     55  N   UNL A   1      41.456  29.362  32.410  1.00  0.00    -0.354 N 
ATOM     56  N   UNL A   1      41.167  31.304  34.587  1.00  0.00    -0.248 NA
ATOM     57  C   UNL A   1      41.812  32.123  36.677  1.00  0.00     0.031 C 
ATOM     58  C   UNL A   1      43.103  27.877  32.533  1.00  0.00     0.029 A 
ATOM     59  C   UNL A   1      42.510  28.937  33.201  1.00  0.00     0.049 A 
ATOM     60  H   UNL A   1      40.845  30.101  32.633  1.00  0.00     0.167 HD
ATOM     61  C   UNL A   1      42.250  30.569  35.049  1.00  0.00     0.074 A 
ATOM     62  C   UNL A   1      42.628  31.138  36.326  1.00  0.00     0.031 C 
ATOM     63  C   UNL A   1      42.877  29.516  34.469  1.00  0.00     0.037 A 
BRANCH  50  64
ATOM     64  C   UNL A   1      40.407  27.779  29.077  1.00  0.00     0.057 A 
ATOM     65  C   UNL A   1      41.182  28.006  27.932  1.00  0.00     0.134 A 
ATOM     66  C   UNL A   1      39.662  26.592  29.125  1.00  0.00     0.134 A 
ATOM     67  F   UNL A   1      41.911  29.127  27.815  1.00  0.00    -0.206 F 
ATOM     68  C   UNL A   1      41.194  27.105  26.865  1.00  0.00     0.040 A 
ATOM     69  C   UNL A   1      39.690  25.670  28.077  1.00  0.00     0.040 A 
ATOM     70  F   UNL A   1      38.903  26.307  30.193  1.00  0.00    -0.206 F 
ATOM     71  C   UNL A   1      40.451  25.929  26.939  1.00  0.00     0.006 A 
ENDBRANCH  50  64
BRANCH  51  72
ATOM     72  C   UNL A   1      39.782  34.227  36.672  1.00  0.00     0.057 A 
ATOM     73  C   UNL A   1      39.035  33.898  37.810  1.00  0.00     0.134 A 
ATOM     74  C   UNL A   1      40.415  35.475  36.657  1.00  0.00     0.134 A 
ATOM     75  F   UNL A   1      38.389  32.724  37.877  1.00  0.00    -0.206 F 
ATOM     76  C   UNL A   1      38.904  34.784  38.881  1.00  0.00     0.040 A 
ATOM     77  C   UNL A   1      40.314  36.360  37.732  1.00  0.00     0.040 A 
ATOM     78  F   UNL A   1      41.152  35.849  35.600  1.00  0.00    -0.206 F 
ATOM     79  C   UNL A   1      39.549  36.018  38.845  1.00  0.00     0.006 A 
ENDBRANCH  51  72
BRANCH  63  80
ATOM     80  C   UNL A   1      44.058  28.935  35.191  1.00  0.00     0.057 A 
ATOM     81  C   UNL A   1      45.360  29.407  34.982  1.00  0.00     0.134 A 
ATOM     82  C   UNL A   1      43.883  27.915  36.136  1.00  0.00     0.134 A 
ATOM     83  F   UNL A   1      45.598  30.372  34.082  1.00  0.00    -0.206 F 
ATOM     84  C   UNL A   1      46.450  28.867  35.668  1.00  0.00     0.040 A 
ATOM     85  C   UNL A   1      44.962  27.389  36.849  1.00  0.00     0.040 A 
ATOM     86  F   UNL A   1      42.662  27.425  36.392  1.00  0.00    -0.206 F 
ATOM     87  C   UNL A   1      46.250  27.861  36.611  1.00  0.00     0.006 A 
ENDBRANCH  63  80
ENDBRANCH  37  38
ENDBRANCH  29  32
ENDBRANCH  27  28
ENDBRANCH  26  27
ENDBRANCH  25  26
ENDBRANCH   1  25
TORSDOF 16
ENDMDL
