MODEL 1
REMARK VINA RESULT:     -12.2      0.000      0.000
REMARK SMILES CC(C)[C@H](NC(=O)[C@H]1CC(=O)N(c2ccc(F)cc2)C1)C(=O)N1CCC[C@@H]1C(=O)NCCCCCCNC(=O)c1ccc(-c2c3nc(c(-c4c(F)cccc4F)c4ccc([nH]4)c(-c4c(F)cccc4F)c4nc(c(-c5c(F)cccc5F)c5ccc2[nH]5)C=C4)C=C3)cc1
REMARK SMILES IDX 32 1 31 2 30 3 28 4 29 5 27 7 23 8 24 9 25 10 26 11 21 12
REMARK SMILES IDX 22 13 4 14 2 15 1 16 3 17 5 18 6 19 7 21 8 22 9 23 20 24
REMARK SMILES IDX 10 25 12 26 11 27 13 28 14 29 19 30 15 31 18 32 16 33 17 34
REMARK SMILES IDX 33 35 34 36 35 37 36 38 37 39 38 40 39 42 40 43 41 44 93 45
REMARK SMILES IDX 42 46 92 47 43 48 44 49 45 50 86 51 46 52 91 53 85 54 87 55
REMARK SMILES IDX 47 56 90 57 84 58 83 59 48 61 74 62 57 63 73 64 58 65 61 66
REMARK SMILES IDX 72 67 88 68 59 69 60 70 71 72 89 73 62 74 49 75 50 76 55 77
REMARK SMILES IDX 51 78 52 79 54 80 56 81 53 82 75 83 76 84 81 85 77 86 78 87
REMARK SMILES IDX 80 88 82 89 79 90 63 91 64 92 69 93 65 94 66 95 68 96 70 97
REMARK SMILES IDX 67 98
REMARK H PARENT 30 6 5 20 37 41 87 60 61 71
REMARK Flexibility Score: inf
ROOT
ATOM      1  C   UNL A   1      34.723  31.038  28.083  1.00  0.00     0.021 C 
ENDROOT
BRANCH   1   2
ATOM      2  C   UNL A   1      33.582  30.459  27.240  1.00  0.00     0.116 C 
BRANCH   2   3
ATOM      3  N   UNL A   1      34.028  29.741  26.067  1.00  0.00    -0.354 N 
ATOM      4  C   UNL A   1      33.336  29.025  25.135  1.00  0.00     0.242 C 
ATOM      5  O   UNL A   1      34.020  28.470  24.267  1.00  0.00    -0.273 OA
ATOM      6  H   UNL A   1      34.999  29.775  25.915  1.00  0.00     0.163 HD
BRANCH   4   7
ATOM      7  C   UNL A   1      31.808  28.748  25.202  1.00  0.00     0.174 C 
ATOM      8  N   UNL A   1      31.255  27.479  24.686  1.00  0.00    -0.329 N 
ATOM      9  C   UNL A   1      29.902  27.746  24.247  1.00  0.00     0.120 C 
ATOM     10  C   UNL A   1      29.989  29.120  23.619  1.00  0.00     0.024 C 
ATOM     11  C   UNL A   1      30.985  29.854  24.515  1.00  0.00     0.037 C 
BRANCH   8  12
ATOM     12  C   UNL A   1      31.487  26.313  25.403  1.00  0.00     0.246 C 
ATOM     13  O   UNL A   1      31.014  26.172  26.534  1.00  0.00    -0.272 OA
BRANCH  12  14
ATOM     14  C   UNL A   1      32.577  25.305  24.903  1.00  0.00     0.174 C 
BRANCH  14  15
ATOM     15  C   UNL A   1      32.135  24.705  23.511  1.00  0.00     0.015 C 
ATOM     16  C   UNL A   1      30.685  24.193  23.465  1.00  0.00     0.010 C 
ATOM     17  C   UNL A   1      32.322  25.677  22.334  1.00  0.00     0.010 C 
ENDBRANCH  14  15
BRANCH  14  18
ATOM     18  N   UNL A   1      33.304  24.409  25.904  1.00  0.00    -0.344 N 
ATOM     19  C   UNL A   1      34.056  23.270  26.024  1.00  0.00     0.226 C 
ATOM     20  H   UNL A   1      33.189  24.797  26.802  1.00  0.00     0.164 HD
ATOM     21  O   UNL A   1      34.487  23.012  27.153  1.00  0.00    -0.275 OA
BRANCH  19  22
ATOM     22  C   UNL A   1      34.308  22.274  24.903  1.00  0.00     0.107 C 
ATOM     23  C   UNL A   1      35.523  21.507  25.265  1.00  0.00     0.116 C 
ATOM     24  C   UNL A   1      33.238  21.181  24.709  1.00  0.00     0.139 C 
ATOM     25  C   UNL A   1      35.332  20.119  24.886  1.00  0.00     0.227 C 
ATOM     26  N   UNL A   1      34.002  19.958  24.570  1.00  0.00    -0.312 N 
ATOM     27  O   UNL A   1      36.217  19.297  25.025  1.00  0.00    -0.274 OA
BRANCH  26  28
ATOM     28  C   UNL A   1      33.470  18.667  24.525  1.00  0.00     0.044 A 
ATOM     29  C   UNL A   1      32.859  18.179  25.695  1.00  0.00     0.029 A 
ATOM     30  C   UNL A   1      33.826  17.806  23.489  1.00  0.00     0.029 A 
ATOM     31  C   UNL A   1      32.711  16.825  25.892  1.00  0.00     0.041 A 
ATOM     32  C   UNL A   1      33.679  16.437  23.691  1.00  0.00     0.041 A 
ATOM     33  C   UNL A   1      33.166  15.978  24.906  1.00  0.00     0.123 A 
ATOM     34  F   UNL A   1      33.159  14.682  25.190  1.00  0.00    -0.207 F 
ENDBRANCH  26  28
ENDBRANCH  19  22
ENDBRANCH  14  18
ENDBRANCH  12  14
ENDBRANCH   8  12
ENDBRANCH   4   7
ENDBRANCH   2   3
ENDBRANCH   1   2
BRANCH   1  35
ATOM     35  C   UNL A   1      34.383  32.235  28.988  1.00  0.00     0.002 C 
BRANCH  35  36
ATOM     36  C   UNL A   1      34.369  33.629  28.340  1.00  0.00     0.002 C 
BRANCH  36  37
ATOM     37  C   UNL A   1      33.090  34.454  28.521  1.00  0.00     0.021 C 
BRANCH  37  38
ATOM     38  C   UNL A   1      33.207  35.877  29.044  1.00  0.00     0.116 C 
BRANCH  38  39
ATOM     39  N   UNL A   1      32.439  36.126  30.251  1.00  0.00    -0.352 N 
ATOM     40  C   UNL A   1      32.635  35.775  31.570  1.00  0.00     0.251 C 
ATOM     41  H   UNL A   1      31.619  36.647  30.098  1.00  0.00     0.163 HD
ATOM     42  O   UNL A   1      31.751  36.071  32.376  1.00  0.00    -0.269 OA
BRANCH  40  43
ATOM     43  C   UNL A   1      33.834  35.034  32.067  1.00  0.00     0.039 A 
ATOM     44  C   UNL A   1      33.631  33.930  32.917  1.00  0.00     0.014 A 
ATOM     45  C   UNL A   1      35.144  35.399  31.773  1.00  0.00     0.014 A 
ATOM     46  C   UNL A   1      34.710  33.157  33.387  1.00  0.00     0.010 A 
ATOM     47  C   UNL A   1      36.212  34.579  32.162  1.00  0.00     0.010 A 
ATOM     48  C   UNL A   1      36.015  33.442  32.970  1.00  0.00    -0.014 A 
BRANCH  48  49
ATOM     49  C   UNL A   1      37.201  32.613  33.346  1.00  0.00     0.031 A 
ATOM     50  C   UNL A   1      38.060  33.049  34.502  1.00  0.00     0.074 A 
ATOM     51  C   UNL A   1      37.617  31.568  32.596  1.00  0.00     0.049 A 
ATOM     52  N   UNL A   1      39.204  32.561  34.912  1.00  0.00    -0.248 NA
ATOM     53  C   UNL A   1      37.568  34.183  35.301  1.00  0.00     0.031 C 
ATOM     54  C   UNL A   1      36.902  30.975  31.472  1.00  0.00     0.029 A 
ATOM     55  N   UNL A   1      38.798  30.858  32.626  1.00  0.00    -0.354 N 
ATOM     56  C   UNL A   1      39.540  33.297  36.039  1.00  0.00     0.074 A 
ATOM     57  C   UNL A   1      38.552  34.345  36.172  1.00  0.00     0.031 C 
ATOM     58  C   UNL A   1      37.705  30.119  30.823  1.00  0.00     0.029 A 
ATOM     59  C   UNL A   1      38.966  30.022  31.544  1.00  0.00     0.049 A 
ATOM     60  H   UNL A   1      39.459  30.941  33.351  1.00  0.00     0.167 HD
ATOM     61  C   UNL A   1      40.533  33.074  36.929  1.00  0.00     0.037 A 
ATOM     62  C   UNL A   1      39.999  29.241  31.177  1.00  0.00     0.037 A 
ATOM     63  C   UNL A   1      41.504  32.020  36.817  1.00  0.00     0.049 A 
ATOM     64  C   UNL A   1      41.158  29.072  32.112  1.00  0.00     0.074 A 
ATOM     65  C   UNL A   1      42.481  31.649  37.724  1.00  0.00     0.029 A 
ATOM     66  N   UNL A   1      41.628  31.176  35.726  1.00  0.00    -0.354 N 
ATOM     67  N   UNL A   1      41.387  29.679  33.249  1.00  0.00    -0.248 NA
ATOM     68  C   UNL A   1      42.160  28.056  31.756  1.00  0.00     0.031 C 
ATOM     69  C   UNL A   1      43.224  30.605  37.162  1.00  0.00     0.029 A 
ATOM     70  C   UNL A   1      42.686  30.305  35.921  1.00  0.00     0.049 A 
ATOM     71  H   UNL A   1      41.048  31.193  34.930  1.00  0.00     0.167 HD
ATOM     72  C   UNL A   1      42.514  29.069  33.783  1.00  0.00     0.074 A 
ATOM     73  C   UNL A   1      42.943  28.068  32.828  1.00  0.00     0.031 C 
ATOM     74  C   UNL A   1      43.109  29.302  34.977  1.00  0.00     0.037 A 
BRANCH  61  75
ATOM     75  C   UNL A   1      40.567  33.958  38.138  1.00  0.00     0.057 A 
ATOM     76  C   UNL A   1      41.317  35.138  38.154  1.00  0.00     0.134 A 
ATOM     77  C   UNL A   1      39.854  33.624  39.299  1.00  0.00     0.134 A 
ATOM     78  F   UNL A   1      42.025  35.511  37.078  1.00  0.00    -0.206 F 
ATOM     79  C   UNL A   1      41.349  35.961  39.281  1.00  0.00     0.040 A 
ATOM     80  C   UNL A   1      39.857  34.451  40.421  1.00  0.00     0.040 A 
ATOM     81  F   UNL A   1      39.106  32.509  39.340  1.00  0.00    -0.206 F 
ATOM     82  C   UNL A   1      40.610  35.622  40.415  1.00  0.00     0.006 A 
ENDBRANCH  61  75
BRANCH  62  83
ATOM     83  C   UNL A   1      39.926  28.472  29.911  1.00  0.00     0.057 A 
ATOM     84  C   UNL A   1      39.238  27.255  29.834  1.00  0.00     0.134 A 
ATOM     85  C   UNL A   1      40.564  28.929  28.752  1.00  0.00     0.134 A 
ATOM     86  F   UNL A   1      38.608  26.763  30.912  1.00  0.00    -0.206 F 
ATOM     87  C   UNL A   1      39.187  26.520  28.648  1.00  0.00     0.040 A 
ATOM     88  C   UNL A   1      40.513  28.210  27.557  1.00  0.00     0.040 A 
ATOM     89  F   UNL A   1      41.227  30.094  28.764  1.00  0.00    -0.206 F 
ATOM     90  C   UNL A   1      39.824  26.999  27.504  1.00  0.00     0.006 A 
ENDBRANCH  62  83
BRANCH  74  91
ATOM     91  C   UNL A   1      44.270  28.435  35.357  1.00  0.00     0.057 A 
ATOM     92  C   UNL A   1      45.572  28.793  34.983  1.00  0.00     0.134 A 
ATOM     93  C   UNL A   1      44.095  27.214  36.017  1.00  0.00     0.134 A 
ATOM     94  F   UNL A   1      45.804  29.949  34.344  1.00  0.00    -0.206 F 
ATOM     95  C   UNL A   1      46.659  27.956  35.235  1.00  0.00     0.040 A 
ATOM     96  C   UNL A   1      45.177  26.378  36.294  1.00  0.00     0.040 A 
ATOM     97  F   UNL A   1      42.874  26.824  36.413  1.00  0.00    -0.206 F 
ATOM     98  C   UNL A   1      46.461  26.743  35.893  1.00  0.00     0.006 A 
ENDBRANCH  74  91
ENDBRANCH  48  49
ENDBRANCH  40  43
ENDBRANCH  38  39
ENDBRANCH  37  38
ENDBRANCH  36  37
ENDBRANCH  35  36
ENDBRANCH   1  35
TORSDOF 19
ENDMDL
MODEL 2
REMARK VINA RESULT:     -11.7      4.473      6.465
REMARK SMILES CC(C)[C@H](NC(=O)[C@H]1CC(=O)N(c2ccc(F)cc2)C1)C(=O)N1CCC[C@@H]1C(=O)NCCCCCCNC(=O)c1ccc(-c2c3nc(c(-c4c(F)cccc4F)c4ccc([nH]4)c(-c4c(F)cccc4F)c4nc(c(-c5c(F)cccc5F)c5ccc2[nH]5)C=C4)C=C3)cc1
REMARK SMILES IDX 32 1 31 2 30 3 28 4 29 5 27 7 23 8 24 9 25 10 26 11 21 12
REMARK SMILES IDX 22 13 4 14 2 15 1 16 3 17 5 18 6 19 7 21 8 22 9 23 20 24
REMARK SMILES IDX 10 25 12 26 11 27 13 28 14 29 19 30 15 31 18 32 16 33 17 34
REMARK SMILES IDX 33 35 34 36 35 37 36 38 37 39 38 40 39 42 40 43 41 44 93 45
REMARK SMILES IDX 42 46 92 47 43 48 44 49 45 50 86 51 46 52 91 53 85 54 87 55
REMARK SMILES IDX 47 56 90 57 84 58 83 59 48 61 74 62 57 63 73 64 58 65 61 66
REMARK SMILES IDX 72 67 88 68 59 69 60 70 71 72 89 73 62 74 49 75 50 76 55 77
REMARK SMILES IDX 51 78 52 79 54 80 56 81 53 82 75 83 76 84 81 85 77 86 78 87
REMARK SMILES IDX 80 88 82 89 79 90 63 91 64 92 69 93 65 94 66 95 68 96 70 97
REMARK SMILES IDX 67 98
REMARK H PARENT 30 6 5 20 37 41 87 60 61 71
REMARK Flexibility Score: inf
ROOT
ATOM      1  C   UNL A   1      34.599  29.410  27.416  1.00  0.00     0.021 C 
ENDROOT
BRANCH   1   2
ATOM      2  C   UNL A   1      33.984  28.355  26.490  1.00  0.00     0.116 C 
BRANCH   2   3
ATOM      3  N   UNL A   1      33.996  28.726  25.093  1.00  0.00    -0.354 N 
ATOM      4  C   UNL A   1      32.985  28.845  24.187  1.00  0.00     0.242 C 
ATOM      5  O   UNL A   1      33.327  29.128  23.032  1.00  0.00    -0.273 OA
ATOM      6  H   UNL A   1      34.889  28.926  24.733  1.00  0.00     0.163 HD
BRANCH   4   7
ATOM      7  C   UNL A   1      31.499  28.497  24.483  1.00  0.00     0.174 C 
ATOM      8  N   UNL A   1      30.981  27.140  24.211  1.00  0.00    -0.329 N 
ATOM      9  C   UNL A   1      29.570  27.270  23.915  1.00  0.00     0.120 C 
ATOM     10  C   UNL A   1      29.483  28.546  23.108  1.00  0.00     0.024 C 
ATOM     11  C   UNL A   1      30.524  29.451  23.767  1.00  0.00     0.037 C 
BRANCH   8  12
ATOM     12  C   UNL A   1      31.379  26.099  25.038  1.00  0.00     0.246 C 
ATOM     13  O   UNL A   1      30.999  26.055  26.212  1.00  0.00    -0.272 OA
BRANCH  12  14
ATOM     14  C   UNL A   1      32.530  25.143  24.575  1.00  0.00     0.174 C 
BRANCH  14  15
ATOM     15  C   UNL A   1      32.125  24.459  23.210  1.00  0.00     0.015 C 
ATOM     16  C   UNL A   1      30.690  23.907  23.172  1.00  0.00     0.010 C 
ATOM     17  C   UNL A   1      32.305  25.373  21.986  1.00  0.00     0.010 C 
ENDBRANCH  14  15
BRANCH  14  18
ATOM     18  N   UNL A   1      33.316  24.338  25.608  1.00  0.00    -0.344 N 
ATOM     19  C   UNL A   1      34.123  23.243  25.775  1.00  0.00     0.226 C 
ATOM     20  H   UNL A   1      33.198  24.768  26.486  1.00  0.00     0.164 HD
ATOM     21  O   UNL A   1      34.585  23.067  26.907  1.00  0.00    -0.275 OA
BRANCH  19  22
ATOM     22  C   UNL A   1      34.403  22.200  24.704  1.00  0.00     0.107 C 
ATOM     23  C   UNL A   1      35.607  21.450  25.129  1.00  0.00     0.116 C 
ATOM     24  C   UNL A   1      33.337  21.099  24.531  1.00  0.00     0.139 C 
ATOM     25  C   UNL A   1      35.425  20.047  24.805  1.00  0.00     0.227 C 
ATOM     26  N   UNL A   1      34.104  19.872  24.464  1.00  0.00    -0.312 N 
ATOM     27  O   UNL A   1      36.307  19.233  25.003  1.00  0.00    -0.274 OA
BRANCH  26  28
ATOM     28  C   UNL A   1      33.573  18.579  24.461  1.00  0.00     0.044 A 
ATOM     29  C   UNL A   1      32.858  18.172  25.603  1.00  0.00     0.029 A 
ATOM     30  C   UNL A   1      34.015  17.650  23.522  1.00  0.00     0.029 A 
ATOM     31  C   UNL A   1      32.689  16.835  25.879  1.00  0.00     0.041 A 
ATOM     32  C   UNL A   1      33.845  16.298  23.805  1.00  0.00     0.041 A 
ATOM     33  C   UNL A   1      33.225  15.923  24.997  1.00  0.00     0.123 A 
ATOM     34  F   UNL A   1      33.188  14.649  25.369  1.00  0.00    -0.207 F 
ENDBRANCH  26  28
ENDBRANCH  19  22
ENDBRANCH  14  18
ENDBRANCH  12  14
ENDBRANCH   8  12
ENDBRANCH   4   7
ENDBRANCH   2   3
ENDBRANCH   1   2
BRANCH   1  35
ATOM     35  C   UNL A   1      33.884  30.770  27.497  1.00  0.00     0.002 C 
BRANCH  35  36
ATOM     36  C   UNL A   1      34.705  31.972  27.993  1.00  0.00     0.002 C 
BRANCH  36  37
ATOM     37  C   UNL A   1      34.032  32.877  29.030  1.00  0.00     0.021 C 
BRANCH  37  38
ATOM     38  C   UNL A   1      34.909  33.733  29.931  1.00  0.00     0.116 C 
BRANCH  38  39
ATOM     39  N   UNL A   1      34.963  33.275  31.308  1.00  0.00    -0.352 N 
ATOM     40  C   UNL A   1      35.895  32.542  32.010  1.00  0.00     0.251 C 
ATOM     41  H   UNL A   1      34.183  33.541  31.844  1.00  0.00     0.163 HD
ATOM     42  O   UNL A   1      35.622  32.239  33.173  1.00  0.00    -0.269 OA
BRANCH  40  43
ATOM     43  C   UNL A   1      37.193  32.072  31.437  1.00  0.00     0.039 A 
ATOM     44  C   UNL A   1      38.214  31.684  32.326  1.00  0.00     0.014 A 
ATOM     45  C   UNL A   1      37.466  32.036  30.073  1.00  0.00     0.014 A 
ATOM     46  C   UNL A   1      39.445  31.187  31.856  1.00  0.00     0.010 A 
ATOM     47  C   UNL A   1      38.652  31.457  29.603  1.00  0.00     0.010 A 
ATOM     48  C   UNL A   1      39.660  31.017  30.485  1.00  0.00    -0.014 A 
BRANCH  48  49
ATOM     49  C   UNL A   1      40.900  30.408  29.913  1.00  0.00     0.031 A 
ATOM     50  C   UNL A   1      42.037  31.307  29.510  1.00  0.00     0.074 A 
ATOM     51  C   UNL A   1      40.982  29.094  29.606  1.00  0.00     0.049 A 
ATOM     52  N   UNL A   1      43.141  31.009  28.873  1.00  0.00    -0.248 NA
ATOM     53  C   UNL A   1      41.916  32.729  29.871  1.00  0.00     0.031 C 
ATOM     54  C   UNL A   1      40.008  28.066  29.952  1.00  0.00     0.029 A 
ATOM     55  N   UNL A   1      41.911  28.406  28.856  1.00  0.00    -0.354 N 
ATOM     56  C   UNL A   1      43.860  32.193  28.800  1.00  0.00     0.074 A 
ATOM     57  C   UNL A   1      43.016  33.237  29.339  1.00  0.00     0.031 C 
ATOM     58  C   UNL A   1      40.291  26.931  29.295  1.00  0.00     0.029 A 
ATOM     59  C   UNL A   1      41.530  27.117  28.554  1.00  0.00     0.049 A 
ATOM     60  H   UNL A   1      42.766  28.797  28.565  1.00  0.00     0.167 HD
ATOM     61  C   UNL A   1      45.137  32.382  28.398  1.00  0.00     0.037 A 
ATOM     62  C   UNL A   1      42.114  26.173  27.791  1.00  0.00     0.037 A 
ATOM     63  C   UNL A   1      45.991  31.347  27.884  1.00  0.00     0.049 A 
ATOM     64  C   UNL A   1      43.489  26.418  27.249  1.00  0.00     0.074 A 
ATOM     65  C   UNL A   1      47.332  31.421  27.553  1.00  0.00     0.029 A 
ATOM     66  N   UNL A   1      45.583  30.050  27.618  1.00  0.00    -0.354 N 
ATOM     67  N   UNL A   1      44.213  27.507  27.315  1.00  0.00    -0.248 NA
ATOM     68  C   UNL A   1      44.161  25.285  26.597  1.00  0.00     0.031 C 
ATOM     69  C   UNL A   1      47.726  30.178  27.045  1.00  0.00     0.029 A 
ATOM     70  C   UNL A   1      46.637  29.321  27.095  1.00  0.00     0.049 A 
ATOM     71  H   UNL A   1      44.677  29.699  27.778  1.00  0.00     0.167 HD
ATOM     72  C   UNL A   1      45.450  27.171  26.783  1.00  0.00     0.074 A 
ATOM     73  C   UNL A   1      45.368  25.787  26.367  1.00  0.00     0.031 C 
ATOM     74  C   UNL A   1      46.560  27.941  26.689  1.00  0.00     0.037 A 
BRANCH  61  75
ATOM     75  C   UNL A   1      45.699  33.761  28.565  1.00  0.00     0.057 A 
ATOM     76  C   UNL A   1      45.595  34.717  27.550  1.00  0.00     0.134 A 
ATOM     77  C   UNL A   1      46.360  34.134  29.745  1.00  0.00     0.134 A 
ATOM     78  F   UNL A   1      44.980  34.421  26.396  1.00  0.00    -0.206 F 
ATOM     79  C   UNL A   1      46.120  36.000  27.706  1.00  0.00     0.040 A 
ATOM     80  C   UNL A   1      46.865  35.422  29.923  1.00  0.00     0.040 A 
ATOM     81  F   UNL A   1      46.483  33.264  30.761  1.00  0.00    -0.206 F 
ATOM     82  C   UNL A   1      46.749  36.358  28.898  1.00  0.00     0.006 A 
ENDBRANCH  61  75
BRANCH  62  83
ATOM     83  C   UNL A   1      41.442  24.866  27.595  1.00  0.00     0.057 A 
ATOM     84  C   UNL A   1      40.416  24.706  26.655  1.00  0.00     0.134 A 
ATOM     85  C   UNL A   1      41.797  23.750  28.361  1.00  0.00     0.134 A 
ATOM     86  F   UNL A   1      40.029  25.740  25.892  1.00  0.00    -0.206 F 
ATOM     87  C   UNL A   1      39.768  23.481  26.485  1.00  0.00     0.040 A 
ATOM     88  C   UNL A   1      41.165  22.518  28.194  1.00  0.00     0.040 A 
ATOM     89  F   UNL A   1      42.782  23.843  29.267  1.00  0.00    -0.206 F 
ATOM     90  C   UNL A   1      40.145  22.381  27.255  1.00  0.00     0.006 A 
ENDBRANCH  62  83
BRANCH  74  91
ATOM     91  C   UNL A   1      47.806  27.304  26.153  1.00  0.00     0.057 A 
ATOM     92  C   UNL A   1      48.044  27.268  24.772  1.00  0.00     0.134 A 
ATOM     93  C   UNL A   1      48.724  26.660  26.988  1.00  0.00     0.134 A 
ATOM     94  F   UNL A   1      47.198  27.863  23.919  1.00  0.00    -0.206 F 
ATOM     95  C   UNL A   1      49.142  26.593  24.240  1.00  0.00     0.040 A 
ATOM     96  C   UNL A   1      49.839  26.001  26.469  1.00  0.00     0.040 A 
ATOM     97  F   UNL A   1      48.559  26.674  28.319  1.00  0.00    -0.206 F 
ATOM     98  C   UNL A   1      50.044  25.957  25.090  1.00  0.00     0.006 A 
ENDBRANCH  74  91
ENDBRANCH  48  49
ENDBRANCH  40  43
ENDBRANCH  38  39
ENDBRANCH  37  38
ENDBRANCH  36  37
ENDBRANCH  35  36
ENDBRANCH   1  35
TORSDOF 19
ENDMDL
MODEL 3
REMARK VINA RESULT:     -11.7      5.042      8.621
REMARK SMILES CC(C)[C@H](NC(=O)[C@H]1CC(=O)N(c2ccc(F)cc2)C1)C(=O)N1CCC[C@@H]1C(=O)NCCCCCCNC(=O)c1ccc(-c2c3nc(c(-c4c(F)cccc4F)c4ccc([nH]4)c(-c4c(F)cccc4F)c4nc(c(-c5c(F)cccc5F)c5ccc2[nH]5)C=C4)C=C3)cc1
REMARK SMILES IDX 32 1 31 2 30 3 28 4 29 5 27 7 23 8 24 9 25 10 26 11 21 12
REMARK SMILES IDX 22 13 4 14 2 15 1 16 3 17 5 18 6 19 7 21 8 22 9 23 20 24
REMARK SMILES IDX 10 25 12 26 11 27 13 28 14 29 19 30 15 31 18 32 16 33 17 34
REMARK SMILES IDX 33 35 34 36 35 37 36 38 37 39 38 40 39 42 40 43 41 44 93 45
REMARK SMILES IDX 42 46 92 47 43 48 44 49 45 50 86 51 46 52 91 53 85 54 87 55
REMARK SMILES IDX 47 56 90 57 84 58 83 59 48 61 74 62 57 63 73 64 58 65 61 66
REMARK SMILES IDX 72 67 88 68 59 69 60 70 71 72 89 73 62 74 49 75 50 76 55 77
REMARK SMILES IDX 51 78 52 79 54 80 56 81 53 82 75 83 76 84 81 85 77 86 78 87
REMARK SMILES IDX 80 88 82 89 79 90 63 91 64 92 69 93 65 94 66 95 68 96 70 97
REMARK SMILES IDX 67 98
REMARK H PARENT 30 6 5 20 37 41 87 60 61 71
REMARK Flexibility Score: inf
ROOT
ATOM      1  C   UNL A   1      34.632  30.401  27.559  1.00  0.00     0.021 C 
ENDROOT
BRANCH   1   2
ATOM      2  C   UNL A   1      33.507  29.657  26.831  1.00  0.00     0.116 C 
BRANCH   2   3
ATOM      3  N   UNL A   1      33.720  29.524  25.408  1.00  0.00    -0.354 N 
ATOM      4  C   UNL A   1      32.856  29.238  24.393  1.00  0.00     0.242 C 
ATOM      5  O   UNL A   1      33.361  29.133  23.268  1.00  0.00    -0.273 OA
ATOM      6  H   UNL A   1      34.651  29.663  25.121  1.00  0.00     0.163 HD
BRANCH   4   7
ATOM      7  C   UNL A   1      31.355  28.888  24.595  1.00  0.00     0.174 C 
ATOM      8  N   UNL A   1      30.866  27.517  24.342  1.00  0.00    -0.329 N 
ATOM      9  C   UNL A   1      29.479  27.622  23.940  1.00  0.00     0.120 C 
ATOM     10  C   UNL A   1      29.444  28.864  23.078  1.00  0.00     0.024 C 
ATOM     11  C   UNL A   1      30.428  29.804  23.772  1.00  0.00     0.037 C 
BRANCH   8  12
ATOM     12  C   UNL A   1      31.209  26.513  25.237  1.00  0.00     0.246 C 
ATOM     13  O   UNL A   1      30.916  26.616  26.432  1.00  0.00    -0.272 OA
BRANCH  12  14
ATOM     14  C   UNL A   1      32.212  25.395  24.794  1.00  0.00     0.174 C 
BRANCH  14  15
ATOM     15  C   UNL A   1      31.765  24.815  23.395  1.00  0.00     0.015 C 
ATOM     16  C   UNL A   1      32.920  24.319  22.509  1.00  0.00     0.010 C 
ATOM     17  C   UNL A   1      30.737  23.675  23.501  1.00  0.00     0.010 C 
ENDBRANCH  14  15
BRANCH  14  18
ATOM     18  N   UNL A   1      32.812  24.452  25.836  1.00  0.00    -0.344 N 
ATOM     19  C   UNL A   1      33.505  23.281  25.997  1.00  0.00     0.226 C 
ATOM     20  H   UNL A   1      32.631  24.826  26.728  1.00  0.00     0.164 HD
ATOM     21  O   UNL A   1      33.823  22.984  27.153  1.00  0.00    -0.275 OA
BRANCH  19  22
ATOM     22  C   UNL A   1      33.819  22.297  24.880  1.00  0.00     0.107 C 
ATOM     23  C   UNL A   1      35.089  21.624  25.235  1.00  0.00     0.116 C 
ATOM     24  C   UNL A   1      32.830  21.128  24.704  1.00  0.00     0.139 C 
ATOM     25  C   UNL A   1      34.997  20.223  24.867  1.00  0.00     0.227 C 
ATOM     26  N   UNL A   1      33.679  19.963  24.566  1.00  0.00    -0.312 N 
ATOM     27  O   UNL A   1      35.941  19.469  25.004  1.00  0.00    -0.274 OA
BRANCH  26  28
ATOM     28  C   UNL A   1      33.243  18.636  24.535  1.00  0.00     0.044 A 
ATOM     29  C   UNL A   1      32.829  18.064  25.752  1.00  0.00     0.029 A 
ATOM     30  C   UNL A   1      33.522  17.840  23.427  1.00  0.00     0.029 A 
ATOM     31  C   UNL A   1      32.809  16.697  25.909  1.00  0.00     0.041 A 
ATOM     32  C   UNL A   1      33.504  16.457  23.588  1.00  0.00     0.041 A 
ATOM     33  C   UNL A   1      33.191  15.921  24.838  1.00  0.00     0.123 A 
ATOM     34  F   UNL A   1      33.317  14.619  25.065  1.00  0.00    -0.207 F 
ENDBRANCH  26  28
ENDBRANCH  19  22
ENDBRANCH  14  18
ENDBRANCH  12  14
ENDBRANCH   8  12
ENDBRANCH   4   7
ENDBRANCH   2   3
ENDBRANCH   1   2
BRANCH   1  35
ATOM     35  C   UNL A   1      34.438  31.912  27.781  1.00  0.00     0.002 C 
BRANCH  35  36
ATOM     36  C   UNL A   1      35.703  32.765  27.976  1.00  0.00     0.002 C 
BRANCH  36  37
ATOM     37  C   UNL A   1      35.775  33.595  29.262  1.00  0.00     0.021 C 
BRANCH  37  38
ATOM     38  C   UNL A   1      36.507  33.019  30.464  1.00  0.00     0.116 C 
BRANCH  38  39
ATOM     39  N   UNL A   1      36.043  31.701  30.859  1.00  0.00    -0.352 N 
ATOM     40  C   UNL A   1      36.616  30.450  30.785  1.00  0.00     0.251 C 
ATOM     41  H   UNL A   1      35.144  31.702  31.258  1.00  0.00     0.163 HD
ATOM     42  O   UNL A   1      35.932  29.488  31.140  1.00  0.00    -0.269 OA
BRANCH  40  43
ATOM     43  C   UNL A   1      37.997  30.193  30.274  1.00  0.00     0.039 A 
ATOM     44  C   UNL A   1      39.032  30.011  31.211  1.00  0.00     0.014 A 
ATOM     45  C   UNL A   1      38.328  30.166  28.923  1.00  0.00     0.014 A 
ATOM     46  C   UNL A   1      40.348  29.719  30.803  1.00  0.00     0.010 A 
ATOM     47  C   UNL A   1      39.612  29.785  28.515  1.00  0.00     0.010 A 
ATOM     48  C   UNL A   1      40.644  29.549  29.446  1.00  0.00    -0.014 A 
BRANCH  48  49
ATOM     49  C   UNL A   1      41.992  29.146  28.940  1.00  0.00     0.031 A 
ATOM     50  C   UNL A   1      42.244  27.701  28.604  1.00  0.00     0.074 A 
ATOM     51  C   UNL A   1      43.037  30.003  28.913  1.00  0.00     0.049 A 
ATOM     52  N   UNL A   1      43.367  27.111  28.283  1.00  0.00    -0.248 NA
ATOM     53  C   UNL A   1      41.079  26.802  28.634  1.00  0.00     0.031 C 
ATOM     54  C   UNL A   1      42.982  31.438  29.161  1.00  0.00     0.029 A 
ATOM     55  N   UNL A   1      44.383  29.767  28.732  1.00  0.00    -0.354 N 
ATOM     56  C   UNL A   1      43.034  25.788  28.030  1.00  0.00     0.074 A 
ATOM     57  C   UNL A   1      41.634  25.632  28.359  1.00  0.00     0.031 C 
ATOM     58  C   UNL A   1      44.225  31.928  29.280  1.00  0.00     0.029 A 
ATOM     59  C   UNL A   1      45.176  30.857  29.016  1.00  0.00     0.049 A 
ATOM     60  H   UNL A   1      44.744  28.903  28.429  1.00  0.00     0.167 HD
ATOM     61  C   UNL A   1      43.800  24.811  27.494  1.00  0.00     0.037 A 
ATOM     62  C   UNL A   1      46.515  31.001  29.039  1.00  0.00     0.037 A 
ATOM     63  C   UNL A   1      45.185  24.965  27.141  1.00  0.00     0.049 A 
ATOM     64  C   UNL A   1      47.379  29.880  28.547  1.00  0.00     0.074 A 
ATOM     65  C   UNL A   1      46.014  24.066  26.494  1.00  0.00     0.029 A 
ATOM     66  N   UNL A   1      45.947  26.088  27.415  1.00  0.00    -0.354 N 
ATOM     67  N   UNL A   1      47.025  28.675  28.176  1.00  0.00    -0.248 NA
ATOM     68  C   UNL A   1      48.815  30.160  28.402  1.00  0.00     0.031 C 
ATOM     69  C   UNL A   1      47.292  24.630  26.414  1.00  0.00     0.029 A 
ATOM     70  C   UNL A   1      47.247  25.894  26.980  1.00  0.00     0.049 A 
ATOM     71  H   UNL A   1      45.614  26.904  27.854  1.00  0.00     0.167 HD
ATOM     72  C   UNL A   1      48.177  28.078  27.683  1.00  0.00     0.074 A 
ATOM     73  C   UNL A   1      49.248  29.041  27.835  1.00  0.00     0.031 C 
ATOM     74  C   UNL A   1      48.313  26.853  27.122  1.00  0.00     0.037 A 
BRANCH  61  75
ATOM     75  C   UNL A   1      43.123  23.508  27.200  1.00  0.00     0.057 A 
ATOM     76  C   UNL A   1      42.929  22.548  28.199  1.00  0.00     0.134 A 
ATOM     77  C   UNL A   1      42.671  23.203  25.908  1.00  0.00     0.134 A 
ATOM     78  F   UNL A   1      43.344  22.776  29.454  1.00  0.00    -0.206 F 
ATOM     79  C   UNL A   1      42.300  21.333  27.924  1.00  0.00     0.040 A 
ATOM     80  C   UNL A   1      42.016  22.004  25.627  1.00  0.00     0.040 A 
ATOM     81  F   UNL A   1      42.817  24.088  24.909  1.00  0.00    -0.206 F 
ATOM     82  C   UNL A   1      41.834  21.063  26.638  1.00  0.00     0.006 A 
ENDBRANCH  61  75
BRANCH  62  83
ATOM     83  C   UNL A   1      47.108  32.300  29.438  1.00  0.00     0.057 A 
ATOM     84  C   UNL A   1      47.351  33.311  28.500  1.00  0.00     0.134 A 
ATOM     85  C   UNL A   1      47.467  32.550  30.767  1.00  0.00     0.134 A 
ATOM     86  F   UNL A   1      47.031  33.130  27.210  1.00  0.00    -0.206 F 
ATOM     87  C   UNL A   1      47.930  34.526  28.872  1.00  0.00     0.040 A 
ATOM     88  C   UNL A   1      48.037  33.764  31.154  1.00  0.00     0.040 A 
ATOM     89  F   UNL A   1      47.245  31.622  31.710  1.00  0.00    -0.206 F 
ATOM     90  C   UNL A   1      48.273  34.755  30.204  1.00  0.00     0.006 A 
ENDBRANCH  62  83
BRANCH  74  91
ATOM     91  C   UNL A   1      49.660  26.481  26.582  1.00  0.00     0.057 A 
ATOM     92  C   UNL A   1      50.031  26.858  25.284  1.00  0.00     0.134 A 
ATOM     93  C   UNL A   1      50.552  25.686  27.309  1.00  0.00     0.134 A 
ATOM     94  F   UNL A   1      49.217  27.615  24.535  1.00  0.00    -0.206 F 
ATOM     95  C   UNL A   1      51.236  26.438  24.721  1.00  0.00     0.040 A 
ATOM     96  C   UNL A   1      51.771  25.279  26.764  1.00  0.00     0.040 A 
ATOM     97  F   UNL A   1      50.260  25.307  28.562  1.00  0.00    -0.206 F 
ATOM     98  C   UNL A   1      52.109  25.646  25.462  1.00  0.00     0.006 A 
ENDBRANCH  74  91
ENDBRANCH  48  49
ENDBRANCH  40  43
ENDBRANCH  38  39
ENDBRANCH  37  38
ENDBRANCH  36  37
ENDBRANCH  35  36
ENDBRANCH   1  35
TORSDOF 19
ENDMDL
