MODEL 1
REMARK VINA RESULT:     -10.6      0.000      0.000
REMARK SMILES CC[NH+](CC)[C@@H](C(=O)NCCCCCCNC(=O)c1ccc(-c2c3nc(c(-c4c(F)cccc4F)c4ccc([nH]4)c(-c4c(F)cccc4F)c4nc(c(-c5c(F)cccc5F)c5ccc2[nH]5)C=C4)C=C3)cc1)c1ccc(C2CC2)cc1
REMARK SMILES IDX 12 1 11 2 10 3 9 4 7 5 8 6 6 8 3 9 2 11 1 12 4 13 5 14 73 15
REMARK SMILES IDX 74 16 81 17 75 18 80 19 76 20 77 21 78 22 79 23 13 24 14 25
REMARK SMILES IDX 15 26 16 27 17 28 18 30 19 31 20 32 72 33 21 34 71 35 22 36
REMARK SMILES IDX 23 37 24 38 65 39 25 40 70 41 64 42 66 43 26 44 69 45 63 46
REMARK SMILES IDX 62 47 27 49 53 50 36 51 52 52 37 53 40 54 51 55 67 56 38 57
REMARK SMILES IDX 39 58 50 60 68 61 41 62 28 63 29 64 34 65 30 66 31 67 33 68
REMARK SMILES IDX 35 69 32 70 54 71 55 72 60 73 56 74 57 75 59 76 61 77 58 78
REMARK SMILES IDX 42 79 43 80 48 81 44 82 45 83 47 84 49 85 46 86
REMARK H PARENT 9 7 3 10 16 29 66 48 40 59
REMARK Flexibility Score: inf
ROOT
ATOM      1  C   UNL A   1      32.469  29.773  25.667  1.00  0.00     0.002 C 
ENDROOT
BRANCH   1   2
ATOM      2  C   UNL A   1      32.133  28.553  26.538  1.00  0.00     0.021 C 
BRANCH   2   3
ATOM      3  C   UNL A   1      33.203  27.447  26.594  1.00  0.00     0.116 C 
BRANCH   3   4
ATOM      4  N   UNL A   1      33.431  26.802  25.311  1.00  0.00    -0.351 N 
ATOM      5  C   UNL A   1      32.676  26.045  24.459  1.00  0.00     0.283 C 
ATOM      6  O   UNL A   1      33.327  25.564  23.522  1.00  0.00    -0.268 OA
ATOM      7  H   UNL A   1      34.346  26.944  24.976  1.00  0.00     0.163 HD
BRANCH   5   8
ATOM      8  C   UNL A   1      31.135  25.812  24.650  1.00  0.00     0.305 C 
BRANCH   8   9
ATOM      9  N   UNL A   1      30.687  24.379  24.489  1.00  0.00    -0.321 N 
ATOM     10  H   UNL A   1      29.691  24.534  24.646  1.00  0.00     0.349 HD
BRANCH   9  11
ATOM     11  C   UNL A   1      30.732  23.761  23.158  1.00  0.00     0.259 C 
ATOM     12  C   UNL A   1      31.676  22.568  23.058  1.00  0.00     0.071 C 
ENDBRANCH   9  11
BRANCH   9  13
ATOM     13  C   UNL A   1      31.184  23.455  25.505  1.00  0.00     0.259 C 
ATOM     14  C   UNL A   1      30.313  23.328  26.764  1.00  0.00     0.071 C 
ENDBRANCH   9  13
ENDBRANCH   8   9
BRANCH   8  15
ATOM     15  C   UNL A   1      30.263  26.768  23.805  1.00  0.00     0.019 A 
ATOM     16  C   UNL A   1      30.867  27.744  22.999  1.00  0.00     0.011 A 
ATOM     17  C   UNL A   1      28.872  26.852  23.983  1.00  0.00     0.011 A 
ATOM     18  C   UNL A   1      30.124  28.837  22.524  1.00  0.00     0.004 A 
ATOM     19  C   UNL A   1      28.137  27.936  23.495  1.00  0.00     0.004 A 
ATOM     20  C   UNL A   1      28.760  28.996  22.829  1.00  0.00    -0.045 A 
BRANCH  20  21
ATOM     21  C   UNL A   1      28.046  30.300  22.537  1.00  0.00     0.019 C 
ATOM     22  C   UNL A   1      27.450  31.171  23.622  1.00  0.00     0.009 C 
ATOM     23  C   UNL A   1      28.737  31.579  22.977  1.00  0.00     0.009 C 
ENDBRANCH  20  21
ENDBRANCH   8  15
ENDBRANCH   5   8
ENDBRANCH   3   4
ENDBRANCH   2   3
ENDBRANCH   1   2
BRANCH   1  24
ATOM     24  C   UNL A   1      31.321  30.768  25.512  1.00  0.00     0.002 C 
BRANCH  24  25
ATOM     25  C   UNL A   1      31.189  31.773  26.658  1.00  0.00     0.021 C 
BRANCH  25  26
ATOM     26  C   UNL A   1      32.508  32.398  27.105  1.00  0.00     0.116 C 
BRANCH  26  27
ATOM     27  N   UNL A   1      32.342  33.803  27.439  1.00  0.00    -0.352 N 
ATOM     28  C   UNL A   1      33.032  34.523  28.381  1.00  0.00     0.251 C 
ATOM     29  H   UNL A   1      31.656  34.295  26.931  1.00  0.00     0.163 HD
ATOM     30  O   UNL A   1      32.626  35.614  28.773  1.00  0.00    -0.269 OA
BRANCH  28  31
ATOM     31  C   UNL A   1      34.280  33.954  28.926  1.00  0.00     0.039 A 
ATOM     32  C   UNL A   1      34.233  33.165  30.076  1.00  0.00     0.014 A 
ATOM     33  C   UNL A   1      35.490  34.177  28.261  1.00  0.00     0.014 A 
ATOM     34  C   UNL A   1      35.404  32.562  30.539  1.00  0.00     0.010 A 
ATOM     35  C   UNL A   1      36.639  33.519  28.683  1.00  0.00     0.010 A 
ATOM     36  C   UNL A   1      36.611  32.716  29.834  1.00  0.00    -0.014 A 
BRANCH  36  37
ATOM     37  C   UNL A   1      37.860  32.067  30.302  1.00  0.00     0.031 A 
ATOM     38  C   UNL A   1      38.668  32.702  31.402  1.00  0.00     0.074 A 
ATOM     39  C   UNL A   1      38.294  30.939  29.708  1.00  0.00     0.049 A 
ATOM     40  N   UNL A   1      39.808  32.319  31.917  1.00  0.00    -0.248 NA
ATOM     41  C   UNL A   1      38.135  33.945  31.980  1.00  0.00     0.031 C 
ATOM     42  C   UNL A   1      37.623  30.251  28.603  1.00  0.00     0.029 A 
ATOM     43  N   UNL A   1      39.408  30.174  29.947  1.00  0.00    -0.354 N 
ATOM     44  C   UNL A   1      40.131  33.277  32.870  1.00  0.00     0.074 A 
ATOM     45  C   UNL A   1      39.100  34.291  32.818  1.00  0.00     0.031 C 
ATOM     46  C   UNL A   1      38.323  29.152  28.279  1.00  0.00     0.029 A 
ATOM     47  C   UNL A   1      39.511  29.078  29.125  1.00  0.00     0.049 A 
ATOM     48  H   UNL A   1      40.070  30.390  30.642  1.00  0.00     0.167 HD
ATOM     49  C   UNL A   1      41.176  33.297  33.731  1.00  0.00     0.037 A 
ATOM     50  C   UNL A   1      40.461  28.126  29.057  1.00  0.00     0.037 A 
ATOM     51  C   UNL A   1      42.189  32.278  33.791  1.00  0.00     0.049 A 
ATOM     52  C   UNL A   1      41.624  28.182  30.009  1.00  0.00     0.074 A 
ATOM     53  C   UNL A   1      43.262  32.178  34.660  1.00  0.00     0.029 A 
ATOM     54  N   UNL A   1      42.257  31.181  32.945  1.00  0.00    -0.354 N 
ATOM     55  N   UNL A   1      41.881  29.057  30.952  1.00  0.00    -0.248 NA
ATOM     56  C   UNL A   1      42.626  27.113  29.894  1.00  0.00     0.031 C 
ATOM     57  C   UNL A   1      44.007  31.049  34.306  1.00  0.00     0.029 A 
ATOM     58  C   UNL A   1      43.366  30.413  33.255  1.00  0.00     0.049 A 
ATOM     59  H   UNL A   1      41.610  30.978  32.230  1.00  0.00     0.167 HD
ATOM     60  C   UNL A   1      43.054  28.628  31.561  1.00  0.00     0.074 A 
ATOM     61  C   UNL A   1      43.449  27.407  30.891  1.00  0.00     0.031 C 
ATOM     62  C   UNL A   1      43.740  29.193  32.584  1.00  0.00     0.037 A 
BRANCH  49  63
ATOM     63  C   UNL A   1      41.271  34.459  34.678  1.00  0.00     0.057 A 
ATOM     64  C   UNL A   1      41.987  35.621  34.354  1.00  0.00     0.134 A 
ATOM     65  C   UNL A   1      40.617  34.430  35.916  1.00  0.00     0.134 A 
ATOM     66  F   UNL A   1      42.647  35.711  33.190  1.00  0.00    -0.206 F 
ATOM     67  C   UNL A   1      42.071  36.698  35.238  1.00  0.00     0.040 A 
ATOM     68  C   UNL A   1      40.669  35.513  36.795  1.00  0.00     0.040 A 
ATOM     69  F   UNL A   1      39.910  33.353  36.288  1.00  0.00    -0.206 F 
ATOM     70  C   UNL A   1      41.405  36.648  36.460  1.00  0.00     0.006 A 
ENDBRANCH  49  63
BRANCH  50  71
ATOM     71  C   UNL A   1      40.344  27.024  28.067  1.00  0.00     0.057 A 
ATOM     72  C   UNL A   1      39.623  25.861  28.362  1.00  0.00     0.134 A 
ATOM     73  C   UNL A   1      40.963  27.096  26.814  1.00  0.00     0.134 A 
ATOM     74  F   UNL A   1      39.022  25.723  29.554  1.00  0.00    -0.206 F 
ATOM     75  C   UNL A   1      39.540  24.800  27.458  1.00  0.00     0.040 A 
ATOM     76  C   UNL A   1      40.867  26.056  25.888  1.00  0.00     0.040 A 
ATOM     77  F   UNL A   1      41.663  28.186  26.464  1.00  0.00    -0.206 F 
ATOM     78  C   UNL A   1      40.160  24.899  26.214  1.00  0.00     0.006 A 
ENDBRANCH  50  71
BRANCH  62  79
ATOM     79  C   UNL A   1      44.967  28.476  33.068  1.00  0.00     0.057 A 
ATOM     80  C   UNL A   1      46.248  28.791  32.595  1.00  0.00     0.134 A 
ATOM     81  C   UNL A   1      44.868  27.484  34.053  1.00  0.00     0.134 A 
ATOM     82  F   UNL A   1      46.411  29.723  31.644  1.00  0.00    -0.206 F 
ATOM     83  C   UNL A   1      47.381  28.127  33.066  1.00  0.00     0.040 A 
ATOM     84  C   UNL A   1      45.997  26.835  34.553  1.00  0.00     0.040 A 
ATOM     85  F   UNL A   1      43.672  27.142  34.557  1.00  0.00    -0.206 F 
ATOM     86  C   UNL A   1      47.258  27.151  34.053  1.00  0.00     0.006 A 
ENDBRANCH  62  79
ENDBRANCH  36  37
ENDBRANCH  28  31
ENDBRANCH  26  27
ENDBRANCH  25  26
ENDBRANCH  24  25
ENDBRANCH   1  24
TORSDOF 18
ENDMDL
MODEL 2
REMARK VINA RESULT:     -10.6      1.341      6.254
REMARK SMILES CC[NH+](CC)[C@@H](C(=O)NCCCCCCNC(=O)c1ccc(-c2c3nc(c(-c4c(F)cccc4F)c4ccc([nH]4)c(-c4c(F)cccc4F)c4nc(c(-c5c(F)cccc5F)c5ccc2[nH]5)C=C4)C=C3)cc1)c1ccc(C2CC2)cc1
REMARK SMILES IDX 12 1 11 2 10 3 9 4 7 5 8 6 6 8 3 9 2 11 1 12 4 13 5 14 73 15
REMARK SMILES IDX 74 16 81 17 75 18 80 19 76 20 77 21 78 22 79 23 13 24 14 25
REMARK SMILES IDX 15 26 16 27 17 28 18 30 19 31 20 32 72 33 21 34 71 35 22 36
REMARK SMILES IDX 23 37 24 38 65 39 25 40 70 41 64 42 66 43 26 44 69 45 63 46
REMARK SMILES IDX 62 47 27 49 53 50 36 51 52 52 37 53 40 54 51 55 67 56 38 57
REMARK SMILES IDX 39 58 50 60 68 61 41 62 28 63 29 64 34 65 30 66 31 67 33 68
REMARK SMILES IDX 35 69 32 70 54 71 55 72 60 73 56 74 57 75 59 76 61 77 58 78
REMARK SMILES IDX 42 79 43 80 48 81 44 82 45 83 47 84 49 85 46 86
REMARK H PARENT 9 7 3 10 16 29 66 48 40 59
REMARK Flexibility Score: inf
ROOT
ATOM      1  C   UNL A   1      32.208  29.863  27.008  1.00  0.00     0.002 C 
ENDROOT
BRANCH   1   2
ATOM      2  C   UNL A   1      31.568  28.528  27.414  1.00  0.00     0.021 C 
BRANCH   2   3
ATOM      3  C   UNL A   1      31.626  27.403  26.364  1.00  0.00     0.116 C 
BRANCH   3   4
ATOM      4  N   UNL A   1      31.108  26.135  26.850  1.00  0.00    -0.351 N 
ATOM      5  C   UNL A   1      30.670  24.979  26.264  1.00  0.00     0.283 C 
ATOM      6  O   UNL A   1      30.163  24.185  27.068  1.00  0.00    -0.268 OA
ATOM      7  H   UNL A   1      31.059  26.100  27.832  1.00  0.00     0.163 HD
BRANCH   5   8
ATOM      8  C   UNL A   1      30.804  24.688  24.727  1.00  0.00     0.305 C 
BRANCH   8   9
ATOM      9  N   UNL A   1      32.196  24.319  24.271  1.00  0.00    -0.321 N 
ATOM     10  H   UNL A   1      32.419  25.199  23.807  1.00  0.00     0.349 HD
BRANCH   9  11
ATOM     11  C   UNL A   1      33.261  24.179  25.272  1.00  0.00     0.259 C 
ATOM     12  C   UNL A   1      34.386  25.197  25.130  1.00  0.00     0.071 C 
ENDBRANCH   9  11
BRANCH   9  13
ATOM     13  C   UNL A   1      32.262  23.240  23.290  1.00  0.00     0.259 C 
ATOM     14  C   UNL A   1      33.168  23.505  22.079  1.00  0.00     0.071 C 
ENDBRANCH   9  13
ENDBRANCH   8   9
BRANCH   8  15
ATOM     15  C   UNL A   1      30.202  25.800  23.840  1.00  0.00     0.019 A 
ATOM     16  C   UNL A   1      31.030  26.544  22.985  1.00  0.00     0.011 A 
ATOM     17  C   UNL A   1      28.886  26.258  24.018  1.00  0.00     0.011 A 
ATOM     18  C   UNL A   1      30.594  27.772  22.460  1.00  0.00     0.004 A 
ATOM     19  C   UNL A   1      28.456  27.474  23.481  1.00  0.00     0.004 A 
ATOM     20  C   UNL A   1      29.326  28.300  22.762  1.00  0.00    -0.045 A 
BRANCH  20  21
ATOM     21  C   UNL A   1      28.977  29.731  22.410  1.00  0.00     0.019 C 
ATOM     22  C   UNL A   1      27.730  30.422  22.919  1.00  0.00     0.009 C 
ATOM     23  C   UNL A   1      29.056  30.757  23.528  1.00  0.00     0.009 C 
ENDBRANCH  20  21
ENDBRANCH   8  15
ENDBRANCH   5   8
ENDBRANCH   3   4
ENDBRANCH   2   3
ENDBRANCH   1   2
BRANCH   1  24
ATOM     24  C   UNL A   1      31.314  30.752  26.147  1.00  0.00     0.002 C 
BRANCH  24  25
ATOM     25  C   UNL A   1      31.341  32.236  26.521  1.00  0.00     0.021 C 
BRANCH  25  26
ATOM     26  C   UNL A   1      32.645  32.703  27.160  1.00  0.00     0.116 C 
BRANCH  26  27
ATOM     27  N   UNL A   1      32.528  34.056  27.678  1.00  0.00    -0.352 N 
ATOM     28  C   UNL A   1      33.211  34.608  28.732  1.00  0.00     0.251 C 
ATOM     29  H   UNL A   1      31.884  34.645  27.220  1.00  0.00     0.163 HD
ATOM     30  O   UNL A   1      32.838  35.655  29.255  1.00  0.00    -0.269 OA
BRANCH  28  31
ATOM     31  C   UNL A   1      34.411  33.911  29.234  1.00  0.00     0.039 A 
ATOM     32  C   UNL A   1      35.676  34.338  28.828  1.00  0.00     0.014 A 
ATOM     33  C   UNL A   1      34.269  32.858  30.144  1.00  0.00     0.014 A 
ATOM     34  C   UNL A   1      36.809  33.729  29.371  1.00  0.00     0.010 A 
ATOM     35  C   UNL A   1      35.398  32.303  30.735  1.00  0.00     0.010 A 
ATOM     36  C   UNL A   1      36.679  32.723  30.344  1.00  0.00    -0.014 A 
BRANCH  36  37
ATOM     37  C   UNL A   1      37.873  32.078  30.945  1.00  0.00     0.031 A 
ATOM     38  C   UNL A   1      38.562  30.955  30.219  1.00  0.00     0.074 A 
ATOM     39  C   UNL A   1      38.306  32.468  32.159  1.00  0.00     0.049 A 
ATOM     40  N   UNL A   1      39.587  30.232  30.596  1.00  0.00    -0.248 NA
ATOM     41  C   UNL A   1      38.011  30.576  28.909  1.00  0.00     0.031 C 
ATOM     42  C   UNL A   1      37.697  33.515  32.981  1.00  0.00     0.029 A 
ATOM     43  N   UNL A   1      39.359  32.022  32.918  1.00  0.00    -0.354 N 
ATOM     44  C   UNL A   1      39.794  29.313  29.575  1.00  0.00     0.074 A 
ATOM     45  C   UNL A   1      38.752  29.526  28.595  1.00  0.00     0.031 C 
ATOM     46  C   UNL A   1      38.403  33.650  34.115  1.00  0.00     0.029 A 
ATOM     47  C   UNL A   1      39.488  32.674  34.120  1.00  0.00     0.049 A 
ATOM     48  H   UNL A   1      39.965  31.302  32.628  1.00  0.00     0.167 HD
ATOM     49  C   UNL A   1      40.779  28.392  29.452  1.00  0.00     0.037 A 
ATOM     50  C   UNL A   1      40.379  32.499  35.115  1.00  0.00     0.037 A 
ATOM     51  C   UNL A   1      41.823  28.195  30.422  1.00  0.00     0.049 A 
ATOM     52  C   UNL A   1      41.451  31.455  34.964  1.00  0.00     0.074 A 
ATOM     53  C   UNL A   1      42.897  27.323  30.368  1.00  0.00     0.029 A 
ATOM     54  N   UNL A   1      41.923  28.879  31.624  1.00  0.00    -0.354 N 
ATOM     55  N   UNL A   1      41.676  30.638  33.963  1.00  0.00    -0.248 NA
ATOM     56  C   UNL A   1      42.398  31.312  36.079  1.00  0.00     0.031 C 
ATOM     57  C   UNL A   1      43.617  27.444  31.561  1.00  0.00     0.029 A 
ATOM     58  C   UNL A   1      43.026  28.432  32.332  1.00  0.00     0.049 A 
ATOM     59  H   UNL A   1      41.301  29.580  31.929  1.00  0.00     0.167 HD
ATOM     60  C   UNL A   1      42.806  29.908  34.313  1.00  0.00     0.074 A 
ATOM     61  C   UNL A   1      43.228  30.391  35.611  1.00  0.00     0.031 C 
ATOM     62  C   UNL A   1      43.438  28.930  33.620  1.00  0.00     0.037 A 
BRANCH  49  63
ATOM     63  C   UNL A   1      40.772  27.530  28.222  1.00  0.00     0.057 A 
ATOM     64  C   UNL A   1      41.500  27.874  27.073  1.00  0.00     0.134 A 
ATOM     65  C   UNL A   1      40.054  26.328  28.192  1.00  0.00     0.134 A 
ATOM     66  F   UNL A   1      42.200  29.018  27.030  1.00  0.00    -0.206 F 
ATOM     67  C   UNL A   1      41.490  27.070  25.933  1.00  0.00     0.040 A 
ATOM     68  C   UNL A   1      40.062  25.500  27.068  1.00  0.00     0.040 A 
ATOM     69  F   UNL A   1      39.340  25.934  29.258  1.00  0.00    -0.206 F 
ATOM     70  C   UNL A   1      40.775  25.874  25.932  1.00  0.00     0.006 A 
ENDBRANCH  49  63
BRANCH  50  71
ATOM     71  C   UNL A   1      40.311  33.345  36.335  1.00  0.00     0.057 A 
ATOM     72  C   UNL A   1      39.468  33.010  37.401  1.00  0.00     0.134 A 
ATOM     73  C   UNL A   1      41.069  34.515  36.457  1.00  0.00     0.134 A 
ATOM     74  F   UNL A   1      38.702  31.910  37.337  1.00  0.00    -0.206 F 
ATOM     75  C   UNL A   1      39.363  33.819  38.534  1.00  0.00     0.040 A 
ATOM     76  C   UNL A   1      40.996  35.319  37.596  1.00  0.00     0.040 A 
ATOM     77  F   UNL A   1      41.903  34.890  35.475  1.00  0.00    -0.206 F 
ATOM     78  C   UNL A   1      40.133  34.975  38.635  1.00  0.00     0.006 A 
ENDBRANCH  50  71
BRANCH  62  79
ATOM     79  C   UNL A   1      44.676  28.343  34.234  1.00  0.00     0.057 A 
ATOM     80  C   UNL A   1      45.943  28.906  34.034  1.00  0.00     0.134 A 
ATOM     81  C   UNL A   1      44.592  27.223  35.071  1.00  0.00     0.134 A 
ATOM     82  F   UNL A   1      46.095  29.973  33.235  1.00  0.00    -0.206 F 
ATOM     83  C   UNL A   1      47.084  28.360  34.624  1.00  0.00     0.040 A 
ATOM     84  C   UNL A   1      45.721  26.686  35.690  1.00  0.00     0.040 A 
ATOM     85  F   UNL A   1      43.407  26.641  35.314  1.00  0.00    -0.206 F 
ATOM     86  C   UNL A   1      46.974  27.251  35.461  1.00  0.00     0.006 A 
ENDBRANCH  62  79
ENDBRANCH  36  37
ENDBRANCH  28  31
ENDBRANCH  26  27
ENDBRANCH  25  26
ENDBRANCH  24  25
ENDBRANCH   1  24
TORSDOF 18
ENDMDL
MODEL 3
REMARK VINA RESULT:     -10.2      4.010      8.647
REMARK SMILES CC[NH+](CC)[C@@H](C(=O)NCCCCCCNC(=O)c1ccc(-c2c3nc(c(-c4c(F)cccc4F)c4ccc([nH]4)c(-c4c(F)cccc4F)c4nc(c(-c5c(F)cccc5F)c5ccc2[nH]5)C=C4)C=C3)cc1)c1ccc(C2CC2)cc1
REMARK SMILES IDX 12 1 11 2 10 3 9 4 7 5 8 6 6 8 3 9 2 11 1 12 4 13 5 14 73 15
REMARK SMILES IDX 74 16 81 17 75 18 80 19 76 20 77 21 78 22 79 23 13 24 14 25
REMARK SMILES IDX 15 26 16 27 17 28 18 30 19 31 20 32 72 33 21 34 71 35 22 36
REMARK SMILES IDX 23 37 24 38 65 39 25 40 70 41 64 42 66 43 26 44 69 45 63 46
REMARK SMILES IDX 62 47 27 49 53 50 36 51 52 52 37 53 40 54 51 55 67 56 38 57
REMARK SMILES IDX 39 58 50 60 68 61 41 62 28 63 29 64 34 65 30 66 31 67 33 68
REMARK SMILES IDX 35 69 32 70 54 71 55 72 60 73 56 74 57 75 59 76 61 77 58 78
REMARK SMILES IDX 42 79 43 80 48 81 44 82 45 83 47 84 49 85 46 86
REMARK H PARENT 9 7 3 10 16 29 66 48 40 59
REMARK Flexibility Score: inf
ROOT
ATOM      1  C   UNL A   1      36.518  22.039  25.769  1.00  0.00     0.002 C 
ENDROOT
BRANCH   1   2
ATOM      2  C   UNL A   1      35.171  21.805  26.469  1.00  0.00     0.021 C 
BRANCH   2   3
ATOM      3  C   UNL A   1      34.275  23.045  26.643  1.00  0.00     0.116 C 
BRANCH   3   4
ATOM      4  N   UNL A   1      32.912  22.720  27.029  1.00  0.00    -0.351 N 
ATOM      5  C   UNL A   1      31.677  23.245  26.762  1.00  0.00     0.283 C 
ATOM      6  O   UNL A   1      30.772  22.734  27.435  1.00  0.00    -0.268 OA
ATOM      7  H   UNL A   1      32.866  21.937  27.625  1.00  0.00     0.163 HD
BRANCH   5   8
ATOM      8  C   UNL A   1      31.434  24.380  25.704  1.00  0.00     0.305 C 
BRANCH   8   9
ATOM      9  N   UNL A   1      31.901  24.051  24.306  1.00  0.00    -0.321 N 
ATOM     10  H   UNL A   1      32.897  24.210  24.459  1.00  0.00     0.349 HD
BRANCH   9  11
ATOM     11  C   UNL A   1      31.842  22.659  23.842  1.00  0.00     0.259 C 
ATOM     12  C   UNL A   1      33.176  22.112  23.345  1.00  0.00     0.071 C 
ENDBRANCH   9  11
BRANCH   9  13
ATOM     13  C   UNL A   1      31.435  24.964  23.265  1.00  0.00     0.259 C 
ATOM     14  C   UNL A   1      32.533  25.564  22.375  1.00  0.00     0.071 C 
ENDBRANCH   9  13
ENDBRANCH   8   9
BRANCH   8  15
ATOM     15  C   UNL A   1      31.958  25.760  26.158  1.00  0.00     0.019 A 
ATOM     16  C   UNL A   1      31.060  26.744  26.597  1.00  0.00     0.011 A 
ATOM     17  C   UNL A   1      33.287  26.157  25.935  1.00  0.00     0.011 A 
ATOM     18  C   UNL A   1      31.451  28.092  26.659  1.00  0.00     0.004 A 
ATOM     19  C   UNL A   1      33.672  27.498  26.012  1.00  0.00     0.004 A 
ATOM     20  C   UNL A   1      32.745  28.507  26.291  1.00  0.00    -0.045 A 
BRANCH  20  21
ATOM     21  C   UNL A   1      33.066  29.976  26.110  1.00  0.00     0.019 C 
ATOM     22  C   UNL A   1      32.231  31.081  26.721  1.00  0.00     0.009 C 
ATOM     23  C   UNL A   1      33.550  30.733  27.335  1.00  0.00     0.009 C 
ENDBRANCH  20  21
ENDBRANCH   8  15
ENDBRANCH   5   8
ENDBRANCH   3   4
ENDBRANCH   2   3
ENDBRANCH   1   2
BRANCH   1  24
ATOM     24  C   UNL A   1      36.800  21.080  24.615  1.00  0.00     0.002 C 
BRANCH  24  25
ATOM     25  C   UNL A   1      37.806  19.973  24.937  1.00  0.00     0.021 C 
BRANCH  25  26
ATOM     26  C   UNL A   1      39.053  20.448  25.676  1.00  0.00     0.116 C 
BRANCH  26  27
ATOM     27  N   UNL A   1      40.018  19.372  25.836  1.00  0.00    -0.352 N 
ATOM     28  C   UNL A   1      41.362  19.488  26.083  1.00  0.00     0.251 C 
ATOM     29  H   UNL A   1      39.667  18.455  25.756  1.00  0.00     0.163 HD
ATOM     30  O   UNL A   1      42.124  18.537  25.922  1.00  0.00    -0.269 OA
BRANCH  28  31
ATOM     31  C   UNL A   1      41.883  20.788  26.546  1.00  0.00     0.039 A 
ATOM     32  C   UNL A   1      42.336  21.721  25.611  1.00  0.00     0.014 A 
ATOM     33  C   UNL A   1      41.878  21.089  27.912  1.00  0.00     0.014 A 
ATOM     34  C   UNL A   1      42.750  22.980  26.049  1.00  0.00     0.010 A 
ATOM     35  C   UNL A   1      42.224  22.367  28.336  1.00  0.00     0.010 A 
ATOM     36  C   UNL A   1      42.677  23.320  27.411  1.00  0.00    -0.014 A 
BRANCH  36  37
ATOM     37  C   UNL A   1      43.094  24.661  27.890  1.00  0.00     0.031 A 
ATOM     38  C   UNL A   1      42.056  25.717  28.159  1.00  0.00     0.074 A 
ATOM     39  C   UNL A   1      44.403  24.944  28.037  1.00  0.00     0.049 A 
ATOM     40  N   UNL A   1      42.219  26.960  28.535  1.00  0.00    -0.248 NA
ATOM     41  C   UNL A   1      40.651  25.332  27.952  1.00  0.00     0.031 C 
ATOM     42  C   UNL A   1      45.505  24.020  27.767  1.00  0.00     0.029 A 
ATOM     43  N   UNL A   1      45.028  26.096  28.443  1.00  0.00    -0.354 N 
ATOM     44  C   UNL A   1      40.942  27.504  28.600  1.00  0.00     0.074 A 
ATOM     45  C   UNL A   1      40.022  26.477  28.164  1.00  0.00     0.031 C 
ATOM     46  C   UNL A   1      46.669  24.631  28.042  1.00  0.00     0.029 A 
ATOM     47  C   UNL A   1      46.398  26.001  28.468  1.00  0.00     0.049 A 
ATOM     48  H   UNL A   1      44.541  26.914  28.693  1.00  0.00     0.167 HD
ATOM     49  C   UNL A   1      40.567  28.738  29.011  1.00  0.00     0.037 A 
ATOM     50  C   UNL A   1      47.330  26.917  28.793  1.00  0.00     0.037 A 
ATOM     51  C   UNL A   1      41.485  29.751  29.461  1.00  0.00     0.049 A 
ATOM     52  C   UNL A   1      46.889  28.289  29.227  1.00  0.00     0.074 A 
ATOM     53  C   UNL A   1      41.204  31.016  29.946  1.00  0.00     0.029 A 
ATOM     54  N   UNL A   1      42.865  29.614  29.477  1.00  0.00    -0.354 N 
ATOM     55  N   UNL A   1      45.674  28.767  29.349  1.00  0.00    -0.248 NA
ATOM     56  C   UNL A   1      47.949  29.245  29.575  1.00  0.00     0.031 C 
ATOM     57  C   UNL A   1      42.415  31.663  30.207  1.00  0.00     0.029 A 
ATOM     58  C   UNL A   1      43.450  30.780  29.940  1.00  0.00     0.049 A 
ATOM     59  H   UNL A   1      43.356  28.806  29.200  1.00  0.00     0.167 HD
ATOM     60  C   UNL A   1      45.822  30.068  29.817  1.00  0.00     0.074 A 
ATOM     61  C   UNL A   1      47.244  30.296  29.971  1.00  0.00     0.031 C 
ATOM     62  C   UNL A   1      44.868  30.988  30.096  1.00  0.00     0.037 A 
BRANCH  49  63
ATOM     63  C   UNL A   1      39.099  29.057  28.997  1.00  0.00     0.057 A 
ATOM     64  C   UNL A   1      38.310  28.966  30.153  1.00  0.00     0.134 A 
ATOM     65  C   UNL A   1      38.472  29.489  27.822  1.00  0.00     0.134 A 
ATOM     66  F   UNL A   1      38.846  28.547  31.309  1.00  0.00    -0.206 F 
ATOM     67  C   UNL A   1      36.947  29.263  30.133  1.00  0.00     0.040 A 
ATOM     68  C   UNL A   1      37.116  29.820  27.797  1.00  0.00     0.040 A 
ATOM     69  F   UNL A   1      39.167  29.606  26.680  1.00  0.00    -0.206 F 
ATOM     70  C   UNL A   1      36.348  29.699  28.953  1.00  0.00     0.006 A 
ENDBRANCH  49  63
BRANCH  50  71
ATOM     71  C   UNL A   1      48.773  26.565  28.744  1.00  0.00     0.057 A 
ATOM     72  C   UNL A   1      49.442  26.098  29.881  1.00  0.00     0.134 A 
ATOM     73  C   UNL A   1      49.521  26.704  27.569  1.00  0.00     0.134 A 
ATOM     74  F   UNL A   1      48.785  25.961  31.042  1.00  0.00    -0.206 F 
ATOM     75  C   UNL A   1      50.807  25.804  29.859  1.00  0.00     0.040 A 
ATOM     76  C   UNL A   1      50.880  26.388  27.524  1.00  0.00     0.040 A 
ATOM     77  F   UNL A   1      48.939  27.139  26.441  1.00  0.00    -0.206 F 
ATOM     78  C   UNL A   1      51.528  25.944  28.676  1.00  0.00     0.006 A 
ENDBRANCH  50  71
BRANCH  62  79
ATOM     79  C   UNL A   1      45.326  32.313  30.635  1.00  0.00     0.057 A 
ATOM     80  C   UNL A   1      45.580  33.407  29.799  1.00  0.00     0.134 A 
ATOM     81  C   UNL A   1      45.474  32.505  32.015  1.00  0.00     0.134 A 
ATOM     82  F   UNL A   1      45.467  33.287  28.468  1.00  0.00    -0.206 F 
ATOM     83  C   UNL A   1      45.990  34.638  30.315  1.00  0.00     0.040 A 
ATOM     84  C   UNL A   1      45.854  33.739  32.544  1.00  0.00     0.040 A 
ATOM     85  F   UNL A   1      45.236  31.501  32.873  1.00  0.00    -0.206 F 
ATOM     86  C   UNL A   1      46.120  34.808  31.692  1.00  0.00     0.006 A 
ENDBRANCH  62  79
ENDBRANCH  36  37
ENDBRANCH  28  31
ENDBRANCH  26  27
ENDBRANCH  25  26
ENDBRANCH  24  25
ENDBRANCH   1  24
TORSDOF 18
ENDMDL
