MODEL 1
REMARK VINA RESULT:     -10.4      0.000      0.000
REMARK SMILES CC(C)[C@H](NC(=O)OCc1ccccc1)C(=O)NCC(=O)NCCCCCCNC(=O)c1ccc(-c2c3nc(c(-c4c(F)cccc4F)c4ccc([nH]4)c(-c4c(F)cccc4F)c4nc(c(-c5c(F)cccc5F)c5ccc2[nH]5)C=C4)C=C3)cc1
REMARK SMILES IDX 23 1 22 2 20 3 21 4 19 6 18 7 16 8 17 9 4 11 2 12 1 13 3 14
REMARK SMILES IDX 5 15 6 16 7 18 8 19 9 20 10 21 11 22 15 23 12 24 14 25 13 26
REMARK SMILES IDX 24 27 25 28 26 29 27 30 28 31 29 32 30 33 31 35 32 36 33 37
REMARK SMILES IDX 85 38 34 39 84 40 35 41 36 42 37 43 78 44 38 45 83 46 77 47
REMARK SMILES IDX 79 48 39 49 82 50 76 51 75 52 40 54 66 55 49 56 65 57 50 58
REMARK SMILES IDX 53 59 64 60 80 61 51 62 52 63 63 65 81 66 54 67 41 68 42 69
REMARK SMILES IDX 47 70 43 71 44 72 46 73 48 74 45 75 67 76 68 77 73 78 69 79
REMARK SMILES IDX 70 80 72 81 74 82 71 83 55 84 56 85 61 86 57 87 58 88 60 89
REMARK SMILES IDX 62 90 59 91
REMARK H PARENT 22 5 18 10 5 17 29 34 79 53 53 64
REMARK Flexibility Score: inf
ROOT
ATOM      1  C   UNL A   1      35.126  23.532  25.758  1.00  0.00     0.116 C 
ENDROOT
BRANCH   1   2
ATOM      2  N   UNL A   1      34.504  22.967  26.936  1.00  0.00    -0.355 N 
ATOM      3  C   UNL A   1      33.200  22.891  27.314  1.00  0.00     0.239 C 
ATOM      4  O   UNL A   1      32.936  22.109  28.236  1.00  0.00    -0.273 OA
ATOM      5  H   UNL A   1      35.137  22.568  27.577  1.00  0.00     0.163 HD
BRANCH   3   6
ATOM      6  C   UNL A   1      32.046  23.595  26.573  1.00  0.00     0.216 C 
BRANCH   6   7
ATOM      7  N   UNL A   1      31.622  24.902  27.025  1.00  0.00    -0.345 N 
ATOM      8  C   UNL A   1      31.281  26.026  26.344  1.00  0.00     0.243 C 
ATOM      9  O   UNL A   1      31.029  27.022  27.032  1.00  0.00    -0.273 OA
ATOM     10  H   UNL A   1      31.571  24.993  28.004  1.00  0.00     0.164 HD
BRANCH   8  11
ATOM     11  C   UNL A   1      31.249  26.137  24.793  1.00  0.00     0.177 C 
BRANCH  11  12
ATOM     12  C   UNL A   1      29.892  25.855  24.118  1.00  0.00     0.015 C 
ATOM     13  C   UNL A   1      29.341  27.103  23.420  1.00  0.00     0.010 C 
ATOM     14  C   UNL A   1      30.045  24.734  23.079  1.00  0.00     0.010 C 
ENDBRANCH  11  12
BRANCH  11  15
ATOM     15  N   UNL A   1      32.449  25.547  24.184  1.00  0.00    -0.309 N 
ATOM     16  C   UNL A   1      33.334  26.022  23.270  1.00  0.00     0.408 C 
ATOM     17  H   UNL A   1      32.648  24.634  24.497  1.00  0.00     0.167 HD
ATOM     18  O   UNL A   1      34.100  25.248  22.704  1.00  0.00    -0.225 OA
BRANCH  16  19
ATOM     19  O   UNL A   1      33.247  27.346  23.041  1.00  0.00    -0.445 OA
BRANCH  19  20
ATOM     20  C   UNL A   1      34.160  28.181  23.770  1.00  0.00     0.270 C 
BRANCH  20  21
ATOM     21  C   UNL A   1      33.490  28.906  24.907  1.00  0.00    -0.011 A 
ATOM     22  C   UNL A   1      34.093  28.984  26.168  1.00  0.00     0.007 A 
ATOM     23  C   UNL A   1      32.255  29.536  24.702  1.00  0.00     0.007 A 
ATOM     24  C   UNL A   1      33.464  29.674  27.207  1.00  0.00     0.000 A 
ATOM     25  C   UNL A   1      31.633  30.231  25.738  1.00  0.00     0.000 A 
ATOM     26  C   UNL A   1      32.237  30.299  26.991  1.00  0.00     0.000 A 
ENDBRANCH  20  21
ENDBRANCH  19  20
ENDBRANCH  16  19
ENDBRANCH  11  15
ENDBRANCH   8  11
ENDBRANCH   6   7
ENDBRANCH   3   6
ENDBRANCH   1   2
BRANCH   1  27
ATOM     27  C   UNL A   1      36.587  23.136  25.598  1.00  0.00     0.021 C 
BRANCH  27  28
ATOM     28  C   UNL A   1      36.842  22.096  24.505  1.00  0.00     0.002 C 
BRANCH  28  29
ATOM     29  C   UNL A   1      36.599  20.634  24.905  1.00  0.00     0.002 C 
BRANCH  29  30
ATOM     30  C   UNL A   1      37.830  19.723  24.892  1.00  0.00     0.021 C 
BRANCH  30  31
ATOM     31  C   UNL A   1      39.021  20.221  25.707  1.00  0.00     0.116 C 
BRANCH  31  32
ATOM     32  N   UNL A   1      40.074  19.228  25.820  1.00  0.00    -0.352 N 
ATOM     33  C   UNL A   1      41.400  19.386  26.137  1.00  0.00     0.251 C 
ATOM     34  H   UNL A   1      39.796  18.301  25.643  1.00  0.00     0.163 HD
ATOM     35  O   UNL A   1      42.172  18.437  26.038  1.00  0.00    -0.269 OA
BRANCH  33  36
ATOM     36  C   UNL A   1      41.910  20.703  26.576  1.00  0.00     0.039 A 
ATOM     37  C   UNL A   1      42.196  21.667  25.606  1.00  0.00     0.014 A 
ATOM     38  C   UNL A   1      42.128  20.981  27.927  1.00  0.00     0.014 A 
ATOM     39  C   UNL A   1      42.647  22.930  25.994  1.00  0.00     0.010 A 
ATOM     40  C   UNL A   1      42.516  22.261  28.318  1.00  0.00     0.010 A 
ATOM     41  C   UNL A   1      42.781  23.247  27.355  1.00  0.00    -0.014 A 
BRANCH  41  42
ATOM     42  C   UNL A   1      43.194  24.605  27.790  1.00  0.00     0.031 A 
ATOM     43  C   UNL A   1      42.157  25.637  28.139  1.00  0.00     0.074 A 
ATOM     44  C   UNL A   1      44.500  24.929  27.807  1.00  0.00     0.049 A 
ATOM     45  N   UNL A   1      42.319  26.893  28.466  1.00  0.00    -0.248 NA
ATOM     46  C   UNL A   1      40.751  25.205  28.087  1.00  0.00     0.031 C 
ATOM     47  C   UNL A   1      45.599  24.032  27.447  1.00  0.00     0.029 A 
ATOM     48  N   UNL A   1      45.126  26.108  28.128  1.00  0.00    -0.354 N 
ATOM     49  C   UNL A   1      41.040  27.406  28.642  1.00  0.00     0.074 A 
ATOM     50  C   UNL A   1      40.112  26.338  28.341  1.00  0.00     0.031 C 
ATOM     51  C   UNL A   1      46.764  24.686  27.582  1.00  0.00     0.029 A 
ATOM     52  C   UNL A   1      46.493  26.057  28.003  1.00  0.00     0.049 A 
ATOM     53  H   UNL A   1      44.641  26.913  28.420  1.00  0.00     0.167 HD
ATOM     54  C   UNL A   1      40.673  28.648  29.037  1.00  0.00     0.037 A 
ATOM     55  C   UNL A   1      47.423  27.012  28.197  1.00  0.00     0.037 A 
ATOM     56  C   UNL A   1      41.600  29.700  29.363  1.00  0.00     0.049 A 
ATOM     57  C   UNL A   1      46.990  28.381  28.640  1.00  0.00     0.074 A 
ATOM     58  C   UNL A   1      41.327  30.972  29.837  1.00  0.00     0.029 A 
ATOM     59  N   UNL A   1      42.978  29.604  29.247  1.00  0.00    -0.354 N 
ATOM     60  N   UNL A   1      45.780  28.832  28.867  1.00  0.00    -0.248 NA
ATOM     61  C   UNL A   1      48.053  29.373  28.858  1.00  0.00     0.031 C 
ATOM     62  C   UNL A   1      42.539  31.659  29.968  1.00  0.00     0.029 A 
ATOM     63  C   UNL A   1      43.570  30.800  29.619  1.00  0.00     0.049 A 
ATOM     64  H   UNL A   1      43.464  28.803  28.944  1.00  0.00     0.167 HD
ATOM     65  C   UNL A   1      45.937  30.149  29.279  1.00  0.00     0.074 A 
ATOM     66  C   UNL A   1      47.360  30.421  29.283  1.00  0.00     0.031 C 
ATOM     67  C   UNL A   1      44.987  31.052  29.624  1.00  0.00     0.037 A 
BRANCH  54  68
ATOM     68  C   UNL A   1      39.205  28.936  29.143  1.00  0.00     0.057 A 
ATOM     69  C   UNL A   1      38.497  28.740  30.336  1.00  0.00     0.134 A 
ATOM     70  C   UNL A   1      38.496  29.451  28.050  1.00  0.00     0.134 A 
ATOM     71  F   UNL A   1      39.114  28.240  31.418  1.00  0.00    -0.206 F 
ATOM     72  C   UNL A   1      37.133  29.022  30.432  1.00  0.00     0.040 A 
ATOM     73  C   UNL A   1      37.138  29.760  28.141  1.00  0.00     0.040 A 
ATOM     74  F   UNL A   1      39.113  29.668  26.879  1.00  0.00    -0.206 F 
ATOM     75  C   UNL A   1      36.451  29.541  29.333  1.00  0.00     0.006 A 
ENDBRANCH  54  68
BRANCH  55  76
ATOM     76  C   UNL A   1      48.859  26.699  27.994  1.00  0.00     0.057 A 
ATOM     77  C   UNL A   1      49.633  26.160  29.028  1.00  0.00     0.134 A 
ATOM     78  C   UNL A   1      49.492  26.930  26.766  1.00  0.00     0.134 A 
ATOM     79  F   UNL A   1      49.087  25.933  30.232  1.00  0.00    -0.206 F 
ATOM     80  C   UNL A   1      50.989  25.880  28.856  1.00  0.00     0.040 A 
ATOM     81  C   UNL A   1      50.842  26.632  26.573  1.00  0.00     0.040 A 
ATOM     82  F   UNL A   1      48.802  27.437  25.733  1.00  0.00    -0.206 F 
ATOM     83  C   UNL A   1      51.596  26.112  27.623  1.00  0.00     0.006 A 
ENDBRANCH  55  76
BRANCH  67  84
ATOM     84  C   UNL A   1      45.456  32.407  30.065  1.00  0.00     0.057 A 
ATOM     85  C   UNL A   1      45.785  32.678  31.398  1.00  0.00     0.134 A 
ATOM     86  C   UNL A   1      45.617  33.441  29.134  1.00  0.00     0.134 A 
ATOM     87  F   UNL A   1      45.639  31.734  32.340  1.00  0.00    -0.206 F 
ATOM     88  C   UNL A   1      46.240  33.936  31.795  1.00  0.00     0.040 A 
ATOM     89  C   UNL A   1      46.096  34.696  29.514  1.00  0.00     0.040 A 
ATOM     90  F   UNL A   1      45.328  33.244  27.839  1.00  0.00    -0.206 F 
ATOM     91  C   UNL A   1      46.403  34.948  30.850  1.00  0.00     0.006 A 
ENDBRANCH  67  84
ENDBRANCH  41  42
ENDBRANCH  33  36
ENDBRANCH  31  32
ENDBRANCH  30  31
ENDBRANCH  29  30
ENDBRANCH  28  29
ENDBRANCH  27  28
ENDBRANCH   1  27
TORSDOF 20
ENDMDL
MODEL 2
REMARK VINA RESULT:     -10.4      2.399      7.505
REMARK SMILES CC(C)[C@H](NC(=O)OCc1ccccc1)C(=O)NCC(=O)NCCCCCCNC(=O)c1ccc(-c2c3nc(c(-c4c(F)cccc4F)c4ccc([nH]4)c(-c4c(F)cccc4F)c4nc(c(-c5c(F)cccc5F)c5ccc2[nH]5)C=C4)C=C3)cc1
REMARK SMILES IDX 23 1 22 2 20 3 21 4 19 6 18 7 16 8 17 9 4 11 2 12 1 13 3 14
REMARK SMILES IDX 5 15 6 16 7 18 8 19 9 20 10 21 11 22 15 23 12 24 14 25 13 26
REMARK SMILES IDX 24 27 25 28 26 29 27 30 28 31 29 32 30 33 31 35 32 36 33 37
REMARK SMILES IDX 85 38 34 39 84 40 35 41 36 42 37 43 78 44 38 45 83 46 77 47
REMARK SMILES IDX 79 48 39 49 82 50 76 51 75 52 40 54 66 55 49 56 65 57 50 58
REMARK SMILES IDX 53 59 64 60 80 61 51 62 52 63 63 65 81 66 54 67 41 68 42 69
REMARK SMILES IDX 47 70 43 71 44 72 46 73 48 74 45 75 67 76 68 77 73 78 69 79
REMARK SMILES IDX 70 80 72 81 74 82 71 83 55 84 56 85 61 86 57 87 58 88 60 89
REMARK SMILES IDX 62 90 59 91
REMARK H PARENT 22 5 18 10 5 17 29 34 79 53 53 64
REMARK Flexibility Score: inf
ROOT
ATOM      1  C   UNL A   1      38.893  23.322  26.593  1.00  0.00     0.116 C 
ENDROOT
BRANCH   1   2
ATOM      2  N   UNL A   1      38.290  22.159  25.979  1.00  0.00    -0.355 N 
ATOM      3  C   UNL A   1      37.398  22.043  24.959  1.00  0.00     0.239 C 
ATOM      4  O   UNL A   1      37.270  20.918  24.460  1.00  0.00    -0.273 OA
ATOM      5  H   UNL A   1      38.578  21.300  26.366  1.00  0.00     0.163 HD
BRANCH   3   6
ATOM      6  C   UNL A   1      36.670  23.237  24.312  1.00  0.00     0.216 C 
BRANCH   6   7
ATOM      7  N   UNL A   1      35.574  22.977  23.404  1.00  0.00    -0.345 N 
ATOM      8  C   UNL A   1      34.287  23.411  23.394  1.00  0.00     0.243 C 
ATOM      9  O   UNL A   1      33.564  22.942  22.507  1.00  0.00    -0.273 OA
ATOM     10  H   UNL A   1      35.802  22.375  22.659  1.00  0.00     0.164 HD
BRANCH   8  11
ATOM     11  C   UNL A   1      33.683  24.390  24.439  1.00  0.00     0.177 C 
BRANCH  11  12
ATOM     12  C   UNL A   1      33.944  25.890  24.198  1.00  0.00     0.015 C 
ATOM     13  C   UNL A   1      32.969  26.474  23.170  1.00  0.00     0.010 C 
ATOM     14  C   UNL A   1      33.798  26.667  25.515  1.00  0.00     0.010 C 
ENDBRANCH  11  12
BRANCH  11  15
ATOM     15  N   UNL A   1      33.839  23.882  25.808  1.00  0.00    -0.309 N 
ATOM     16  C   UNL A   1      33.555  22.680  26.373  1.00  0.00     0.408 C 
ATOM     17  H   UNL A   1      34.222  24.538  26.436  1.00  0.00     0.167 HD
ATOM     18  O   UNL A   1      33.512  22.574  27.595  1.00  0.00    -0.225 OA
BRANCH  16  19
ATOM     19  O   UNL A   1      33.298  21.694  25.491  1.00  0.00    -0.445 OA
BRANCH  19  20
ATOM     20  C   UNL A   1      34.067  20.491  25.639  1.00  0.00     0.270 C 
BRANCH  20  21
ATOM     21  C   UNL A   1      33.688  19.440  24.629  1.00  0.00    -0.011 A 
ATOM     22  C   UNL A   1      32.584  19.615  23.786  1.00  0.00     0.007 A 
ATOM     23  C   UNL A   1      34.460  18.276  24.509  1.00  0.00     0.007 A 
ATOM     24  C   UNL A   1      32.256  18.636  22.845  1.00  0.00     0.000 A 
ATOM     25  C   UNL A   1      34.136  17.305  23.563  1.00  0.00     0.000 A 
ATOM     26  C   UNL A   1      33.033  17.484  22.732  1.00  0.00     0.000 A 
ENDBRANCH  20  21
ENDBRANCH  19  20
ENDBRANCH  16  19
ENDBRANCH  11  15
ENDBRANCH   8  11
ENDBRANCH   6   7
ENDBRANCH   3   6
ENDBRANCH   1   2
BRANCH   1  27
ATOM     27  C   UNL A   1      40.166  23.005  27.365  1.00  0.00     0.021 C 
BRANCH  27  28
ATOM     28  C   UNL A   1      40.574  21.530  27.328  1.00  0.00     0.002 C 
BRANCH  28  29
ATOM     29  C   UNL A   1      41.780  21.194  26.440  1.00  0.00     0.002 C 
BRANCH  29  30
ATOM     30  C   UNL A   1      41.843  19.758  25.912  1.00  0.00     0.021 C 
BRANCH  30  31
ATOM     31  C   UNL A   1      43.130  19.001  26.229  1.00  0.00     0.116 C 
BRANCH  31  32
ATOM     32  N   UNL A   1      43.908  18.701  25.040  1.00  0.00    -0.352 N 
ATOM     33  C   UNL A   1      44.679  19.528  24.262  1.00  0.00     0.251 C 
ATOM     34  H   UNL A   1      43.879  17.761  24.747  1.00  0.00     0.163 HD
ATOM     35  O   UNL A   1      45.145  19.116  23.204  1.00  0.00    -0.269 OA
BRANCH  33  36
ATOM     36  C   UNL A   1      44.931  20.923  24.681  1.00  0.00     0.039 A 
ATOM     37  C   UNL A   1      44.565  21.958  23.816  1.00  0.00     0.014 A 
ATOM     38  C   UNL A   1      45.544  21.214  25.902  1.00  0.00     0.014 A 
ATOM     39  C   UNL A   1      44.762  23.287  24.200  1.00  0.00     0.010 A 
ATOM     40  C   UNL A   1      45.681  22.538  26.312  1.00  0.00     0.010 A 
ATOM     41  C   UNL A   1      45.292  23.587  25.465  1.00  0.00    -0.014 A 
BRANCH  41  42
ATOM     42  C   UNL A   1      45.445  24.993  25.918  1.00  0.00     0.031 A 
ATOM     43  C   UNL A   1      46.794  25.656  25.887  1.00  0.00     0.074 A 
ATOM     44  C   UNL A   1      44.382  25.648  26.420  1.00  0.00     0.049 A 
ATOM     45  N   UNL A   1      47.139  26.846  26.308  1.00  0.00    -0.248 NA
ATOM     46  C   UNL A   1      47.906  24.869  25.331  1.00  0.00     0.031 C 
ATOM     47  C   UNL A   1      43.031  25.098  26.547  1.00  0.00     0.029 A 
ATOM     48  N   UNL A   1      44.273  26.917  26.932  1.00  0.00    -0.354 N 
ATOM     49  C   UNL A   1      48.507  26.943  26.087  1.00  0.00     0.074 A 
ATOM     50  C   UNL A   1      48.937  25.677  25.534  1.00  0.00     0.031 C 
ATOM     51  C   UNL A   1      42.226  26.028  27.085  1.00  0.00     0.029 A 
ATOM     52  C   UNL A   1      43.010  27.225  27.373  1.00  0.00     0.049 A 
ATOM     53  H   UNL A   1      45.028  27.546  26.977  1.00  0.00     0.167 HD
ATOM     54  C   UNL A   1      49.327  27.999  26.304  1.00  0.00     0.037 A 
ATOM     55  C   UNL A   1      42.537  28.345  27.954  1.00  0.00     0.037 A 
ATOM     56  C   UNL A   1      48.891  29.267  26.828  1.00  0.00     0.049 A 
ATOM     57  C   UNL A   1      43.466  29.504  28.181  1.00  0.00     0.074 A 
ATOM     58  C   UNL A   1      49.633  30.420  27.022  1.00  0.00     0.029 A 
ATOM     59  N   UNL A   1      47.598  29.549  27.241  1.00  0.00    -0.354 N 
ATOM     60  N   UNL A   1      44.743  29.605  27.904  1.00  0.00    -0.248 NA
ATOM     61  C   UNL A   1      42.886  30.706  28.797  1.00  0.00     0.031 C 
ATOM     62  C   UNL A   1      48.797  31.386  27.592  1.00  0.00     0.029 A 
ATOM     63  C   UNL A   1      47.525  30.851  27.710  1.00  0.00     0.049 A 
ATOM     64  H   UNL A   1      46.844  28.918  27.207  1.00  0.00     0.167 HD
ATOM     65  C   UNL A   1      45.114  30.888  28.287  1.00  0.00     0.074 A 
ATOM     66  C   UNL A   1      43.924  31.532  28.804  1.00  0.00     0.031 C 
ATOM     67  C   UNL A   1      46.331  31.479  28.215  1.00  0.00     0.037 A 
BRANCH  54  68
ATOM     68  C   UNL A   1      50.780  27.828  25.973  1.00  0.00     0.057 A 
ATOM     69  C   UNL A   1      51.728  27.507  26.952  1.00  0.00     0.134 A 
ATOM     70  C   UNL A   1      51.232  27.951  24.653  1.00  0.00     0.134 A 
ATOM     71  F   UNL A   1      51.364  27.385  28.238  1.00  0.00    -0.206 F 
ATOM     72  C   UNL A   1      53.077  27.338  26.636  1.00  0.00     0.040 A 
ATOM     73  C   UNL A   1      52.574  27.760  24.320  1.00  0.00     0.040 A 
ATOM     74  F   UNL A   1      50.376  28.252  23.665  1.00  0.00    -0.206 F 
ATOM     75  C   UNL A   1      53.502  27.457  25.314  1.00  0.00     0.006 A 
ENDBRANCH  54  68
BRANCH  55  76
ATOM     76  C   UNL A   1      41.107  28.431  28.343  1.00  0.00     0.057 A 
ATOM     77  C   UNL A   1      40.137  28.866  27.434  1.00  0.00     0.134 A 
ATOM     78  C   UNL A   1      40.677  28.083  29.629  1.00  0.00     0.134 A 
ATOM     79  F   UNL A   1      40.491  29.230  26.192  1.00  0.00    -0.206 F 
ATOM     80  C   UNL A   1      38.793  28.971  27.793  1.00  0.00     0.040 A 
ATOM     81  C   UNL A   1      39.332  28.159  29.995  1.00  0.00     0.040 A 
ATOM     82  F   UNL A   1      41.557  27.650  30.545  1.00  0.00    -0.206 F 
ATOM     83  C   UNL A   1      38.387  28.611  29.077  1.00  0.00     0.006 A 
ENDBRANCH  55  76
BRANCH  67  84
ATOM     84  C   UNL A   1      46.431  32.903  28.678  1.00  0.00     0.057 A 
ATOM     85  C   UNL A   1      46.761  33.229  29.999  1.00  0.00     0.134 A 
ATOM     86  C   UNL A   1      46.233  33.958  27.779  1.00  0.00     0.134 A 
ATOM     87  F   UNL A   1      46.949  32.264  30.912  1.00  0.00    -0.206 F 
ATOM     88  C   UNL A   1      46.872  34.557  30.416  1.00  0.00     0.040 A 
ATOM     89  C   UNL A   1      46.366  35.290  28.177  1.00  0.00     0.040 A 
ATOM     90  F   UNL A   1      45.923  33.713  26.497  1.00  0.00    -0.206 F 
ATOM     91  C   UNL A   1      46.680  35.592  29.501  1.00  0.00     0.006 A 
ENDBRANCH  67  84
ENDBRANCH  41  42
ENDBRANCH  33  36
ENDBRANCH  31  32
ENDBRANCH  30  31
ENDBRANCH  29  30
ENDBRANCH  28  29
ENDBRANCH  27  28
ENDBRANCH   1  27
TORSDOF 20
ENDMDL
MODEL 3
REMARK VINA RESULT:     -10.3      2.213      6.826
REMARK SMILES CC(C)[C@H](NC(=O)OCc1ccccc1)C(=O)NCC(=O)NCCCCCCNC(=O)c1ccc(-c2c3nc(c(-c4c(F)cccc4F)c4ccc([nH]4)c(-c4c(F)cccc4F)c4nc(c(-c5c(F)cccc5F)c5ccc2[nH]5)C=C4)C=C3)cc1
REMARK SMILES IDX 23 1 22 2 20 3 21 4 19 6 18 7 16 8 17 9 4 11 2 12 1 13 3 14
REMARK SMILES IDX 5 15 6 16 7 18 8 19 9 20 10 21 11 22 15 23 12 24 14 25 13 26
REMARK SMILES IDX 24 27 25 28 26 29 27 30 28 31 29 32 30 33 31 35 32 36 33 37
REMARK SMILES IDX 85 38 34 39 84 40 35 41 36 42 37 43 78 44 38 45 83 46 77 47
REMARK SMILES IDX 79 48 39 49 82 50 76 51 75 52 40 54 66 55 49 56 65 57 50 58
REMARK SMILES IDX 53 59 64 60 80 61 51 62 52 63 63 65 81 66 54 67 41 68 42 69
REMARK SMILES IDX 47 70 43 71 44 72 46 73 48 74 45 75 67 76 68 77 73 78 69 79
REMARK SMILES IDX 70 80 72 81 74 82 71 83 55 84 56 85 61 86 57 87 58 88 60 89
REMARK SMILES IDX 62 90 59 91
REMARK H PARENT 22 5 18 10 5 17 29 34 79 53 53 64
REMARK Flexibility Score: inf
ROOT
ATOM      1  C   UNL A   1      39.168  23.207  26.502  1.00  0.00     0.116 C 
ENDROOT
BRANCH   1   2
ATOM      2  N   UNL A   1      38.314  22.113  26.092  1.00  0.00    -0.355 N 
ATOM      3  C   UNL A   1      37.299  22.058  25.189  1.00  0.00     0.239 C 
ATOM      4  O   UNL A   1      36.929  20.929  24.840  1.00  0.00    -0.273 OA
ATOM      5  H   UNL A   1      38.500  21.259  26.546  1.00  0.00     0.163 HD
BRANCH   3   6
ATOM      6  C   UNL A   1      36.704  23.292  24.483  1.00  0.00     0.216 C 
BRANCH   6   7
ATOM      7  N   UNL A   1      35.822  24.164  25.228  1.00  0.00    -0.345 N 
ATOM      8  C   UNL A   1      34.516  24.490  25.053  1.00  0.00     0.243 C 
ATOM      9  O   UNL A   1      34.058  25.335  25.832  1.00  0.00    -0.273 OA
ATOM     10  H   UNL A   1      36.246  24.600  26.003  1.00  0.00     0.164 HD
BRANCH   8  11
ATOM     11  C   UNL A   1      33.611  23.917  23.926  1.00  0.00     0.177 C 
BRANCH  11  12
ATOM     12  C   UNL A   1      33.502  22.381  23.855  1.00  0.00     0.015 C 
ATOM     13  C   UNL A   1      33.237  21.771  25.236  1.00  0.00     0.010 C 
ATOM     14  C   UNL A   1      32.359  21.979  22.911  1.00  0.00     0.010 C 
ENDBRANCH  11  12
BRANCH  11  15
ATOM     15  N   UNL A   1      33.795  24.646  22.664  1.00  0.00    -0.309 N 
ATOM     16  C   UNL A   1      32.919  25.286  21.846  1.00  0.00     0.408 C 
ATOM     17  H   UNL A   1      34.728  24.676  22.352  1.00  0.00     0.167 HD
ATOM     18  O   UNL A   1      33.258  25.585  20.705  1.00  0.00    -0.225 OA
BRANCH  16  19
ATOM     19  O   UNL A   1      31.702  25.497  22.383  1.00  0.00    -0.445 OA
BRANCH  19  20
ATOM     20  C   UNL A   1      31.358  26.863  22.664  1.00  0.00     0.270 C 
BRANCH  20  21
ATOM     21  C   UNL A   1      31.366  27.164  24.139  1.00  0.00    -0.011 A 
ATOM     22  C   UNL A   1      30.854  26.247  25.066  1.00  0.00     0.007 A 
ATOM     23  C   UNL A   1      31.912  28.369  24.603  1.00  0.00     0.007 A 
ATOM     24  C   UNL A   1      30.883  26.538  26.432  1.00  0.00     0.000 A 
ATOM     25  C   UNL A   1      31.947  28.653  25.967  1.00  0.00     0.000 A 
ATOM     26  C   UNL A   1      31.432  27.738  26.881  1.00  0.00     0.000 A 
ENDBRANCH  20  21
ENDBRANCH  19  20
ENDBRANCH  16  19
ENDBRANCH  11  15
ENDBRANCH   8  11
ENDBRANCH   6   7
ENDBRANCH   3   6
ENDBRANCH   1   2
BRANCH   1  27
ATOM     27  C   UNL A   1      40.284  22.779  27.444  1.00  0.00     0.021 C 
BRANCH  27  28
ATOM     28  C   UNL A   1      40.680  21.305  27.324  1.00  0.00     0.002 C 
BRANCH  28  29
ATOM     29  C   UNL A   1      41.919  21.015  26.466  1.00  0.00     0.002 C 
BRANCH  29  30
ATOM     30  C   UNL A   1      42.002  19.609  25.864  1.00  0.00     0.021 C 
BRANCH  30  31
ATOM     31  C   UNL A   1      43.310  18.866  26.116  1.00  0.00     0.116 C 
BRANCH  31  32
ATOM     32  N   UNL A   1      44.047  18.600  24.893  1.00  0.00    -0.352 N 
ATOM     33  C   UNL A   1      44.773  19.453  24.102  1.00  0.00     0.251 C 
ATOM     34  H   UNL A   1      44.022  17.665  24.585  1.00  0.00     0.163 HD
ATOM     35  O   UNL A   1      45.205  19.069  23.019  1.00  0.00    -0.269 OA
BRANCH  33  36
ATOM     36  C   UNL A   1      45.019  20.845  24.536  1.00  0.00     0.039 A 
ATOM     37  C   UNL A   1      44.628  21.888  23.693  1.00  0.00     0.014 A 
ATOM     38  C   UNL A   1      45.650  21.125  25.751  1.00  0.00     0.014 A 
ATOM     39  C   UNL A   1      44.818  23.213  24.092  1.00  0.00     0.010 A 
ATOM     40  C   UNL A   1      45.780  22.444  26.177  1.00  0.00     0.010 A 
ATOM     41  C   UNL A   1      45.367  23.501  25.351  1.00  0.00    -0.014 A 
BRANCH  41  42
ATOM     42  C   UNL A   1      45.514  24.902  25.822  1.00  0.00     0.031 A 
ATOM     43  C   UNL A   1      46.858  25.575  25.790  1.00  0.00     0.074 A 
ATOM     44  C   UNL A   1      44.449  25.543  26.341  1.00  0.00     0.049 A 
ATOM     45  N   UNL A   1      47.197  26.761  26.224  1.00  0.00    -0.248 NA
ATOM     46  C   UNL A   1      47.970  24.803  25.215  1.00  0.00     0.031 C 
ATOM     47  C   UNL A   1      43.104  24.982  26.470  1.00  0.00     0.029 A 
ATOM     48  N   UNL A   1      44.335  26.804  26.870  1.00  0.00    -0.354 N 
ATOM     49  C   UNL A   1      48.564  26.871  25.994  1.00  0.00     0.074 A 
ATOM     50  C   UNL A   1      48.997  25.615  25.422  1.00  0.00     0.031 C 
ATOM     51  C   UNL A   1      42.297  25.899  27.026  1.00  0.00     0.029 A 
ATOM     52  C   UNL A   1      43.074  27.098  27.324  1.00  0.00     0.049 A 
ATOM     53  H   UNL A   1      45.087  27.438  26.918  1.00  0.00     0.167 HD
ATOM     54  C   UNL A   1      49.377  27.930  26.219  1.00  0.00     0.037 A 
ATOM     55  C   UNL A   1      42.598  28.207  27.923  1.00  0.00     0.037 A 
ATOM     56  C   UNL A   1      48.937  29.188  26.762  1.00  0.00     0.049 A 
ATOM     57  C   UNL A   1      43.520  29.369  28.159  1.00  0.00     0.074 A 
ATOM     58  C   UNL A   1      49.672  30.343  26.967  1.00  0.00     0.029 A 
ATOM     59  N   UNL A   1      47.645  29.456  27.189  1.00  0.00    -0.354 N 
ATOM     60  N   UNL A   1      44.795  29.483  27.874  1.00  0.00    -0.248 NA
ATOM     61  C   UNL A   1      42.937  30.559  28.795  1.00  0.00     0.031 C 
ATOM     62  C   UNL A   1      48.834  31.296  27.555  1.00  0.00     0.029 A 
ATOM     63  C   UNL A   1      47.566  30.750  27.676  1.00  0.00     0.049 A 
ATOM     64  H   UNL A   1      46.895  28.819  27.152  1.00  0.00     0.167 HD
ATOM     65  C   UNL A   1      45.160  30.763  28.271  1.00  0.00     0.074 A 
ATOM     66  C   UNL A   1      43.969  31.392  28.805  1.00  0.00     0.031 C 
ATOM     67  C   UNL A   1      46.373  31.364  28.198  1.00  0.00     0.037 A 
BRANCH  54  68
ATOM     68  C   UNL A   1      50.829  27.773  25.875  1.00  0.00     0.057 A 
ATOM     69  C   UNL A   1      51.306  27.973  24.574  1.00  0.00     0.134 A 
ATOM     70  C   UNL A   1      51.769  27.454  26.865  1.00  0.00     0.134 A 
ATOM     71  F   UNL A   1      50.458  28.271  23.577  1.00  0.00    -0.206 F 
ATOM     72  C   UNL A   1      52.660  27.839  24.262  1.00  0.00     0.040 A 
ATOM     73  C   UNL A   1      53.128  27.341  26.571  1.00  0.00     0.040 A 
ATOM     74  F   UNL A   1      51.380  27.255  28.134  1.00  0.00    -0.206 F 
ATOM     75  C   UNL A   1      53.577  27.528  25.265  1.00  0.00     0.006 A 
ENDBRANCH  54  68
BRANCH  55  76
ATOM     76  C   UNL A   1      41.171  28.278  28.324  1.00  0.00     0.057 A 
ATOM     77  C   UNL A   1      40.202  28.791  27.454  1.00  0.00     0.134 A 
ATOM     78  C   UNL A   1      40.741  27.838  29.582  1.00  0.00     0.134 A 
ATOM     79  F   UNL A   1      40.555  29.244  26.243  1.00  0.00    -0.206 F 
ATOM     80  C   UNL A   1      38.860  28.881  27.826  1.00  0.00     0.040 A 
ATOM     81  C   UNL A   1      39.398  27.900  29.958  1.00  0.00     0.040 A 
ATOM     82  F   UNL A   1      41.620  27.328  30.458  1.00  0.00    -0.206 F 
ATOM     83  C   UNL A   1      38.455  28.430  29.081  1.00  0.00     0.006 A 
ENDBRANCH  55  76
BRANCH  67  84
ATOM     84  C   UNL A   1      46.466  32.782  28.679  1.00  0.00     0.057 A 
ATOM     85  C   UNL A   1      46.802  33.093  30.001  1.00  0.00     0.134 A 
ATOM     86  C   UNL A   1      46.256  33.847  27.795  1.00  0.00     0.134 A 
ATOM     87  F   UNL A   1      47.003  32.117  30.900  1.00  0.00    -0.206 F 
ATOM     88  C   UNL A   1      46.907  34.416  30.435  1.00  0.00     0.040 A 
ATOM     89  C   UNL A   1      46.382  35.175  28.209  1.00  0.00     0.040 A 
ATOM     90  F   UNL A   1      45.939  33.617  26.512  1.00  0.00    -0.206 F 
ATOM     91  C   UNL A   1      46.703  35.461  29.535  1.00  0.00     0.006 A 
ENDBRANCH  67  84
ENDBRANCH  41  42
ENDBRANCH  33  36
ENDBRANCH  31  32
ENDBRANCH  30  31
ENDBRANCH  29  30
ENDBRANCH  28  29
ENDBRANCH  27  28
ENDBRANCH   1  27
TORSDOF 20
ENDMDL
