MODEL 1
REMARK VINA RESULT:     -12.0      0.000      0.000
REMARK SMILES COCc1cc(C)nc(N/N=C\c2ccc(-c3cccc(C(=O)NCCCCCCNC(=O)c4ccc(-c5c6nc(c(-c7c(F)cccc7F)c7ccc([nH]7)c(-c7c(F)cccc7F)c7nc(c(-c8c(F)cccc8F)c8ccc5[nH]8)C=C7)C=C6)cc4)c3)o2)c1C#N
REMARK SMILES IDX 25 1 24 2 22 3 23 4 21 6 17 7 18 8 88 9 19 10 20 11 16 12
REMARK SMILES IDX 13 13 14 14 89 15 15 16 12 17 11 18 10 19 9 21 4 22 5 23
REMARK SMILES IDX 90 24 6 25 7 26 8 27 3 28 2 29 1 30 91 31 92 32 26 33 27 34
REMARK SMILES IDX 28 35 29 36 30 37 31 38 32 39 33 41 34 42 35 43 87 44 36 45
REMARK SMILES IDX 86 46 37 47 38 48 39 49 80 50 40 51 85 52 79 53 81 54 41 55
REMARK SMILES IDX 84 56 78 57 77 58 42 60 68 61 51 62 67 63 52 64 55 65 66 66
REMARK SMILES IDX 82 67 53 68 54 69 65 71 83 72 56 73 43 74 44 75 49 76 45 77
REMARK SMILES IDX 46 78 48 79 50 80 47 81 69 82 70 83 75 84 71 85 72 86 74 87
REMARK SMILES IDX 76 88 73 89 57 90 58 91 63 92 59 93 60 94 62 95 64 96 61 97
REMARK H PARENT 24 5 10 20 31 40 81 59 55 70
REMARK Flexibility Score: inf
ROOT
ATOM      1  C   UNL A   1      32.424  25.899  21.998  1.00  0.00     0.116 C 
ENDROOT
BRANCH   1   2
ATOM      2  N   UNL A   1      31.488  26.970  21.706  1.00  0.00    -0.352 N 
ATOM      3  C   UNL A   1      30.774  27.804  22.538  1.00  0.00     0.251 C 
ATOM      4  O   UNL A   1      30.117  28.713  22.039  1.00  0.00    -0.269 OA
ATOM      5  H   UNL A   1      31.337  27.127  20.746  1.00  0.00     0.163 HD
BRANCH   3   6
ATOM      6  C   UNL A   1      30.851  27.680  24.018  1.00  0.00     0.040 A 
ATOM      7  C   UNL A   1      30.768  26.309  26.022  1.00  0.00     0.018 A 
ATOM      8  C   UNL A   1      31.421  27.329  26.728  1.00  0.00     0.012 A 
ATOM      9  C   UNL A   1      30.395  26.550  24.698  1.00  0.00     0.025 A 
ATOM     10  C   UNL A   1      31.744  28.535  26.097  1.00  0.00     0.002 A 
ATOM     11  C   UNL A   1      31.485  28.700  24.736  1.00  0.00     0.014 A 
BRANCH   7  12
ATOM     12  C   UNL A   1      30.776  24.925  26.504  1.00  0.00     0.134 A 
ATOM     13  C   UNL A   1      31.886  23.194  27.243  1.00  0.00     0.147 A 
ATOM     14  C   UNL A   1      30.796  22.678  26.581  1.00  0.00     0.053 A 
ATOM     15  O   UNL A   1      31.827  24.556  27.282  1.00  0.00    -0.455 OA
ATOM     16  C   UNL A   1      30.065  23.797  26.119  1.00  0.00     0.051 A 
BRANCH  13  17
ATOM     17  C   UNL A   1      32.999  22.581  27.874  1.00  0.00     0.180 C 
ATOM     18  N   UNL A   1      33.577  21.440  27.678  1.00  0.00    -0.178 NA
BRANCH  18  19
ATOM     19  N   UNL A   1      33.328  20.463  26.775  1.00  0.00    -0.260 N 
ATOM     20  H   UNL A   1      33.312  19.569  27.188  1.00  0.00     0.192 HD
BRANCH  19  21
ATOM     21  C   UNL A   1      33.082  20.411  25.366  1.00  0.00     0.164 A 
ATOM     22  C   UNL A   1      32.353  19.062  23.450  1.00  0.00     0.001 A 
ATOM     23  C   UNL A   1      32.181  20.239  22.749  1.00  0.00     0.031 A 
ATOM     24  C   UNL A   1      32.736  19.152  24.800  1.00  0.00     0.102 A 
ATOM     25  C   UNL A   1      32.700  21.396  23.275  1.00  0.00     0.040 A 
ATOM     26  C   UNL A   1      32.867  22.503  22.278  1.00  0.00     0.067 C 
ATOM     27  N   UNL A   1      33.142  21.496  24.557  1.00  0.00    -0.233 NA
BRANCH  22  28
ATOM     28  C   UNL A   1      32.236  17.787  22.652  1.00  0.00     0.196 C 
BRANCH  28  29
ATOM     29  O   UNL A   1      33.514  17.350  22.161  1.00  0.00    -0.380 OA
ATOM     30  C   UNL A   1      34.292  16.560  23.056  1.00  0.00     0.195 C 
ENDBRANCH  28  29
ENDBRANCH  22  28
BRANCH  24  31
ATOM     31  C   UNL A   1      32.713  17.977  25.613  1.00  0.00     0.103 C 
ATOM     32  N   UNL A   1      32.688  16.982  26.216  1.00  0.00    -0.192 NA
ENDBRANCH  24  31
ENDBRANCH  19  21
ENDBRANCH  18  19
ENDBRANCH  13  17
ENDBRANCH   7  12
ENDBRANCH   3   6
ENDBRANCH   1   2
BRANCH   1  33
ATOM     33  C   UNL A   1      33.569  26.393  22.884  1.00  0.00     0.021 C 
BRANCH  33  34
ATOM     34  C   UNL A   1      34.383  25.265  23.517  1.00  0.00     0.002 C 
BRANCH  34  35
ATOM     35  C   UNL A   1      34.346  25.242  25.047  1.00  0.00     0.002 C 
BRANCH  35  36
ATOM     36  C   UNL A   1      35.262  24.200  25.692  1.00  0.00     0.021 C 
BRANCH  36  37
ATOM     37  C   UNL A   1      36.607  24.037  24.993  1.00  0.00     0.116 C 
BRANCH  37  38
ATOM     38  N   UNL A   1      37.330  22.877  25.490  1.00  0.00    -0.352 N 
ATOM     39  C   UNL A   1      38.531  22.819  26.148  1.00  0.00     0.251 C 
ATOM     40  H   UNL A   1      36.893  22.009  25.332  1.00  0.00     0.163 HD
ATOM     41  O   UNL A   1      39.120  21.750  26.266  1.00  0.00    -0.269 OA
BRANCH  39  42
ATOM     42  C   UNL A   1      39.117  24.054  26.704  1.00  0.00     0.039 A 
ATOM     43  C   UNL A   1      39.908  24.858  25.882  1.00  0.00     0.014 A 
ATOM     44  C   UNL A   1      38.891  24.412  28.037  1.00  0.00     0.014 A 
ATOM     45  C   UNL A   1      40.433  26.047  26.385  1.00  0.00     0.010 A 
ATOM     46  C   UNL A   1      39.333  25.644  28.505  1.00  0.00     0.010 A 
ATOM     47  C   UNL A   1      40.122  26.467  27.690  1.00  0.00    -0.014 A 
BRANCH  47  48
ATOM     48  C   UNL A   1      40.620  27.765  28.207  1.00  0.00     0.031 A 
ATOM     49  C   UNL A   1      42.094  28.049  28.271  1.00  0.00     0.074 A 
ATOM     50  C   UNL A   1      39.739  28.678  28.659  1.00  0.00     0.049 A 
ATOM     51  N   UNL A   1      42.711  29.127  28.684  1.00  0.00    -0.248 NA
ATOM     52  C   UNL A   1      42.996  26.968  27.844  1.00  0.00     0.031 C 
ATOM     53  C   UNL A   1      38.287  28.495  28.709  1.00  0.00     0.029 A 
ATOM     54  N   UNL A   1      39.934  29.938  29.162  1.00  0.00    -0.354 N 
ATOM     55  C   UNL A   1      44.068  28.852  28.572  1.00  0.00     0.074 A 
ATOM     56  C   UNL A   1      44.184  27.481  28.128  1.00  0.00     0.031 C 
ATOM     57  C   UNL A   1      37.721  29.617  29.177  1.00  0.00     0.029 A 
ATOM     58  C   UNL A   1      38.768  30.579  29.505  1.00  0.00     0.049 A 
ATOM     59  H   UNL A   1      40.824  30.345  29.267  1.00  0.00     0.167 HD
ATOM     60  C   UNL A   1      45.121  29.674  28.794  1.00  0.00     0.037 A 
ATOM     61  C   UNL A   1      38.565  31.800  30.032  1.00  0.00     0.037 A 
ATOM     62  C   UNL A   1      44.995  31.038  29.242  1.00  0.00     0.049 A 
ATOM     63  C   UNL A   1      39.746  32.693  30.290  1.00  0.00     0.074 A 
ATOM     64  C   UNL A   1      45.993  31.974  29.441  1.00  0.00     0.029 A 
ATOM     65  N   UNL A   1      43.798  31.650  29.582  1.00  0.00    -0.354 N 
ATOM     66  N   UNL A   1      41.020  32.455  30.093  1.00  0.00    -0.248 NA
ATOM     67  C   UNL A   1      39.460  34.027  30.833  1.00  0.00     0.031 C 
ATOM     68  C   UNL A   1      45.408  33.127  29.976  1.00  0.00     0.029 A 
ATOM     69  C   UNL A   1      44.037  32.940  30.031  1.00  0.00     0.049 A 
ATOM     70  H   UNL A   1      42.909  31.232  29.514  1.00  0.00     0.167 HD
ATOM     71  C   UNL A   1      41.688  33.614  30.466  1.00  0.00     0.074 A 
ATOM     72  C   UNL A   1      40.673  34.560  30.885  1.00  0.00     0.031 C 
ATOM     73  C   UNL A   1      43.020  33.871  30.457  1.00  0.00     0.037 A 
BRANCH  60  74
ATOM     74  C   UNL A   1      46.496  29.103  28.576  1.00  0.00     0.057 A 
ATOM     75  C   UNL A   1      47.195  28.428  29.589  1.00  0.00     0.134 A 
ATOM     76  C   UNL A   1      47.138  29.240  27.339  1.00  0.00     0.134 A 
ATOM     77  F   UNL A   1      46.645  28.264  30.803  1.00  0.00    -0.206 F 
ATOM     78  C   UNL A   1      48.498  27.961  29.396  1.00  0.00     0.040 A 
ATOM     79  C   UNL A   1      48.425  28.742  27.122  1.00  0.00     0.040 A 
ATOM     80  F   UNL A   1      46.529  29.863  26.319  1.00  0.00    -0.206 F 
ATOM     81  C   UNL A   1      49.114  28.115  28.157  1.00  0.00     0.006 A 
ENDBRANCH  60  74
BRANCH  61  82
ATOM     82  C   UNL A   1      37.179  32.244  30.326  1.00  0.00     0.057 A 
ATOM     83  C   UNL A   1      36.571  31.968  31.557  1.00  0.00     0.134 A 
ATOM     84  C   UNL A   1      36.443  32.990  29.397  1.00  0.00     0.134 A 
ATOM     85  F   UNL A   1      37.219  31.247  32.483  1.00  0.00    -0.206 F 
ATOM     86  C   UNL A   1      35.281  32.412  31.849  1.00  0.00     0.040 A 
ATOM     87  C   UNL A   1      35.163  33.464  29.687  1.00  0.00     0.040 A 
ATOM     88  F   UNL A   1      36.975  33.300  28.205  1.00  0.00    -0.206 F 
ATOM     89  C   UNL A   1      34.576  33.170  30.915  1.00  0.00     0.006 A 
ENDBRANCH  61  82
BRANCH  73  90
ATOM     90  C   UNL A   1      43.459  35.244  30.886  1.00  0.00     0.057 A 
ATOM     91  C   UNL A   1      43.581  36.306  29.980  1.00  0.00     0.134 A 
ATOM     92  C   UNL A   1      43.723  35.516  32.235  1.00  0.00     0.134 A 
ATOM     93  F   UNL A   1      43.355  36.115  28.672  1.00  0.00    -0.206 F 
ATOM     94  C   UNL A   1      43.978  37.579  30.397  1.00  0.00     0.040 A 
ATOM     95  C   UNL A   1      44.085  36.792  32.668  1.00  0.00     0.040 A 
ATOM     96  F   UNL A   1      43.615  34.549  33.159  1.00  0.00    -0.206 F 
ATOM     97  C   UNL A   1      44.222  37.826  31.747  1.00  0.00     0.006 A 
ENDBRANCH  73  90
ENDBRANCH  47  48
ENDBRANCH  39  42
ENDBRANCH  37  38
ENDBRANCH  36  37
ENDBRANCH  35  36
ENDBRANCH  34  35
ENDBRANCH  33  34
ENDBRANCH   1  33
TORSDOF 20
ENDMDL
MODEL 2
REMARK VINA RESULT:     -12.0      4.388      8.952
REMARK SMILES COCc1cc(C)nc(N/N=C\c2ccc(-c3cccc(C(=O)NCCCCCCNC(=O)c4ccc(-c5c6nc(c(-c7c(F)cccc7F)c7ccc([nH]7)c(-c7c(F)cccc7F)c7nc(c(-c8c(F)cccc8F)c8ccc5[nH]8)C=C7)C=C6)cc4)c3)o2)c1C#N
REMARK SMILES IDX 25 1 24 2 22 3 23 4 21 6 17 7 18 8 88 9 19 10 20 11 16 12
REMARK SMILES IDX 13 13 14 14 89 15 15 16 12 17 11 18 10 19 9 21 4 22 5 23
REMARK SMILES IDX 90 24 6 25 7 26 8 27 3 28 2 29 1 30 91 31 92 32 26 33 27 34
REMARK SMILES IDX 28 35 29 36 30 37 31 38 32 39 33 41 34 42 35 43 87 44 36 45
REMARK SMILES IDX 86 46 37 47 38 48 39 49 80 50 40 51 85 52 79 53 81 54 41 55
REMARK SMILES IDX 84 56 78 57 77 58 42 60 68 61 51 62 67 63 52 64 55 65 66 66
REMARK SMILES IDX 82 67 53 68 54 69 65 71 83 72 56 73 43 74 44 75 49 76 45 77
REMARK SMILES IDX 46 78 48 79 50 80 47 81 69 82 70 83 75 84 71 85 72 86 74 87
REMARK SMILES IDX 76 88 73 89 57 90 58 91 63 92 59 93 60 94 62 95 64 96 61 97
REMARK H PARENT 24 5 10 20 31 40 81 59 55 70
REMARK Flexibility Score: inf
ROOT
ATOM      1  C   UNL A   1      34.102  27.943  26.186  1.00  0.00     0.116 C 
ENDROOT
BRANCH   1   2
ATOM      2  N   UNL A   1      33.549  27.611  24.885  1.00  0.00    -0.352 N 
ATOM      3  C   UNL A   1      33.313  26.395  24.283  1.00  0.00     0.251 C 
ATOM      4  O   UNL A   1      32.732  26.376  23.201  1.00  0.00    -0.269 OA
ATOM      5  H   UNL A   1      33.299  28.391  24.338  1.00  0.00     0.163 HD
BRANCH   3   6
ATOM      6  C   UNL A   1      33.667  25.113  24.950  1.00  0.00     0.040 A 
ATOM      7  C   UNL A   1      35.329  23.455  25.573  1.00  0.00     0.018 A 
ATOM      8  C   UNL A   1      34.449  22.963  26.549  1.00  0.00     0.012 A 
ATOM      9  C   UNL A   1      34.875  24.457  24.712  1.00  0.00     0.025 A 
ATOM     10  C   UNL A   1      33.170  23.511  26.692  1.00  0.00     0.002 A 
ATOM     11  C   UNL A   1      32.790  24.604  25.912  1.00  0.00     0.014 A 
BRANCH   7  12
ATOM     12  C   UNL A   1      36.770  23.204  25.653  1.00  0.00     0.134 A 
ATOM     13  C   UNL A   1      38.428  21.800  25.888  1.00  0.00     0.147 A 
ATOM     14  C   UNL A   1      38.875  22.990  26.416  1.00  0.00     0.053 A 
ATOM     15  O   UNL A   1      37.190  21.951  25.338  1.00  0.00    -0.455 OA
ATOM     16  C   UNL A   1      37.810  23.906  26.246  1.00  0.00     0.051 A 
BRANCH  13  17
ATOM     17  C   UNL A   1      39.014  20.511  25.810  1.00  0.00     0.180 C 
ATOM     18  N   UNL A   1      40.213  20.095  26.058  1.00  0.00    -0.178 NA
BRANCH  18  19
ATOM     19  N   UNL A   1      41.305  20.755  26.512  1.00  0.00    -0.260 N 
ATOM     20  H   UNL A   1      41.235  20.978  27.468  1.00  0.00     0.192 HD
BRANCH  19  21
ATOM     21  C   UNL A   1      42.537  21.206  25.942  1.00  0.00     0.164 A 
ATOM     22  C   UNL A   1      44.645  20.598  24.842  1.00  0.00     0.001 A 
ATOM     23  C   UNL A   1      44.768  21.918  24.456  1.00  0.00     0.031 A 
ATOM     24  C   UNL A   1      43.477  20.221  25.529  1.00  0.00     0.102 A 
ATOM     25  C   UNL A   1      43.940  22.849  25.033  1.00  0.00     0.040 A 
ATOM     26  C   UNL A   1      44.424  24.262  24.910  1.00  0.00     0.067 C 
ATOM     27  N   UNL A   1      42.841  22.515  25.761  1.00  0.00    -0.233 NA
BRANCH  22  28
ATOM     28  C   UNL A   1      45.844  19.716  24.596  1.00  0.00     0.196 C 
BRANCH  28  29
ATOM     29  O   UNL A   1      45.498  18.559  23.816  1.00  0.00    -0.380 OA
ATOM     30  C   UNL A   1      45.268  18.786  22.428  1.00  0.00     0.195 C 
ENDBRANCH  28  29
ENDBRANCH  22  28
BRANCH  24  31
ATOM     31  C   UNL A   1      43.214  18.835  25.752  1.00  0.00     0.103 C 
ATOM     32  N   UNL A   1      42.977  17.722  25.997  1.00  0.00    -0.192 NA
ENDBRANCH  24  31
ENDBRANCH  19  21
ENDBRANCH  18  19
ENDBRANCH  13  17
ENDBRANCH   7  12
ENDBRANCH   3   6
ENDBRANCH   1   2
BRANCH   1  33
ATOM     33  C   UNL A   1      33.436  29.191  26.768  1.00  0.00     0.021 C 
BRANCH  33  34
ATOM     34  C   UNL A   1      32.682  30.022  25.730  1.00  0.00     0.002 C 
BRANCH  34  35
ATOM     35  C   UNL A   1      31.363  30.614  26.232  1.00  0.00     0.002 C 
BRANCH  35  36
ATOM     36  C   UNL A   1      31.401  32.119  26.505  1.00  0.00     0.021 C 
BRANCH  36  37
ATOM     37  C   UNL A   1      32.679  32.595  27.186  1.00  0.00     0.116 C 
BRANCH  37  38
ATOM     38  N   UNL A   1      32.564  33.975  27.632  1.00  0.00    -0.352 N 
ATOM     39  C   UNL A   1      33.211  34.611  28.658  1.00  0.00     0.251 C 
ATOM     40  H   UNL A   1      31.931  34.531  27.123  1.00  0.00     0.163 HD
ATOM     41  O   UNL A   1      32.810  35.698  29.063  1.00  0.00    -0.269 OA
BRANCH  39  42
ATOM     42  C   UNL A   1      34.388  33.976  29.283  1.00  0.00     0.039 A 
ATOM     43  C   UNL A   1      34.191  32.977  30.237  1.00  0.00     0.014 A 
ATOM     44  C   UNL A   1      35.682  34.373  28.932  1.00  0.00     0.014 A 
ATOM     45  C   UNL A   1      35.295  32.342  30.803  1.00  0.00     0.010 A 
ATOM     46  C   UNL A   1      36.777  33.672  29.424  1.00  0.00     0.010 A 
ATOM     47  C   UNL A   1      36.596  32.660  30.376  1.00  0.00    -0.014 A 
BRANCH  47  48
ATOM     48  C   UNL A   1      37.771  31.939  30.924  1.00  0.00     0.031 A 
ATOM     49  C   UNL A   1      38.254  32.212  32.321  1.00  0.00     0.074 A 
ATOM     50  C   UNL A   1      38.431  31.062  30.143  1.00  0.00     0.049 A 
ATOM     51  N   UNL A   1      39.255  31.673  32.969  1.00  0.00    -0.248 NA
ATOM     52  C   UNL A   1      37.536  33.248  33.080  1.00  0.00     0.031 C 
ATOM     53  C   UNL A   1      38.100  30.759  28.750  1.00  0.00     0.029 A 
ATOM     54  N   UNL A   1      39.516  30.267  30.408  1.00  0.00    -0.354 N 
ATOM     55  C   UNL A   1      39.291  32.307  34.204  1.00  0.00     0.074 A 
ATOM     56  C   UNL A   1      38.262  33.323  34.185  1.00  0.00     0.031 C 
ATOM     57  C   UNL A   1      38.937  29.816  28.296  1.00  0.00     0.029 A 
ATOM     58  C   UNL A   1      39.894  29.483  29.347  1.00  0.00     0.049 A 
ATOM     59  H   UNL A   1      39.980  30.260  31.277  1.00  0.00     0.167 HD
ATOM     60  C   UNL A   1      40.090  32.050  35.267  1.00  0.00     0.037 A 
ATOM     61  C   UNL A   1      40.902  28.599  29.229  1.00  0.00     0.037 A 
ATOM     62  C   UNL A   1      41.116  31.039  35.275  1.00  0.00     0.049 A 
ATOM     63  C   UNL A   1      41.791  28.339  30.411  1.00  0.00     0.074 A 
ATOM     64  C   UNL A   1      41.942  30.657  36.317  1.00  0.00     0.029 A 
ATOM     65  N   UNL A   1      41.472  30.266  34.179  1.00  0.00    -0.354 N 
ATOM     66  N   UNL A   1      41.757  28.880  31.605  1.00  0.00    -0.248 NA
ATOM     67  C   UNL A   1      42.853  27.339  30.234  1.00  0.00     0.031 C 
ATOM     68  C   UNL A   1      42.848  29.709  35.830  1.00  0.00     0.029 A 
ATOM     69  C   UNL A   1      42.534  29.438  34.508  1.00  0.00     0.049 A 
ATOM     70  H   UNL A   1      41.034  30.299  33.297  1.00  0.00     0.167 HD
ATOM     71  C   UNL A   1      42.775  28.272  32.330  1.00  0.00     0.074 A 
ATOM     72  C   UNL A   1      43.396  27.310  31.443  1.00  0.00     0.031 C 
ATOM     73  C   UNL A   1      43.154  28.490  33.614  1.00  0.00     0.037 A 
BRANCH  60  74
ATOM     74  C   UNL A   1      39.894  32.897  36.495  1.00  0.00     0.057 A 
ATOM     75  C   UNL A   1      40.670  34.038  36.749  1.00  0.00     0.134 A 
ATOM     76  C   UNL A   1      38.921  32.563  37.446  1.00  0.00     0.134 A 
ATOM     77  F   UNL A   1      41.626  34.417  35.886  1.00  0.00    -0.206 F 
ATOM     78  C   UNL A   1      40.525  34.779  37.925  1.00  0.00     0.040 A 
ATOM     79  C   UNL A   1      38.739  33.318  38.606  1.00  0.00     0.040 A 
ATOM     80  F   UNL A   1      38.132  31.493  37.267  1.00  0.00    -0.206 F 
ATOM     81  C   UNL A   1      39.553  34.419  38.855  1.00  0.00     0.006 A 
ENDBRANCH  60  74
BRANCH  61  82
ATOM     82  C   UNL A   1      41.098  27.887  27.940  1.00  0.00     0.057 A 
ATOM     83  C   UNL A   1      41.862  28.446  26.908  1.00  0.00     0.134 A 
ATOM     84  C   UNL A   1      40.560  26.613  27.726  1.00  0.00     0.134 A 
ATOM     85  F   UNL A   1      42.393  29.669  27.048  1.00  0.00    -0.206 F 
ATOM     86  C   UNL A   1      42.076  27.767  25.708  1.00  0.00     0.040 A 
ATOM     87  C   UNL A   1      40.789  25.910  26.542  1.00  0.00     0.040 A 
ATOM     88  F   UNL A   1      39.830  26.017  28.680  1.00  0.00    -0.206 F 
ATOM     89  C   UNL A   1      41.545  26.490  25.526  1.00  0.00     0.006 A 
ENDBRANCH  61  82
BRANCH  73  90
ATOM     90  C   UNL A   1      44.279  27.650  34.152  1.00  0.00     0.057 A 
ATOM     91  C   UNL A   1      45.610  28.087  34.138  1.00  0.00     0.134 A 
ATOM     92  C   UNL A   1      44.019  26.400  34.731  1.00  0.00     0.134 A 
ATOM     93  F   UNL A   1      45.934  29.267  33.590  1.00  0.00    -0.206 F 
ATOM     94  C   UNL A   1      46.643  27.300  34.655  1.00  0.00     0.040 A 
ATOM     95  C   UNL A   1      45.036  25.622  35.283  1.00  0.00     0.040 A 
ATOM     96  F   UNL A   1      42.765  25.924  34.789  1.00  0.00    -0.206 F 
ATOM     97  C   UNL A   1      46.355  26.067  35.237  1.00  0.00     0.006 A 
ENDBRANCH  73  90
ENDBRANCH  47  48
ENDBRANCH  39  42
ENDBRANCH  37  38
ENDBRANCH  36  37
ENDBRANCH  35  36
ENDBRANCH  34  35
ENDBRANCH  33  34
ENDBRANCH   1  33
TORSDOF 20
ENDMDL
MODEL 3
REMARK VINA RESULT:     -11.7      4.081      9.251
REMARK SMILES COCc1cc(C)nc(N/N=C\c2ccc(-c3cccc(C(=O)NCCCCCCNC(=O)c4ccc(-c5c6nc(c(-c7c(F)cccc7F)c7ccc([nH]7)c(-c7c(F)cccc7F)c7nc(c(-c8c(F)cccc8F)c8ccc5[nH]8)C=C7)C=C6)cc4)c3)o2)c1C#N
REMARK SMILES IDX 25 1 24 2 22 3 23 4 21 6 17 7 18 8 88 9 19 10 20 11 16 12
REMARK SMILES IDX 13 13 14 14 89 15 15 16 12 17 11 18 10 19 9 21 4 22 5 23
REMARK SMILES IDX 90 24 6 25 7 26 8 27 3 28 2 29 1 30 91 31 92 32 26 33 27 34
REMARK SMILES IDX 28 35 29 36 30 37 31 38 32 39 33 41 34 42 35 43 87 44 36 45
REMARK SMILES IDX 86 46 37 47 38 48 39 49 80 50 40 51 85 52 79 53 81 54 41 55
REMARK SMILES IDX 84 56 78 57 77 58 42 60 68 61 51 62 67 63 52 64 55 65 66 66
REMARK SMILES IDX 82 67 53 68 54 69 65 71 83 72 56 73 43 74 44 75 49 76 45 77
REMARK SMILES IDX 46 78 48 79 50 80 47 81 69 82 70 83 75 84 71 85 72 86 74 87
REMARK SMILES IDX 76 88 73 89 57 90 58 91 63 92 59 93 60 94 62 95 64 96 61 97
REMARK H PARENT 24 5 10 20 31 40 81 59 55 70
REMARK Flexibility Score: inf
ROOT
ATOM      1  C   UNL A   1      33.473  26.403  25.094  1.00  0.00     0.116 C 
ENDROOT
BRANCH   1   2
ATOM      2  N   UNL A   1      33.469  26.269  23.648  1.00  0.00    -0.352 N 
ATOM      3  C   UNL A   1      33.770  25.198  22.835  1.00  0.00     0.251 C 
ATOM      4  O   UNL A   1      33.589  25.307  21.626  1.00  0.00    -0.269 OA
ATOM      5  H   UNL A   1      33.208  27.085  23.164  1.00  0.00     0.163 HD
BRANCH   3   6
ATOM      6  C   UNL A   1      34.223  23.897  23.396  1.00  0.00     0.040 A 
ATOM      7  C   UNL A   1      35.967  22.525  24.386  1.00  0.00     0.018 A 
ATOM      8  C   UNL A   1      34.984  21.638  24.848  1.00  0.00     0.012 A 
ATOM      9  C   UNL A   1      35.573  23.588  23.569  1.00  0.00     0.025 A 
ATOM     10  C   UNL A   1      33.635  21.851  24.546  1.00  0.00     0.002 A 
ATOM     11  C   UNL A   1      33.252  22.996  23.845  1.00  0.00     0.014 A 
BRANCH   7  12
ATOM     12  C   UNL A   1      37.298  22.572  24.997  1.00  0.00     0.134 A 
ATOM     13  C   UNL A   1      38.992  21.532  25.904  1.00  0.00     0.147 A 
ATOM     14  C   UNL A   1      38.974  22.781  26.482  1.00  0.00     0.053 A 
ATOM     15  O   UNL A   1      38.038  21.435  24.934  1.00  0.00    -0.455 OA
ATOM     16  C   UNL A   1      37.890  23.464  25.881  1.00  0.00     0.051 A 
BRANCH  13  17
ATOM     17  C   UNL A   1      39.804  20.391  26.124  1.00  0.00     0.180 C 
ATOM     18  N   UNL A   1      41.086  20.226  26.081  1.00  0.00    -0.178 NA
BRANCH  18  19
ATOM     19  N   UNL A   1      42.087  21.107  25.843  1.00  0.00    -0.260 N 
ATOM     20  H   UNL A   1      42.290  21.189  24.883  1.00  0.00     0.192 HD
BRANCH  19  21
ATOM     21  C   UNL A   1      42.920  21.949  26.645  1.00  0.00     0.164 A 
ATOM     22  C   UNL A   1      44.753  23.581  26.706  1.00  0.00     0.001 A 
ATOM     23  C   UNL A   1      44.345  23.918  27.982  1.00  0.00     0.031 A 
ATOM     24  C   UNL A   1      43.984  22.638  25.999  1.00  0.00     0.102 A 
ATOM     25  C   UNL A   1      43.442  23.103  28.618  1.00  0.00     0.040 A 
ATOM     26  C   UNL A   1      43.403  23.273  30.106  1.00  0.00     0.067 C 
ATOM     27  N   UNL A   1      42.733  22.136  27.975  1.00  0.00    -0.233 NA
BRANCH  22  28
ATOM     28  C   UNL A   1      46.064  24.169  26.247  1.00  0.00     0.196 C 
BRANCH  28  29
ATOM     29  O   UNL A   1      46.285  25.473  26.809  1.00  0.00    -0.380 OA
ATOM     30  C   UNL A   1      46.946  26.413  25.967  1.00  0.00     0.195 C 
ENDBRANCH  28  29
ENDBRANCH  22  28
BRANCH  24  31
ATOM     31  C   UNL A   1      44.243  22.426  24.610  1.00  0.00     0.103 C 
ATOM     32  N   UNL A   1      44.385  22.253  23.468  1.00  0.00    -0.192 NA
ENDBRANCH  24  31
ENDBRANCH  19  21
ENDBRANCH  18  19
ENDBRANCH  13  17
ENDBRANCH   7  12
ENDBRANCH   3   6
ENDBRANCH   1   2
BRANCH   1  33
ATOM     33  C   UNL A   1      32.101  26.841  25.611  1.00  0.00     0.021 C 
BRANCH  33  34
ATOM     34  C   UNL A   1      31.808  28.324  25.390  1.00  0.00     0.002 C 
BRANCH  34  35
ATOM     35  C   UNL A   1      31.773  29.159  26.672  1.00  0.00     0.002 C 
BRANCH  35  36
ATOM     36  C   UNL A   1      31.664  30.669  26.449  1.00  0.00     0.021 C 
BRANCH  36  37
ATOM     37  C   UNL A   1      32.984  31.415  26.599  1.00  0.00     0.116 C 
BRANCH  37  38
ATOM     38  N   UNL A   1      32.772  32.799  26.995  1.00  0.00    -0.352 N 
ATOM     39  C   UNL A   1      33.353  33.509  28.013  1.00  0.00     0.251 C 
ATOM     40  H   UNL A   1      32.118  33.297  26.453  1.00  0.00     0.163 HD
ATOM     41  O   UNL A   1      32.875  34.580  28.372  1.00  0.00    -0.269 OA
BRANCH  39  42
ATOM     42  C   UNL A   1      34.551  32.970  28.686  1.00  0.00     0.039 A 
ATOM     43  C   UNL A   1      34.394  32.221  29.853  1.00  0.00     0.014 A 
ATOM     44  C   UNL A   1      35.827  33.210  28.167  1.00  0.00     0.014 A 
ATOM     45  C   UNL A   1      35.515  31.673  30.473  1.00  0.00     0.010 A 
ATOM     46  C   UNL A   1      36.931  32.582  28.730  1.00  0.00     0.010 A 
ATOM     47  C   UNL A   1      36.790  31.820  29.899  1.00  0.00    -0.014 A 
BRANCH  47  48
ATOM     48  C   UNL A   1      37.977  31.181  30.516  1.00  0.00     0.031 A 
ATOM     49  C   UNL A   1      38.367  31.496  31.932  1.00  0.00     0.074 A 
ATOM     50  C   UNL A   1      38.732  30.341  29.781  1.00  0.00     0.049 A 
ATOM     51  N   UNL A   1      39.365  31.028  32.639  1.00  0.00    -0.248 NA
ATOM     52  C   UNL A   1      37.546  32.490  32.640  1.00  0.00     0.031 C 
ATOM     53  C   UNL A   1      38.495  30.005  28.377  1.00  0.00     0.029 A 
ATOM     54  N   UNL A   1      39.849  29.619  30.112  1.00  0.00    -0.354 N 
ATOM     55  C   UNL A   1      39.295  31.674  33.866  1.00  0.00     0.074 A 
ATOM     56  C   UNL A   1      38.207  32.622  33.781  1.00  0.00     0.031 C 
ATOM     57  C   UNL A   1      39.413  29.113  27.978  1.00  0.00     0.029 A 
ATOM     58  C   UNL A   1      40.332  28.851  29.082  1.00  0.00     0.049 A 
ATOM     59  H   UNL A   1      40.266  29.649  31.004  1.00  0.00     0.167 HD
ATOM     60  C   UNL A   1      40.052  31.479  34.972  1.00  0.00     0.037 A 
ATOM     61  C   UNL A   1      41.399  28.032  29.027  1.00  0.00     0.037 A 
ATOM     62  C   UNL A   1      41.138  30.535  35.045  1.00  0.00     0.049 A 
ATOM     63  C   UNL A   1      42.239  27.841  30.258  1.00  0.00     0.074 A 
ATOM     64  C   UNL A   1      41.930  30.216  36.134  1.00  0.00     0.029 A 
ATOM     65  N   UNL A   1      41.600  29.776  33.979  1.00  0.00    -0.354 N 
ATOM     66  N   UNL A   1      42.108  28.388  31.441  1.00  0.00    -0.248 NA
ATOM     67  C   UNL A   1      43.370  26.909  30.148  1.00  0.00     0.031 C 
ATOM     68  C   UNL A   1      42.919  29.324  35.706  1.00  0.00     0.029 A 
ATOM     69  C   UNL A   1      42.693  29.021  34.374  1.00  0.00     0.049 A 
ATOM     70  H   UNL A   1      41.207  29.774  33.076  1.00  0.00     0.167 HD
ATOM     71  C   UNL A   1      43.122  27.854  32.225  1.00  0.00     0.074 A 
ATOM     72  C   UNL A   1      43.849  26.925  31.384  1.00  0.00     0.031 C 
ATOM     73  C   UNL A   1      43.419  28.107  33.525  1.00  0.00     0.037 A 
BRANCH  60  74
ATOM     74  C   UNL A   1      39.738  32.322  36.178  1.00  0.00     0.057 A 
ATOM     75  C   UNL A   1      40.477  33.471  36.501  1.00  0.00     0.134 A 
ATOM     76  C   UNL A   1      38.687  31.977  37.037  1.00  0.00     0.134 A 
ATOM     77  F   UNL A   1      41.502  33.860  35.726  1.00  0.00    -0.206 F 
ATOM     78  C   UNL A   1      40.219  34.208  37.659  1.00  0.00     0.040 A 
ATOM     79  C   UNL A   1      38.394  32.729  38.176  1.00  0.00     0.040 A 
ATOM     80  F   UNL A   1      37.928  30.899  36.788  1.00  0.00    -0.206 F 
ATOM     81  C   UNL A   1      39.171  33.838  38.498  1.00  0.00     0.006 A 
ENDBRANCH  60  74
BRANCH  61  82
ATOM     82  C   UNL A   1      41.708  27.323  27.759  1.00  0.00     0.057 A 
ATOM     83  C   UNL A   1      42.636  27.836  26.846  1.00  0.00     0.134 A 
ATOM     84  C   UNL A   1      41.111  26.095  27.451  1.00  0.00     0.134 A 
ATOM     85  F   UNL A   1      43.232  29.014  27.077  1.00  0.00    -0.206 F 
ATOM     86  C   UNL A   1      42.954  27.157  25.668  1.00  0.00     0.040 A 
ATOM     87  C   UNL A   1      41.439  25.392  26.291  1.00  0.00     0.040 A 
ATOM     88  F   UNL A   1      40.223  25.544  28.292  1.00  0.00    -0.206 F 
ATOM     89  C   UNL A   1      42.360  25.926  25.393  1.00  0.00     0.006 A 
ENDBRANCH  61  82
BRANCH  73  90
ATOM     90  C   UNL A   1      44.565  27.345  34.131  1.00  0.00     0.057 A 
ATOM     91  C   UNL A   1      45.870  27.853  34.154  1.00  0.00     0.134 A 
ATOM     92  C   UNL A   1      44.348  26.101  34.739  1.00  0.00     0.134 A 
ATOM     93  F   UNL A   1      46.152  29.033  33.581  1.00  0.00    -0.206 F 
ATOM     94  C   UNL A   1      46.922  27.139  34.733  1.00  0.00     0.040 A 
ATOM     95  C   UNL A   1      45.383  25.395  35.353  1.00  0.00     0.040 A 
ATOM     96  F   UNL A   1      43.120  25.560  34.765  1.00  0.00    -0.206 F 
ATOM     97  C   UNL A   1      46.677  25.910  35.343  1.00  0.00     0.006 A 
ENDBRANCH  73  90
ENDBRANCH  47  48
ENDBRANCH  39  42
ENDBRANCH  37  38
ENDBRANCH  36  37
ENDBRANCH  35  36
ENDBRANCH  34  35
ENDBRANCH  33  34
ENDBRANCH   1  33
TORSDOF 20
ENDMDL
