MODEL 1
REMARK VINA RESULT:      -9.4      0.000      0.000
REMARK SMILES O=C(/C=N\OCc1ccccc1)NCCCCCCNC(=O)c1ccc(-c2c3nc(c(-c4c(F)cccc4F)c4ccc([nH]4)c(-c4c(F)cccc4F)c4nc(c(-c5c(F)cccc5F)c5ccc2[nH]5)C=C4)C=C3)cc1
REMARK SMILES IDX 16 1 15 2 14 3 13 4 1 5 2 6 3 8 4 9 5 10 6 11 7 12 8 13
REMARK SMILES IDX 12 14 9 15 11 16 10 17 17 18 18 19 19 20 20 21 21 22 22 24
REMARK SMILES IDX 23 25 24 26 76 27 25 28 75 29 26 30 27 31 28 32 69 33 29 34
REMARK SMILES IDX 74 35 68 36 70 37 30 38 73 39 67 40 66 41 31 43 57 44 40 45
REMARK SMILES IDX 56 46 41 47 44 48 55 49 71 50 42 51 43 52 54 54 72 55 45 56
REMARK SMILES IDX 32 57 33 58 38 59 34 60 35 61 37 62 39 63 36 64 58 65 59 66
REMARK SMILES IDX 64 67 60 68 61 69 63 70 65 71 62 72 46 73 47 74 52 75 48 76
REMARK SMILES IDX 49 77 51 78 53 79 50 80
REMARK H PARENT 13 7 20 23 70 42 44 53
REMARK Flexibility Score: inf
ROOT
ATOM      1  C   UNL A   1      33.600  34.295  29.082  1.00  0.00     0.002 C 
ENDROOT
BRANCH   1   2
ATOM      2  C   UNL A   1      33.840  35.709  28.536  1.00  0.00     0.021 C 
BRANCH   2   3
ATOM      3  C   UNL A   1      33.219  36.836  29.361  1.00  0.00     0.116 C 
BRANCH   3   4
ATOM      4  N   UNL A   1      33.799  36.938  30.678  1.00  0.00    -0.351 N 
ATOM      5  O   UNL A   1      31.972  36.242  31.914  1.00  0.00    -0.268 OA
ATOM      6  C   UNL A   1      33.123  36.644  31.834  1.00  0.00     0.265 C 
ATOM      7  H   UNL A   1      34.734  37.237  30.751  1.00  0.00     0.163 HD
BRANCH   6   8
ATOM      8  C   UNL A   1      33.935  36.748  33.105  1.00  0.00     0.225 C 
ATOM      9  N   UNL A   1      34.862  35.939  33.526  1.00  0.00    -0.089 NA
BRANCH   9  10
ATOM     10  O   UNL A   1      35.160  34.919  32.608  1.00  0.00    -0.391 OA
BRANCH  10  11
ATOM     11  C   UNL A   1      36.327  34.204  33.041  1.00  0.00     0.299 C 
BRANCH  11  12
ATOM     12  C   UNL A   1      37.382  34.094  31.963  1.00  0.00    -0.008 A 
ATOM     13  C   UNL A   1      38.699  33.709  32.257  1.00  0.00     0.007 A 
ATOM     14  C   UNL A   1      37.031  34.301  30.621  1.00  0.00     0.007 A 
ATOM     15  C   UNL A   1      39.643  33.555  31.241  1.00  0.00     0.000 A 
ATOM     16  C   UNL A   1      37.975  34.147  29.603  1.00  0.00     0.000 A 
ATOM     17  C   UNL A   1      39.281  33.775  29.914  1.00  0.00     0.000 A 
ENDBRANCH  11  12
ENDBRANCH  10  11
ENDBRANCH   9  10
ENDBRANCH   6   8
ENDBRANCH   3   4
ENDBRANCH   2   3
ENDBRANCH   1   2
BRANCH   1  18
ATOM     18  C   UNL A   1      33.711  33.157  28.064  1.00  0.00     0.002 C 
BRANCH  18  19
ATOM     19  C   UNL A   1      35.102  32.538  27.913  1.00  0.00     0.021 C 
BRANCH  19  20
ATOM     20  C   UNL A   1      35.264  31.140  28.504  1.00  0.00     0.116 C 
BRANCH  20  21
ATOM     21  N   UNL A   1      35.225  31.135  29.956  1.00  0.00    -0.352 N 
ATOM     22  C   UNL A   1      36.190  30.769  30.863  1.00  0.00     0.251 C 
ATOM     23  H   UNL A   1      34.376  31.440  30.352  1.00  0.00     0.163 HD
ATOM     24  O   UNL A   1      35.909  30.695  32.055  1.00  0.00    -0.269 OA
BRANCH  22  25
ATOM     25  C   UNL A   1      37.561  30.434  30.412  1.00  0.00     0.039 A 
ATOM     26  C   UNL A   1      38.502  30.042  31.369  1.00  0.00     0.014 A 
ATOM     27  C   UNL A   1      37.934  30.527  29.068  1.00  0.00     0.014 A 
ATOM     28  C   UNL A   1      39.792  29.684  30.972  1.00  0.00     0.010 A 
ATOM     29  C   UNL A   1      39.199  30.102  28.664  1.00  0.00     0.010 A 
ATOM     30  C   UNL A   1      40.143  29.678  29.611  1.00  0.00    -0.014 A 
BRANCH  30  31
ATOM     31  C   UNL A   1      41.484  29.214  29.174  1.00  0.00     0.031 A 
ATOM     32  C   UNL A   1      42.658  30.154  29.163  1.00  0.00     0.074 A 
ATOM     33  C   UNL A   1      41.636  27.948  28.738  1.00  0.00     0.049 A 
ATOM     34  N   UNL A   1      43.899  29.921  28.814  1.00  0.00    -0.248 NA
ATOM     35  C   UNL A   1      42.400  31.541  29.574  1.00  0.00     0.031 C 
ATOM     36  C   UNL A   1      40.567  26.952  28.646  1.00  0.00     0.029 A 
ATOM     37  N   UNL A   1      42.750  27.283  28.290  1.00  0.00    -0.354 N 
ATOM     38  C   UNL A   1      44.563  31.135  28.948  1.00  0.00     0.074 A 
ATOM     39  C   UNL A   1      43.578  32.110  29.362  1.00  0.00     0.031 C 
ATOM     40  C   UNL A   1      41.085  25.791  28.212  1.00  0.00     0.029 A 
ATOM     41  C   UNL A   1      42.512  25.970  27.963  1.00  0.00     0.049 A 
ATOM     42  H   UNL A   1      43.635  27.705  28.212  1.00  0.00     0.167 HD
ATOM     43  C   UNL A   1      45.878  31.407  28.762  1.00  0.00     0.037 A 
ATOM     44  C   UNL A   1      43.350  25.015  27.519  1.00  0.00     0.037 A 
ATOM     45  C   UNL A   1      46.863  30.430  28.374  1.00  0.00     0.049 A 
ATOM     46  C   UNL A   1      44.804  25.341  27.324  1.00  0.00     0.074 A 
ATOM     47  C   UNL A   1      48.233  30.590  28.241  1.00  0.00     0.029 A 
ATOM     48  N   UNL A   1      46.583  29.112  28.046  1.00  0.00    -0.354 N 
ATOM     49  N   UNL A   1      45.435  26.469  27.539  1.00  0.00    -0.248 NA
ATOM     50  C   UNL A   1      45.662  24.256  26.830  1.00  0.00     0.031 C 
ATOM     51  C   UNL A   1      48.773  29.383  27.787  1.00  0.00     0.029 A 
ATOM     52  C   UNL A   1      47.749  28.455  27.683  1.00  0.00     0.049 A 
ATOM     53  H   UNL A   1      45.688  28.703  28.070  1.00  0.00     0.167 HD
ATOM     54  C   UNL A   1      46.767  26.224  27.234  1.00  0.00     0.074 A 
ATOM     55  C   UNL A   1      46.854  24.835  26.834  1.00  0.00     0.031 C 
ATOM     56  C   UNL A   1      47.823  27.073  27.281  1.00  0.00     0.037 A 
BRANCH  43  57
ATOM     57  C   UNL A   1      46.325  32.826  28.973  1.00  0.00     0.057 A 
ATOM     58  C   UNL A   1      46.308  33.772  27.939  1.00  0.00     0.134 A 
ATOM     59  C   UNL A   1      46.761  33.257  30.232  1.00  0.00     0.134 A 
ATOM     60  F   UNL A   1      45.911  33.423  26.705  1.00  0.00    -0.206 F 
ATOM     61  C   UNL A   1      46.739  35.084  28.141  1.00  0.00     0.040 A 
ATOM     62  C   UNL A   1      47.169  34.573  30.454  1.00  0.00     0.040 A 
ATOM     63  F   UNL A   1      46.797  32.406  31.269  1.00  0.00    -0.206 F 
ATOM     64  C   UNL A   1      47.166  35.490  29.404  1.00  0.00     0.006 A 
ENDBRANCH  43  57
BRANCH  44  65
ATOM     65  C   UNL A   1      42.845  23.641  27.273  1.00  0.00     0.057 A 
ATOM     66  C   UNL A   1      42.563  23.205  25.973  1.00  0.00     0.134 A 
ATOM     67  C   UNL A   1      42.631  22.737  28.320  1.00  0.00     0.134 A 
ATOM     68  F   UNL A   1      42.731  24.033  24.932  1.00  0.00    -0.206 F 
ATOM     69  C   UNL A   1      42.070  21.923  25.723  1.00  0.00     0.040 A 
ATOM     70  C   UNL A   1      42.160  21.444  28.081  1.00  0.00     0.040 A 
ATOM     71  F   UNL A   1      42.888  23.093  29.586  1.00  0.00    -0.206 F 
ATOM     72  C   UNL A   1      41.874  21.037  26.780  1.00  0.00     0.006 A 
ENDBRANCH  44  65
BRANCH  56  73
ATOM     73  C   UNL A   1      49.166  26.511  26.915  1.00  0.00     0.057 A 
ATOM     74  C   UNL A   1      49.691  26.630  25.621  1.00  0.00     0.134 A 
ATOM     75  C   UNL A   1      49.948  25.850  27.870  1.00  0.00     0.134 A 
ATOM     76  F   UNL A   1      48.986  27.239  24.655  1.00  0.00    -0.206 F 
ATOM     77  C   UNL A   1      50.930  26.083  25.284  1.00  0.00     0.040 A 
ATOM     78  C   UNL A   1      51.201  25.324  27.552  1.00  0.00     0.040 A 
ATOM     79  F   UNL A   1      49.508  25.708  29.130  1.00  0.00    -0.206 F 
ATOM     80  C   UNL A   1      51.691  25.432  26.252  1.00  0.00     0.006 A 
ENDBRANCH  56  73
ENDBRANCH  30  31
ENDBRANCH  22  25
ENDBRANCH  20  21
ENDBRANCH  19  20
ENDBRANCH  18  19
ENDBRANCH   1  18
TORSDOF 16
ENDMDL
MODEL 2
REMARK VINA RESULT:      -9.4      5.132      8.541
REMARK SMILES O=C(/C=N\OCc1ccccc1)NCCCCCCNC(=O)c1ccc(-c2c3nc(c(-c4c(F)cccc4F)c4ccc([nH]4)c(-c4c(F)cccc4F)c4nc(c(-c5c(F)cccc5F)c5ccc2[nH]5)C=C4)C=C3)cc1
REMARK SMILES IDX 16 1 15 2 14 3 13 4 1 5 2 6 3 8 4 9 5 10 6 11 7 12 8 13
REMARK SMILES IDX 12 14 9 15 11 16 10 17 17 18 18 19 19 20 20 21 21 22 22 24
REMARK SMILES IDX 23 25 24 26 76 27 25 28 75 29 26 30 27 31 28 32 69 33 29 34
REMARK SMILES IDX 74 35 68 36 70 37 30 38 73 39 67 40 66 41 31 43 57 44 40 45
REMARK SMILES IDX 56 46 41 47 44 48 55 49 71 50 42 51 43 52 54 54 72 55 45 56
REMARK SMILES IDX 32 57 33 58 38 59 34 60 35 61 37 62 39 63 36 64 58 65 59 66
REMARK SMILES IDX 64 67 60 68 61 69 63 70 65 71 62 72 46 73 47 74 52 75 48 76
REMARK SMILES IDX 49 77 51 78 53 79 50 80
REMARK H PARENT 13 7 20 23 70 42 44 53
REMARK Flexibility Score: inf
ROOT
ATOM      1  C   UNL A   1      32.072  29.488  26.994  1.00  0.00     0.002 C 
ENDROOT
BRANCH   1   2
ATOM      2  C   UNL A   1      33.184  28.583  26.448  1.00  0.00     0.021 C 
BRANCH   2   3
ATOM      3  C   UNL A   1      32.742  27.165  26.081  1.00  0.00     0.116 C 
BRANCH   3   4
ATOM      4  N   UNL A   1      32.084  27.109  24.799  1.00  0.00    -0.351 N 
ATOM      5  O   UNL A   1      33.901  27.604  23.457  1.00  0.00    -0.268 OA
ATOM      6  C   UNL A   1      32.717  27.343  23.605  1.00  0.00     0.265 C 
ATOM      7  H   UNL A   1      31.125  26.890  24.780  1.00  0.00     0.163 HD
BRANCH   6   8
ATOM      8  C   UNL A   1      31.862  27.163  22.372  1.00  0.00     0.225 C 
ATOM      9  N   UNL A   1      30.617  27.500  22.209  1.00  0.00    -0.089 NA
BRANCH   9  10
ATOM     10  O   UNL A   1      30.086  28.188  23.314  1.00  0.00    -0.391 OA
BRANCH  10  11
ATOM     11  C   UNL A   1      28.728  28.565  23.040  1.00  0.00     0.299 C 
BRANCH  11  12
ATOM     12  C   UNL A   1      28.598  29.998  22.574  1.00  0.00    -0.008 A 
ATOM     13  C   UNL A   1      28.231  30.315  21.258  1.00  0.00     0.007 A 
ATOM     14  C   UNL A   1      28.767  31.046  23.492  1.00  0.00     0.007 A 
ATOM     15  C   UNL A   1      28.058  31.642  20.864  1.00  0.00     0.000 A 
ATOM     16  C   UNL A   1      28.594  32.375  23.098  1.00  0.00     0.000 A 
ATOM     17  C   UNL A   1      28.240  32.673  21.783  1.00  0.00     0.000 A 
ENDBRANCH  11  12
ENDBRANCH  10  11
ENDBRANCH   9  10
ENDBRANCH   6   8
ENDBRANCH   3   4
ENDBRANCH   2   3
ENDBRANCH   1   2
BRANCH   1  18
ATOM     18  C   UNL A   1      31.430  30.443  25.984  1.00  0.00     0.002 C 
BRANCH  18  19
ATOM     19  C   UNL A   1      31.310  31.901  26.436  1.00  0.00     0.021 C 
BRANCH  19  20
ATOM     20  C   UNL A   1      32.568  32.498  27.060  1.00  0.00     0.116 C 
BRANCH  20  21
ATOM     21  N   UNL A   1      32.369  33.856  27.536  1.00  0.00    -0.352 N 
ATOM     22  C   UNL A   1      33.068  34.571  28.479  1.00  0.00     0.251 C 
ATOM     23  H   UNL A   1      31.619  34.339  27.121  1.00  0.00     0.163 HD
ATOM     24  O   UNL A   1      32.649  35.663  28.849  1.00  0.00    -0.269 OA
BRANCH  22  25
ATOM     25  C   UNL A   1      34.309  34.023  29.074  1.00  0.00     0.039 A 
ATOM     26  C   UNL A   1      34.197  33.097  30.117  1.00  0.00     0.014 A 
ATOM     27  C   UNL A   1      35.573  34.429  28.637  1.00  0.00     0.014 A 
ATOM     28  C   UNL A   1      35.347  32.534  30.674  1.00  0.00     0.010 A 
ATOM     29  C   UNL A   1      36.717  33.814  29.145  1.00  0.00     0.010 A 
ATOM     30  C   UNL A   1      36.618  32.861  30.170  1.00  0.00    -0.014 A 
BRANCH  30  31
ATOM     31  C   UNL A   1      37.839  32.201  30.698  1.00  0.00     0.031 A 
ATOM     32  C   UNL A   1      38.495  32.690  31.959  1.00  0.00     0.074 A 
ATOM     33  C   UNL A   1      38.388  31.180  30.010  1.00  0.00     0.049 A 
ATOM     34  N   UNL A   1      39.564  32.235  32.564  1.00  0.00    -0.248 NA
ATOM     35  C   UNL A   1      37.888  33.859  32.611  1.00  0.00     0.031 C 
ATOM     36  C   UNL A   1      37.882  30.645  28.744  1.00  0.00     0.029 A 
ATOM     37  N   UNL A   1      39.493  30.412  30.277  1.00  0.00    -0.354 N 
ATOM     38  C   UNL A   1      39.764  33.069  33.657  1.00  0.00     0.074 A 
ATOM     39  C   UNL A   1      38.737  34.087  33.603  1.00  0.00     0.031 C 
ATOM     40  C   UNL A   1      38.649  29.609  28.368  1.00  0.00     0.029 A 
ATOM     41  C   UNL A   1      39.719  29.429  29.345  1.00  0.00     0.049 A 
ATOM     42  H   UNL A   1      40.068  30.551  31.064  1.00  0.00     0.167 HD
ATOM     43  C   UNL A   1      40.706  32.984  34.628  1.00  0.00     0.037 A 
ATOM     44  C   UNL A   1      40.674  28.483  29.287  1.00  0.00     0.037 A 
ATOM     45  C   UNL A   1      41.713  31.956  34.696  1.00  0.00     0.049 A 
ATOM     46  C   UNL A   1      41.705  28.408  30.377  1.00  0.00     0.074 A 
ATOM     47  C   UNL A   1      42.658  31.736  35.684  1.00  0.00     0.029 A 
ATOM     48  N   UNL A   1      41.912  30.981  33.730  1.00  0.00    -0.354 N 
ATOM     49  N   UNL A   1      41.830  29.149  31.451  1.00  0.00    -0.248 NA
ATOM     50  C   UNL A   1      42.726  27.358  30.248  1.00  0.00     0.031 C 
ATOM     51  C   UNL A   1      43.460  30.659  35.292  1.00  0.00     0.029 A 
ATOM     52  C   UNL A   1      42.984  30.175  34.083  1.00  0.00     0.049 A 
ATOM     53  H   UNL A   1      41.372  30.875  32.914  1.00  0.00     0.167 HD
ATOM     54  C   UNL A   1      42.923  28.639  32.139  1.00  0.00     0.074 A 
ATOM     55  C   UNL A   1      43.415  27.517  31.368  1.00  0.00     0.031 C 
ATOM     56  C   UNL A   1      43.469  29.063  33.306  1.00  0.00     0.037 A 
BRANCH  43  57
ATOM     57  C   UNL A   1      40.692  34.039  35.698  1.00  0.00     0.057 A 
ATOM     58  C   UNL A   1      39.970  33.880  36.888  1.00  0.00     0.134 A 
ATOM     59  C   UNL A   1      41.425  35.222  35.542  1.00  0.00     0.134 A 
ATOM     60  F   UNL A   1      39.237  32.775  37.097  1.00  0.00    -0.206 F 
ATOM     61  C   UNL A   1      39.950  34.873  37.870  1.00  0.00     0.040 A 
ATOM     62  C   UNL A   1      41.436  36.210  36.528  1.00  0.00     0.040 A 
ATOM     63  F   UNL A   1      42.144  35.438  34.431  1.00  0.00    -0.206 F 
ATOM     64  C   UNL A   1      40.691  36.041  37.693  1.00  0.00     0.006 A 
ENDBRANCH  43  57
BRANCH  44  65
ATOM     65  C   UNL A   1      40.675  27.497  28.177  1.00  0.00     0.057 A 
ATOM     66  C   UNL A   1      39.964  26.297  28.286  1.00  0.00     0.134 A 
ATOM     67  C   UNL A   1      41.382  27.725  26.990  1.00  0.00     0.134 A 
ATOM     68  F   UNL A   1      39.283  26.016  29.407  1.00  0.00    -0.206 F 
ATOM     69  C   UNL A   1      39.967  25.349  27.261  1.00  0.00     0.040 A 
ATOM     70  C   UNL A   1      41.375  26.795  25.949  1.00  0.00     0.040 A 
ATOM     71  F   UNL A   1      42.079  28.858  26.823  1.00  0.00    -0.206 F 
ATOM     72  C   UNL A   1      40.670  25.601  26.085  1.00  0.00     0.006 A 
ENDBRANCH  44  65
BRANCH  56  73
ATOM     73  C   UNL A   1      44.645  28.290  33.828  1.00  0.00     0.057 A 
ATOM     74  C   UNL A   1      44.486  27.167  34.650  1.00  0.00     0.134 A 
ATOM     75  C   UNL A   1      45.953  28.669  33.498  1.00  0.00     0.134 A 
ATOM     76  F   UNL A   1      43.261  26.760  35.016  1.00  0.00    -0.206 F 
ATOM     77  C   UNL A   1      45.587  26.468  35.151  1.00  0.00     0.040 A 
ATOM     78  C   UNL A   1      47.059  27.962  33.969  1.00  0.00     0.040 A 
ATOM     79  F   UNL A   1      46.175  29.731  32.708  1.00  0.00    -0.206 F 
ATOM     80  C   UNL A   1      46.878  26.863  34.806  1.00  0.00     0.006 A 
ENDBRANCH  56  73
ENDBRANCH  30  31
ENDBRANCH  22  25
ENDBRANCH  20  21
ENDBRANCH  19  20
ENDBRANCH  18  19
ENDBRANCH   1  18
TORSDOF 16
ENDMDL
MODEL 3
REMARK VINA RESULT:      -9.4      0.614      6.436
REMARK SMILES O=C(/C=N\OCc1ccccc1)NCCCCCCNC(=O)c1ccc(-c2c3nc(c(-c4c(F)cccc4F)c4ccc([nH]4)c(-c4c(F)cccc4F)c4nc(c(-c5c(F)cccc5F)c5ccc2[nH]5)C=C4)C=C3)cc1
REMARK SMILES IDX 16 1 15 2 14 3 13 4 1 5 2 6 3 8 4 9 5 10 6 11 7 12 8 13
REMARK SMILES IDX 12 14 9 15 11 16 10 17 17 18 18 19 19 20 20 21 21 22 22 24
REMARK SMILES IDX 23 25 24 26 76 27 25 28 75 29 26 30 27 31 28 32 69 33 29 34
REMARK SMILES IDX 74 35 68 36 70 37 30 38 73 39 67 40 66 41 31 43 57 44 40 45
REMARK SMILES IDX 56 46 41 47 44 48 55 49 71 50 42 51 43 52 54 54 72 55 45 56
REMARK SMILES IDX 32 57 33 58 38 59 34 60 35 61 37 62 39 63 36 64 58 65 59 66
REMARK SMILES IDX 64 67 60 68 61 69 63 70 65 71 62 72 46 73 47 74 52 75 48 76
REMARK SMILES IDX 49 77 51 78 53 79 50 80
REMARK H PARENT 13 7 20 23 70 42 44 53
REMARK Flexibility Score: inf
ROOT
ATOM      1  C   UNL A   1      34.147  34.430  29.191  1.00  0.00     0.002 C 
ENDROOT
BRANCH   1   2
ATOM      2  C   UNL A   1      33.869  35.769  28.495  1.00  0.00     0.021 C 
BRANCH   2   3
ATOM      3  C   UNL A   1      33.163  36.814  29.360  1.00  0.00     0.116 C 
BRANCH   3   4
ATOM      4  N   UNL A   1      33.731  36.907  30.683  1.00  0.00    -0.351 N 
ATOM      5  O   UNL A   1      31.825  36.446  31.909  1.00  0.00    -0.268 OA
ATOM      6  C   UNL A   1      33.012  36.727  31.836  1.00  0.00     0.265 C 
ATOM      7  H   UNL A   1      34.690  37.113  30.762  1.00  0.00     0.163 HD
BRANCH   6   8
ATOM      8  C   UNL A   1      33.811  36.797  33.117  1.00  0.00     0.225 C 
ATOM      9  N   UNL A   1      34.842  36.079  33.453  1.00  0.00    -0.089 NA
BRANCH   9  10
ATOM     10  O   UNL A   1      35.268  35.217  32.429  1.00  0.00    -0.391 OA
BRANCH  10  11
ATOM     11  C   UNL A   1      35.994  34.116  32.996  1.00  0.00     0.299 C 
BRANCH  11  12
ATOM     12  C   UNL A   1      37.175  33.693  32.150  1.00  0.00    -0.008 A 
ATOM     13  C   UNL A   1      37.260  34.018  30.788  1.00  0.00     0.007 A 
ATOM     14  C   UNL A   1      38.258  33.030  32.748  1.00  0.00     0.007 A 
ATOM     15  C   UNL A   1      38.386  33.671  30.040  1.00  0.00     0.000 A 
ATOM     16  C   UNL A   1      39.384  32.683  31.999  1.00  0.00     0.000 A 
ATOM     17  C   UNL A   1      39.448  33.004  30.645  1.00  0.00     0.000 A 
ENDBRANCH  11  12
ENDBRANCH  10  11
ENDBRANCH   9  10
ENDBRANCH   6   8
ENDBRANCH   3   4
ENDBRANCH   2   3
ENDBRANCH   1   2
BRANCH   1  18
ATOM     18  C   UNL A   1      34.018  33.181  28.314  1.00  0.00     0.002 C 
BRANCH  18  19
ATOM     19  C   UNL A   1      35.334  32.491  27.948  1.00  0.00     0.021 C 
BRANCH  19  20
ATOM     20  C   UNL A   1      35.481  31.056  28.445  1.00  0.00     0.116 C 
BRANCH  20  21
ATOM     21  N   UNL A   1      35.410  30.952  29.892  1.00  0.00    -0.352 N 
ATOM     22  C   UNL A   1      36.290  30.382  30.779  1.00  0.00     0.251 C 
ATOM     23  H   UNL A   1      34.607  31.350  30.301  1.00  0.00     0.163 HD
ATOM     24  O   UNL A   1      35.976  30.265  31.960  1.00  0.00    -0.269 OA
BRANCH  22  25
ATOM     25  C   UNL A   1      37.606  29.881  30.320  1.00  0.00     0.039 A 
ATOM     26  C   UNL A   1      37.961  30.067  28.980  1.00  0.00     0.014 A 
ATOM     27  C   UNL A   1      38.477  29.209  31.182  1.00  0.00     0.014 A 
ATOM     28  C   UNL A   1      39.210  29.639  28.524  1.00  0.00     0.010 A 
ATOM     29  C   UNL A   1      39.751  28.846  30.745  1.00  0.00     0.010 A 
ATOM     30  C   UNL A   1      40.131  29.055  29.410  1.00  0.00    -0.014 A 
BRANCH  30  31
ATOM     31  C   UNL A   1      41.493  28.679  28.953  1.00  0.00     0.031 A 
ATOM     32  C   UNL A   1      41.788  27.282  28.481  1.00  0.00     0.074 A 
ATOM     33  C   UNL A   1      42.484  29.590  29.008  1.00  0.00     0.049 A 
ATOM     34  N   UNL A   1      42.916  26.777  28.047  1.00  0.00    -0.248 NA
ATOM     35  C   UNL A   1      40.678  26.319  28.527  1.00  0.00     0.031 C 
ATOM     36  C   UNL A   1      42.344  30.963  29.497  1.00  0.00     0.029 A 
ATOM     37  N   UNL A   1      43.806  29.499  28.650  1.00  0.00    -0.354 N 
ATOM     38  C   UNL A   1      42.655  25.438  27.784  1.00  0.00     0.074 A 
ATOM     39  C   UNL A   1      41.278  25.197  28.153  1.00  0.00     0.031 C 
ATOM     40  C   UNL A   1      43.521  31.597  29.368  1.00  0.00     0.029 A 
ATOM     41  C   UNL A   1      44.505  30.668  28.821  1.00  0.00     0.049 A 
ATOM     42  H   UNL A   1      44.213  28.673  28.301  1.00  0.00     0.167 HD
ATOM     43  C   UNL A   1      43.483  24.500  27.263  1.00  0.00     0.037 A 
ATOM     44  C   UNL A   1      45.791  30.963  28.560  1.00  0.00     0.037 A 
ATOM     45  C   UNL A   1      44.847  24.745  26.872  1.00  0.00     0.049 A 
ATOM     46  C   UNL A   1      46.687  29.906  27.980  1.00  0.00     0.074 A 
ATOM     47  C   UNL A   1      45.739  23.882  26.258  1.00  0.00     0.029 A 
ATOM     48  N   UNL A   1      45.521  25.942  27.066  1.00  0.00    -0.354 N 
ATOM     49  N   UNL A   1      46.405  28.668  27.653  1.00  0.00    -0.248 NA
ATOM     50  C   UNL A   1      48.083  30.291  27.726  1.00  0.00     0.031 C 
ATOM     51  C   UNL A   1      46.966  24.540  26.125  1.00  0.00     0.029 A 
ATOM     52  C   UNL A   1      46.826  25.831  26.611  1.00  0.00     0.049 A 
ATOM     53  H   UNL A   1      45.130  26.752  27.466  1.00  0.00     0.167 HD
ATOM     54  C   UNL A   1      47.575  28.135  27.131  1.00  0.00     0.074 A 
ATOM     55  C   UNL A   1      48.567  29.190  27.171  1.00  0.00     0.031 C 
ATOM     56  C   UNL A   1      47.808  26.885  26.660  1.00  0.00     0.037 A 
BRANCH  43  57
ATOM     57  C   UNL A   1      42.931  23.113  27.090  1.00  0.00     0.057 A 
ATOM     58  C   UNL A   1      42.733  22.251  28.178  1.00  0.00     0.134 A 
ATOM     59  C   UNL A   1      42.574  22.639  25.821  1.00  0.00     0.134 A 
ATOM     60  F   UNL A   1      43.064  22.638  29.420  1.00  0.00    -0.206 F 
ATOM     61  C   UNL A   1      42.233  20.959  28.007  1.00  0.00     0.040 A 
ATOM     62  C   UNL A   1      42.048  21.360  25.639  1.00  0.00     0.040 A 
ATOM     63  F   UNL A   1      42.730  23.413  24.736  1.00  0.00    -0.206 F 
ATOM     64  C   UNL A   1      41.884  20.512  26.733  1.00  0.00     0.006 A 
ENDBRANCH  43  57
BRANCH  44  65
ATOM     65  C   UNL A   1      46.301  32.336  28.801  1.00  0.00     0.057 A 
ATOM     66  C   UNL A   1      46.251  33.305  27.792  1.00  0.00     0.134 A 
ATOM     67  C   UNL A   1      46.850  32.712  30.032  1.00  0.00     0.134 A 
ATOM     68  F   UNL A   1      45.752  32.998  26.585  1.00  0.00    -0.206 F 
ATOM     69  C   UNL A   1      46.741  34.596  27.993  1.00  0.00     0.040 A 
ATOM     70  C   UNL A   1      47.324  34.007  30.254  1.00  0.00     0.040 A 
ATOM     71  F   UNL A   1      46.922  31.831  31.040  1.00  0.00    -0.206 F 
ATOM     72  C   UNL A   1      47.274  34.951  29.230  1.00  0.00     0.006 A 
ENDBRANCH  44  65
BRANCH  56  73
ATOM     73  C   UNL A   1      49.182  26.602  26.127  1.00  0.00     0.057 A 
ATOM     74  C   UNL A   1      49.555  26.947  24.822  1.00  0.00     0.134 A 
ATOM     75  C   UNL A   1      50.147  25.985  26.933  1.00  0.00     0.134 A 
ATOM     76  F   UNL A   1      48.673  27.527  23.993  1.00  0.00    -0.206 F 
ATOM     77  C   UNL A   1      50.828  26.658  24.327  1.00  0.00     0.040 A 
ATOM     78  C   UNL A   1      51.432  25.716  26.459  1.00  0.00     0.040 A 
ATOM     79  F   UNL A   1      49.858  25.636  28.196  1.00  0.00    -0.206 F 
ATOM     80  C   UNL A   1      51.772  26.045  25.148  1.00  0.00     0.006 A 
ENDBRANCH  56  73
ENDBRANCH  30  31
ENDBRANCH  22  25
ENDBRANCH  20  21
ENDBRANCH  19  20
ENDBRANCH  18  19
ENDBRANCH   1  18
TORSDOF 16
ENDMDL
