MODEL 1
REMARK VINA RESULT:     -12.4      0.000      0.000
REMARK SMILES CC1=Nc2c(c(C)nn2-c2ccc(F)cc2)[C@H](c2ccc(C(=O)NCCCCCCNC(=O)c3ccc(-c4c5nc(c(-c6c(F)cccc6F)c6ccc([nH]6)c(-c6c(F)cccc6F)c6nc(c(-c7c(F)cccc7F)c7ccc4[nH]7)C=C6)C=C5)cc3)cc2)S1
REMARK SMILES IDX 27 1 26 2 25 3 24 4 22 5 23 6 21 8 18 9 19 10 89 11 20 12
REMARK SMILES IDX 88 13 17 14 1 15 2 16 3 17 90 18 4 19 5 20 9 21 6 22 8 23
REMARK SMILES IDX 7 24 10 25 11 26 16 27 12 28 15 29 13 30 14 31 28 32 29 33
REMARK SMILES IDX 30 34 31 35 32 36 33 38 34 39 35 40 87 41 36 42 86 43 37 44
REMARK SMILES IDX 38 45 39 46 80 47 40 48 85 49 79 50 81 51 41 52 84 53 78 54
REMARK SMILES IDX 77 55 42 57 68 58 51 59 67 60 52 61 55 62 66 63 82 64 53 65
REMARK SMILES IDX 54 66 65 68 83 69 56 70 43 71 44 72 49 73 45 74 46 75 48 76
REMARK SMILES IDX 50 77 47 78 69 79 70 80 75 81 71 82 72 83 74 84 76 85 73 86
REMARK SMILES IDX 57 87 58 88 63 89 59 90 60 91 62 92 64 93 61 94
REMARK H PARENT 24 7 31 37 81 56 55 67
REMARK Flexibility Score: inf
ROOT
ATOM      1  C   UNL A   1      40.289  21.833  27.591  1.00  0.00     0.002 C 
ENDROOT
BRANCH   1   2
ATOM      2  C   UNL A   1      39.813  22.896  26.591  1.00  0.00     0.021 C 
BRANCH   2   3
ATOM      3  C   UNL A   1      38.408  22.624  26.052  1.00  0.00     0.116 C 
BRANCH   3   4
ATOM      4  N   UNL A   1      38.359  21.296  25.476  1.00  0.00    -0.352 N 
ATOM      5  C   UNL A   1      37.333  20.568  24.939  1.00  0.00     0.251 C 
ATOM      6  O   UNL A   1      37.569  19.422  24.559  1.00  0.00    -0.269 OA
ATOM      7  H   UNL A   1      39.225  20.830  25.471  1.00  0.00     0.163 HD
BRANCH   5   8
ATOM      8  C   UNL A   1      35.984  21.141  24.715  1.00  0.00     0.039 A 
ATOM      9  C   UNL A   1      33.515  22.447  24.273  1.00  0.00    -0.030 A 
ATOM     10  C   UNL A   1      34.713  22.971  23.759  1.00  0.00     0.006 A 
ATOM     11  C   UNL A   1      33.575  21.234  24.980  1.00  0.00     0.006 A 
ATOM     12  C   UNL A   1      35.928  22.320  23.966  1.00  0.00     0.014 A 
ATOM     13  C   UNL A   1      34.794  20.575  25.179  1.00  0.00     0.014 A 
BRANCH   9  14
ATOM     14  C   UNL A   1      32.211  23.169  23.966  1.00  0.00     0.119 C 
ATOM     15  C   UNL A   1      33.083  26.135  21.196  1.00  0.00     0.075 C 
ATOM     16  C   UNL A   1      32.601  25.475  22.461  1.00  0.00     0.074 C 
ATOM     17  N   UNL A   1      32.603  26.176  23.550  1.00  0.00    -0.227 NA
ATOM     18  S   UNL A   1      32.097  23.803  22.265  1.00  0.00    -0.098 SA
ATOM     19  C   UNL A   1      32.253  25.570  24.711  1.00  0.00     0.161 A 
ATOM     20  C   UNL A   1      32.098  24.233  24.990  1.00  0.00     0.038 A 
ATOM     21  N   UNL A   1      32.107  26.236  25.917  1.00  0.00    -0.215 N 
ATOM     22  C   UNL A   1      31.870  24.173  26.390  1.00  0.00     0.067 A 
ATOM     23  N   UNL A   1      31.987  25.378  26.960  1.00  0.00    -0.171 NA
ATOM     24  C   UNL A   1      31.587  22.988  27.239  1.00  0.00     0.069 C 
BRANCH  21  25
ATOM     25  C   UNL A   1      32.075  27.635  26.117  1.00  0.00     0.067 A 
ATOM     26  C   UNL A   1      31.453  28.455  25.164  1.00  0.00     0.031 A 
ATOM     27  C   UNL A   1      32.673  28.186  27.256  1.00  0.00     0.031 A 
ATOM     28  C   UNL A   1      31.441  29.836  25.348  1.00  0.00     0.041 A 
ATOM     29  C   UNL A   1      32.703  29.573  27.404  1.00  0.00     0.041 A 
ATOM     30  C   UNL A   1      32.083  30.382  26.454  1.00  0.00     0.123 A 
ATOM     31  F   UNL A   1      32.107  31.713  26.604  1.00  0.00    -0.207 F 
ENDBRANCH  21  25
ENDBRANCH   9  14
ENDBRANCH   5   8
ENDBRANCH   3   4
ENDBRANCH   2   3
ENDBRANCH   1   2
BRANCH   1  32
ATOM     32  C   UNL A   1      41.702  21.275  27.336  1.00  0.00     0.002 C 
BRANCH  32  33
ATOM     33  C   UNL A   1      41.862  20.366  26.107  1.00  0.00     0.021 C 
BRANCH  33  34
ATOM     34  C   UNL A   1      43.227  19.709  26.031  1.00  0.00     0.116 C 
BRANCH  34  35
ATOM     35  N   UNL A   1      43.989  20.121  24.843  1.00  0.00    -0.352 N 
ATOM     36  C   UNL A   1      44.262  21.405  24.385  1.00  0.00     0.251 C 
ATOM     37  H   UNL A   1      44.357  19.387  24.298  1.00  0.00     0.163 HD
ATOM     38  O   UNL A   1      44.594  21.622  23.234  1.00  0.00    -0.269 OA
BRANCH  36  39
ATOM     39  C   UNL A   1      44.167  22.503  25.361  1.00  0.00     0.039 A 
ATOM     40  C   UNL A   1      45.030  22.674  26.446  1.00  0.00     0.014 A 
ATOM     41  C   UNL A   1      43.183  23.436  25.086  1.00  0.00     0.014 A 
ATOM     42  C   UNL A   1      44.881  23.823  27.222  1.00  0.00     0.010 A 
ATOM     43  C   UNL A   1      43.335  24.690  25.571  1.00  0.00     0.010 A 
ATOM     44  C   UNL A   1      44.006  24.819  26.767  1.00  0.00    -0.014 A 
BRANCH  44  45
ATOM     45  C   UNL A   1      43.718  26.051  27.473  1.00  0.00     0.031 A 
ATOM     46  C   UNL A   1      44.600  27.182  27.118  1.00  0.00     0.074 A 
ATOM     47  C   UNL A   1      42.557  26.212  28.151  1.00  0.00     0.049 A 
ATOM     48  N   UNL A   1      45.475  27.759  27.868  1.00  0.00    -0.248 NA
ATOM     49  C   UNL A   1      44.618  27.630  25.717  1.00  0.00     0.031 C 
ATOM     50  C   UNL A   1      41.415  25.291  28.302  1.00  0.00     0.029 A 
ATOM     51  N   UNL A   1      42.108  27.326  28.781  1.00  0.00    -0.354 N 
ATOM     52  C   UNL A   1      46.010  28.786  27.100  1.00  0.00     0.074 A 
ATOM     53  C   UNL A   1      45.597  28.537  25.743  1.00  0.00     0.031 C 
ATOM     54  C   UNL A   1      40.339  25.963  28.767  1.00  0.00     0.029 A 
ATOM     55  C   UNL A   1      40.756  27.303  29.117  1.00  0.00     0.049 A 
ATOM     56  H   UNL A   1      42.692  28.091  28.986  1.00  0.00     0.167 HD
ATOM     57  C   UNL A   1      46.550  29.892  27.679  1.00  0.00     0.037 A 
ATOM     58  C   UNL A   1      40.056  28.358  29.603  1.00  0.00     0.037 A 
ATOM     59  C   UNL A   1      46.783  29.690  29.088  1.00  0.00     0.049 A 
ATOM     60  C   UNL A   1      41.062  29.301  30.171  1.00  0.00     0.074 A 
ATOM     61  C   UNL A   1      47.542  28.792  29.815  1.00  0.00     0.029 A 
ATOM     62  N   UNL A   1      45.853  30.185  29.971  1.00  0.00    -0.354 N 
ATOM     63  N   UNL A   1      41.813  29.014  31.201  1.00  0.00    -0.248 NA
ATOM     64  C   UNL A   1      41.589  30.323  29.276  1.00  0.00     0.031 C 
ATOM     65  C   UNL A   1      46.705  28.410  30.907  1.00  0.00     0.029 A 
ATOM     66  C   UNL A   1      45.531  29.160  30.828  1.00  0.00     0.049 A 
ATOM     67  H   UNL A   1      45.487  31.099  29.987  1.00  0.00     0.167 HD
ATOM     68  C   UNL A   1      43.071  29.509  30.879  1.00  0.00     0.074 A 
ATOM     69  C   UNL A   1      42.857  30.343  29.694  1.00  0.00     0.031 C 
ATOM     70  C   UNL A   1      44.214  28.966  31.396  1.00  0.00     0.037 A 
BRANCH  57  71
ATOM     71  C   UNL A   1      46.547  31.256  27.051  1.00  0.00     0.057 A 
ATOM     72  C   UNL A   1      45.375  31.980  26.750  1.00  0.00     0.134 A 
ATOM     73  C   UNL A   1      47.742  31.989  26.979  1.00  0.00     0.134 A 
ATOM     74  F   UNL A   1      44.152  31.449  26.886  1.00  0.00    -0.206 F 
ATOM     75  C   UNL A   1      45.390  33.329  26.392  1.00  0.00     0.040 A 
ATOM     76  C   UNL A   1      47.764  33.354  26.673  1.00  0.00     0.040 A 
ATOM     77  F   UNL A   1      48.918  31.414  27.272  1.00  0.00    -0.206 F 
ATOM     78  C   UNL A   1      46.585  34.029  26.380  1.00  0.00     0.006 A 
ENDBRANCH  57  71
BRANCH  58  79
ATOM     79  C   UNL A   1      38.686  28.783  29.216  1.00  0.00     0.057 A 
ATOM     80  C   UNL A   1      38.412  29.343  27.954  1.00  0.00     0.134 A 
ATOM     81  C   UNL A   1      37.672  28.920  30.176  1.00  0.00     0.134 A 
ATOM     82  F   UNL A   1      39.329  29.331  26.975  1.00  0.00    -0.206 F 
ATOM     83  C   UNL A   1      37.222  30.024  27.673  1.00  0.00     0.040 A 
ATOM     84  C   UNL A   1      36.476  29.603  29.910  1.00  0.00     0.040 A 
ATOM     85  F   UNL A   1      37.851  28.451  31.421  1.00  0.00    -0.206 F 
ATOM     86  C   UNL A   1      36.254  30.170  28.659  1.00  0.00     0.006 A 
ENDBRANCH  58  79
BRANCH  70  87
ATOM     87  C   UNL A   1      44.095  27.904  32.461  1.00  0.00     0.057 A 
ATOM     88  C   UNL A   1      44.188  28.281  33.803  1.00  0.00     0.134 A 
ATOM     89  C   UNL A   1      44.108  26.524  32.199  1.00  0.00     0.134 A 
ATOM     90  F   UNL A   1      44.240  29.581  34.135  1.00  0.00    -0.206 F 
ATOM     91  C   UNL A   1      44.299  27.341  34.832  1.00  0.00     0.040 A 
ATOM     92  C   UNL A   1      44.189  25.570  33.219  1.00  0.00     0.040 A 
ATOM     93  F   UNL A   1      44.118  26.057  30.947  1.00  0.00    -0.206 F 
ATOM     94  C   UNL A   1      44.296  25.979  34.543  1.00  0.00     0.006 A 
ENDBRANCH  70  87
ENDBRANCH  44  45
ENDBRANCH  36  39
ENDBRANCH  34  35
ENDBRANCH  33  34
ENDBRANCH  32  33
ENDBRANCH   1  32
TORSDOF 15
ENDMDL
MODEL 2
REMARK VINA RESULT:     -11.7      3.346      8.594
REMARK SMILES CC1=Nc2c(c(C)nn2-c2ccc(F)cc2)[C@H](c2ccc(C(=O)NCCCCCCNC(=O)c3ccc(-c4c5nc(c(-c6c(F)cccc6F)c6ccc([nH]6)c(-c6c(F)cccc6F)c6nc(c(-c7c(F)cccc7F)c7ccc4[nH]7)C=C6)C=C5)cc3)cc2)S1
REMARK SMILES IDX 27 1 26 2 25 3 24 4 22 5 23 6 21 8 18 9 19 10 89 11 20 12
REMARK SMILES IDX 88 13 17 14 1 15 2 16 3 17 90 18 4 19 5 20 9 21 6 22 8 23
REMARK SMILES IDX 7 24 10 25 11 26 16 27 12 28 15 29 13 30 14 31 28 32 29 33
REMARK SMILES IDX 30 34 31 35 32 36 33 38 34 39 35 40 87 41 36 42 86 43 37 44
REMARK SMILES IDX 38 45 39 46 80 47 40 48 85 49 79 50 81 51 41 52 84 53 78 54
REMARK SMILES IDX 77 55 42 57 68 58 51 59 67 60 52 61 55 62 66 63 82 64 53 65
REMARK SMILES IDX 54 66 65 68 83 69 56 70 43 71 44 72 49 73 45 74 46 75 48 76
REMARK SMILES IDX 50 77 47 78 69 79 70 80 75 81 71 82 72 83 74 84 76 85 73 86
REMARK SMILES IDX 57 87 58 88 63 89 59 90 60 91 62 92 64 93 61 94
REMARK H PARENT 24 7 31 37 81 56 55 67
REMARK Flexibility Score: inf
ROOT
ATOM      1  C   UNL A   1      34.948  32.848  28.813  1.00  0.00     0.002 C 
ENDROOT
BRANCH   1   2
ATOM      2  C   UNL A   1      35.543  31.636  28.083  1.00  0.00     0.021 C 
BRANCH   2   3
ATOM      3  C   UNL A   1      34.483  30.634  27.622  1.00  0.00     0.116 C 
BRANCH   3   4
ATOM      4  N   UNL A   1      33.226  31.323  27.413  1.00  0.00    -0.352 N 
ATOM      5  C   UNL A   1      32.096  30.977  26.725  1.00  0.00     0.251 C 
ATOM      6  O   UNL A   1      31.175  31.790  26.671  1.00  0.00    -0.269 OA
ATOM      7  H   UNL A   1      33.176  32.205  27.846  1.00  0.00     0.163 HD
BRANCH   5   8
ATOM      8  C   UNL A   1      31.908  29.631  26.129  1.00  0.00     0.039 A 
ATOM      9  C   UNL A   1      31.370  27.160  24.865  1.00  0.00    -0.030 A 
ATOM     10  C   UNL A   1      31.104  28.377  24.217  1.00  0.00     0.006 A 
ATOM     11  C   UNL A   1      31.949  27.207  26.146  1.00  0.00     0.006 A 
ATOM     12  C   UNL A   1      31.380  29.595  24.836  1.00  0.00     0.014 A 
ATOM     13  C   UNL A   1      32.237  28.431  26.762  1.00  0.00     0.014 A 
BRANCH   9  14
ATOM     14  C   UNL A   1      31.102  25.860  24.119  1.00  0.00     0.119 C 
ATOM     15  C   UNL A   1      30.503  22.916  26.983  1.00  0.00     0.075 C 
ATOM     16  C   UNL A   1      31.091  23.651  25.807  1.00  0.00     0.074 C 
ATOM     17  N   UNL A   1      32.334  23.431  25.514  1.00  0.00    -0.227 NA
ATOM     18  S   UNL A   1      29.972  24.729  24.986  1.00  0.00    -0.098 SA
ATOM     19  C   UNL A   1      32.899  24.149  24.513  1.00  0.00     0.161 A 
ATOM     20  C   UNL A   1      32.434  25.269  23.866  1.00  0.00     0.038 A 
ATOM     21  N   UNL A   1      34.180  23.928  24.032  1.00  0.00    -0.215 N 
ATOM     22  C   UNL A   1      33.498  25.671  23.015  1.00  0.00     0.067 A 
ATOM     23  N   UNL A   1      34.590  24.920  23.204  1.00  0.00    -0.171 NA
ATOM     24  C   UNL A   1      33.542  26.794  22.044  1.00  0.00     0.069 C 
BRANCH  21  25
ATOM     25  C   UNL A   1      35.018  22.827  24.321  1.00  0.00     0.067 A 
ATOM     26  C   UNL A   1      36.408  22.963  24.190  1.00  0.00     0.031 A 
ATOM     27  C   UNL A   1      34.451  21.612  24.724  1.00  0.00     0.031 A 
ATOM     28  C   UNL A   1      37.234  21.872  24.452  1.00  0.00     0.041 A 
ATOM     29  C   UNL A   1      35.283  20.511  24.932  1.00  0.00     0.041 A 
ATOM     30  C   UNL A   1      36.663  20.652  24.799  1.00  0.00     0.123 A 
ATOM     31  F   UNL A   1      37.457  19.594  25.008  1.00  0.00    -0.207 F 
ENDBRANCH  21  25
ENDBRANCH   9  14
ENDBRANCH   5   8
ENDBRANCH   3   4
ENDBRANCH   2   3
ENDBRANCH   1   2
BRANCH   1  32
ATOM     32  C   UNL A   1      35.881  34.067  28.935  1.00  0.00     0.002 C 
BRANCH  32  33
ATOM     33  C   UNL A   1      37.380  33.762  29.087  1.00  0.00     0.021 C 
BRANCH  33  34
ATOM     34  C   UNL A   1      37.955  34.262  30.399  1.00  0.00     0.116 C 
BRANCH  34  35
ATOM     35  N   UNL A   1      37.074  33.989  31.545  1.00  0.00    -0.352 N 
ATOM     36  C   UNL A   1      36.706  32.763  32.087  1.00  0.00     0.251 C 
ATOM     37  H   UNL A   1      36.694  34.782  31.988  1.00  0.00     0.163 HD
ATOM     38  O   UNL A   1      35.724  32.640  32.795  1.00  0.00    -0.269 OA
BRANCH  36  39
ATOM     39  C   UNL A   1      37.575  31.610  31.798  1.00  0.00     0.039 A 
ATOM     40  C   UNL A   1      37.159  30.451  31.139  1.00  0.00     0.014 A 
ATOM     41  C   UNL A   1      38.899  31.780  32.161  1.00  0.00     0.014 A 
ATOM     42  C   UNL A   1      38.123  29.489  30.841  1.00  0.00     0.010 A 
ATOM     43  C   UNL A   1      39.841  31.061  31.508  1.00  0.00     0.010 A 
ATOM     44  C   UNL A   1      39.470  29.815  31.053  1.00  0.00    -0.014 A 
BRANCH  44  45
ATOM     45  C   UNL A   1      40.584  28.917  30.824  1.00  0.00     0.031 A 
ATOM     46  C   UNL A   1      41.266  28.460  32.052  1.00  0.00     0.074 A 
ATOM     47  C   UNL A   1      40.764  28.323  29.620  1.00  0.00     0.049 A 
ATOM     48  N   UNL A   1      42.463  28.746  32.435  1.00  0.00    -0.248 NA
ATOM     49  C   UNL A   1      40.475  27.719  33.047  1.00  0.00     0.031 C 
ATOM     50  C   UNL A   1      39.953  28.410  28.392  1.00  0.00     0.029 A 
ATOM     51  N   UNL A   1      41.698  27.399  29.279  1.00  0.00    -0.354 N 
ATOM     52  C   UNL A   1      42.655  28.047  33.621  1.00  0.00     0.074 A 
ATOM     53  C   UNL A   1      41.353  27.601  34.045  1.00  0.00     0.031 C 
ATOM     54  C   UNL A   1      40.291  27.412  27.545  1.00  0.00     0.029 A 
ATOM     55  C   UNL A   1      41.451  26.734  28.081  1.00  0.00     0.049 A 
ATOM     56  H   UNL A   1      42.488  27.214  29.836  1.00  0.00     0.167 HD
ATOM     57  C   UNL A   1      43.900  27.686  34.034  1.00  0.00     0.037 A 
ATOM     58  C   UNL A   1      42.154  25.668  27.622  1.00  0.00     0.037 A 
ATOM     59  C   UNL A   1      44.923  28.388  33.299  1.00  0.00     0.049 A 
ATOM     60  C   UNL A   1      43.466  25.697  28.330  1.00  0.00     0.074 A 
ATOM     61  C   UNL A   1      45.237  29.723  33.129  1.00  0.00     0.029 A 
ATOM     62  N   UNL A   1      45.528  27.732  32.253  1.00  0.00    -0.354 N 
ATOM     63  N   UNL A   1      44.345  26.651  28.173  1.00  0.00    -0.248 NA
ATOM     64  C   UNL A   1      43.557  24.960  29.584  1.00  0.00     0.031 C 
ATOM     65  C   UNL A   1      45.540  29.851  31.740  1.00  0.00     0.029 A 
ATOM     66  C   UNL A   1      45.480  28.578  31.171  1.00  0.00     0.049 A 
ATOM     67  H   UNL A   1      45.919  26.829  32.274  1.00  0.00     0.167 HD
ATOM     68  C   UNL A   1      44.832  26.906  29.450  1.00  0.00     0.074 A 
ATOM     69  C   UNL A   1      44.335  25.801  30.271  1.00  0.00     0.031 C 
ATOM     70  C   UNL A   1      45.324  28.132  29.803  1.00  0.00     0.037 A 
BRANCH  57  71
ATOM     71  C   UNL A   1      44.191  26.461  34.852  1.00  0.00     0.057 A 
ATOM     72  C   UNL A   1      44.153  25.147  34.340  1.00  0.00     0.134 A 
ATOM     73  C   UNL A   1      44.782  26.597  36.118  1.00  0.00     0.134 A 
ATOM     74  F   UNL A   1      43.725  24.875  33.101  1.00  0.00    -0.206 F 
ATOM     75  C   UNL A   1      44.653  24.048  35.040  1.00  0.00     0.040 A 
ATOM     76  C   UNL A   1      45.335  25.510  36.805  1.00  0.00     0.040 A 
ATOM     77  F   UNL A   1      44.901  27.803  36.694  1.00  0.00    -0.206 F 
ATOM     78  C   UNL A   1      45.273  24.231  36.265  1.00  0.00     0.006 A 
ENDBRANCH  57  71
BRANCH  58  79
ATOM     79  C   UNL A   1      41.611  24.440  26.987  1.00  0.00     0.057 A 
ATOM     80  C   UNL A   1      40.441  23.816  27.458  1.00  0.00     0.134 A 
ATOM     81  C   UNL A   1      42.385  23.686  26.091  1.00  0.00     0.134 A 
ATOM     82  F   UNL A   1      39.654  24.412  28.367  1.00  0.00    -0.206 F 
ATOM     83  C   UNL A   1      40.079  22.515  27.090  1.00  0.00     0.040 A 
ATOM     84  C   UNL A   1      42.037  22.380  25.716  1.00  0.00     0.040 A 
ATOM     85  F   UNL A   1      43.538  24.178  25.612  1.00  0.00    -0.206 F 
ATOM     86  C   UNL A   1      40.888  21.785  26.228  1.00  0.00     0.006 A 
ENDBRANCH  58  79
BRANCH  70  87
ATOM     87  C   UNL A   1      45.484  29.185  28.734  1.00  0.00     0.057 A 
ATOM     88  C   UNL A   1      44.416  30.046  28.471  1.00  0.00     0.134 A 
ATOM     89  C   UNL A   1      46.559  29.229  27.832  1.00  0.00     0.134 A 
ATOM     90  F   UNL A   1      43.325  30.025  29.253  1.00  0.00    -0.206 F 
ATOM     91  C   UNL A   1      44.409  30.901  27.364  1.00  0.00     0.040 A 
ATOM     92  C   UNL A   1      46.580  30.100  26.736  1.00  0.00     0.040 A 
ATOM     93  F   UNL A   1      47.588  28.384  27.937  1.00  0.00    -0.206 F 
ATOM     94  C   UNL A   1      45.495  30.934  26.494  1.00  0.00     0.006 A 
ENDBRANCH  70  87
ENDBRANCH  44  45
ENDBRANCH  36  39
ENDBRANCH  34  35
ENDBRANCH  33  34
ENDBRANCH  32  33
ENDBRANCH   1  32
TORSDOF 15
ENDMDL
MODEL 3
REMARK VINA RESULT:     -11.3      2.722      3.884
REMARK SMILES CC1=Nc2c(c(C)nn2-c2ccc(F)cc2)[C@H](c2ccc(C(=O)NCCCCCCNC(=O)c3ccc(-c4c5nc(c(-c6c(F)cccc6F)c6ccc([nH]6)c(-c6c(F)cccc6F)c6nc(c(-c7c(F)cccc7F)c7ccc4[nH]7)C=C6)C=C5)cc3)cc2)S1
REMARK SMILES IDX 27 1 26 2 25 3 24 4 22 5 23 6 21 8 18 9 19 10 89 11 20 12
REMARK SMILES IDX 88 13 17 14 1 15 2 16 3 17 90 18 4 19 5 20 9 21 6 22 8 23
REMARK SMILES IDX 7 24 10 25 11 26 16 27 12 28 15 29 13 30 14 31 28 32 29 33
REMARK SMILES IDX 30 34 31 35 32 36 33 38 34 39 35 40 87 41 36 42 86 43 37 44
REMARK SMILES IDX 38 45 39 46 80 47 40 48 85 49 79 50 81 51 41 52 84 53 78 54
REMARK SMILES IDX 77 55 42 57 68 58 51 59 67 60 52 61 55 62 66 63 82 64 53 65
REMARK SMILES IDX 54 66 65 68 83 69 56 70 43 71 44 72 49 73 45 74 46 75 48 76
REMARK SMILES IDX 50 77 47 78 69 79 70 80 75 81 71 82 72 83 74 84 76 85 73 86
REMARK SMILES IDX 57 87 58 88 63 89 59 90 60 91 62 92 64 93 61 94
REMARK H PARENT 24 7 31 37 81 56 55 67
REMARK Flexibility Score: inf
ROOT
ATOM      1  C   UNL A   1      40.726  25.714  27.696  1.00  0.00     0.002 C 
ENDROOT
BRANCH   1   2
ATOM      2  C   UNL A   1      39.909  25.197  26.503  1.00  0.00     0.021 C 
BRANCH   2   3
ATOM      3  C   UNL A   1      38.793  24.236  26.914  1.00  0.00     0.116 C 
BRANCH   3   4
ATOM      4  N   UNL A   1      39.109  22.901  26.450  1.00  0.00    -0.352 N 
ATOM      5  C   UNL A   1      38.369  21.964  25.784  1.00  0.00     0.251 C 
ATOM      6  O   UNL A   1      38.885  20.871  25.552  1.00  0.00    -0.269 OA
ATOM      7  H   UNL A   1      40.028  22.614  26.652  1.00  0.00     0.163 HD
BRANCH   5   8
ATOM      8  C   UNL A   1      37.014  22.250  25.253  1.00  0.00     0.039 A 
ATOM      9  C   UNL A   1      34.375  22.568  24.288  1.00  0.00    -0.030 A 
ATOM     10  C   UNL A   1      34.671  21.629  25.289  1.00  0.00     0.006 A 
ATOM     11  C   UNL A   1      35.423  23.373  23.808  1.00  0.00     0.006 A 
ATOM     12  C   UNL A   1      35.969  21.481  25.773  1.00  0.00     0.014 A 
ATOM     13  C   UNL A   1      36.725  23.231  24.302  1.00  0.00     0.014 A 
BRANCH   9  14
ATOM     14  C   UNL A   1      32.929  22.727  23.838  1.00  0.00     0.119 C 
ATOM     15  C   UNL A   1      32.989  24.878  20.289  1.00  0.00     0.075 C 
ATOM     16  C   UNL A   1      32.668  24.498  21.710  1.00  0.00     0.074 C 
ATOM     17  N   UNL A   1      32.394  25.449  22.546  1.00  0.00    -0.227 NA
ATOM     18  S   UNL A   1      32.716  22.771  22.032  1.00  0.00    -0.098 SA
ATOM     19  C   UNL A   1      32.188  25.128  23.847  1.00  0.00     0.161 A 
ATOM     20  C   UNL A   1      32.439  23.951  24.510  1.00  0.00     0.038 A 
ATOM     21  N   UNL A   1      31.779  26.036  24.811  1.00  0.00    -0.215 N 
ATOM     22  C   UNL A   1      32.166  24.232  25.875  1.00  0.00     0.067 A 
ATOM     23  N   UNL A   1      31.874  25.524  26.063  1.00  0.00    -0.171 NA
ATOM     24  C   UNL A   1      32.218  23.317  27.044  1.00  0.00     0.069 C 
BRANCH  21  25
ATOM     25  C   UNL A   1      31.305  27.350  24.594  1.00  0.00     0.067 A 
ATOM     26  C   UNL A   1      31.876  28.416  25.305  1.00  0.00     0.031 A 
ATOM     27  C   UNL A   1      30.266  27.570  23.682  1.00  0.00     0.031 A 
ATOM     28  C   UNL A   1      31.395  29.709  25.109  1.00  0.00     0.041 A 
ATOM     29  C   UNL A   1      29.756  28.861  23.534  1.00  0.00     0.041 A 
ATOM     30  C   UNL A   1      30.327  29.915  24.243  1.00  0.00     0.123 A 
ATOM     31  F   UNL A   1      29.838  31.153  24.091  1.00  0.00    -0.207 F 
ENDBRANCH  21  25
ENDBRANCH   9  14
ENDBRANCH   5   8
ENDBRANCH   3   4
ENDBRANCH   2   3
ENDBRANCH   1   2
BRANCH   1  32
ATOM     32  C   UNL A   1      41.665  24.681  28.348  1.00  0.00     0.002 C 
BRANCH  32  33
ATOM     33  C   UNL A   1      42.541  23.859  27.389  1.00  0.00     0.021 C 
BRANCH  33  34
ATOM     34  C   UNL A   1      42.584  24.438  25.987  1.00  0.00     0.116 C 
BRANCH  34  35
ATOM     35  N   UNL A   1      43.954  24.718  25.531  1.00  0.00    -0.352 N 
ATOM     36  C   UNL A   1      44.575  25.948  25.345  1.00  0.00     0.251 C 
ATOM     37  H   UNL A   1      44.506  23.927  25.331  1.00  0.00     0.163 HD
ATOM     38  O   UNL A   1      45.567  26.071  24.651  1.00  0.00    -0.269 OA
BRANCH  36  39
ATOM     39  C   UNL A   1      44.004  27.106  26.052  1.00  0.00     0.039 A 
ATOM     40  C   UNL A   1      42.965  27.899  25.560  1.00  0.00     0.014 A 
ATOM     41  C   UNL A   1      44.520  27.323  27.316  1.00  0.00     0.014 A 
ATOM     42  C   UNL A   1      42.456  28.896  26.391  1.00  0.00     0.010 A 
ATOM     43  C   UNL A   1      43.755  27.979  28.219  1.00  0.00     0.010 A 
ATOM     44  C   UNL A   1      42.884  28.926  27.726  1.00  0.00    -0.014 A 
BRANCH  44  45
ATOM     45  C   UNL A   1      42.474  29.914  28.703  1.00  0.00     0.031 A 
ATOM     46  C   UNL A   1      43.418  31.037  28.872  1.00  0.00     0.074 A 
ATOM     47  C   UNL A   1      41.204  29.945  29.173  1.00  0.00     0.049 A 
ATOM     48  N   UNL A   1      44.134  31.310  29.909  1.00  0.00    -0.248 NA
ATOM     49  C   UNL A   1      43.713  31.874  27.699  1.00  0.00     0.031 C 
ATOM     50  C   UNL A   1      40.047  29.098  28.828  1.00  0.00     0.029 A 
ATOM     51  N   UNL A   1      40.650  30.854  30.015  1.00  0.00    -0.354 N 
ATOM     52  C   UNL A   1      44.818  32.479  29.596  1.00  0.00     0.074 A 
ATOM     53  C   UNL A   1      44.676  32.666  28.176  1.00  0.00     0.031 C 
ATOM     54  C   UNL A   1      38.906  29.675  29.267  1.00  0.00     0.029 A 
ATOM     55  C   UNL A   1      39.258  30.824  30.073  1.00  0.00     0.049 A 
ATOM     56  H   UNL A   1      41.189  31.484  30.543  1.00  0.00     0.167 HD
ATOM     57  C   UNL A   1      45.244  33.329  30.570  1.00  0.00     0.037 A 
ATOM     58  C   UNL A   1      38.486  31.734  30.716  1.00  0.00     0.037 A 
ATOM     59  C   UNL A   1      45.195  32.708  31.870  1.00  0.00     0.049 A 
ATOM     60  C   UNL A   1      39.369  32.401  31.715  1.00  0.00     0.074 A 
ATOM     61  C   UNL A   1      45.790  31.588  32.421  1.00  0.00     0.029 A 
ATOM     62  N   UNL A   1      44.115  32.984  32.675  1.00  0.00    -0.354 N 
ATOM     63  N   UNL A   1      39.902  31.775  32.732  1.00  0.00    -0.248 NA
ATOM     64  C   UNL A   1      40.070  33.603  31.281  1.00  0.00     0.031 C 
ATOM     65  C   UNL A   1      44.753  30.960  33.175  1.00  0.00     0.029 A 
ATOM     66  C   UNL A   1      43.622  31.777  33.110  1.00  0.00     0.049 A 
ATOM     67  H   UNL A   1      43.760  33.875  32.896  1.00  0.00     0.167 HD
ATOM     68  C   UNL A   1      41.203  32.258  32.810  1.00  0.00     0.074 A 
ATOM     69  C   UNL A   1      41.232  33.414  31.912  1.00  0.00     0.031 C 
ATOM     70  C   UNL A   1      42.219  31.513  33.341  1.00  0.00     0.037 A 
BRANCH  57  71
ATOM     71  C   UNL A   1      45.374  34.814  30.390  1.00  0.00     0.057 A 
ATOM     72  C   UNL A   1      46.609  35.489  30.298  1.00  0.00     0.134 A 
ATOM     73  C   UNL A   1      44.246  35.570  30.036  1.00  0.00     0.134 A 
ATOM     74  F   UNL A   1      47.780  34.867  30.492  1.00  0.00    -0.206 F 
ATOM     75  C   UNL A   1      46.714  36.821  29.895  1.00  0.00     0.040 A 
ATOM     76  C   UNL A   1      44.345  36.890  29.580  1.00  0.00     0.040 A 
ATOM     77  F   UNL A   1      43.020  35.027  30.058  1.00  0.00    -0.206 F 
ATOM     78  C   UNL A   1      45.583  37.519  29.507  1.00  0.00     0.006 A 
ENDBRANCH  57  71
BRANCH  58  79
ATOM     79  C   UNL A   1      37.222  32.344  30.229  1.00  0.00     0.057 A 
ATOM     80  C   UNL A   1      35.964  31.915  30.691  1.00  0.00     0.134 A 
ATOM     81  C   UNL A   1      37.206  33.158  29.086  1.00  0.00     0.134 A 
ATOM     82  F   UNL A   1      35.856  31.081  31.737  1.00  0.00    -0.206 F 
ATOM     83  C   UNL A   1      34.769  32.245  30.042  1.00  0.00     0.040 A 
ATOM     84  C   UNL A   1      36.016  33.495  28.424  1.00  0.00     0.040 A 
ATOM     85  F   UNL A   1      38.355  33.591  28.546  1.00  0.00    -0.206 F 
ATOM     86  C   UNL A   1      34.793  33.025  28.893  1.00  0.00     0.006 A 
ENDBRANCH  58  79
BRANCH  70  87
ATOM     87  C   UNL A   1      41.885  30.196  33.998  1.00  0.00     0.057 A 
ATOM     88  C   UNL A   1      41.767  30.147  35.389  1.00  0.00     0.134 A 
ATOM     89  C   UNL A   1      41.891  28.961  33.328  1.00  0.00     0.134 A 
ATOM     90  F   UNL A   1      41.810  31.279  36.109  1.00  0.00    -0.206 F 
ATOM     91  C   UNL A   1      41.670  28.937  36.083  1.00  0.00     0.040 A 
ATOM     92  C   UNL A   1      41.765  27.743  34.006  1.00  0.00     0.040 A 
ATOM     93  F   UNL A   1      42.091  28.889  32.009  1.00  0.00    -0.206 F 
ATOM     94  C   UNL A   1      41.665  27.728  35.391  1.00  0.00     0.006 A 
ENDBRANCH  70  87
ENDBRANCH  44  45
ENDBRANCH  36  39
ENDBRANCH  34  35
ENDBRANCH  33  34
ENDBRANCH  32  33
ENDBRANCH   1  32
TORSDOF 15
ENDMDL
