MODEL 1
REMARK VINA RESULT:     -11.0      0.000      0.000
REMARK SMILES COc1cc(/C=N/NC(=O)c2cc(Cl)ccc2O)ccc1OCC(=O)NCCCCCCNC(=O)c1ccc(-c2c3nc(c(-c4c(F)cccc4F)c4ccc([nH]4)c(-c4c(F)cccc4F)c4nc(c(-c5c(F)cccc5F)c5ccc2[nH]5)C=C4)C=C3)cc1
REMARK SMILES IDX 27 1 26 2 24 3 25 4 23 6 22 7 21 8 3 9 4 10 5 11 20 12 19 13
REMARK SMILES IDX 2 14 1 15 6 16 7 17 8 18 9 19 10 21 11 22 12 23 17 24 13 25
REMARK SMILES IDX 16 26 14 27 15 28 18 29 28 31 29 32 30 33 31 34 32 35 33 36
REMARK SMILES IDX 34 37 35 39 36 40 37 41 89 42 38 43 88 44 39 45 40 46 41 47
REMARK SMILES IDX 82 48 42 49 87 50 81 51 83 52 43 53 86 54 80 55 79 56 44 58
REMARK SMILES IDX 70 59 53 60 69 61 54 62 57 63 68 64 84 65 55 66 56 67 67 69
REMARK SMILES IDX 85 70 58 71 45 72 46 73 51 74 47 75 48 76 50 77 52 78 49 79
REMARK SMILES IDX 71 80 72 81 77 82 73 83 74 84 76 85 78 86 75 87 59 88 60 89
REMARK SMILES IDX 65 90 61 91 62 92 64 93 66 94 63 95
REMARK H PARENT 26 5 8 20 18 30 33 38 83 57 57 68
REMARK Flexibility Score: inf
ROOT
ATOM      1  C   UNL A   1      33.583  31.364  27.549  1.00  0.00     0.116 C 
ENDROOT
BRANCH   1   2
ATOM      2  N   UNL A   1      33.004  30.043  27.653  1.00  0.00    -0.353 N 
ATOM      3  C   UNL A   1      33.015  29.037  26.734  1.00  0.00     0.257 C 
ATOM      4  O   UNL A   1      32.703  27.908  27.121  1.00  0.00    -0.271 OA
ATOM      5  H   UNL A   1      32.542  29.845  28.500  1.00  0.00     0.163 HD
BRANCH   3   6
ATOM      6  C   UNL A   1      33.480  29.306  25.295  1.00  0.00     0.329 C 
BRANCH   6   7
ATOM      7  O   UNL A   1      32.581  29.056  24.229  1.00  0.00    -0.480 OA
BRANCH   7   8
ATOM      8  C   UNL A   1      32.402  27.784  23.764  1.00  0.00     0.161 A 
ATOM      9  C   UNL A   1      31.204  27.145  23.421  1.00  0.00     0.161 A 
ATOM     10  C   UNL A   1      31.216  25.802  23.014  1.00  0.00     0.060 A 
ATOM     11  C   UNL A   1      32.428  25.114  22.912  1.00  0.00    -0.002 A 
ATOM     12  C   UNL A   1      33.605  27.067  23.673  1.00  0.00     0.051 A 
ATOM     13  C   UNL A   1      33.628  25.745  23.232  1.00  0.00     0.014 A 
BRANCH   9  14
ATOM     14  O   UNL A   1      30.007  27.777  23.620  1.00  0.00    -0.493 OA
ATOM     15  C   UNL A   1      29.709  28.743  22.611  1.00  0.00     0.278 C 
ENDBRANCH   9  14
BRANCH  11  16
ATOM     16  C   UNL A   1      32.468  23.678  22.576  1.00  0.00     0.141 C 
ATOM     17  N   UNL A   1      31.482  22.893  22.888  1.00  0.00    -0.180 NA
BRANCH  17  18
ATOM     18  N   UNL A   1      31.645  21.552  22.689  1.00  0.00    -0.243 N 
ATOM     19  C   UNL A   1      32.394  20.634  23.409  1.00  0.00     0.275 C 
ATOM     20  H   UNL A   1      31.157  21.182  21.918  1.00  0.00     0.194 HD
ATOM     21  O   UNL A   1      32.464  19.465  23.034  1.00  0.00    -0.267 OA
BRANCH  19  22
ATOM     22  C   UNL A   1      33.123  21.034  24.635  1.00  0.00     0.084 A 
ATOM     23  C   UNL A   1      34.521  20.938  24.594  1.00  0.00     0.038 A 
ATOM     24  C   UNL A   1      32.496  21.488  25.802  1.00  0.00     0.128 A 
ATOM     25  C   UNL A   1      35.277  21.361  25.685  1.00  0.00     0.042 A 
ATOM     26  C   UNL A   1      33.259  21.908  26.892  1.00  0.00     0.048 A 
ATOM     27  Cl  UNL A   1      36.993  21.290  25.614  1.00  0.00    -0.084 Cl
ATOM     28  C   UNL A   1      34.653  21.860  26.828  1.00  0.00     0.024 A 
BRANCH  24  29
ATOM     29  O   UNL A   1      31.141  21.569  25.955  1.00  0.00    -0.507 OA
ATOM     30  H   UNL A   1      30.760  22.324  26.357  1.00  0.00     0.293 HD
ENDBRANCH  24  29
ENDBRANCH  19  22
ENDBRANCH  17  18
ENDBRANCH  11  16
ENDBRANCH   7   8
ENDBRANCH   6   7
ENDBRANCH   3   6
ENDBRANCH   1   2
BRANCH   1  31
ATOM     31  C   UNL A   1      34.734  31.582  28.529  1.00  0.00     0.021 C 
BRANCH  31  32
ATOM     32  C   UNL A   1      34.656  32.862  29.369  1.00  0.00     0.002 C 
BRANCH  32  33
ATOM     33  C   UNL A   1      34.482  34.169  28.589  1.00  0.00     0.002 C 
BRANCH  33  34
ATOM     34  C   UNL A   1      33.219  34.967  28.909  1.00  0.00     0.021 C 
BRANCH  34  35
ATOM     35  C   UNL A   1      33.439  36.196  29.779  1.00  0.00     0.116 C 
BRANCH  35  36
ATOM     36  N   UNL A   1      32.469  36.293  30.856  1.00  0.00    -0.352 N 
ATOM     37  C   UNL A   1      32.506  35.721  32.102  1.00  0.00     0.251 C 
ATOM     38  H   UNL A   1      31.677  36.846  30.665  1.00  0.00     0.163 HD
ATOM     39  O   UNL A   1      31.519  35.758  32.832  1.00  0.00    -0.269 OA
BRANCH  37  40
ATOM     40  C   UNL A   1      33.734  35.033  32.556  1.00  0.00     0.039 A 
ATOM     41  C   UNL A   1      33.639  33.720  33.023  1.00  0.00     0.014 A 
ATOM     42  C   UNL A   1      34.975  35.675  32.509  1.00  0.00     0.014 A 
ATOM     43  C   UNL A   1      34.799  33.032  33.387  1.00  0.00     0.010 A 
ATOM     44  C   UNL A   1      36.135  34.962  32.793  1.00  0.00     0.010 A 
ATOM     45  C   UNL A   1      36.059  33.634  33.241  1.00  0.00    -0.014 A 
BRANCH  45  46
ATOM     46  C   UNL A   1      37.307  32.892  33.555  1.00  0.00     0.031 A 
ATOM     47  C   UNL A   1      38.058  33.180  34.826  1.00  0.00     0.074 A 
ATOM     48  C   UNL A   1      37.793  31.999  32.670  1.00  0.00     0.049 A 
ATOM     49  N   UNL A   1      39.191  32.678  35.248  1.00  0.00    -0.248 NA
ATOM     50  C   UNL A   1      37.473  34.182  35.729  1.00  0.00     0.031 C 
ATOM     51  C   UNL A   1      37.181  31.663  31.382  1.00  0.00     0.029 A 
ATOM     52  N   UNL A   1      38.919  31.215  32.717  1.00  0.00    -0.354 N 
ATOM     53  C   UNL A   1      39.455  33.308  36.458  1.00  0.00     0.074 A 
ATOM     54  C   UNL A   1      38.399  34.274  36.671  1.00  0.00     0.031 C 
ATOM     55  C   UNL A   1      37.923  30.723  30.775  1.00  0.00     0.029 A 
ATOM     56  C   UNL A   1      39.083  30.421  31.607  1.00  0.00     0.049 A 
ATOM     57  H   UNL A   1      39.548  31.221  33.473  1.00  0.00     0.167 HD
ATOM     58  C   UNL A   1      40.472  33.086  37.324  1.00  0.00     0.037 A 
ATOM     59  C   UNL A   1      40.064  29.554  31.292  1.00  0.00     0.037 A 
ATOM     60  C   UNL A   1      41.514  32.113  37.115  1.00  0.00     0.049 A 
ATOM     61  C   UNL A   1      41.197  29.345  32.260  1.00  0.00     0.074 A 
ATOM     62  C   UNL A   1      42.559  31.777  37.957  1.00  0.00     0.029 A 
ATOM     63  N   UNL A   1      41.644  31.326  35.981  1.00  0.00    -0.354 N 
ATOM     64  N   UNL A   1      41.398  29.898  33.432  1.00  0.00    -0.248 NA
ATOM     65  C   UNL A   1      42.237  28.385  31.864  1.00  0.00     0.031 C 
ATOM     66  C   UNL A   1      43.353  30.826  37.309  1.00  0.00     0.029 A 
ATOM     67  C   UNL A   1      42.768  30.525  36.089  1.00  0.00     0.049 A 
ATOM     68  H   UNL A   1      41.028  31.336  35.213  1.00  0.00     0.167 HD
ATOM     69  C   UNL A   1      42.566  29.332  33.925  1.00  0.00     0.074 A 
ATOM     70  C   UNL A   1      43.020  28.381  32.932  1.00  0.00     0.031 C 
ATOM     71  C   UNL A   1      43.205  29.576  35.096  1.00  0.00     0.037 A 
BRANCH  58  72
ATOM     72  C   UNL A   1      40.507  33.910  38.580  1.00  0.00     0.057 A 
ATOM     73  C   UNL A   1      41.249  35.095  38.666  1.00  0.00     0.134 A 
ATOM     74  C   UNL A   1      39.765  33.532  39.706  1.00  0.00     0.134 A 
ATOM     75  F   UNL A   1      41.993  35.511  37.629  1.00  0.00    -0.206 F 
ATOM     76  C   UNL A   1      41.275  35.859  39.835  1.00  0.00     0.040 A 
ATOM     77  C   UNL A   1      39.757  34.304  40.870  1.00  0.00     0.040 A 
ATOM     78  F   UNL A   1      39.026  32.412  39.692  1.00  0.00    -0.206 F 
ATOM     79  C   UNL A   1      40.520  35.467  40.938  1.00  0.00     0.006 A 
ENDBRANCH  58  72
BRANCH  59  80
ATOM     80  C   UNL A   1      40.015  28.803  30.011  1.00  0.00     0.057 A 
ATOM     81  C   UNL A   1      40.672  29.276  28.870  1.00  0.00     0.134 A 
ATOM     82  C   UNL A   1      39.297  27.606  29.890  1.00  0.00     0.134 A 
ATOM     83  F   UNL A   1      41.361  30.426  28.915  1.00  0.00    -0.206 F 
ATOM     84  C   UNL A   1      40.596  28.603  27.649  1.00  0.00     0.040 A 
ATOM     85  C   UNL A   1      39.237  26.907  28.684  1.00  0.00     0.040 A 
ATOM     86  F   UNL A   1      38.652  27.093  30.949  1.00  0.00    -0.206 F 
ATOM     87  C   UNL A   1      39.880  27.412  27.555  1.00  0.00     0.006 A 
ENDBRANCH  59  80
BRANCH  71  88
ATOM     88  C   UNL A   1      44.440  28.773  35.387  1.00  0.00     0.057 A 
ATOM     89  C   UNL A   1      45.718  29.218  35.026  1.00  0.00     0.134 A 
ATOM     90  C   UNL A   1      44.351  27.555  36.073  1.00  0.00     0.134 A 
ATOM     91  F   UNL A   1      45.873  30.370  34.355  1.00  0.00    -0.206 F 
ATOM     92  C   UNL A   1      46.860  28.467  35.312  1.00  0.00     0.040 A 
ATOM     93  C   UNL A   1      45.487  26.812  36.394  1.00  0.00     0.040 A 
ATOM     94  F   UNL A   1      43.158  27.076  36.458  1.00  0.00    -0.206 F 
ATOM     95  C   UNL A   1      46.746  27.264  36.005  1.00  0.00     0.006 A 
ENDBRANCH  71  88
ENDBRANCH  45  46
ENDBRANCH  37  40
ENDBRANCH  35  36
ENDBRANCH  34  35
ENDBRANCH  33  34
ENDBRANCH  32  33
ENDBRANCH  31  32
ENDBRANCH   1  31
TORSDOF 20
ENDMDL
MODEL 2
REMARK VINA RESULT:     -10.8      8.539     15.538
REMARK SMILES COc1cc(/C=N/NC(=O)c2cc(Cl)ccc2O)ccc1OCC(=O)NCCCCCCNC(=O)c1ccc(-c2c3nc(c(-c4c(F)cccc4F)c4ccc([nH]4)c(-c4c(F)cccc4F)c4nc(c(-c5c(F)cccc5F)c5ccc2[nH]5)C=C4)C=C3)cc1
REMARK SMILES IDX 27 1 26 2 24 3 25 4 23 6 22 7 21 8 3 9 4 10 5 11 20 12 19 13
REMARK SMILES IDX 2 14 1 15 6 16 7 17 8 18 9 19 10 21 11 22 12 23 17 24 13 25
REMARK SMILES IDX 16 26 14 27 15 28 18 29 28 31 29 32 30 33 31 34 32 35 33 36
REMARK SMILES IDX 34 37 35 39 36 40 37 41 89 42 38 43 88 44 39 45 40 46 41 47
REMARK SMILES IDX 82 48 42 49 87 50 81 51 83 52 43 53 86 54 80 55 79 56 44 58
REMARK SMILES IDX 70 59 53 60 69 61 54 62 57 63 68 64 84 65 55 66 56 67 67 69
REMARK SMILES IDX 85 70 58 71 45 72 46 73 51 74 47 75 48 76 50 77 52 78 49 79
REMARK SMILES IDX 71 80 72 81 77 82 73 83 74 84 76 85 78 86 75 87 59 88 60 89
REMARK SMILES IDX 65 90 61 91 62 92 64 93 66 94 63 95
REMARK H PARENT 26 5 8 20 18 30 33 38 83 57 57 68
REMARK Flexibility Score: inf
ROOT
ATOM      1  C   UNL A   1      45.309  23.527  39.152  1.00  0.00     0.116 C 
ENDROOT
BRANCH   1   2
ATOM      2  N   UNL A   1      44.921  22.564  40.160  1.00  0.00    -0.353 N 
ATOM      3  C   UNL A   1      45.579  21.439  40.556  1.00  0.00     0.257 C 
ATOM      4  O   UNL A   1      45.217  20.907  41.608  1.00  0.00    -0.271 OA
ATOM      5  H   UNL A   1      44.070  22.747  40.620  1.00  0.00     0.163 HD
BRANCH   3   6
ATOM      6  C   UNL A   1      46.777  20.916  39.749  1.00  0.00     0.329 C 
BRANCH   6   7
ATOM      7  O   UNL A   1      47.122  19.545  39.848  1.00  0.00    -0.480 OA
BRANCH   7   8
ATOM      8  C   UNL A   1      46.218  18.581  39.501  1.00  0.00     0.161 A 
ATOM      9  C   UNL A   1      45.476  18.471  38.319  1.00  0.00     0.161 A 
ATOM     10  C   UNL A   1      44.547  17.431  38.169  1.00  0.00     0.060 A 
ATOM     11  C   UNL A   1      44.388  16.483  39.182  1.00  0.00    -0.002 A 
ATOM     12  C   UNL A   1      46.029  17.629  40.514  1.00  0.00     0.051 A 
ATOM     13  C   UNL A   1      45.135  16.571  40.355  1.00  0.00     0.014 A 
BRANCH   9  14
ATOM     14  O   UNL A   1      45.548  19.453  37.369  1.00  0.00    -0.493 OA
ATOM     15  C   UNL A   1      45.702  18.943  36.044  1.00  0.00     0.278 C 
ENDBRANCH   9  14
BRANCH  11  16
ATOM     16  C   UNL A   1      43.356  15.433  39.096  1.00  0.00     0.141 C 
ATOM     17  N   UNL A   1      42.463  15.297  40.028  1.00  0.00    -0.180 NA
BRANCH  17  18
ATOM     18  N   UNL A   1      41.634  14.214  39.967  1.00  0.00    -0.243 N 
ATOM     19  C   UNL A   1      41.347  13.263  40.934  1.00  0.00     0.275 C 
ATOM     20  H   UNL A   1      41.170  14.091  39.107  1.00  0.00     0.194 HD
ATOM     21  O   UNL A   1      40.610  12.315  40.666  1.00  0.00    -0.267 OA
BRANCH  19  22
ATOM     22  C   UNL A   1      41.915  13.361  42.298  1.00  0.00     0.084 A 
ATOM     23  C   UNL A   1      42.681  12.273  42.740  1.00  0.00     0.038 A 
ATOM     24  C   UNL A   1      41.725  14.460  43.145  1.00  0.00     0.128 A 
ATOM     25  C   UNL A   1      43.304  12.325  43.985  1.00  0.00     0.042 A 
ATOM     26  C   UNL A   1      42.349  14.504  44.391  1.00  0.00     0.048 A 
ATOM     27  Cl  UNL A   1      44.284  11.010  44.503  1.00  0.00    -0.084 Cl
ATOM     28  C   UNL A   1      43.155  13.441  44.806  1.00  0.00     0.024 A 
BRANCH  24  29
ATOM     29  O   UNL A   1      40.956  15.543  42.823  1.00  0.00    -0.507 OA
ATOM     30  H   UNL A   1      41.074  16.353  43.278  1.00  0.00     0.293 HD
ENDBRANCH  24  29
ENDBRANCH  19  22
ENDBRANCH  17  18
ENDBRANCH  11  16
ENDBRANCH   7   8
ENDBRANCH   6   7
ENDBRANCH   3   6
ENDBRANCH   1   2
BRANCH   1  31
ATOM     31  C   UNL A   1      45.588  24.910  39.736  1.00  0.00     0.021 C 
BRANCH  31  32
ATOM     32  C   UNL A   1      44.636  26.024  39.285  1.00  0.00     0.002 C 
BRANCH  32  33
ATOM     33  C   UNL A   1      45.261  27.409  39.097  1.00  0.00     0.002 C 
BRANCH  33  34
ATOM     34  C   UNL A   1      46.767  27.494  39.340  1.00  0.00     0.021 C 
BRANCH  34  35
ATOM     35  C   UNL A   1      47.614  27.619  38.082  1.00  0.00     0.116 C 
BRANCH  35  36
ATOM     36  N   UNL A   1      48.072  26.330  37.591  1.00  0.00    -0.352 N 
ATOM     37  C   UNL A   1      47.547  25.555  36.589  1.00  0.00     0.251 C 
ATOM     38  H   UNL A   1      48.867  25.964  38.040  1.00  0.00     0.163 HD
ATOM     39  O   UNL A   1      47.948  24.406  36.418  1.00  0.00    -0.269 OA
BRANCH  37  40
ATOM     40  C   UNL A   1      46.473  26.097  35.728  1.00  0.00     0.039 A 
ATOM     41  C   UNL A   1      45.200  25.529  35.797  1.00  0.00     0.014 A 
ATOM     42  C   UNL A   1      46.719  27.170  34.867  1.00  0.00     0.014 A 
ATOM     43  C   UNL A   1      44.158  26.076  35.045  1.00  0.00     0.010 A 
ATOM     44  C   UNL A   1      45.663  27.765  34.183  1.00  0.00     0.010 A 
ATOM     45  C   UNL A   1      44.372  27.220  34.261  1.00  0.00    -0.014 A 
BRANCH  45  46
ATOM     46  C   UNL A   1      43.260  27.858  33.511  1.00  0.00     0.031 A 
ATOM     47  C   UNL A   1      43.056  27.550  32.053  1.00  0.00     0.074 A 
ATOM     48  C   UNL A   1      42.467  28.756  34.129  1.00  0.00     0.049 A 
ATOM     49  N   UNL A   1      42.179  28.047  31.218  1.00  0.00    -0.248 NA
ATOM     50  C   UNL A   1      43.976  26.575  31.447  1.00  0.00     0.031 C 
ATOM     51  C   UNL A   1      42.589  29.173  35.528  1.00  0.00     0.029 A 
ATOM     52  N   UNL A   1      41.404  29.486  33.658  1.00  0.00    -0.354 N 
ATOM     53  C   UNL A   1      42.447  27.452  29.991  1.00  0.00     0.074 A 
ATOM     54  C   UNL A   1      43.606  26.607  30.175  1.00  0.00     0.031 C 
ATOM     55  C   UNL A   1      41.623  30.062  35.808  1.00  0.00     0.029 A 
ATOM     56  C   UNL A   1      40.841  30.311  34.601  1.00  0.00     0.049 A 
ATOM     57  H   UNL A   1      41.077  29.423  32.732  1.00  0.00     0.167 HD
ATOM     58  C   UNL A   1      41.773  27.579  28.823  1.00  0.00     0.037 A 
ATOM     59  C   UNL A   1      39.816  31.178  34.501  1.00  0.00     0.037 A 
ATOM     60  C   UNL A   1      40.610  28.411  28.647  1.00  0.00     0.049 A 
ATOM     61  C   UNL A   1      39.101  31.322  33.185  1.00  0.00     0.074 A 
ATOM     62  C   UNL A   1      39.827  28.568  27.518  1.00  0.00     0.029 A 
ATOM     63  N   UNL A   1      40.068  29.229  29.628  1.00  0.00    -0.354 N 
ATOM     64  N   UNL A   1      39.323  30.701  32.051  1.00  0.00    -0.248 NA
ATOM     65  C   UNL A   1      37.989  32.281  33.137  1.00  0.00     0.031 C 
ATOM     66  C   UNL A   1      38.844  29.522  27.797  1.00  0.00     0.029 A 
ATOM     67  C   UNL A   1      38.977  29.914  29.120  1.00  0.00     0.049 A 
ATOM     68  H   UNL A   1      40.409  29.310  30.547  1.00  0.00     0.167 HD
ATOM     69  C   UNL A   1      38.361  31.170  31.167  1.00  0.00     0.074 A 
ATOM     70  C   UNL A   1      37.544  32.115  31.900  1.00  0.00     0.031 C 
ATOM     71  C   UNL A   1      38.168  30.847  29.864  1.00  0.00     0.037 A 
BRANCH  58  72
ATOM     72  C   UNL A   1      42.278  26.800  27.642  1.00  0.00     0.057 A 
ATOM     73  C   UNL A   1      41.789  25.522  27.335  1.00  0.00     0.134 A 
ATOM     74  C   UNL A   1      43.240  27.344  26.783  1.00  0.00     0.134 A 
ATOM     75  F   UNL A   1      40.875  24.935  28.123  1.00  0.00    -0.206 F 
ATOM     76  C   UNL A   1      42.260  24.804  26.234  1.00  0.00     0.040 A 
ATOM     77  C   UNL A   1      43.696  26.649  25.661  1.00  0.00     0.040 A 
ATOM     78  F   UNL A   1      43.748  28.565  27.013  1.00  0.00    -0.206 F 
ATOM     79  C   UNL A   1      43.210  25.372  25.388  1.00  0.00     0.006 A 
ENDBRANCH  58  72
BRANCH  59  80
ATOM     80  C   UNL A   1      39.389  31.970  35.684  1.00  0.00     0.057 A 
ATOM     81  C   UNL A   1      38.470  31.454  36.606  1.00  0.00     0.134 A 
ATOM     82  C   UNL A   1      39.872  33.264  35.914  1.00  0.00     0.134 A 
ATOM     83  F   UNL A   1      37.956  30.228  36.433  1.00  0.00    -0.206 F 
ATOM     84  C   UNL A   1      38.027  32.204  37.696  1.00  0.00     0.040 A 
ATOM     85  C   UNL A   1      39.461  34.014  37.016  1.00  0.00     0.040 A 
ATOM     86  F   UNL A   1      40.762  33.814  35.073  1.00  0.00    -0.206 F 
ATOM     87  C   UNL A   1      38.527  33.488  37.906  1.00  0.00     0.006 A 
ENDBRANCH  59  80
BRANCH  71  88
ATOM     88  C   UNL A   1      37.007  31.487  29.160  1.00  0.00     0.057 A 
ATOM     89  C   UNL A   1      37.067  32.796  28.664  1.00  0.00     0.134 A 
ATOM     90  C   UNL A   1      35.824  30.768  28.940  1.00  0.00     0.134 A 
ATOM     91  F   UNL A   1      38.166  33.543  28.851  1.00  0.00    -0.206 F 
ATOM     92  C   UNL A   1      35.985  33.375  28.001  1.00  0.00     0.040 A 
ATOM     93  C   UNL A   1      34.747  31.325  28.250  1.00  0.00     0.040 A 
ATOM     94  F   UNL A   1      35.703  29.506  29.379  1.00  0.00    -0.206 F 
ATOM     95  C   UNL A   1      34.823  32.636  27.785  1.00  0.00     0.006 A 
ENDBRANCH  71  88
ENDBRANCH  45  46
ENDBRANCH  37  40
ENDBRANCH  35  36
ENDBRANCH  34  35
ENDBRANCH  33  34
ENDBRANCH  32  33
ENDBRANCH  31  32
ENDBRANCH   1  31
TORSDOF 20
ENDMDL
MODEL 3
REMARK VINA RESULT:     -10.4      7.497     12.067
REMARK SMILES COc1cc(/C=N/NC(=O)c2cc(Cl)ccc2O)ccc1OCC(=O)NCCCCCCNC(=O)c1ccc(-c2c3nc(c(-c4c(F)cccc4F)c4ccc([nH]4)c(-c4c(F)cccc4F)c4nc(c(-c5c(F)cccc5F)c5ccc2[nH]5)C=C4)C=C3)cc1
REMARK SMILES IDX 27 1 26 2 24 3 25 4 23 6 22 7 21 8 3 9 4 10 5 11 20 12 19 13
REMARK SMILES IDX 2 14 1 15 6 16 7 17 8 18 9 19 10 21 11 22 12 23 17 24 13 25
REMARK SMILES IDX 16 26 14 27 15 28 18 29 28 31 29 32 30 33 31 34 32 35 33 36
REMARK SMILES IDX 34 37 35 39 36 40 37 41 89 42 38 43 88 44 39 45 40 46 41 47
REMARK SMILES IDX 82 48 42 49 87 50 81 51 83 52 43 53 86 54 80 55 79 56 44 58
REMARK SMILES IDX 70 59 53 60 69 61 54 62 57 63 68 64 84 65 55 66 56 67 67 69
REMARK SMILES IDX 85 70 58 71 45 72 46 73 51 74 47 75 48 76 50 77 52 78 49 79
REMARK SMILES IDX 71 80 72 81 77 82 73 83 74 84 76 85 78 86 75 87 59 88 60 89
REMARK SMILES IDX 65 90 61 91 62 92 64 93 66 94 63 95
REMARK H PARENT 26 5 8 20 18 30 33 38 83 57 57 68
REMARK Flexibility Score: inf
ROOT
ATOM      1  C   UNL A   1      39.265  29.298  27.574  1.00  0.00     0.116 C 
ENDROOT
BRANCH   1   2
ATOM      2  N   UNL A   1      39.495  29.498  28.987  1.00  0.00    -0.353 N 
ATOM      3  C   UNL A   1      38.595  29.441  30.009  1.00  0.00     0.257 C 
ATOM      4  O   UNL A   1      39.041  29.376  31.158  1.00  0.00    -0.271 OA
ATOM      5  H   UNL A   1      40.423  29.703  29.245  1.00  0.00     0.163 HD
BRANCH   3   6
ATOM      6  C   UNL A   1      37.089  29.380  29.715  1.00  0.00     0.329 C 
BRANCH   6   7
ATOM      7  O   UNL A   1      36.407  30.580  29.392  1.00  0.00    -0.480 OA
BRANCH   7   8
ATOM      8  C   UNL A   1      35.396  30.570  28.473  1.00  0.00     0.161 A 
ATOM      9  C   UNL A   1      34.459  31.575  28.201  1.00  0.00     0.161 A 
ATOM     10  C   UNL A   1      33.451  31.356  27.251  1.00  0.00     0.060 A 
ATOM     11  C   UNL A   1      33.403  30.150  26.547  1.00  0.00    -0.002 A 
ATOM     12  C   UNL A   1      35.318  29.359  27.769  1.00  0.00     0.051 A 
ATOM     13  C   UNL A   1      34.341  29.150  26.796  1.00  0.00     0.014 A 
BRANCH   9  14
ATOM     14  O   UNL A   1      34.434  32.714  28.959  1.00  0.00    -0.493 OA
ATOM     15  C   UNL A   1      33.622  33.745  28.396  1.00  0.00     0.278 C 
ENDBRANCH   9  14
BRANCH  11  16
ATOM     16  C   UNL A   1      32.305  29.851  25.610  1.00  0.00     0.141 C 
ATOM     17  N   UNL A   1      32.551  29.451  24.400  1.00  0.00    -0.180 NA
BRANCH  17  18
ATOM     18  N   UNL A   1      31.499  29.340  23.536  1.00  0.00    -0.243 N 
ATOM     19  C   UNL A   1      31.087  28.257  22.776  1.00  0.00     0.275 C 
ATOM     20  H   UNL A   1      30.951  30.153  23.439  1.00  0.00     0.194 HD
ATOM     21  O   UNL A   1      30.139  28.372  22.001  1.00  0.00    -0.267 OA
BRANCH  19  22
ATOM     22  C   UNL A   1      31.772  26.948  22.875  1.00  0.00     0.084 A 
ATOM     23  C   UNL A   1      31.178  25.988  23.708  1.00  0.00     0.038 A 
ATOM     24  C   UNL A   1      32.957  26.634  22.197  1.00  0.00     0.128 A 
ATOM     25  C   UNL A   1      31.729  24.712  23.796  1.00  0.00     0.042 A 
ATOM     26  C   UNL A   1      33.504  25.354  22.293  1.00  0.00     0.048 A 
ATOM     27  Cl  UNL A   1      30.969  23.522  24.778  1.00  0.00    -0.084 Cl
ATOM     28  C   UNL A   1      32.880  24.385  23.081  1.00  0.00     0.024 A 
BRANCH  24  29
ATOM     29  O   UNL A   1      33.636  27.516  21.404  1.00  0.00    -0.507 OA
ATOM     30  H   UNL A   1      33.202  28.277  21.074  1.00  0.00     0.293 HD
ENDBRANCH  24  29
ENDBRANCH  19  22
ENDBRANCH  17  18
ENDBRANCH  11  16
ENDBRANCH   7   8
ENDBRANCH   6   7
ENDBRANCH   3   6
ENDBRANCH   1   2
BRANCH   1  31
ATOM     31  C   UNL A   1      40.496  28.758  26.848  1.00  0.00     0.021 C 
BRANCH  31  32
ATOM     32  C   UNL A   1      40.785  27.267  27.054  1.00  0.00     0.002 C 
BRANCH  32  33
ATOM     33  C   UNL A   1      39.628  26.426  27.601  1.00  0.00     0.002 C 
BRANCH  33  34
ATOM     34  C   UNL A   1      39.626  24.955  27.190  1.00  0.00     0.021 C 
BRANCH  34  35
ATOM     35  C   UNL A   1      40.655  24.088  27.902  1.00  0.00     0.116 C 
BRANCH  35  36
ATOM     36  N   UNL A   1      41.228  23.077  27.029  1.00  0.00    -0.352 N 
ATOM     37  C   UNL A   1      42.310  23.175  26.193  1.00  0.00     0.251 C 
ATOM     38  H   UNL A   1      40.775  22.203  27.039  1.00  0.00     0.163 HD
ATOM     39  O   UNL A   1      42.555  22.280  25.388  1.00  0.00    -0.269 OA
BRANCH  37  40
ATOM     40  C   UNL A   1      43.171  24.377  26.244  1.00  0.00     0.039 A 
ATOM     41  C   UNL A   1      43.878  24.651  27.416  1.00  0.00     0.014 A 
ATOM     42  C   UNL A   1      43.288  25.222  25.137  1.00  0.00     0.014 A 
ATOM     43  C   UNL A   1      44.751  25.741  27.457  1.00  0.00     0.010 A 
ATOM     44  C   UNL A   1      44.218  26.257  25.152  1.00  0.00     0.010 A 
ATOM     45  C   UNL A   1      44.955  26.531  26.314  1.00  0.00    -0.014 A 
BRANCH  45  46
ATOM     46  C   UNL A   1      45.932  27.650  26.317  1.00  0.00     0.031 A 
ATOM     47  C   UNL A   1      47.403  27.369  26.183  1.00  0.00     0.074 A 
ATOM     48  C   UNL A   1      45.499  28.914  26.496  1.00  0.00     0.049 A 
ATOM     49  N   UNL A   1      48.411  28.205  26.219  1.00  0.00    -0.248 NA
ATOM     50  C   UNL A   1      47.797  25.962  26.013  1.00  0.00     0.031 C 
ATOM     51  C   UNL A   1      44.101  29.312  26.681  1.00  0.00     0.029 A 
ATOM     52  N   UNL A   1      46.191  30.097  26.557  1.00  0.00    -0.354 N 
ATOM     53  C   UNL A   1      49.553  27.425  26.084  1.00  0.00     0.074 A 
ATOM     54  C   UNL A   1      49.119  26.046  26.030  1.00  0.00     0.031 C 
ATOM     55  C   UNL A   1      44.038  30.647  26.807  1.00  0.00     0.029 A 
ATOM     56  C   UNL A   1      45.389  31.195  26.756  1.00  0.00     0.049 A 
ATOM     57  H   UNL A   1      47.170  30.153  26.467  1.00  0.00     0.167 HD
ATOM     58  C   UNL A   1      50.844  27.822  25.989  1.00  0.00     0.037 A 
ATOM     59  C   UNL A   1      45.709  32.496  26.891  1.00  0.00     0.037 A 
ATOM     60  C   UNL A   1      51.271  29.197  26.030  1.00  0.00     0.049 A 
ATOM     61  C   UNL A   1      47.153  32.910  26.809  1.00  0.00     0.074 A 
ATOM     62  C   UNL A   1      52.550  29.706  25.891  1.00  0.00     0.029 A 
ATOM     63  N   UNL A   1      50.428  30.281  26.228  1.00  0.00    -0.354 N 
ATOM     64  N   UNL A   1      48.217  32.167  26.613  1.00  0.00    -0.248 NA
ATOM     65  C   UNL A   1      47.442  34.342  26.962  1.00  0.00     0.031 C 
ATOM     66  C   UNL A   1      52.490  31.092  26.061  1.00  0.00     0.029 A 
ATOM     67  C   UNL A   1      51.164  31.454  26.244  1.00  0.00     0.049 A 
ATOM     68  H   UNL A   1      49.452  30.224  26.343  1.00  0.00     0.167 HD
ATOM     69  C   UNL A   1      49.293  33.044  26.586  1.00  0.00     0.074 A 
ATOM     70  C   UNL A   1      48.752  34.375  26.771  1.00  0.00     0.031 C 
ATOM     71  C   UNL A   1      50.611  32.773  26.421  1.00  0.00     0.037 A 
BRANCH  58  72
ATOM     72  C   UNL A   1      51.889  26.755  25.832  1.00  0.00     0.057 A 
ATOM     73  C   UNL A   1      52.263  26.265  24.574  1.00  0.00     0.134 A 
ATOM     74  C   UNL A   1      52.553  26.232  26.950  1.00  0.00     0.134 A 
ATOM     75  F   UNL A   1      51.660  26.712  23.462  1.00  0.00    -0.206 F 
ATOM     76  C   UNL A   1      53.239  25.275  24.434  1.00  0.00     0.040 A 
ATOM     77  C   UNL A   1      53.552  25.265  26.820  1.00  0.00     0.040 A 
ATOM     78  F   UNL A   1      52.250  26.659  28.185  1.00  0.00    -0.206 F 
ATOM     79  C   UNL A   1      53.892  24.779  25.560  1.00  0.00     0.006 A 
ENDBRANCH  58  72
BRANCH  59  80
ATOM     80  C   UNL A   1      44.643  33.510  27.102  1.00  0.00     0.057 A 
ATOM     81  C   UNL A   1      44.173  33.809  28.385  1.00  0.00     0.134 A 
ATOM     82  C   UNL A   1      44.055  34.189  26.027  1.00  0.00     0.134 A 
ATOM     83  F   UNL A   1      44.682  33.179  29.455  1.00  0.00    -0.206 F 
ATOM     84  C   UNL A   1      43.141  34.726  28.593  1.00  0.00     0.040 A 
ATOM     85  C   UNL A   1      43.044  35.131  26.221  1.00  0.00     0.040 A 
ATOM     86  F   UNL A   1      44.466  33.955  24.771  1.00  0.00    -0.206 F 
ATOM     87  C   UNL A   1      42.576  35.394  27.508  1.00  0.00     0.006 A 
ENDBRANCH  59  80
BRANCH  71  88
ATOM     88  C   UNL A   1      51.556  33.940  26.392  1.00  0.00     0.057 A 
ATOM     89  C   UNL A   1      51.926  34.568  25.195  1.00  0.00     0.134 A 
ATOM     90  C   UNL A   1      52.072  34.468  27.582  1.00  0.00     0.134 A 
ATOM     91  F   UNL A   1      51.477  34.105  24.018  1.00  0.00    -0.206 F 
ATOM     92  C   UNL A   1      52.796  35.659  25.183  1.00  0.00     0.040 A 
ATOM     93  C   UNL A   1      52.917  35.578  27.586  1.00  0.00     0.040 A 
ATOM     94  F   UNL A   1      51.750  33.921  28.765  1.00  0.00    -0.206 F 
ATOM     95  C   UNL A   1      53.288  36.172  26.381  1.00  0.00     0.006 A 
ENDBRANCH  71  88
ENDBRANCH  45  46
ENDBRANCH  37  40
ENDBRANCH  35  36
ENDBRANCH  34  35
ENDBRANCH  33  34
ENDBRANCH  32  33
ENDBRANCH  31  32
ENDBRANCH   1  31
TORSDOF 20
ENDMDL
