MODEL 1
REMARK VINA RESULT:     -11.4      0.000      0.000
REMARK SMILES O=C(NCCCCCCNC(=O)c1ccccc1NC(=O)c1ccc(N2C(=O)[C@H]3CC=CC[C@H]3C2=O)cc1)c1ccc(-c2c3nc(c(-c4c(F)cccc4F)c4ccc([nH]4)c(-c4c(F)cccc4F)c4nc(c(-c5c(F)cccc5F)c5ccc2[nH]5)C=C4)C=C3)cc1
REMARK SMILES IDX 7 1 6 2 5 3 4 4 3 5 1 6 2 7 39 9 40 10 92 11 41 12 91 13
REMARK SMILES IDX 42 14 43 15 44 16 85 17 45 18 90 19 84 20 86 21 46 22 89 23
REMARK SMILES IDX 83 24 82 25 47 27 73 28 56 29 72 30 57 31 60 32 71 33 87 34
REMARK SMILES IDX 58 35 59 36 70 38 88 39 61 40 48 41 49 42 54 43 50 44 51 45
REMARK SMILES IDX 53 46 55 47 52 48 74 49 75 50 80 51 76 52 77 53 79 54 81 55
REMARK SMILES IDX 78 56 62 57 63 58 68 59 64 60 65 61 67 62 69 63 66 64 8 65
REMARK SMILES IDX 9 66 10 67 11 68 12 70 13 71 14 72 18 73 15 74 17 75 16 76
REMARK SMILES IDX 19 77 20 78 21 80 22 81 23 82 38 83 24 84 37 85 25 86 26 87
REMARK SMILES IDX 27 88 35 89 28 90 29 91 34 92 36 93 30 94 33 95 31 96 32 97
REMARK H PARENT 3 8 86 26 60 37 10 69 19 79
REMARK Flexibility Score: inf
ROOT
ATOM      1  C   UNL A   1      42.138  34.720  31.189  1.00  0.00     0.002 C 
ENDROOT
BRANCH   1   2
ATOM      2  C   UNL A   1      43.201  35.276  32.141  1.00  0.00     0.002 C 
BRANCH   2   3
ATOM      3  C   UNL A   1      43.699  36.686  31.824  1.00  0.00     0.021 C 
BRANCH   3   4
ATOM      4  C   UNL A   1      43.806  37.008  30.340  1.00  0.00     0.116 C 
BRANCH   4   5
ATOM      5  N   UNL A   1      45.171  37.274  29.919  1.00  0.00    -0.352 N 
ATOM      6  O   UNL A   1      47.275  36.759  29.279  1.00  0.00    -0.269 OA
ATOM      7  C   UNL A   1      46.117  36.393  29.458  1.00  0.00     0.251 C 
ATOM      8  H   UNL A   1      45.456  38.215  29.972  1.00  0.00     0.163 HD
BRANCH   7   9
ATOM      9  C   UNL A   1      45.739  34.989  29.196  1.00  0.00     0.039 A 
ATOM     10  C   UNL A   1      45.961  34.002  30.160  1.00  0.00     0.014 A 
ATOM     11  C   UNL A   1      45.151  34.659  27.973  1.00  0.00     0.014 A 
ATOM     12  C   UNL A   1      45.714  32.669  29.853  1.00  0.00     0.010 A 
ATOM     13  C   UNL A   1      44.822  33.329  27.699  1.00  0.00     0.010 A 
ATOM     14  C   UNL A   1      45.121  32.321  28.629  1.00  0.00    -0.014 A 
BRANCH  14  15
ATOM     15  C   UNL A   1      44.738  30.909  28.382  1.00  0.00     0.031 A 
ATOM     16  C   UNL A   1      43.367  30.400  28.720  1.00  0.00     0.074 A 
ATOM     17  C   UNL A   1      45.653  30.085  27.834  1.00  0.00     0.049 A 
ATOM     18  N   UNL A   1      42.880  29.193  28.578  1.00  0.00    -0.248 NA
ATOM     19  C   UNL A   1      42.419  31.365  29.297  1.00  0.00     0.031 C 
ATOM     20  C   UNL A   1      47.021  30.469  27.475  1.00  0.00     0.029 A 
ATOM     21  N   UNL A   1      45.574  28.765  27.477  1.00  0.00    -0.354 N 
ATOM     22  C   UNL A   1      41.579  29.246  29.062  1.00  0.00     0.074 A 
ATOM     23  C   UNL A   1      41.359  30.601  29.524  1.00  0.00     0.031 C 
ATOM     24  C   UNL A   1      47.639  29.419  26.915  1.00  0.00     0.029 A 
ATOM     25  C   UNL A   1      46.737  28.274  26.938  1.00  0.00     0.049 A 
ATOM     26  H   UNL A   1      44.761  28.221  27.595  1.00  0.00     0.167 HD
ATOM     27  C   UNL A   1      40.655  28.256  29.107  1.00  0.00     0.037 A 
ATOM     28  C   UNL A   1      47.056  27.032  26.530  1.00  0.00     0.037 A 
ATOM     29  C   UNL A   1      40.883  26.912  28.637  1.00  0.00     0.049 A 
ATOM     30  C   UNL A   1      46.026  25.947  26.630  1.00  0.00     0.074 A 
ATOM     31  C   UNL A   1      39.997  25.848  28.605  1.00  0.00     0.029 A 
ATOM     32  N   UNL A   1      42.085  26.445  28.126  1.00  0.00    -0.354 N 
ATOM     33  N   UNL A   1      44.788  26.022  27.053  1.00  0.00    -0.248 NA
ATOM     34  C   UNL A   1      46.438  24.604  26.203  1.00  0.00     0.031 C 
ATOM     35  C   UNL A   1      40.677  24.725  28.122  1.00  0.00     0.029 A 
ATOM     36  C   UNL A   1      41.972  25.102  27.802  1.00  0.00     0.049 A 
ATOM     37  H   UNL A   1      42.898  26.987  28.009  1.00  0.00     0.167 HD
ATOM     38  C   UNL A   1      44.265  24.743  26.928  1.00  0.00     0.074 A 
ATOM     39  C   UNL A   1      45.317  23.916  26.369  1.00  0.00     0.031 C 
ATOM     40  C   UNL A   1      43.028  24.293  27.248  1.00  0.00     0.037 A 
BRANCH  27  41
ATOM     41  C   UNL A   1      39.315  28.578  29.704  1.00  0.00     0.057 A 
ATOM     42  C   UNL A   1      39.058  28.435  31.073  1.00  0.00     0.134 A 
ATOM     43  C   UNL A   1      38.283  29.090  28.905  1.00  0.00     0.134 A 
ATOM     44  F   UNL A   1      39.998  27.945  31.894  1.00  0.00    -0.206 F 
ATOM     45  C   UNL A   1      37.818  28.770  31.623  1.00  0.00     0.040 A 
ATOM     46  C   UNL A   1      37.048  29.452  29.446  1.00  0.00     0.040 A 
ATOM     47  F   UNL A   1      38.464  29.261  27.586  1.00  0.00    -0.206 F 
ATOM     48  C   UNL A   1      36.811  29.287  30.809  1.00  0.00     0.006 A 
ENDBRANCH  27  41
BRANCH  28  49
ATOM     49  C   UNL A   1      48.416  26.756  26.006  1.00  0.00     0.057 A 
ATOM     50  C   UNL A   1      48.737  26.992  24.665  1.00  0.00     0.134 A 
ATOM     51  C   UNL A   1      49.429  26.262  26.836  1.00  0.00     0.134 A 
ATOM     52  F   UNL A   1      47.805  27.451  23.818  1.00  0.00    -0.206 F 
ATOM     53  C   UNL A   1      50.015  26.735  24.165  1.00  0.00     0.040 A 
ATOM     54  C   UNL A   1      50.718  26.027  26.357  1.00  0.00     0.040 A 
ATOM     55  F   UNL A   1      49.187  26.023  28.134  1.00  0.00    -0.206 F 
ATOM     56  C   UNL A   1      51.011  26.257  25.015  1.00  0.00     0.006 A 
ENDBRANCH  28  49
BRANCH  40  57
ATOM     57  C   UNL A   1      42.739  22.846  26.976  1.00  0.00     0.057 A 
ATOM     58  C   UNL A   1      42.602  21.912  28.011  1.00  0.00     0.134 A 
ATOM     59  C   UNL A   1      42.568  22.388  25.664  1.00  0.00     0.134 A 
ATOM     60  F   UNL A   1      42.771  22.285  29.289  1.00  0.00    -0.206 F 
ATOM     61  C   UNL A   1      42.326  20.570  27.749  1.00  0.00     0.040 A 
ATOM     62  C   UNL A   1      42.265  21.054  25.390  1.00  0.00     0.040 A 
ATOM     63  F   UNL A   1      42.681  23.232  24.627  1.00  0.00    -0.206 F 
ATOM     64  C   UNL A   1      42.149  20.139  26.435  1.00  0.00     0.006 A 
ENDBRANCH  40  57
ENDBRANCH  14  15
ENDBRANCH   7   9
ENDBRANCH   4   5
ENDBRANCH   3   4
ENDBRANCH   2   3
ENDBRANCH   1   2
BRANCH   1  65
ATOM     65  C   UNL A   1      41.026  33.885  31.838  1.00  0.00     0.021 C 
BRANCH  65  66
ATOM     66  C   UNL A   1      39.604  34.329  31.509  1.00  0.00     0.116 C 
BRANCH  66  67
ATOM     67  N   UNL A   1      39.167  33.831  30.216  1.00  0.00    -0.352 N 
ATOM     68  C   UNL A   1      38.005  33.196  29.871  1.00  0.00     0.253 C 
ATOM     69  H   UNL A   1      39.803  33.970  29.478  1.00  0.00     0.163 HD
ATOM     70  O   UNL A   1      37.902  32.676  28.764  1.00  0.00    -0.269 OA
BRANCH  68  71
ATOM     71  C   UNL A   1      36.861  33.134  30.806  1.00  0.00     0.063 A 
ATOM     72  C   UNL A   1      37.107  32.483  32.027  1.00  0.00     0.016 A 
ATOM     73  C   UNL A   1      35.572  33.609  30.481  1.00  0.00     0.054 A 
ATOM     74  C   UNL A   1      36.074  32.289  32.936  1.00  0.00     0.001 A 
ATOM     75  C   UNL A   1      34.538  33.326  31.379  1.00  0.00     0.027 A 
ATOM     76  C   UNL A   1      34.787  32.693  32.603  1.00  0.00     0.002 A 
BRANCH  73  77
ATOM     77  N   UNL A   1      35.380  34.322  29.271  1.00  0.00    -0.321 N 
ATOM     78  C   UNL A   1      34.774  34.020  28.073  1.00  0.00     0.255 C 
ATOM     79  H   UNL A   1      35.764  35.228  29.293  1.00  0.00     0.170 HD
ATOM     80  O   UNL A   1      34.745  34.857  27.173  1.00  0.00    -0.269 OA
BRANCH  78  81
ATOM     81  C   UNL A   1      34.130  32.722  27.832  1.00  0.00     0.040 A 
ATOM     82  C   UNL A   1      32.760  32.719  27.588  1.00  0.00     0.016 A 
ATOM     83  C   UNL A   1      34.860  31.533  27.781  1.00  0.00     0.016 A 
ATOM     84  C   UNL A   1      32.144  31.550  27.143  1.00  0.00     0.027 A 
ATOM     85  C   UNL A   1      34.230  30.361  27.345  1.00  0.00     0.027 A 
ATOM     86  C   UNL A   1      32.878  30.367  26.958  1.00  0.00     0.052 A 
BRANCH  86  87
ATOM     87  N   UNL A   1      32.299  29.242  26.304  1.00  0.00    -0.250 N 
ATOM     88  C   UNL A   1      32.422  28.995  24.955  1.00  0.00     0.238 C 
ATOM     89  C   UNL A   1      31.624  28.234  26.946  1.00  0.00     0.238 C 
ATOM     90  O   UNL A   1      32.958  29.691  24.100  1.00  0.00    -0.274 OA
ATOM     91  C   UNL A   1      31.821  27.649  24.629  1.00  0.00     0.096 C 
ATOM     92  C   UNL A   1      31.340  27.113  25.977  1.00  0.00     0.096 C 
ATOM     93  O   UNL A   1      31.249  28.199  28.113  1.00  0.00    -0.274 OA
ATOM     94  C   UNL A   1      32.853  26.783  23.898  1.00  0.00     0.041 C 
ATOM     95  C   UNL A   1      32.016  25.834  26.480  1.00  0.00     0.041 C 
ATOM     96  C   UNL A   1      33.832  26.140  24.835  1.00  0.00    -0.030 C 
ATOM     97  C   UNL A   1      33.442  25.704  26.039  1.00  0.00    -0.030 C 
ENDBRANCH  86  87
ENDBRANCH  78  81
ENDBRANCH  73  77
ENDBRANCH  68  71
ENDBRANCH  66  67
ENDBRANCH  65  66
ENDBRANCH   1  65
TORSDOF 16
ENDMDL
MODEL 2
REMARK VINA RESULT:     -11.4      0.346      5.796
REMARK SMILES O=C(NCCCCCCNC(=O)c1ccccc1NC(=O)c1ccc(N2C(=O)[C@H]3CC=CC[C@H]3C2=O)cc1)c1ccc(-c2c3nc(c(-c4c(F)cccc4F)c4ccc([nH]4)c(-c4c(F)cccc4F)c4nc(c(-c5c(F)cccc5F)c5ccc2[nH]5)C=C4)C=C3)cc1
REMARK SMILES IDX 7 1 6 2 5 3 4 4 3 5 1 6 2 7 39 9 40 10 92 11 41 12 91 13
REMARK SMILES IDX 42 14 43 15 44 16 85 17 45 18 90 19 84 20 86 21 46 22 89 23
REMARK SMILES IDX 83 24 82 25 47 27 73 28 56 29 72 30 57 31 60 32 71 33 87 34
REMARK SMILES IDX 58 35 59 36 70 38 88 39 61 40 48 41 49 42 54 43 50 44 51 45
REMARK SMILES IDX 53 46 55 47 52 48 74 49 75 50 80 51 76 52 77 53 79 54 81 55
REMARK SMILES IDX 78 56 62 57 63 58 68 59 64 60 65 61 67 62 69 63 66 64 8 65
REMARK SMILES IDX 9 66 10 67 11 68 12 70 13 71 14 72 18 73 15 74 17 75 16 76
REMARK SMILES IDX 19 77 20 78 21 80 22 81 23 82 38 83 24 84 37 85 25 86 26 87
REMARK SMILES IDX 27 88 35 89 28 90 29 91 34 92 36 93 30 94 33 95 31 96 32 97
REMARK H PARENT 3 8 86 26 60 37 10 69 19 79
REMARK Flexibility Score: inf
ROOT
ATOM      1  C   UNL A   1      42.231  34.792  31.421  1.00  0.00     0.002 C 
ENDROOT
BRANCH   1   2
ATOM      2  C   UNL A   1      43.155  35.405  32.478  1.00  0.00     0.002 C 
BRANCH   2   3
ATOM      3  C   UNL A   1      43.681  36.805  32.163  1.00  0.00     0.021 C 
BRANCH   3   4
ATOM      4  C   UNL A   1      43.835  37.113  30.681  1.00  0.00     0.116 C 
BRANCH   4   5
ATOM      5  N   UNL A   1      45.209  37.403  30.305  1.00  0.00    -0.352 N 
ATOM      6  O   UNL A   1      47.339  36.924  29.727  1.00  0.00    -0.269 OA
ATOM      7  C   UNL A   1      46.181  36.539  29.866  1.00  0.00     0.251 C 
ATOM      8  H   UNL A   1      45.478  38.347  30.376  1.00  0.00     0.163 HD
BRANCH   7   9
ATOM      9  C   UNL A   1      45.831  35.133  29.580  1.00  0.00     0.039 A 
ATOM     10  C   UNL A   1      46.014  34.143  30.550  1.00  0.00     0.014 A 
ATOM     11  C   UNL A   1      45.311  34.802  28.327  1.00  0.00     0.014 A 
ATOM     12  C   UNL A   1      45.798  32.810  30.226  1.00  0.00     0.010 A 
ATOM     13  C   UNL A   1      45.011  33.469  28.031  1.00  0.00     0.010 A 
ATOM     14  C   UNL A   1      45.272  32.460  28.972  1.00  0.00    -0.014 A 
BRANCH  14  15
ATOM     15  C   UNL A   1      44.917  31.046  28.700  1.00  0.00     0.031 A 
ATOM     16  C   UNL A   1      45.923  30.082  28.142  1.00  0.00     0.074 A 
ATOM     17  C   UNL A   1      43.663  30.637  28.974  1.00  0.00     0.049 A 
ATOM     18  N   UNL A   1      45.769  28.817  27.836  1.00  0.00    -0.248 NA
ATOM     19  C   UNL A   1      47.276  30.599  27.887  1.00  0.00     0.031 C 
ATOM     20  C   UNL A   1      42.598  31.491  29.508  1.00  0.00     0.029 A 
ATOM     21  N   UNL A   1      43.071  29.407  28.851  1.00  0.00    -0.354 N 
ATOM     22  C   UNL A   1      46.994  28.392  27.339  1.00  0.00     0.074 A 
ATOM     23  C   UNL A   1      47.876  29.540  27.361  1.00  0.00     0.031 C 
ATOM     24  C   UNL A   1      41.497  30.751  29.702  1.00  0.00     0.029 A 
ATOM     25  C   UNL A   1      41.756  29.392  29.243  1.00  0.00     0.049 A 
ATOM     26  H   UNL A   1      43.544  28.611  28.514  1.00  0.00     0.167 HD
ATOM     27  C   UNL A   1      47.347  27.155  26.912  1.00  0.00     0.037 A 
ATOM     28  C   UNL A   1      40.846  28.401  29.214  1.00  0.00     0.037 A 
ATOM     29  C   UNL A   1      46.462  26.017  26.901  1.00  0.00     0.049 A 
ATOM     30  C   UNL A   1      41.255  27.054  28.698  1.00  0.00     0.074 A 
ATOM     31  C   UNL A   1      46.737  24.714  26.523  1.00  0.00     0.029 A 
ATOM     32  N   UNL A   1      45.126  26.049  27.278  1.00  0.00    -0.354 N 
ATOM     33  N   UNL A   1      42.427  26.657  28.268  1.00  0.00    -0.248 NA
ATOM     34  C   UNL A   1      40.214  26.019  28.656  1.00  0.00     0.031 C 
ATOM     35  C   UNL A   1      45.557  23.970  26.623  1.00  0.00     0.029 A 
ATOM     36  C   UNL A   1      44.558  24.796  27.115  1.00  0.00     0.049 A 
ATOM     37  H   UNL A   1      44.653  26.844  27.613  1.00  0.00     0.167 HD
ATOM     38  C   UNL A   1      42.272  25.322  27.920  1.00  0.00     0.074 A 
ATOM     39  C   UNL A   1      40.896  24.974  28.211  1.00  0.00     0.031 C 
ATOM     40  C   UNL A   1      43.186  24.465  27.407  1.00  0.00     0.037 A 
BRANCH  27  41
ATOM     41  C   UNL A   1      48.746  26.967  26.399  1.00  0.00     0.057 A 
ATOM     42  C   UNL A   1      49.804  26.613  27.246  1.00  0.00     0.134 A 
ATOM     43  C   UNL A   1      49.028  27.089  25.032  1.00  0.00     0.134 A 
ATOM     44  F   UNL A   1      49.607  26.487  28.566  1.00  0.00    -0.206 F 
ATOM     45  C   UNL A   1      51.096  26.408  26.754  1.00  0.00     0.040 A 
ATOM     46  C   UNL A   1      50.309  26.861  24.525  1.00  0.00     0.040 A 
ATOM     47  F   UNL A   1      48.059  27.416  24.163  1.00  0.00    -0.206 F 
ATOM     48  C   UNL A   1      51.349  26.525  25.389  1.00  0.00     0.006 A 
ENDBRANCH  27  41
BRANCH  28  49
ATOM     49  C   UNL A   1      39.460  28.660  29.676  1.00  0.00     0.057 A 
ATOM     50  C   UNL A   1      39.090  28.451  31.009  1.00  0.00     0.134 A 
ATOM     51  C   UNL A   1      38.478  29.135  28.799  1.00  0.00     0.134 A 
ATOM     52  F   UNL A   1      39.983  27.982  31.892  1.00  0.00    -0.206 F 
ATOM     53  C   UNL A   1      37.788  28.693  31.450  1.00  0.00     0.040 A 
ATOM     54  C   UNL A   1      37.181  29.409  29.232  1.00  0.00     0.040 A 
ATOM     55  F   UNL A   1      38.773  29.365  27.510  1.00  0.00    -0.206 F 
ATOM     56  C   UNL A   1      36.831  29.180  30.561  1.00  0.00     0.006 A 
ENDBRANCH  28  49
BRANCH  40  57
ATOM     57  C   UNL A   1      42.731  23.058  27.151  1.00  0.00     0.057 A 
ATOM     58  C   UNL A   1      42.510  22.151  28.195  1.00  0.00     0.134 A 
ATOM     59  C   UNL A   1      42.483  22.616  25.846  1.00  0.00     0.134 A 
ATOM     60  F   UNL A   1      42.745  22.508  29.467  1.00  0.00    -0.206 F 
ATOM     61  C   UNL A   1      42.080  20.847  27.948  1.00  0.00     0.040 A 
ATOM     62  C   UNL A   1      42.026  21.323  25.587  1.00  0.00     0.040 A 
ATOM     63  F   UNL A   1      42.668  23.437  24.800  1.00  0.00    -0.206 F 
ATOM     64  C   UNL A   1      41.829  20.432  26.641  1.00  0.00     0.006 A 
ENDBRANCH  40  57
ENDBRANCH  14  15
ENDBRANCH   7   9
ENDBRANCH   4   5
ENDBRANCH   3   4
ENDBRANCH   2   3
ENDBRANCH   1   2
BRANCH   1  65
ATOM     65  C   UNL A   1      41.078  33.933  31.954  1.00  0.00     0.021 C 
BRANCH  65  66
ATOM     66  C   UNL A   1      39.680  34.417  31.579  1.00  0.00     0.116 C 
BRANCH  66  67
ATOM     67  N   UNL A   1      39.287  33.964  30.256  1.00  0.00    -0.352 N 
ATOM     68  C   UNL A   1      38.175  33.270  29.864  1.00  0.00     0.253 C 
ATOM     69  H   UNL A   1      39.916  34.190  29.533  1.00  0.00     0.163 HD
ATOM     70  O   UNL A   1      38.117  32.809  28.727  1.00  0.00    -0.269 OA
BRANCH  68  71
ATOM     71  C   UNL A   1      37.033  33.074  30.782  1.00  0.00     0.063 A 
ATOM     72  C   UNL A   1      37.322  32.394  31.977  1.00  0.00     0.016 A 
ATOM     73  C   UNL A   1      35.711  33.453  30.461  1.00  0.00     0.054 A 
ATOM     74  C   UNL A   1      36.302  32.077  32.866  1.00  0.00     0.001 A 
ATOM     75  C   UNL A   1      34.698  33.048  31.335  1.00  0.00     0.027 A 
ATOM     76  C   UNL A   1      34.989  32.386  32.535  1.00  0.00     0.002 A 
BRANCH  73  77
ATOM     77  N   UNL A   1      35.471  34.199  29.280  1.00  0.00    -0.321 N 
ATOM     78  C   UNL A   1      34.832  33.923  28.093  1.00  0.00     0.255 C 
ATOM     79  H   UNL A   1      35.841  35.110  29.318  1.00  0.00     0.170 HD
ATOM     80  O   UNL A   1      34.762  34.786  27.220  1.00  0.00    -0.269 OA
BRANCH  78  81
ATOM     81  C   UNL A   1      34.201  32.623  27.834  1.00  0.00     0.040 A 
ATOM     82  C   UNL A   1      32.826  32.606  27.617  1.00  0.00     0.016 A 
ATOM     83  C   UNL A   1      34.946  31.445  27.739  1.00  0.00     0.016 A 
ATOM     84  C   UNL A   1      32.217  31.440  27.155  1.00  0.00     0.027 A 
ATOM     85  C   UNL A   1      34.323  30.276  27.287  1.00  0.00     0.027 A 
ATOM     86  C   UNL A   1      32.963  30.272  26.927  1.00  0.00     0.052 A 
BRANCH  86  87
ATOM     87  N   UNL A   1      32.386  29.155  26.257  1.00  0.00    -0.250 N 
ATOM     88  C   UNL A   1      32.554  28.899  24.915  1.00  0.00     0.238 C 
ATOM     89  C   UNL A   1      31.668  28.165  26.879  1.00  0.00     0.238 C 
ATOM     90  O   UNL A   1      33.134  29.580  24.077  1.00  0.00    -0.274 OA
ATOM     91  C   UNL A   1      31.938  27.564  24.573  1.00  0.00     0.096 C 
ATOM     92  C   UNL A   1      31.397  27.044  25.904  1.00  0.00     0.096 C 
ATOM     93  O   UNL A   1      31.250  28.143  28.031  1.00  0.00    -0.274 OA
ATOM     94  C   UNL A   1      32.979  26.674  23.885  1.00  0.00     0.041 C 
ATOM     95  C   UNL A   1      32.029  25.754  26.438  1.00  0.00     0.041 C 
ATOM     96  C   UNL A   1      33.909  26.016  24.860  1.00  0.00    -0.030 C 
ATOM     97  C   UNL A   1      33.468  25.594  26.050  1.00  0.00    -0.030 C 
ENDBRANCH  86  87
ENDBRANCH  78  81
ENDBRANCH  73  77
ENDBRANCH  68  71
ENDBRANCH  66  67
ENDBRANCH  65  66
ENDBRANCH   1  65
TORSDOF 16
ENDMDL
MODEL 3
REMARK VINA RESULT:     -11.4      4.035     10.296
REMARK SMILES O=C(NCCCCCCNC(=O)c1ccccc1NC(=O)c1ccc(N2C(=O)[C@H]3CC=CC[C@H]3C2=O)cc1)c1ccc(-c2c3nc(c(-c4c(F)cccc4F)c4ccc([nH]4)c(-c4c(F)cccc4F)c4nc(c(-c5c(F)cccc5F)c5ccc2[nH]5)C=C4)C=C3)cc1
REMARK SMILES IDX 7 1 6 2 5 3 4 4 3 5 1 6 2 7 39 9 40 10 92 11 41 12 91 13
REMARK SMILES IDX 42 14 43 15 44 16 85 17 45 18 90 19 84 20 86 21 46 22 89 23
REMARK SMILES IDX 83 24 82 25 47 27 73 28 56 29 72 30 57 31 60 32 71 33 87 34
REMARK SMILES IDX 58 35 59 36 70 38 88 39 61 40 48 41 49 42 54 43 50 44 51 45
REMARK SMILES IDX 53 46 55 47 52 48 74 49 75 50 80 51 76 52 77 53 79 54 81 55
REMARK SMILES IDX 78 56 62 57 63 58 68 59 64 60 65 61 67 62 69 63 66 64 8 65
REMARK SMILES IDX 9 66 10 67 11 68 12 70 13 71 14 72 18 73 15 74 17 75 16 76
REMARK SMILES IDX 19 77 20 78 21 80 22 81 23 82 38 83 24 84 37 85 25 86 26 87
REMARK SMILES IDX 27 88 35 89 28 90 29 91 34 92 36 93 30 94 33 95 31 96 32 97
REMARK H PARENT 3 8 86 26 60 37 10 69 19 79
REMARK Flexibility Score: inf
ROOT
ATOM      1  C   UNL A   1      46.020  22.822  24.296  1.00  0.00     0.002 C 
ENDROOT
BRANCH   1   2
ATOM      2  C   UNL A   1      46.471  24.167  24.873  1.00  0.00     0.002 C 
BRANCH   2   3
ATOM      3  C   UNL A   1      46.679  24.198  26.386  1.00  0.00     0.021 C 
BRANCH   3   4
ATOM      4  C   UNL A   1      47.911  24.964  26.848  1.00  0.00     0.116 C 
BRANCH   4   5
ATOM      5  N   UNL A   1      48.347  25.962  25.886  1.00  0.00    -0.352 N 
ATOM      6  O   UNL A   1      48.321  27.950  24.814  1.00  0.00    -0.269 OA
ATOM      7  C   UNL A   1      47.965  27.276  25.776  1.00  0.00     0.251 C 
ATOM      8  H   UNL A   1      49.006  25.654  25.223  1.00  0.00     0.163 HD
BRANCH   7   9
ATOM      9  C   UNL A   1      47.101  27.873  26.816  1.00  0.00     0.039 A 
ATOM     10  C   UNL A   1      47.660  28.472  27.947  1.00  0.00     0.014 A 
ATOM     11  C   UNL A   1      45.714  27.835  26.652  1.00  0.00     0.014 A 
ATOM     12  C   UNL A   1      46.836  28.918  28.973  1.00  0.00     0.010 A 
ATOM     13  C   UNL A   1      44.885  28.362  27.646  1.00  0.00     0.010 A 
ATOM     14  C   UNL A   1      45.439  28.890  28.823  1.00  0.00    -0.014 A 
BRANCH  14  15
ATOM     15  C   UNL A   1      44.583  29.499  29.870  1.00  0.00     0.031 A 
ATOM     16  C   UNL A   1      44.037  30.889  29.721  1.00  0.00     0.074 A 
ATOM     17  C   UNL A   1      44.296  28.770  30.966  1.00  0.00     0.049 A 
ATOM     18  N   UNL A   1      43.285  31.570  30.550  1.00  0.00    -0.248 NA
ATOM     19  C   UNL A   1      44.380  31.614  28.488  1.00  0.00     0.031 C 
ATOM     20  C   UNL A   1      44.782  27.411  31.222  1.00  0.00     0.029 A 
ATOM     21  N   UNL A   1      43.525  29.058  32.061  1.00  0.00    -0.354 N 
ATOM     22  C   UNL A   1      43.079  32.806  29.950  1.00  0.00     0.074 A 
ATOM     23  C   UNL A   1      43.805  32.791  28.698  1.00  0.00     0.031 C 
ATOM     24  C   UNL A   1      44.268  26.971  32.379  1.00  0.00     0.029 A 
ATOM     25  C   UNL A   1      43.475  28.037  32.978  1.00  0.00     0.049 A 
ATOM     26  H   UNL A   1      43.053  29.915  32.179  1.00  0.00     0.167 HD
ATOM     27  C   UNL A   1      42.345  33.852  30.404  1.00  0.00     0.037 A 
ATOM     28  C   UNL A   1      42.878  27.973  34.182  1.00  0.00     0.037 A 
ATOM     29  C   UNL A   1      41.620  33.853  31.650  1.00  0.00     0.049 A 
ATOM     30  C   UNL A   1      42.106  29.160  34.676  1.00  0.00     0.074 A 
ATOM     31  C   UNL A   1      40.817  34.849  32.179  1.00  0.00     0.029 A 
ATOM     32  N   UNL A   1      41.618  32.811  32.567  1.00  0.00    -0.354 N 
ATOM     33  N   UNL A   1      41.887  30.307  34.080  1.00  0.00    -0.248 NA
ATOM     34  C   UNL A   1      41.504  29.048  36.011  1.00  0.00     0.031 C 
ATOM     35  C   UNL A   1      40.370  34.431  33.437  1.00  0.00     0.029 A 
ATOM     36  C   UNL A   1      40.851  33.151  33.670  1.00  0.00     0.049 A 
ATOM     37  H   UNL A   1      42.091  31.956  32.451  1.00  0.00     0.167 HD
ATOM     38  C   UNL A   1      41.108  31.048  34.958  1.00  0.00     0.074 A 
ATOM     39  C   UNL A   1      40.876  30.210  36.117  1.00  0.00     0.031 C 
ATOM     40  C   UNL A   1      40.630  32.307  34.817  1.00  0.00     0.037 A 
BRANCH  27  41
ATOM     41  C   UNL A   1      42.302  35.093  29.560  1.00  0.00     0.057 A 
ATOM     42  C   UNL A   1      43.376  35.989  29.504  1.00  0.00     0.134 A 
ATOM     43  C   UNL A   1      41.191  35.367  28.751  1.00  0.00     0.134 A 
ATOM     44  F   UNL A   1      44.467  35.792  30.258  1.00  0.00    -0.206 F 
ATOM     45  C   UNL A   1      43.339  37.125  28.690  1.00  0.00     0.040 A 
ATOM     46  C   UNL A   1      41.152  36.484  27.914  1.00  0.00     0.040 A 
ATOM     47  F   UNL A   1      40.130  34.545  28.749  1.00  0.00    -0.206 F 
ATOM     48  C   UNL A   1      42.227  37.370  27.886  1.00  0.00     0.006 A 
ENDBRANCH  27  41
BRANCH  28  49
ATOM     49  C   UNL A   1      43.004  26.742  35.001  1.00  0.00     0.057 A 
ATOM     50  C   UNL A   1      41.945  25.836  35.115  1.00  0.00     0.134 A 
ATOM     51  C   UNL A   1      44.191  26.439  35.678  1.00  0.00     0.134 A 
ATOM     52  F   UNL A   1      40.778  26.080  34.501  1.00  0.00    -0.206 F 
ATOM     53  C   UNL A   1      42.057  24.676  35.883  1.00  0.00     0.040 A 
ATOM     54  C   UNL A   1      44.328  25.269  36.427  1.00  0.00     0.040 A 
ATOM     55  F   UNL A   1      45.246  27.263  35.602  1.00  0.00    -0.206 F 
ATOM     56  C   UNL A   1      43.254  24.387  36.537  1.00  0.00     0.006 A 
ENDBRANCH  28  49
BRANCH  40  57
ATOM     57  C   UNL A   1      39.787  32.844  35.935  1.00  0.00     0.057 A 
ATOM     58  C   UNL A   1      38.405  32.620  35.991  1.00  0.00     0.134 A 
ATOM     59  C   UNL A   1      40.368  33.569  36.982  1.00  0.00     0.134 A 
ATOM     60  F   UNL A   1      37.785  31.947  35.011  1.00  0.00    -0.206 F 
ATOM     61  C   UNL A   1      37.629  33.117  37.039  1.00  0.00     0.040 A 
ATOM     62  C   UNL A   1      39.607  34.048  38.049  1.00  0.00     0.040 A 
ATOM     63  F   UNL A   1      41.688  33.814  36.992  1.00  0.00    -0.206 F 
ATOM     64  C   UNL A   1      38.232  33.828  38.076  1.00  0.00     0.006 A 
ENDBRANCH  40  57
ENDBRANCH  14  15
ENDBRANCH   7   9
ENDBRANCH   4   5
ENDBRANCH   3   4
ENDBRANCH   2   3
ENDBRANCH   1   2
BRANCH   1  65
ATOM     65  C   UNL A   1      44.511  22.659  24.070  1.00  0.00     0.021 C 
BRANCH  65  66
ATOM     66  C   UNL A   1      43.799  21.751  25.069  1.00  0.00     0.116 C 
BRANCH  66  67
ATOM     67  N   UNL A   1      42.432  22.179  25.310  1.00  0.00    -0.352 N 
ATOM     68  C   UNL A   1      41.890  22.798  26.402  1.00  0.00     0.253 C 
ATOM     69  H   UNL A   1      41.802  21.995  24.576  1.00  0.00     0.163 HD
ATOM     70  O   UNL A   1      40.670  22.905  26.497  1.00  0.00    -0.269 OA
BRANCH  68  71
ATOM     71  C   UNL A   1      42.748  23.355  27.470  1.00  0.00     0.063 A 
ATOM     72  C   UNL A   1      43.009  22.496  28.551  1.00  0.00     0.016 A 
ATOM     73  C   UNL A   1      43.210  24.689  27.472  1.00  0.00     0.054 A 
ATOM     74  C   UNL A   1      43.728  22.953  29.649  1.00  0.00     0.001 A 
ATOM     75  C   UNL A   1      43.857  25.142  28.625  1.00  0.00     0.027 A 
ATOM     76  C   UNL A   1      44.133  24.281  29.694  1.00  0.00     0.002 A 
BRANCH  73  77
ATOM     77  N   UNL A   1      42.986  25.502  26.333  1.00  0.00    -0.321 N 
ATOM     78  C   UNL A   1      42.131  26.545  26.060  1.00  0.00     0.255 C 
ATOM     79  H   UNL A   1      43.567  25.270  25.573  1.00  0.00     0.170 HD
ATOM     80  O   UNL A   1      42.160  27.089  24.958  1.00  0.00    -0.269 OA
BRANCH  78  81
ATOM     81  C   UNL A   1      41.184  27.056  27.060  1.00  0.00     0.040 A 
ATOM     82  C   UNL A   1      41.374  28.355  27.521  1.00  0.00     0.016 A 
ATOM     83  C   UNL A   1      40.090  26.304  27.494  1.00  0.00     0.016 A 
ATOM     84  C   UNL A   1      40.386  28.959  28.299  1.00  0.00     0.027 A 
ATOM     85  C   UNL A   1      39.110  26.915  28.285  1.00  0.00     0.027 A 
ATOM     86  C   UNL A   1      39.213  28.271  28.647  1.00  0.00     0.052 A 
BRANCH  86  87
ATOM     87  N   UNL A   1      38.118  28.952  29.253  1.00  0.00    -0.250 N 
ATOM     88  C   UNL A   1      37.801  28.851  30.589  1.00  0.00     0.238 C 
ATOM     89  C   UNL A   1      37.304  29.844  28.602  1.00  0.00     0.238 C 
ATOM     90  O   UNL A   1      38.323  28.145  31.443  1.00  0.00    -0.274 OA
ATOM     91  C   UNL A   1      36.687  29.815  30.919  1.00  0.00     0.096 C 
ATOM     92  C   UNL A   1      36.396  30.525  29.597  1.00  0.00     0.096 C 
ATOM     93  O   UNL A   1      37.247  30.078  27.400  1.00  0.00    -0.274 OA
ATOM     94  C   UNL A   1      37.113  30.721  32.080  1.00  0.00     0.041 C 
ATOM     95  C   UNL A   1      36.659  32.034  29.563  1.00  0.00     0.041 C 
ATOM     96  C   UNL A   1      37.987  31.855  31.636  1.00  0.00    -0.030 C 
ATOM     97  C   UNL A   1      37.779  32.462  30.461  1.00  0.00    -0.030 C 
ENDBRANCH  86  87
ENDBRANCH  78  81
ENDBRANCH  73  77
ENDBRANCH  68  71
ENDBRANCH  66  67
ENDBRANCH  65  66
ENDBRANCH   1  65
TORSDOF 16
ENDMDL
