MODEL 1
REMARK VINA RESULT:     -11.0      0.000      0.000
REMARK SMILES Cc1cc(Br)cc(C(=O)NCCCCCCNC(=O)c2ccc(-c3c4nc(c(-c5c(F)cccc5F)c5ccc([nH]5)c(-c5c(F)cccc5F)c5nc(c(-c6c(F)cccc6F)c6ccc3[nH]6)C=C5)C=C4)cc2)c1Br
REMARK SMILES IDX 14 1 13 2 12 3 11 4 10 5 8 6 9 7 7 9 1 10 2 11 3 12 74 13
REMARK SMILES IDX 4 14 75 15 5 16 6 17 15 18 16 19 17 20 18 21 19 23 20 24
REMARK SMILES IDX 21 25 73 26 22 27 72 28 23 29 24 30 25 31 66 32 26 33 71 34
REMARK SMILES IDX 65 35 67 36 27 37 70 38 64 39 63 40 28 42 54 43 37 44 53 45
REMARK SMILES IDX 38 46 41 47 52 48 68 49 39 50 40 51 51 53 69 54 42 55 29 56
REMARK SMILES IDX 30 57 35 58 31 59 32 60 34 61 36 62 33 63 55 64 56 65 61 66
REMARK SMILES IDX 57 67 58 68 60 69 62 70 59 71 43 72 44 73 49 74 45 75 46 76
REMARK SMILES IDX 48 77 50 78 47 79
REMARK H PARENT 10 8 17 22 67 41 41 52
REMARK Flexibility Score: inf
ROOT
ATOM      1  C   UNL A   1      32.148  30.427  25.895  1.00  0.00     0.002 C 
ENDROOT
BRANCH   1   2
ATOM      2  C   UNL A   1      33.277  29.532  26.414  1.00  0.00     0.002 C 
BRANCH   2   3
ATOM      3  C   UNL A   1      32.901  28.342  27.305  1.00  0.00     0.021 C 
BRANCH   3   4
ATOM      4  C   UNL A   1      31.415  28.075  27.525  1.00  0.00     0.116 C 
BRANCH   4   5
ATOM      5  N   UNL A   1      30.933  26.801  27.028  1.00  0.00    -0.352 N 
ATOM      6  C   UNL A   1      30.930  26.292  25.748  1.00  0.00     0.252 C 
ATOM      7  O   UNL A   1      30.557  25.132  25.573  1.00  0.00    -0.269 OA
ATOM      8  H   UNL A   1      30.547  26.207  27.712  1.00  0.00     0.163 HD
BRANCH   6   9
ATOM      9  C   UNL A   1      31.228  27.132  24.559  1.00  0.00     0.055 A 
ATOM     10  C   UNL A   1      34.025  28.472  22.313  1.00  0.00     0.045 C 
ATOM     11  C   UNL A   1      32.669  28.195  22.905  1.00  0.00    -0.035 A 
ATOM     12  C   UNL A   1      31.576  28.952  22.456  1.00  0.00     0.020 A 
ATOM     13  C   UNL A   1      32.457  27.198  23.883  1.00  0.00     0.033 A 
ATOM     14  C   UNL A   1      30.315  28.765  23.013  1.00  0.00     0.019 A 
ATOM     15  Br  UNL A   1      33.773  25.826  24.081  1.00  0.00    -0.050 Br
ATOM     16  Br  UNL A   1      28.834  29.710  22.317  1.00  0.00    -0.051 Br
ATOM     17  C   UNL A   1      30.145  27.894  24.084  1.00  0.00     0.030 A 
ENDBRANCH   6   9
ENDBRANCH   4   5
ENDBRANCH   3   4
ENDBRANCH   2   3
ENDBRANCH   1   2
BRANCH   1  18
ATOM     18  C   UNL A   1      31.754  31.633  26.749  1.00  0.00     0.021 C 
BRANCH  18  19
ATOM     19  C   UNL A   1      32.888  32.511  27.261  1.00  0.00     0.116 C 
BRANCH  19  20
ATOM     20  N   UNL A   1      32.485  33.862  27.617  1.00  0.00    -0.352 N 
ATOM     21  C   UNL A   1      33.049  34.728  28.528  1.00  0.00     0.251 C 
ATOM     22  H   UNL A   1      31.697  34.208  27.139  1.00  0.00     0.163 HD
ATOM     23  O   UNL A   1      32.526  35.818  28.748  1.00  0.00    -0.269 OA
BRANCH  21  24
ATOM     24  C   UNL A   1      34.259  34.330  29.289  1.00  0.00     0.039 A 
ATOM     25  C   UNL A   1      35.538  34.650  28.833  1.00  0.00     0.014 A 
ATOM     26  C   UNL A   1      34.109  33.587  30.466  1.00  0.00     0.014 A 
ATOM     27  C   UNL A   1      36.650  34.063  29.429  1.00  0.00     0.010 A 
ATOM     28  C   UNL A   1      35.236  33.072  31.118  1.00  0.00     0.010 A 
ATOM     29  C   UNL A   1      36.514  33.246  30.565  1.00  0.00    -0.014 A 
BRANCH  29  30
ATOM     30  C   UNL A   1      37.718  32.559  31.111  1.00  0.00     0.031 A 
ATOM     31  C   UNL A   1      38.214  32.860  32.503  1.00  0.00     0.074 A 
ATOM     32  C   UNL A   1      38.313  31.590  30.387  1.00  0.00     0.049 A 
ATOM     33  N   UNL A   1      39.176  32.280  33.182  1.00  0.00    -0.248 NA
ATOM     34  C   UNL A   1      37.552  33.956  33.227  1.00  0.00     0.031 C 
ATOM     35  C   UNL A   1      37.939  31.203  29.027  1.00  0.00     0.029 A 
ATOM     36  N   UNL A   1      39.332  30.729  30.710  1.00  0.00    -0.354 N 
ATOM     37  C   UNL A   1      39.240  32.947  34.400  1.00  0.00     0.074 A 
ATOM     38  C   UNL A   1      38.249  34.000  34.354  1.00  0.00     0.031 C 
ATOM     39  C   UNL A   1      38.670  30.141  28.657  1.00  0.00     0.029 A 
ATOM     40  C   UNL A   1      39.595  29.802  29.732  1.00  0.00     0.049 A 
ATOM     41  H   UNL A   1      39.826  30.772  31.561  1.00  0.00     0.167 HD
ATOM     42  C   UNL A   1      40.035  32.698  35.469  1.00  0.00     0.037 A 
ATOM     43  C   UNL A   1      40.478  28.787  29.705  1.00  0.00     0.037 A 
ATOM     44  C   UNL A   1      41.015  31.643  35.530  1.00  0.00     0.049 A 
ATOM     45  C   UNL A   1      41.360  28.543  30.896  1.00  0.00     0.074 A 
ATOM     46  C   UNL A   1      41.861  31.306  36.573  1.00  0.00     0.029 A 
ATOM     47  N   UNL A   1      41.280  30.754  34.500  1.00  0.00    -0.354 N 
ATOM     48  N   UNL A   1      41.386  29.166  32.049  1.00  0.00    -0.248 NA
ATOM     49  C   UNL A   1      42.332  27.447  30.780  1.00  0.00     0.031 C 
ATOM     50  C   UNL A   1      42.661  30.232  36.163  1.00  0.00     0.029 A 
ATOM     51  C   UNL A   1      42.283  29.875  34.879  1.00  0.00     0.049 A 
ATOM     52  H   UNL A   1      40.823  30.746  33.628  1.00  0.00     0.167 HD
ATOM     53  C   UNL A   1      42.364  28.527  32.801  1.00  0.00     0.074 A 
ATOM     54  C   UNL A   1      42.886  27.452  31.983  1.00  0.00     0.031 C 
ATOM     55  C   UNL A   1      42.794  28.808  34.056  1.00  0.00     0.037 A 
BRANCH  42  56
ATOM     56  C   UNL A   1      39.883  33.599  36.663  1.00  0.00     0.057 A 
ATOM     57  C   UNL A   1      38.993  33.275  37.695  1.00  0.00     0.134 A 
ATOM     58  C   UNL A   1      40.607  34.792  36.786  1.00  0.00     0.134 A 
ATOM     59  F   UNL A   1      38.262  32.151  37.637  1.00  0.00    -0.206 F 
ATOM     60  C   UNL A   1      38.833  34.103  38.808  1.00  0.00     0.040 A 
ATOM     61  C   UNL A   1      40.474  35.615  37.907  1.00  0.00     0.040 A 
ATOM     62  F   UNL A   1      41.487  35.153  35.840  1.00  0.00    -0.206 F 
ATOM     63  C   UNL A   1      39.582  35.272  38.921  1.00  0.00     0.006 A 
ENDBRANCH  42  56
BRANCH  43  64
ATOM     64  C   UNL A   1      40.567  27.909  28.511  1.00  0.00     0.057 A 
ATOM     65  C   UNL A   1      41.366  28.250  27.414  1.00  0.00     0.134 A 
ATOM     66  C   UNL A   1      39.872  26.695  28.452  1.00  0.00     0.134 A 
ATOM     67  F   UNL A   1      42.052  29.402  27.408  1.00  0.00    -0.206 F 
ATOM     68  C   UNL A   1      41.467  27.419  26.299  1.00  0.00     0.040 A 
ATOM     69  C   UNL A   1      39.986  25.841  27.355  1.00  0.00     0.040 A 
ATOM     70  F   UNL A   1      39.106  26.305  29.482  1.00  0.00    -0.206 F 
ATOM     71  C   UNL A   1      40.783  26.205  26.271  1.00  0.00     0.006 A 
ENDBRANCH  43  64
BRANCH  55  72
ATOM     72  C   UNL A   1      43.857  27.913  34.621  1.00  0.00     0.057 A 
ATOM     73  C   UNL A   1      45.210  28.257  34.513  1.00  0.00     0.134 A 
ATOM     74  C   UNL A   1      43.543  26.719  35.283  1.00  0.00     0.134 A 
ATOM     75  F   UNL A   1      45.579  29.383  33.885  1.00  0.00    -0.206 F 
ATOM     76  C   UNL A   1      46.213  27.451  35.056  1.00  0.00     0.040 A 
ATOM     77  C   UNL A   1      44.535  25.919  35.853  1.00  0.00     0.040 A 
ATOM     78  F   UNL A   1      42.265  26.340  35.434  1.00  0.00    -0.206 F 
ATOM     79  C   UNL A   1      45.875  26.284  35.738  1.00  0.00     0.006 A 
ENDBRANCH  55  72
ENDBRANCH  29  30
ENDBRANCH  21  24
ENDBRANCH  19  20
ENDBRANCH  18  19
ENDBRANCH   1  18
TORSDOF 13
ENDMDL
MODEL 2
REMARK VINA RESULT:     -11.0      1.941      3.249
REMARK SMILES Cc1cc(Br)cc(C(=O)NCCCCCCNC(=O)c2ccc(-c3c4nc(c(-c5c(F)cccc5F)c5ccc([nH]5)c(-c5c(F)cccc5F)c5nc(c(-c6c(F)cccc6F)c6ccc3[nH]6)C=C5)C=C4)cc2)c1Br
REMARK SMILES IDX 14 1 13 2 12 3 11 4 10 5 8 6 9 7 7 9 1 10 2 11 3 12 74 13
REMARK SMILES IDX 4 14 75 15 5 16 6 17 15 18 16 19 17 20 18 21 19 23 20 24
REMARK SMILES IDX 21 25 73 26 22 27 72 28 23 29 24 30 25 31 66 32 26 33 71 34
REMARK SMILES IDX 65 35 67 36 27 37 70 38 64 39 63 40 28 42 54 43 37 44 53 45
REMARK SMILES IDX 38 46 41 47 52 48 68 49 39 50 40 51 51 53 69 54 42 55 29 56
REMARK SMILES IDX 30 57 35 58 31 59 32 60 34 61 36 62 33 63 55 64 56 65 61 66
REMARK SMILES IDX 57 67 58 68 60 69 62 70 59 71 43 72 44 73 49 74 45 75 46 76
REMARK SMILES IDX 48 77 50 78 47 79
REMARK H PARENT 10 8 17 22 67 41 41 52
REMARK Flexibility Score: inf
ROOT
ATOM      1  C   UNL A   1      32.704  29.400  24.794  1.00  0.00     0.002 C 
ENDROOT
BRANCH   1   2
ATOM      2  C   UNL A   1      33.651  28.673  25.753  1.00  0.00     0.002 C 
BRANCH   2   3
ATOM      3  C   UNL A   1      33.105  27.469  26.530  1.00  0.00     0.021 C 
BRANCH   3   4
ATOM      4  C   UNL A   1      31.769  26.891  26.075  1.00  0.00     0.116 C 
BRANCH   4   5
ATOM      5  N   UNL A   1      31.342  25.692  26.770  1.00  0.00    -0.352 N 
ATOM      6  C   UNL A   1      31.804  24.398  26.672  1.00  0.00     0.252 C 
ATOM      7  O   UNL A   1      31.355  23.549  27.442  1.00  0.00    -0.269 OA
ATOM      8  H   UNL A   1      30.606  25.823  27.411  1.00  0.00     0.163 HD
BRANCH   6   9
ATOM      9  C   UNL A   1      32.720  23.962  25.586  1.00  0.00     0.055 A 
ATOM     10  C   UNL A   1      32.888  22.424  22.083  1.00  0.00     0.045 C 
ATOM     11  C   UNL A   1      33.280  23.021  23.408  1.00  0.00    -0.035 A 
ATOM     12  C   UNL A   1      34.631  22.982  23.785  1.00  0.00     0.020 A 
ATOM     13  C   UNL A   1      32.343  23.625  24.276  1.00  0.00     0.033 A 
ATOM     14  C   UNL A   1      35.030  23.475  25.023  1.00  0.00     0.019 A 
ATOM     15  Br  UNL A   1      30.662  24.176  23.554  1.00  0.00    -0.050 Br
ATOM     16  Br  UNL A   1      36.866  23.520  25.467  1.00  0.00    -0.051 Br
ATOM     17  C   UNL A   1      34.082  23.924  25.937  1.00  0.00     0.030 A 
ENDBRANCH   6   9
ENDBRANCH   4   5
ENDBRANCH   3   4
ENDBRANCH   2   3
ENDBRANCH   1   2
BRANCH   1  18
ATOM     18  C   UNL A   1      31.711  30.393  25.398  1.00  0.00     0.021 C 
BRANCH  18  19
ATOM     19  C   UNL A   1      31.925  30.776  26.857  1.00  0.00     0.116 C 
BRANCH  19  20
ATOM     20  N   UNL A   1      31.900  32.207  27.110  1.00  0.00    -0.352 N 
ATOM     21  C   UNL A   1      32.886  33.018  27.628  1.00  0.00     0.251 C 
ATOM     22  H   UNL A   1      31.059  32.662  26.877  1.00  0.00     0.163 HD
ATOM     23  O   UNL A   1      32.659  34.208  27.836  1.00  0.00    -0.269 OA
BRANCH  21  24
ATOM     24  C   UNL A   1      34.208  32.451  27.989  1.00  0.00     0.039 A 
ATOM     25  C   UNL A   1      34.345  31.110  28.350  1.00  0.00     0.014 A 
ATOM     26  C   UNL A   1      35.328  33.289  28.003  1.00  0.00     0.014 A 
ATOM     27  C   UNL A   1      35.538  30.665  28.913  1.00  0.00     0.010 A 
ATOM     28  C   UNL A   1      36.554  32.813  28.484  1.00  0.00     0.010 A 
ATOM     29  C   UNL A   1      36.652  31.517  29.010  1.00  0.00    -0.014 A 
BRANCH  29  30
ATOM     30  C   UNL A   1      37.875  31.031  29.707  1.00  0.00     0.031 A 
ATOM     31  C   UNL A   1      38.122  31.363  31.158  1.00  0.00     0.074 A 
ATOM     32  C   UNL A   1      38.723  30.206  29.061  1.00  0.00     0.049 A 
ATOM     33  N   UNL A   1      39.072  30.935  31.955  1.00  0.00    -0.248 NA
ATOM     34  C   UNL A   1      37.187  32.301  31.797  1.00  0.00     0.031 C 
ATOM     35  C   UNL A   1      38.606  29.807  27.658  1.00  0.00     0.029 A 
ATOM     36  N   UNL A   1      39.826  29.523  29.510  1.00  0.00    -0.354 N 
ATOM     37  C   UNL A   1      38.856  31.560  33.179  1.00  0.00     0.074 A 
ATOM     38  C   UNL A   1      37.709  32.426  33.009  1.00  0.00     0.031 C 
ATOM     39  C   UNL A   1      39.555  28.902  27.378  1.00  0.00     0.029 A 
ATOM     40  C   UNL A   1      40.375  28.691  28.567  1.00  0.00     0.049 A 
ATOM     41  H   UNL A   1      40.187  29.621  30.421  1.00  0.00     0.167 HD
ATOM     42  C   UNL A   1      39.534  31.415  34.343  1.00  0.00     0.037 A 
ATOM     43  C   UNL A   1      41.419  27.846  28.648  1.00  0.00     0.037 A 
ATOM     44  C   UNL A   1      40.668  30.544  34.525  1.00  0.00     0.049 A 
ATOM     45  C   UNL A   1      42.165  27.716  29.946  1.00  0.00     0.074 A 
ATOM     46  C   UNL A   1      41.414  30.321  35.670  1.00  0.00     0.029 A 
ATOM     47  N   UNL A   1      41.219  29.751  33.530  1.00  0.00    -0.354 N 
ATOM     48  N   UNL A   1      41.928  28.293  31.099  1.00  0.00    -0.248 NA
ATOM     49  C   UNL A   1      43.322  26.810  29.951  1.00  0.00     0.031 C 
ATOM     50  C   UNL A   1      42.438  29.418  35.360  1.00  0.00     0.029 A 
ATOM     51  C   UNL A   1      42.302  29.046  34.033  1.00  0.00     0.049 A 
ATOM     52  H   UNL A   1      40.891  29.695  32.604  1.00  0.00     0.167 HD
ATOM     53  C   UNL A   1      42.894  27.807  31.970  1.00  0.00     0.074 A 
ATOM     54  C   UNL A   1      43.702  26.869  31.219  1.00  0.00     0.031 C 
ATOM     55  C   UNL A   1      43.098  28.114  33.275  1.00  0.00     0.037 A 
BRANCH  42  56
ATOM     56  C   UNL A   1      39.068  32.232  35.515  1.00  0.00     0.057 A 
ATOM     57  C   UNL A   1      39.487  33.560  35.672  1.00  0.00     0.134 A 
ATOM     58  C   UNL A   1      38.217  31.704  36.494  1.00  0.00     0.134 A 
ATOM     59  F   UNL A   1      40.308  34.127  34.776  1.00  0.00    -0.206 F 
ATOM     60  C   UNL A   1      39.070  34.333  36.759  1.00  0.00     0.040 A 
ATOM     61  C   UNL A   1      37.774  32.475  37.571  1.00  0.00     0.040 A 
ATOM     62  F   UNL A   1      37.769  30.443  36.396  1.00  0.00    -0.206 F 
ATOM     63  C   UNL A   1      38.204  33.793  37.707  1.00  0.00     0.006 A 
ENDBRANCH  42  56
BRANCH  43  64
ATOM     64  C   UNL A   1      41.819  27.039  27.468  1.00  0.00     0.057 A 
ATOM     65  C   UNL A   1      41.343  25.736  27.281  1.00  0.00     0.134 A 
ATOM     66  C   UNL A   1      42.669  27.563  26.487  1.00  0.00     0.134 A 
ATOM     67  F   UNL A   1      40.530  25.177  28.188  1.00  0.00    -0.206 F 
ATOM     68  C   UNL A   1      41.701  24.982  26.164  1.00  0.00     0.040 A 
ATOM     69  C   UNL A   1      43.014  26.830  25.351  1.00  0.00     0.040 A 
ATOM     70  F   UNL A   1      43.142  28.813  26.601  1.00  0.00    -0.206 F 
ATOM     71  C   UNL A   1      42.531  25.532  25.190  1.00  0.00     0.006 A 
ENDBRANCH  43  64
BRANCH  55  72
ATOM     72  C   UNL A   1      44.218  27.397  33.969  1.00  0.00     0.057 A 
ATOM     73  C   UNL A   1      43.997  26.162  34.591  1.00  0.00     0.134 A 
ATOM     74  C   UNL A   1      45.517  27.920  34.013  1.00  0.00     0.134 A 
ATOM     75  F   UNL A   1      42.774  25.609  34.592  1.00  0.00    -0.206 F 
ATOM     76  C   UNL A   1      45.031  25.465  35.219  1.00  0.00     0.040 A 
ATOM     77  C   UNL A   1      46.566  27.220  34.614  1.00  0.00     0.040 A 
ATOM     78  F   UNL A   1      45.799  29.092  33.422  1.00  0.00    -0.206 F 
ATOM     79  C   UNL A   1      46.322  25.989  35.221  1.00  0.00     0.006 A 
ENDBRANCH  55  72
ENDBRANCH  29  30
ENDBRANCH  21  24
ENDBRANCH  19  20
ENDBRANCH  18  19
ENDBRANCH   1  18
TORSDOF 13
ENDMDL
MODEL 3
REMARK VINA RESULT:     -10.9      5.043      9.722
REMARK SMILES Cc1cc(Br)cc(C(=O)NCCCCCCNC(=O)c2ccc(-c3c4nc(c(-c5c(F)cccc5F)c5ccc([nH]5)c(-c5c(F)cccc5F)c5nc(c(-c6c(F)cccc6F)c6ccc3[nH]6)C=C5)C=C4)cc2)c1Br
REMARK SMILES IDX 14 1 13 2 12 3 11 4 10 5 8 6 9 7 7 9 1 10 2 11 3 12 74 13
REMARK SMILES IDX 4 14 75 15 5 16 6 17 15 18 16 19 17 20 18 21 19 23 20 24
REMARK SMILES IDX 21 25 73 26 22 27 72 28 23 29 24 30 25 31 66 32 26 33 71 34
REMARK SMILES IDX 65 35 67 36 27 37 70 38 64 39 63 40 28 42 54 43 37 44 53 45
REMARK SMILES IDX 38 46 41 47 52 48 68 49 39 50 40 51 51 53 69 54 42 55 29 56
REMARK SMILES IDX 30 57 35 58 31 59 32 60 34 61 36 62 33 63 55 64 56 65 61 66
REMARK SMILES IDX 57 67 58 68 60 69 62 70 59 71 43 72 44 73 49 74 45 75 46 76
REMARK SMILES IDX 48 77 50 78 47 79
REMARK H PARENT 10 8 17 22 67 41 41 52
REMARK Flexibility Score: inf
ROOT
ATOM      1  C   UNL A   1      37.021  22.063  24.051  1.00  0.00     0.002 C 
ENDROOT
BRANCH   1   2
ATOM      2  C   UNL A   1      35.539  22.447  24.093  1.00  0.00     0.002 C 
BRANCH   2   3
ATOM      3  C   UNL A   1      34.671  21.846  25.206  1.00  0.00     0.021 C 
BRANCH   3   4
ATOM      4  C   UNL A   1      34.663  22.564  26.551  1.00  0.00     0.116 C 
BRANCH   4   5
ATOM      5  N   UNL A   1      33.350  22.846  27.097  1.00  0.00    -0.352 N 
ATOM      6  C   UNL A   1      32.392  23.745  26.684  1.00  0.00     0.252 C 
ATOM      7  O   UNL A   1      31.296  23.742  27.244  1.00  0.00    -0.269 OA
ATOM      8  H   UNL A   1      33.105  22.312  27.887  1.00  0.00     0.163 HD
BRANCH   6   9
ATOM      9  C   UNL A   1      32.678  24.807  25.684  1.00  0.00     0.055 A 
ATOM     10  C   UNL A   1      33.115  25.533  21.949  1.00  0.00     0.045 C 
ATOM     11  C   UNL A   1      33.036  25.698  23.443  1.00  0.00    -0.035 A 
ATOM     12  C   UNL A   1      33.478  26.905  24.006  1.00  0.00     0.020 A 
ATOM     13  C   UNL A   1      32.524  24.691  24.293  1.00  0.00     0.033 A 
ATOM     14  C   UNL A   1      33.471  27.081  25.386  1.00  0.00     0.019 A 
ATOM     15  Br  UNL A   1      31.431  23.325  23.525  1.00  0.00    -0.050 Br
ATOM     16  Br  UNL A   1      33.961  28.751  26.120  1.00  0.00    -0.051 Br
ATOM     17  C   UNL A   1      33.114  26.030  26.224  1.00  0.00     0.030 A 
ENDBRANCH   6   9
ENDBRANCH   4   5
ENDBRANCH   3   4
ENDBRANCH   2   3
ENDBRANCH   1   2
BRANCH   1  18
ATOM     18  C   UNL A   1      37.432  20.753  24.724  1.00  0.00     0.021 C 
BRANCH  18  19
ATOM     19  C   UNL A   1      38.582  20.825  25.720  1.00  0.00     0.116 C 
BRANCH  19  20
ATOM     20  N   UNL A   1      39.513  19.711  25.639  1.00  0.00    -0.352 N 
ATOM     21  C   UNL A   1      40.848  19.665  25.978  1.00  0.00     0.251 C 
ATOM     22  H   UNL A   1      39.136  18.870  25.293  1.00  0.00     0.163 HD
ATOM     23  O   UNL A   1      41.500  18.643  25.776  1.00  0.00    -0.269 OA
BRANCH  21  24
ATOM     24  C   UNL A   1      41.520  20.863  26.537  1.00  0.00     0.039 A 
ATOM     25  C   UNL A   1      41.561  21.093  27.912  1.00  0.00     0.014 A 
ATOM     26  C   UNL A   1      42.089  21.796  25.662  1.00  0.00     0.014 A 
ATOM     27  C   UNL A   1      41.977  22.331  28.393  1.00  0.00     0.010 A 
ATOM     28  C   UNL A   1      42.594  23.004  26.157  1.00  0.00     0.010 A 
ATOM     29  C   UNL A   1      42.477  23.313  27.520  1.00  0.00    -0.014 A 
BRANCH  29  30
ATOM     30  C   UNL A   1      42.820  24.657  28.064  1.00  0.00     0.031 A 
ATOM     31  C   UNL A   1      44.258  25.100  28.180  1.00  0.00     0.074 A 
ATOM     32  C   UNL A   1      41.832  25.522  28.367  1.00  0.00     0.049 A 
ATOM     33  N   UNL A   1      44.737  26.271  28.525  1.00  0.00    -0.248 NA
ATOM     34  C   UNL A   1      45.292  24.100  27.877  1.00  0.00     0.031 C 
ATOM     35  C   UNL A   1      40.401  25.222  28.305  1.00  0.00     0.029 A 
ATOM     36  N   UNL A   1      41.879  26.840  28.748  1.00  0.00    -0.354 N 
ATOM     37  C   UNL A   1      46.122  26.143  28.492  1.00  0.00     0.074 A 
ATOM     38  C   UNL A   1      46.406  24.771  28.133  1.00  0.00     0.031 C 
ATOM     39  C   UNL A   1      39.707  26.339  28.571  1.00  0.00     0.029 A 
ATOM     40  C   UNL A   1      40.641  27.420  28.868  1.00  0.00     0.049 A 
ATOM     41  H   UNL A   1      42.721  27.322  28.918  1.00  0.00     0.167 HD
ATOM     42  C   UNL A   1      47.072  27.082  28.720  1.00  0.00     0.037 A 
ATOM     43  C   UNL A   1      40.293  28.682  29.176  1.00  0.00     0.037 A 
ATOM     44  C   UNL A   1      46.798  28.455  29.065  1.00  0.00     0.049 A 
ATOM     45  C   UNL A   1      41.366  29.700  29.440  1.00  0.00     0.074 A 
ATOM     46  C   UNL A   1      47.694  29.483  29.305  1.00  0.00     0.029 A 
ATOM     47  N   UNL A   1      45.528  28.990  29.219  1.00  0.00    -0.354 N 
ATOM     48  N   UNL A   1      42.668  29.567  29.377  1.00  0.00    -0.248 NA
ATOM     49  C   UNL A   1      40.914  31.047  29.816  1.00  0.00     0.031 C 
ATOM     50  C   UNL A   1      46.967  30.633  29.636  1.00  0.00     0.029 A 
ATOM     51  C   UNL A   1      45.617  30.330  29.561  1.00  0.00     0.049 A 
ATOM     52  H   UNL A   1      44.687  28.492  29.103  1.00  0.00     0.167 HD
ATOM     53  C   UNL A   1      43.191  30.816  29.686  1.00  0.00     0.074 A 
ATOM     54  C   UNL A   1      42.064  31.698  29.910  1.00  0.00     0.031 C 
ATOM     55  C   UNL A   1      44.488  31.198  29.781  1.00  0.00     0.037 A 
BRANCH  42  56
ATOM     56  C   UNL A   1      48.506  26.647  28.615  1.00  0.00     0.057 A 
ATOM     57  C   UNL A   1      49.218  26.810  27.419  1.00  0.00     0.134 A 
ATOM     58  C   UNL A   1      49.181  26.056  29.691  1.00  0.00     0.134 A 
ATOM     59  F   UNL A   1      48.631  27.363  26.346  1.00  0.00    -0.206 F 
ATOM     60  C   UNL A   1      50.549  26.406  27.300  1.00  0.00     0.040 A 
ATOM     61  C   UNL A   1      50.520  25.671  29.591  1.00  0.00     0.040 A 
ATOM     62  F   UNL A   1      48.562  25.884  30.868  1.00  0.00    -0.206 F 
ATOM     63  C   UNL A   1      51.207  25.842  28.391  1.00  0.00     0.006 A 
ENDBRANCH  42  56
BRANCH  43  64
ATOM     64  C   UNL A   1      38.860  29.067  29.237  1.00  0.00     0.057 A 
ATOM     65  C   UNL A   1      38.130  28.967  30.428  1.00  0.00     0.134 A 
ATOM     66  C   UNL A   1      38.195  29.565  28.111  1.00  0.00     0.134 A 
ATOM     67  F   UNL A   1      38.710  28.492  31.539  1.00  0.00    -0.206 F 
ATOM     68  C   UNL A   1      36.790  29.345  30.495  1.00  0.00     0.040 A 
ATOM     69  C   UNL A   1      36.862  29.973  28.171  1.00  0.00     0.040 A 
ATOM     70  F   UNL A   1      38.848  29.702  26.947  1.00  0.00    -0.206 F 
ATOM     71  C   UNL A   1      36.154  29.859  29.366  1.00  0.00     0.006 A 
ENDBRANCH  43  64
BRANCH  55  72
ATOM     72  C   UNL A   1      44.745  32.639  30.108  1.00  0.00     0.057 A 
ATOM     73  C   UNL A   1      44.826  33.598  29.091  1.00  0.00     0.134 A 
ATOM     74  C   UNL A   1      44.898  33.083  31.428  1.00  0.00     0.134 A 
ATOM     75  F   UNL A   1      44.695  33.240  27.804  1.00  0.00    -0.206 F 
ATOM     76  C   UNL A   1      45.037  34.948  29.375  1.00  0.00     0.040 A 
ATOM     77  C   UNL A   1      45.083  34.434  31.728  1.00  0.00     0.040 A 
ATOM     78  F   UNL A   1      44.815  32.217  32.451  1.00  0.00    -0.206 F 
ATOM     79  C   UNL A   1      45.154  35.371  30.698  1.00  0.00     0.006 A 
ENDBRANCH  55  72
ENDBRANCH  29  30
ENDBRANCH  21  24
ENDBRANCH  19  20
ENDBRANCH  18  19
ENDBRANCH   1  18
TORSDOF 13
ENDMDL
