MODEL 1
REMARK VINA RESULT:      -9.1      0.000      0.000
REMARK SMILES C[C@](NC(=O)Cc1cccc(F)c1F)(C(=O)NCCCCCCNC(=O)c1ccc(-c2c3nc(c(-c4c(F)cccc4F)c4ccc([nH]4)c(-c4c(F)cccc4F)c4nc(c(-c5c(F)cccc5F)c5ccc2[nH]5)C=C4)C=C3)cc1)C1CC1
REMARK SMILES IDX 20 1 19 2 18 3 17 4 15 5 16 6 2 8 1 9 81 10 82 11 83 12 3 13
REMARK SMILES IDX 4 14 5 16 6 17 7 18 8 19 13 20 9 21 11 22 14 23 10 24 12 25
REMARK SMILES IDX 21 26 22 27 23 28 24 29 25 30 26 32 27 33 28 34 80 35 29 36
REMARK SMILES IDX 79 37 30 38 31 39 32 40 73 41 33 42 78 43 72 44 74 45 34 46
REMARK SMILES IDX 77 47 71 48 70 49 35 51 61 52 44 53 60 54 45 55 48 56 59 57
REMARK SMILES IDX 75 58 46 59 47 60 58 62 76 63 49 64 36 65 37 66 42 67 38 68
REMARK SMILES IDX 39 69 41 70 43 71 40 72 62 73 63 74 68 75 64 76 65 77 67 78
REMARK SMILES IDX 69 79 66 80 50 81 51 82 56 83 52 84 53 85 55 86 57 87 54 88
REMARK H PARENT 17 7 3 15 24 31 74 50 48 61
REMARK Flexibility Score: inf
ROOT
ATOM      1  C   UNL A   1      34.405  35.421  33.879  1.00  0.00     0.002 C 
ENDROOT
BRANCH   1   2
ATOM      2  C   UNL A   1      35.113  34.072  34.079  1.00  0.00     0.021 C 
BRANCH   2   3
ATOM      3  C   UNL A   1      36.476  34.131  34.766  1.00  0.00     0.116 C 
BRANCH   3   4
ATOM      4  N   UNL A   1      36.756  33.049  35.698  1.00  0.00    -0.354 N 
ATOM      5  C   UNL A   1      37.205  33.287  36.990  1.00  0.00     0.245 C 
ATOM      6  O   UNL A   1      36.431  33.008  37.912  1.00  0.00    -0.272 OA
ATOM      7  H   UNL A   1      36.624  32.119  35.404  1.00  0.00     0.163 HD
BRANCH   5   8
ATOM      8  C   UNL A   1      38.745  33.577  37.258  1.00  0.00     0.119 C 
ATOM      9  C   UNL A   1      39.265  34.744  36.388  1.00  0.00     0.046 C 
BRANCH   8  10
ATOM     10  C   UNL A   1      38.963  34.105  38.704  1.00  0.00     0.024 C 
ATOM     11  C   UNL A   1      39.302  33.185  39.860  1.00  0.00     0.007 C 
ATOM     12  C   UNL A   1      40.297  34.217  39.401  1.00  0.00     0.007 C 
ENDBRANCH   8  10
BRANCH   8  13
ATOM     13  N   UNL A   1      39.563  32.359  37.153  1.00  0.00    -0.341 N 
ATOM     14  C   UNL A   1      39.886  31.505  36.144  1.00  0.00     0.225 C 
ATOM     15  H   UNL A   1      39.973  32.103  38.011  1.00  0.00     0.164 HD
ATOM     16  O   UNL A   1      40.402  30.436  36.490  1.00  0.00    -0.275 OA
BRANCH  14  17
ATOM     17  C   UNL A   1      39.660  31.796  34.666  1.00  0.00     0.138 C 
BRANCH  17  18
ATOM     18  C   UNL A   1      39.068  30.686  33.822  1.00  0.00     0.000 A 
ATOM     19  C   UNL A   1      37.722  30.680  33.420  1.00  0.00     0.007 A 
ATOM     20  C   UNL A   1      39.869  29.627  33.376  1.00  0.00     0.162 A 
ATOM     21  C   UNL A   1      37.186  29.643  32.649  1.00  0.00     0.004 A 
ATOM     22  C   UNL A   1      39.344  28.615  32.570  1.00  0.00     0.159 A 
ATOM     23  F   UNL A   1      41.163  29.575  33.725  1.00  0.00    -0.203 F 
ATOM     24  C   UNL A   1      38.001  28.605  32.218  1.00  0.00     0.042 A 
ATOM     25  F   UNL A   1      40.135  27.625  32.136  1.00  0.00    -0.204 F 
ENDBRANCH  17  18
ENDBRANCH  14  17
ENDBRANCH   8  13
ENDBRANCH   5   8
ENDBRANCH   3   4
ENDBRANCH   2   3
ENDBRANCH   1   2
BRANCH   1  26
ATOM     26  C   UNL A   1      34.553  36.104  32.511  1.00  0.00     0.002 C 
BRANCH  26  27
ATOM     27  C   UNL A   1      33.262  36.459  31.767  1.00  0.00     0.021 C 
BRANCH  27  28
ATOM     28  C   UNL A   1      33.390  36.777  30.281  1.00  0.00     0.116 C 
BRANCH  28  29
ATOM     29  N   UNL A   1      32.741  35.783  29.439  1.00  0.00    -0.352 N 
ATOM     30  C   UNL A   1      33.194  34.607  28.899  1.00  0.00     0.251 C 
ATOM     31  H   UNL A   1      31.805  35.993  29.218  1.00  0.00     0.163 HD
ATOM     32  O   UNL A   1      32.475  34.029  28.078  1.00  0.00    -0.269 OA
BRANCH  30  33
ATOM     33  C   UNL A   1      34.504  34.002  29.250  1.00  0.00     0.039 A 
ATOM     34  C   UNL A   1      35.576  34.192  28.364  1.00  0.00     0.014 A 
ATOM     35  C   UNL A   1      34.689  33.180  30.364  1.00  0.00     0.014 A 
ATOM     36  C   UNL A   1      36.819  33.597  28.609  1.00  0.00     0.010 A 
ATOM     37  C   UNL A   1      35.950  32.640  30.646  1.00  0.00     0.010 A 
ATOM     38  C   UNL A   1      37.024  32.830  29.765  1.00  0.00    -0.014 A 
BRANCH  38  39
ATOM     39  C   UNL A   1      38.350  32.213  30.042  1.00  0.00     0.031 A 
ATOM     40  C   UNL A   1      39.364  32.919  30.904  1.00  0.00     0.074 A 
ATOM     41  C   UNL A   1      38.662  31.022  29.495  1.00  0.00     0.049 A 
ATOM     42  N   UNL A   1      40.568  32.535  31.251  1.00  0.00    -0.248 NA
ATOM     43  C   UNL A   1      38.985  34.240  31.426  1.00  0.00     0.031 C 
ATOM     44  C   UNL A   1      37.797  30.249  28.603  1.00  0.00     0.029 A 
ATOM     45  N   UNL A   1      39.794  30.252  29.610  1.00  0.00    -0.354 N 
ATOM     46  C   UNL A   1      41.097  33.573  32.008  1.00  0.00     0.074 A 
ATOM     47  C   UNL A   1      40.096  34.620  32.039  1.00  0.00     0.031 C 
ATOM     48  C   UNL A   1      38.413  29.100  28.280  1.00  0.00     0.029 A 
ATOM     49  C   UNL A   1      39.726  29.068  28.919  1.00  0.00     0.049 A 
ATOM     50  H   UNL A   1      40.579  30.524  30.137  1.00  0.00     0.167 HD
ATOM     51  C   UNL A   1      42.296  33.645  32.634  1.00  0.00     0.037 A 
ATOM     52  C   UNL A   1      40.616  28.062  28.817  1.00  0.00     0.037 A 
ATOM     53  C   UNL A   1      43.278  32.592  32.644  1.00  0.00     0.049 A 
ATOM     54  C   UNL A   1      41.926  28.152  29.545  1.00  0.00     0.074 A 
ATOM     55  C   UNL A   1      44.483  32.540  33.322  1.00  0.00     0.029 A 
ATOM     56  N   UNL A   1      43.167  31.405  31.937  1.00  0.00    -0.354 N 
ATOM     57  N   UNL A   1      42.380  29.109  30.315  1.00  0.00    -0.248 NA
ATOM     58  C   UNL A   1      42.847  27.017  29.389  1.00  0.00     0.031 C 
ATOM     59  C   UNL A   1      45.118  31.335  33.001  1.00  0.00     0.029 A 
ATOM     60  C   UNL A   1      44.291  30.622  32.147  1.00  0.00     0.049 A 
ATOM     61  H   UNL A   1      42.402  31.154  31.369  1.00  0.00     0.167 HD
ATOM     62  C   UNL A   1      43.627  28.686  30.752  1.00  0.00     0.074 A 
ATOM     63  C   UNL A   1      43.853  27.378  30.174  1.00  0.00     0.031 C 
ATOM     64  C   UNL A   1      44.507  29.324  31.562  1.00  0.00     0.037 A 
BRANCH  51  65
ATOM     65  C   UNL A   1      42.613  34.915  33.370  1.00  0.00     0.057 A 
ATOM     66  C   UNL A   1      42.504  35.010  34.764  1.00  0.00     0.134 A 
ATOM     67  C   UNL A   1      43.055  36.049  32.678  1.00  0.00     0.134 A 
ATOM     68  F   UNL A   1      42.076  33.962  35.484  1.00  0.00    -0.206 F 
ATOM     69  C   UNL A   1      42.795  36.196  35.440  1.00  0.00     0.040 A 
ATOM     70  C   UNL A   1      43.371  37.235  33.345  1.00  0.00     0.040 A 
ATOM     71  F   UNL A   1      43.188  36.025  31.344  1.00  0.00    -0.206 F 
ATOM     72  C   UNL A   1      43.235  37.311  34.729  1.00  0.00     0.006 A 
ENDBRANCH  51  65
BRANCH  52  73
ATOM     73  C   UNL A   1      40.276  26.855  28.026  1.00  0.00     0.057 A 
ATOM     74  C   UNL A   1      39.449  25.859  28.561  1.00  0.00     0.134 A 
ATOM     75  C   UNL A   1      40.760  26.667  26.727  1.00  0.00     0.134 A 
ATOM     76  F   UNL A   1      38.974  25.977  29.810  1.00  0.00    -0.206 F 
ATOM     77  C   UNL A   1      39.125  24.713  27.836  1.00  0.00     0.040 A 
ATOM     78  C   UNL A   1      40.427  25.533  25.983  1.00  0.00     0.040 A 
ATOM     79  F   UNL A   1      41.554  27.585  26.161  1.00  0.00    -0.206 F 
ATOM     80  C   UNL A   1      39.610  24.550  26.540  1.00  0.00     0.006 A 
ENDBRANCH  52  73
BRANCH  64  81
ATOM     81  C   UNL A   1      45.785  28.606  31.878  1.00  0.00     0.057 A 
ATOM     82  C   UNL A   1      45.889  27.737  32.971  1.00  0.00     0.134 A 
ATOM     83  C   UNL A   1      46.919  28.776  31.074  1.00  0.00     0.134 A 
ATOM     84  F   UNL A   1      44.842  27.544  33.787  1.00  0.00    -0.206 F 
ATOM     85  C   UNL A   1      47.084  27.082  33.270  1.00  0.00     0.040 A 
ATOM     86  C   UNL A   1      48.114  28.110  31.350  1.00  0.00     0.040 A 
ATOM     87  F   UNL A   1      46.884  29.591  30.009  1.00  0.00    -0.206 F 
ATOM     88  C   UNL A   1      48.201  27.265  32.455  1.00  0.00     0.006 A 
ENDBRANCH  64  81
ENDBRANCH  38  39
ENDBRANCH  30  33
ENDBRANCH  28  29
ENDBRANCH  27  28
ENDBRANCH  26  27
ENDBRANCH   1  26
TORSDOF 17
ENDMDL
MODEL 2
REMARK VINA RESULT:      -9.0      5.564     11.809
REMARK SMILES C[C@](NC(=O)Cc1cccc(F)c1F)(C(=O)NCCCCCCNC(=O)c1ccc(-c2c3nc(c(-c4c(F)cccc4F)c4ccc([nH]4)c(-c4c(F)cccc4F)c4nc(c(-c5c(F)cccc5F)c5ccc2[nH]5)C=C4)C=C3)cc1)C1CC1
REMARK SMILES IDX 20 1 19 2 18 3 17 4 15 5 16 6 2 8 1 9 81 10 82 11 83 12 3 13
REMARK SMILES IDX 4 14 5 16 6 17 7 18 8 19 13 20 9 21 11 22 14 23 10 24 12 25
REMARK SMILES IDX 21 26 22 27 23 28 24 29 25 30 26 32 27 33 28 34 80 35 29 36
REMARK SMILES IDX 79 37 30 38 31 39 32 40 73 41 33 42 78 43 72 44 74 45 34 46
REMARK SMILES IDX 77 47 71 48 70 49 35 51 61 52 44 53 60 54 45 55 48 56 59 57
REMARK SMILES IDX 75 58 46 59 47 60 58 62 76 63 49 64 36 65 37 66 42 67 38 68
REMARK SMILES IDX 39 69 41 70 43 71 40 72 62 73 63 74 68 75 64 76 65 77 67 78
REMARK SMILES IDX 69 79 66 80 50 81 51 82 56 83 52 84 53 85 55 86 57 87 54 88
REMARK H PARENT 17 7 3 15 24 31 74 50 48 61
REMARK Flexibility Score: inf
ROOT
ATOM      1  C   UNL A   1      36.371  21.167  25.350  1.00  0.00     0.002 C 
ENDROOT
BRANCH   1   2
ATOM      2  C   UNL A   1      36.023  22.226  24.293  1.00  0.00     0.021 C 
BRANCH   2   3
ATOM      3  C   UNL A   1      36.470  23.652  24.608  1.00  0.00     0.116 C 
BRANCH   3   4
ATOM      4  N   UNL A   1      35.686  24.346  25.619  1.00  0.00    -0.354 N 
ATOM      5  C   UNL A   1      34.300  24.295  25.639  1.00  0.00     0.245 C 
ATOM      6  O   UNL A   1      33.775  23.692  26.581  1.00  0.00    -0.272 OA
ATOM      7  H   UNL A   1      36.154  24.869  26.311  1.00  0.00     0.163 HD
BRANCH   5   8
ATOM      8  C   UNL A   1      33.453  25.251  24.691  1.00  0.00     0.119 C 
ATOM      9  C   UNL A   1      32.022  25.470  25.235  1.00  0.00     0.046 C 
BRANCH   8  10
ATOM     10  C   UNL A   1      34.043  26.690  24.690  1.00  0.00     0.024 C 
ATOM     11  C   UNL A   1      33.357  27.845  23.989  1.00  0.00     0.007 C 
ATOM     12  C   UNL A   1      33.506  27.853  25.487  1.00  0.00     0.007 C 
ENDBRANCH   8  10
BRANCH   8  13
ATOM     13  N   UNL A   1      33.484  24.808  23.289  1.00  0.00    -0.341 N 
ATOM     14  C   UNL A   1      32.923  23.781  22.596  1.00  0.00     0.225 C 
ATOM     15  H   UNL A   1      34.038  25.390  22.721  1.00  0.00     0.164 HD
ATOM     16  O   UNL A   1      33.382  23.582  21.465  1.00  0.00    -0.275 OA
BRANCH  14  17
ATOM     17  C   UNL A   1      31.793  22.905  23.121  1.00  0.00     0.138 C 
BRANCH  17  18
ATOM     18  C   UNL A   1      32.139  21.481  23.506  1.00  0.00     0.000 A 
ATOM     19  C   UNL A   1      32.429  21.107  24.828  1.00  0.00     0.007 A 
ATOM     20  C   UNL A   1      32.145  20.465  22.542  1.00  0.00     0.162 A 
ATOM     21  C   UNL A   1      32.757  19.790  25.168  1.00  0.00     0.004 A 
ATOM     22  C   UNL A   1      32.429  19.143  22.889  1.00  0.00     0.159 A 
ATOM     23  F   UNL A   1      31.876  20.757  21.261  1.00  0.00    -0.203 F 
ATOM     24  C   UNL A   1      32.755  18.800  24.195  1.00  0.00     0.042 A 
ATOM     25  F   UNL A   1      32.406  18.184  21.955  1.00  0.00    -0.204 F 
ENDBRANCH  17  18
ENDBRANCH  14  17
ENDBRANCH   8  13
ENDBRANCH   5   8
ENDBRANCH   3   4
ENDBRANCH   2   3
ENDBRANCH   1   2
BRANCH   1  26
ATOM     26  C   UNL A   1      36.474  19.706  24.884  1.00  0.00     0.002 C 
BRANCH  26  27
ATOM     27  C   UNL A   1      37.862  19.061  24.921  1.00  0.00     0.021 C 
BRANCH  27  28
ATOM     28  C   UNL A   1      38.959  19.829  25.652  1.00  0.00     0.116 C 
BRANCH  28  29
ATOM     29  N   UNL A   1      40.203  19.081  25.738  1.00  0.00    -0.352 N 
ATOM     30  C   UNL A   1      41.484  19.468  26.037  1.00  0.00     0.251 C 
ATOM     31  H   UNL A   1      40.108  18.120  25.547  1.00  0.00     0.163 HD
ATOM     32  O   UNL A   1      42.393  18.646  25.877  1.00  0.00    -0.269 OA
BRANCH  30  33
ATOM     33  C   UNL A   1      41.828  20.824  26.535  1.00  0.00     0.039 A 
ATOM     34  C   UNL A   1      41.674  21.080  27.906  1.00  0.00     0.014 A 
ATOM     35  C   UNL A   1      42.203  21.872  25.692  1.00  0.00     0.014 A 
ATOM     36  C   UNL A   1      41.924  22.355  28.426  1.00  0.00     0.010 A 
ATOM     37  C   UNL A   1      42.520  23.129  26.221  1.00  0.00     0.010 A 
ATOM     38  C   UNL A   1      42.369  23.389  27.590  1.00  0.00    -0.014 A 
BRANCH  38  39
ATOM     39  C   UNL A   1      42.659  24.742  28.142  1.00  0.00     0.031 A 
ATOM     40  C   UNL A   1      44.061  25.132  28.530  1.00  0.00     0.074 A 
ATOM     41  C   UNL A   1      41.653  25.619  28.323  1.00  0.00     0.049 A 
ATOM     42  N   UNL A   1      44.498  26.263  29.027  1.00  0.00    -0.248 NA
ATOM     43  C   UNL A   1      45.105  24.111  28.360  1.00  0.00     0.031 C 
ATOM     44  C   UNL A   1      40.242  25.359  28.037  1.00  0.00     0.029 A 
ATOM     45  N   UNL A   1      41.665  26.910  28.793  1.00  0.00    -0.354 N 
ATOM     46  C   UNL A   1      45.858  26.081  29.250  1.00  0.00     0.074 A 
ATOM     47  C   UNL A   1      46.166  24.718  28.869  1.00  0.00     0.031 C 
ATOM     48  C   UNL A   1      39.529  26.466  28.302  1.00  0.00     0.029 A 
ATOM     49  C   UNL A   1      40.427  27.503  28.803  1.00  0.00     0.049 A 
ATOM     50  H   UNL A   1      42.483  27.366  29.094  1.00  0.00     0.167 HD
ATOM     51  C   UNL A   1      46.771  26.968  29.713  1.00  0.00     0.037 A 
ATOM     52  C   UNL A   1      40.055  28.746  29.165  1.00  0.00     0.037 A 
ATOM     53  C   UNL A   1      46.481  28.338  30.053  1.00  0.00     0.049 A 
ATOM     54  C   UNL A   1      41.090  29.721  29.647  1.00  0.00     0.074 A 
ATOM     55  C   UNL A   1      47.357  29.335  30.447  1.00  0.00     0.029 A 
ATOM     56  N   UNL A   1      45.215  28.901  30.042  1.00  0.00    -0.354 N 
ATOM     57  N   UNL A   1      42.382  29.556  29.783  1.00  0.00    -0.248 NA
ATOM     58  C   UNL A   1      40.612  31.060  30.023  1.00  0.00     0.031 C 
ATOM     59  C   UNL A   1      46.616  30.494  30.706  1.00  0.00     0.029 A 
ATOM     60  C   UNL A   1      45.283  30.226  30.442  1.00  0.00     0.049 A 
ATOM     61  H   UNL A   1      44.388  28.429  29.788  1.00  0.00     0.167 HD
ATOM     62  C   UNL A   1      42.874  30.770  30.240  1.00  0.00     0.074 A 
ATOM     63  C   UNL A   1      41.744  31.669  30.343  1.00  0.00     0.031 C 
ATOM     64  C   UNL A   1      44.150  31.110  30.546  1.00  0.00     0.037 A 
BRANCH  51  65
ATOM     65  C   UNL A   1      48.182  26.483  29.877  1.00  0.00     0.057 A 
ATOM     66  C   UNL A   1      49.148  26.666  28.878  1.00  0.00     0.134 A 
ATOM     67  C   UNL A   1      48.585  25.845  31.056  1.00  0.00     0.134 A 
ATOM     68  F   UNL A   1      48.824  27.260  27.720  1.00  0.00    -0.206 F 
ATOM     69  C   UNL A   1      50.456  26.205  29.035  1.00  0.00     0.040 A 
ATOM     70  C   UNL A   1      49.896  25.400  31.235  1.00  0.00     0.040 A 
ATOM     71  F   UNL A   1      47.712  25.644  32.055  1.00  0.00    -0.206 F 
ATOM     72  C   UNL A   1      50.834  25.575  30.220  1.00  0.00     0.006 A 
ENDBRANCH  51  65
BRANCH  52  73
ATOM     73  C   UNL A   1      38.635  29.156  29.041  1.00  0.00     0.057 A 
ATOM     74  C   UNL A   1      37.780  29.117  30.148  1.00  0.00     0.134 A 
ATOM     75  C   UNL A   1      38.102  29.597  27.825  1.00  0.00     0.134 A 
ATOM     76  F   UNL A   1      38.232  28.683  31.334  1.00  0.00    -0.206 F 
ATOM     77  C   UNL A   1      36.440  29.491  30.049  1.00  0.00     0.040 A 
ATOM     78  C   UNL A   1      36.768  29.992  27.716  1.00  0.00     0.040 A 
ATOM     79  F   UNL A   1      38.872  29.657  26.729  1.00  0.00    -0.206 F 
ATOM     80  C   UNL A   1      35.931  29.936  28.830  1.00  0.00     0.006 A 
ENDBRANCH  52  73
BRANCH  64  81
ATOM     81  C   UNL A   1      44.388  32.518  31.006  1.00  0.00     0.057 A 
ATOM     82  C   UNL A   1      44.357  32.862  32.364  1.00  0.00     0.134 A 
ATOM     83  C   UNL A   1      44.660  33.535  30.084  1.00  0.00     0.134 A 
ATOM     84  F   UNL A   1      44.087  31.935  33.294  1.00  0.00    -0.206 F 
ATOM     85  C   UNL A   1      44.564  34.176  32.786  1.00  0.00     0.040 A 
ATOM     86  C   UNL A   1      44.890  34.849  30.496  1.00  0.00     0.040 A 
ATOM     87  F   UNL A   1      44.708  33.269  28.770  1.00  0.00    -0.206 F 
ATOM     88  C   UNL A   1      44.836  35.173  31.850  1.00  0.00     0.006 A 
ENDBRANCH  64  81
ENDBRANCH  38  39
ENDBRANCH  30  33
ENDBRANCH  28  29
ENDBRANCH  27  28
ENDBRANCH  26  27
ENDBRANCH   1  26
TORSDOF 17
ENDMDL
MODEL 3
REMARK VINA RESULT:      -8.8      4.799      8.242
REMARK SMILES C[C@](NC(=O)Cc1cccc(F)c1F)(C(=O)NCCCCCCNC(=O)c1ccc(-c2c3nc(c(-c4c(F)cccc4F)c4ccc([nH]4)c(-c4c(F)cccc4F)c4nc(c(-c5c(F)cccc5F)c5ccc2[nH]5)C=C4)C=C3)cc1)C1CC1
REMARK SMILES IDX 20 1 19 2 18 3 17 4 15 5 16 6 2 8 1 9 81 10 82 11 83 12 3 13
REMARK SMILES IDX 4 14 5 16 6 17 7 18 8 19 13 20 9 21 11 22 14 23 10 24 12 25
REMARK SMILES IDX 21 26 22 27 23 28 24 29 25 30 26 32 27 33 28 34 80 35 29 36
REMARK SMILES IDX 79 37 30 38 31 39 32 40 73 41 33 42 78 43 72 44 74 45 34 46
REMARK SMILES IDX 77 47 71 48 70 49 35 51 61 52 44 53 60 54 45 55 48 56 59 57
REMARK SMILES IDX 75 58 46 59 47 60 58 62 76 63 49 64 36 65 37 66 42 67 38 68
REMARK SMILES IDX 39 69 41 70 43 71 40 72 62 73 63 74 68 75 64 76 65 77 67 78
REMARK SMILES IDX 69 79 66 80 50 81 51 82 56 83 52 84 53 85 55 86 57 87 54 88
REMARK H PARENT 17 7 3 15 24 31 74 50 48 61
REMARK Flexibility Score: inf
ROOT
ATOM      1  C   UNL A   1      32.059  30.169  25.734  1.00  0.00     0.002 C 
ENDROOT
BRANCH   1   2
ATOM      2  C   UNL A   1      31.803  28.855  26.487  1.00  0.00     0.021 C 
BRANCH   2   3
ATOM      3  C   UNL A   1      33.029  28.206  27.128  1.00  0.00     0.116 C 
BRANCH   3   4
ATOM      4  N   UNL A   1      34.035  27.712  26.200  1.00  0.00    -0.354 N 
ATOM      5  C   UNL A   1      33.694  27.065  25.020  1.00  0.00     0.245 C 
ATOM      6  O   UNL A   1      33.949  27.654  23.965  1.00  0.00    -0.272 OA
ATOM      7  H   UNL A   1      34.988  27.839  26.415  1.00  0.00     0.163 HD
BRANCH   5   8
ATOM      8  C   UNL A   1      33.317  25.520  25.038  1.00  0.00     0.119 C 
ATOM      9  C   UNL A   1      33.414  24.894  23.628  1.00  0.00     0.046 C 
BRANCH   8  10
ATOM     10  C   UNL A   1      34.367  24.706  25.846  1.00  0.00     0.024 C 
ATOM     11  C   UNL A   1      34.170  23.243  26.187  1.00  0.00     0.007 C 
ATOM     12  C   UNL A   1      35.290  23.659  25.272  1.00  0.00     0.007 C 
ENDBRANCH   8  10
BRANCH   8  13
ATOM     13  N   UNL A   1      32.028  25.272  25.701  1.00  0.00    -0.341 N 
ATOM     14  C   UNL A   1      30.724  25.376  25.328  1.00  0.00     0.225 C 
ATOM     15  H   UNL A   1      32.133  24.958  26.628  1.00  0.00     0.164 HD
ATOM     16  O   UNL A   1      29.897  25.321  26.246  1.00  0.00    -0.275 OA
BRANCH  14  17
ATOM     17  C   UNL A   1      30.250  25.540  23.890  1.00  0.00     0.138 C 
BRANCH  17  18
ATOM     18  C   UNL A   1      29.833  26.928  23.449  1.00  0.00     0.000 A 
ATOM     19  C   UNL A   1      30.724  27.825  22.838  1.00  0.00     0.007 A 
ATOM     20  C   UNL A   1      28.510  27.357  23.608  1.00  0.00     0.162 A 
ATOM     21  C   UNL A   1      30.328  29.108  22.446  1.00  0.00     0.004 A 
ATOM     22  C   UNL A   1      28.104  28.621  23.177  1.00  0.00     0.159 A 
ATOM     23  F   UNL A   1      27.609  26.547  24.185  1.00  0.00    -0.203 F 
ATOM     24  C   UNL A   1      29.010  29.510  22.613  1.00  0.00     0.042 A 
ATOM     25  F   UNL A   1      26.827  29.001  23.318  1.00  0.00    -0.204 F 
ENDBRANCH  17  18
ENDBRANCH  14  17
ENDBRANCH   8  13
ENDBRANCH   5   8
ENDBRANCH   3   4
ENDBRANCH   2   3
ENDBRANCH   1   2
BRANCH   1  26
ATOM     26  C   UNL A   1      30.894  31.166  25.632  1.00  0.00     0.002 C 
BRANCH  26  27
ATOM     27  C   UNL A   1      31.040  32.487  26.394  1.00  0.00     0.021 C 
BRANCH  27  28
ATOM     28  C   UNL A   1      32.408  32.783  27.001  1.00  0.00     0.116 C 
BRANCH  28  29
ATOM     29  N   UNL A   1      32.468  34.093  27.629  1.00  0.00    -0.352 N 
ATOM     30  C   UNL A   1      33.298  34.608  28.592  1.00  0.00     0.251 C 
ATOM     31  H   UNL A   1      31.789  34.727  27.303  1.00  0.00     0.163 HD
ATOM     32  O   UNL A   1      33.022  35.715  29.067  1.00  0.00    -0.269 OA
BRANCH  30  33
ATOM     33  C   UNL A   1      34.503  33.898  29.092  1.00  0.00     0.039 A 
ATOM     34  C   UNL A   1      34.315  32.819  29.968  1.00  0.00     0.014 A 
ATOM     35  C   UNL A   1      35.805  34.315  28.805  1.00  0.00     0.014 A 
ATOM     36  C   UNL A   1      35.413  32.149  30.521  1.00  0.00     0.010 A 
ATOM     37  C   UNL A   1      36.903  33.602  29.302  1.00  0.00     0.010 A 
ATOM     38  C   UNL A   1      36.720  32.522  30.177  1.00  0.00    -0.014 A 
BRANCH  38  39
ATOM     39  C   UNL A   1      37.892  31.799  30.743  1.00  0.00     0.031 A 
ATOM     40  C   UNL A   1      38.383  32.097  32.136  1.00  0.00     0.074 A 
ATOM     41  C   UNL A   1      38.540  30.886  29.995  1.00  0.00     0.049 A 
ATOM     42  N   UNL A   1      39.386  31.568  32.791  1.00  0.00    -0.248 NA
ATOM     43  C   UNL A   1      37.667  33.143  32.881  1.00  0.00     0.031 C 
ATOM     44  C   UNL A   1      38.204  30.531  28.615  1.00  0.00     0.029 A 
ATOM     45  N   UNL A   1      39.618  30.088  30.290  1.00  0.00    -0.354 N 
ATOM     46  C   UNL A   1      39.437  32.231  34.012  1.00  0.00     0.074 A 
ATOM     47  C   UNL A   1      38.386  33.227  33.990  1.00  0.00     0.031 C 
ATOM     48  C   UNL A   1      39.035  29.563  28.196  1.00  0.00     0.029 A 
ATOM     49  C   UNL A   1      39.979  29.248  29.265  1.00  0.00     0.049 A 
ATOM     50  H   UNL A   1      40.088  30.116  31.154  1.00  0.00     0.167 HD
ATOM     51  C   UNL A   1      40.268  32.022  35.061  1.00  0.00     0.037 A 
ATOM     52  C   UNL A   1      40.953  28.320  29.196  1.00  0.00     0.037 A 
ATOM     53  C   UNL A   1      41.288  31.006  35.106  1.00  0.00     0.049 A 
ATOM     54  C   UNL A   1      41.843  28.086  30.382  1.00  0.00     0.074 A 
ATOM     55  C   UNL A   1      42.120  30.662  36.157  1.00  0.00     0.029 A 
ATOM     56  N   UNL A   1      41.615  30.171  34.049  1.00  0.00    -0.354 N 
ATOM     57  N   UNL A   1      41.830  28.672  31.554  1.00  0.00    -0.248 NA
ATOM     58  C   UNL A   1      42.882  27.057  30.235  1.00  0.00     0.031 C 
ATOM     59  C   UNL A   1      42.974  29.640  35.727  1.00  0.00     0.029 A 
ATOM     60  C   UNL A   1      42.651  29.326  34.416  1.00  0.00     0.049 A 
ATOM     61  H   UNL A   1      41.177  30.177  33.167  1.00  0.00     0.167 HD
ATOM     62  C   UNL A   1      42.842  28.071  32.289  1.00  0.00     0.074 A 
ATOM     63  C   UNL A   1      43.439  27.063  31.438  1.00  0.00     0.031 C 
ATOM     64  C   UNL A   1      43.240  28.331  33.558  1.00  0.00     0.037 A 
BRANCH  51  65
ATOM     65  C   UNL A   1      40.107  32.916  36.256  1.00  0.00     0.057 A 
ATOM     66  C   UNL A   1      40.887  34.068  36.429  1.00  0.00     0.134 A 
ATOM     67  C   UNL A   1      39.146  32.633  37.234  1.00  0.00     0.134 A 
ATOM     68  F   UNL A   1      41.833  34.389  35.533  1.00  0.00    -0.206 F 
ATOM     69  C   UNL A   1      40.735  34.890  37.547  1.00  0.00     0.040 A 
ATOM     70  C   UNL A   1      38.969  33.460  38.345  1.00  0.00     0.040 A 
ATOM     71  F   UNL A   1      38.361  31.551  37.126  1.00  0.00    -0.206 F 
ATOM     72  C   UNL A   1      39.770  34.589  38.506  1.00  0.00     0.006 A 
ENDBRANCH  51  65
BRANCH  52  73
ATOM     73  C   UNL A   1      41.108  27.506  27.967  1.00  0.00     0.057 A 
ATOM     74  C   UNL A   1      40.428  26.290  27.824  1.00  0.00     0.134 A 
ATOM     75  C   UNL A   1      41.927  27.918  26.911  1.00  0.00     0.134 A 
ATOM     76  F   UNL A   1      39.645  25.835  28.813  1.00  0.00    -0.206 F 
ATOM     77  C   UNL A   1      40.568  25.506  26.678  1.00  0.00     0.040 A 
ATOM     78  C   UNL A   1      42.061  27.153  25.751  1.00  0.00     0.040 A 
ATOM     79  F   UNL A   1      42.602  29.073  26.988  1.00  0.00    -0.206 F 
ATOM     80  C   UNL A   1      41.382  25.940  25.634  1.00  0.00     0.006 A 
ENDBRANCH  52  73
BRANCH  64  81
ATOM     81  C   UNL A   1      44.365  27.501  34.102  1.00  0.00     0.057 A 
ATOM     82  C   UNL A   1      44.131  26.282  34.751  1.00  0.00     0.134 A 
ATOM     83  C   UNL A   1      45.694  27.918  33.964  1.00  0.00     0.134 A 
ATOM     84  F   UNL A   1      42.880  25.835  34.928  1.00  0.00    -0.206 F 
ATOM     85  C   UNL A   1      45.180  25.520  35.268  1.00  0.00     0.040 A 
ATOM     86  C   UNL A   1      46.753  27.155  34.457  1.00  0.00     0.040 A 
ATOM     87  F   UNL A   1      45.985  29.074  33.347  1.00  0.00    -0.206 F 
ATOM     88  C   UNL A   1      46.497  25.954  35.118  1.00  0.00     0.006 A 
ENDBRANCH  64  81
ENDBRANCH  38  39
ENDBRANCH  30  33
ENDBRANCH  28  29
ENDBRANCH  27  28
ENDBRANCH  26  27
ENDBRANCH   1  26
TORSDOF 17
ENDMDL
