MODEL 1
REMARK VINA RESULT:     -10.3      0.000      0.000
REMARK SMILES C[C@@H](C(=O)NCCCCCCNC(=O)c1ccc(-c2c3nc(c(-c4c(F)cccc4F)c4ccc([nH]4)c(-c4c(F)cccc4F)c4nc(c(-c5c(F)cccc5F)c5ccc2[nH]5)C=C4)C=C3)cc1)N(C)C(=O)NC[C@H]1C[N@@H+]2CCC[C@@H]2CO1
REMARK SMILES IDX 7 1 6 2 5 3 3 4 4 5 2 7 1 8 69 9 70 10 71 11 72 12 73 13
REMARK SMILES IDX 74 15 75 16 76 17 83 18 77 19 82 20 78 21 81 22 79 24 80 25
REMARK SMILES IDX 8 26 9 27 10 28 11 29 12 30 13 31 14 33 15 34 16 35 68 36
REMARK SMILES IDX 17 37 67 38 18 39 19 40 20 41 61 42 21 43 66 44 60 45 62 46
REMARK SMILES IDX 22 47 65 48 59 49 58 50 23 52 49 53 32 54 48 55 33 56 36 57
REMARK SMILES IDX 47 58 63 59 34 60 35 61 46 63 64 64 37 65 24 66 25 67 30 68
REMARK SMILES IDX 26 69 27 70 29 71 31 72 28 73 50 74 51 75 56 76 52 77 53 78
REMARK SMILES IDX 55 79 57 80 54 81 38 82 39 83 44 84 40 85 41 86 43 87 45 88
REMARK SMILES IDX 42 89
REMARK H PARENT 5 6 73 14 77 23 12 32 62 51 36 62
REMARK Flexibility Score: inf
ROOT
ATOM      1  C   UNL A   1      35.821  23.719  24.839  1.00  0.00     0.021 C 
ENDROOT
BRANCH   1   2
ATOM      2  C   UNL A   1      34.625  24.575  24.426  1.00  0.00     0.116 C 
BRANCH   2   3
ATOM      3  N   UNL A   1      34.236  25.467  25.491  1.00  0.00    -0.354 N 
ATOM      4  C   UNL A   1      33.584  26.665  25.448  1.00  0.00     0.242 C 
ATOM      5  O   UNL A   1      33.305  27.162  26.543  1.00  0.00    -0.273 OA
ATOM      6  H   UNL A   1      34.481  25.162  26.394  1.00  0.00     0.163 HD
BRANCH   4   7
ATOM      7  C   UNL A   1      33.140  27.270  24.085  1.00  0.00     0.172 C 
ATOM      8  C   UNL A   1      33.613  28.701  23.810  1.00  0.00     0.042 C 
BRANCH   7   9
ATOM      9  N   UNL A   1      31.677  27.108  23.922  1.00  0.00    -0.316 N 
ATOM     10  C   UNL A   1      30.910  28.339  23.903  1.00  0.00     0.149 C 
BRANCH   9  11
ATOM     11  C   UNL A   1      31.203  25.871  23.570  1.00  0.00     0.317 C 
ATOM     12  O   UNL A   1      31.332  25.412  22.431  1.00  0.00    -0.249 OA
ATOM     13  N   UNL A   1      30.598  25.050  24.443  1.00  0.00    -0.335 N 
ATOM     14  H   UNL A   1      30.262  24.237  24.002  1.00  0.00     0.165 HD
BRANCH  13  15
ATOM     15  C   UNL A   1      30.305  25.044  25.866  1.00  0.00     0.155 C 
BRANCH  15  16
ATOM     16  C   UNL A   1      30.705  23.738  26.594  1.00  0.00     0.192 C 
ATOM     17  C   UNL A   1      30.762  22.491  25.662  1.00  0.00     0.296 C 
ATOM     18  O   UNL A   1      31.873  23.941  27.410  1.00  0.00    -0.364 OA
ATOM     19  N   UNL A   1      32.097  22.043  25.249  1.00  0.00    -0.328 N 
ATOM     20  C   UNL A   1      32.581  22.728  27.653  1.00  0.00     0.225 C 
ATOM     21  C   UNL A   1      32.105  20.664  24.744  1.00  0.00     0.262 C 
ATOM     22  C   UNL A   1      33.101  22.145  26.334  1.00  0.00     0.210 C 
ATOM     23  H   UNL A   1      32.353  22.679  24.494  1.00  0.00     0.348 HD
ATOM     24  C   UNL A   1      33.457  20.105  25.152  1.00  0.00     0.068 C 
ATOM     25  C   UNL A   1      33.684  20.745  26.506  1.00  0.00     0.073 C 
ENDBRANCH  15  16
ENDBRANCH  13  15
ENDBRANCH   9  11
ENDBRANCH   7   9
ENDBRANCH   4   7
ENDBRANCH   2   3
ENDBRANCH   1   2
BRANCH   1  26
ATOM     26  C   UNL A   1      35.979  22.432  24.017  1.00  0.00     0.002 C 
BRANCH  26  27
ATOM     27  C   UNL A   1      37.399  21.859  23.969  1.00  0.00     0.002 C 
BRANCH  27  28
ATOM     28  C   UNL A   1      37.562  20.479  24.610  1.00  0.00     0.021 C 
BRANCH  28  29
ATOM     29  C   UNL A   1      38.412  20.465  25.876  1.00  0.00     0.116 C 
BRANCH  29  30
ATOM     30  N   UNL A   1      39.491  19.493  25.801  1.00  0.00    -0.352 N 
ATOM     31  C   UNL A   1      40.834  19.668  26.008  1.00  0.00     0.251 C 
ATOM     32  H   UNL A   1      39.216  18.577  25.567  1.00  0.00     0.163 HD
ATOM     33  O   UNL A   1      41.626  18.773  25.711  1.00  0.00    -0.269 OA
BRANCH  31  34
ATOM     34  C   UNL A   1      41.339  20.937  26.570  1.00  0.00     0.039 A 
ATOM     35  C   UNL A   1      41.855  21.902  25.701  1.00  0.00     0.014 A 
ATOM     36  C   UNL A   1      41.317  21.174  27.948  1.00  0.00     0.014 A 
ATOM     37  C   UNL A   1      42.299  23.124  26.209  1.00  0.00     0.010 A 
ATOM     38  C   UNL A   1      41.692  22.419  28.444  1.00  0.00     0.010 A 
ATOM     39  C   UNL A   1      42.192  23.406  27.581  1.00  0.00    -0.014 A 
BRANCH  39  40
ATOM     40  C   UNL A   1      42.604  24.725  28.125  1.00  0.00     0.031 A 
ATOM     41  C   UNL A   1      41.587  25.815  28.323  1.00  0.00     0.074 A 
ATOM     42  C   UNL A   1      43.903  24.956  28.396  1.00  0.00     0.049 A 
ATOM     43  N   UNL A   1      41.762  27.043  28.740  1.00  0.00    -0.248 NA
ATOM     44  C   UNL A   1      40.192  25.489  27.987  1.00  0.00     0.031 C 
ATOM     45  C   UNL A   1      44.993  23.997  28.202  1.00  0.00     0.029 A 
ATOM     46  N   UNL A   1      44.529  26.074  28.886  1.00  0.00    -0.354 N 
ATOM     47  C   UNL A   1      40.505  27.634  28.716  1.00  0.00     0.074 A 
ATOM     48  C   UNL A   1      39.587  26.651  28.183  1.00  0.00     0.031 C 
ATOM     49  C   UNL A   1      46.148  24.560  28.591  1.00  0.00     0.029 A 
ATOM     50  C   UNL A   1      45.889  25.928  29.026  1.00  0.00     0.049 A 
ATOM     51  H   UNL A   1      44.050  26.903  29.117  1.00  0.00     0.167 HD
ATOM     52  C   UNL A   1      40.142  28.871  29.129  1.00  0.00     0.037 A 
ATOM     53  C   UNL A   1      46.821  26.803  29.449  1.00  0.00     0.037 A 
ATOM     54  C   UNL A   1      41.055  29.846  29.669  1.00  0.00     0.049 A 
ATOM     55  C   UNL A   1      46.394  28.179  29.881  1.00  0.00     0.074 A 
ATOM     56  C   UNL A   1      40.779  31.117  30.142  1.00  0.00     0.029 A 
ATOM     57  N   UNL A   1      42.421  29.654  29.808  1.00  0.00    -0.354 N 
ATOM     58  N   UNL A   1      45.192  28.703  29.908  1.00  0.00    -0.248 NA
ATOM     59  C   UNL A   1      47.453  29.083  30.351  1.00  0.00     0.031 C 
ATOM     60  C   UNL A   1      41.985  31.710  30.531  1.00  0.00     0.029 A 
ATOM     61  C   UNL A   1      43.004  30.790  30.346  1.00  0.00     0.049 A 
ATOM     62  H   UNL A   1      42.904  28.833  29.561  1.00  0.00     0.167 HD
ATOM     63  C   UNL A   1      45.347  29.982  30.425  1.00  0.00     0.074 A 
ATOM     64  C   UNL A   1      46.755  30.150  30.715  1.00  0.00     0.031 C 
ATOM     65  C   UNL A   1      44.407  30.935  30.639  1.00  0.00     0.037 A 
BRANCH  52  66
ATOM     66  C   UNL A   1      38.689  29.236  29.025  1.00  0.00     0.057 A 
ATOM     67  C   UNL A   1      38.121  29.647  27.811  1.00  0.00     0.134 A 
ATOM     68  C   UNL A   1      37.840  29.144  30.135  1.00  0.00     0.134 A 
ATOM     69  F   UNL A   1      38.880  29.768  26.712  1.00  0.00    -0.206 F 
ATOM     70  C   UNL A   1      36.768  29.975  27.711  1.00  0.00     0.040 A 
ATOM     71  C   UNL A   1      36.479  29.443  30.041  1.00  0.00     0.040 A 
ATOM     72  F   UNL A   1      38.317  28.752  31.327  1.00  0.00    -0.206 F 
ATOM     73  C   UNL A   1      35.941  29.866  28.828  1.00  0.00     0.006 A 
ENDBRANCH  52  66
BRANCH  53  74
ATOM     74  C   UNL A   1      48.251  26.406  29.502  1.00  0.00     0.057 A 
ATOM     75  C   UNL A   1      48.791  25.787  30.636  1.00  0.00     0.134 A 
ATOM     76  C   UNL A   1      49.120  26.659  28.433  1.00  0.00     0.134 A 
ATOM     77  F   UNL A   1      48.013  25.535  31.700  1.00  0.00    -0.206 F 
ATOM     78  C   UNL A   1      50.145  25.464  30.719  1.00  0.00     0.040 A 
ATOM     79  C   UNL A   1      50.471  26.314  28.491  1.00  0.00     0.040 A 
ATOM     80  F   UNL A   1      48.665  27.240  27.313  1.00  0.00    -0.206 F 
ATOM     81  C   UNL A   1      50.990  25.724  29.642  1.00  0.00     0.006 A 
ENDBRANCH  53  74
BRANCH  65  82
ATOM     82  C   UNL A   1      44.867  32.226  31.253  1.00  0.00     0.057 A 
ATOM     83  C   UNL A   1      45.277  33.314  30.472  1.00  0.00     0.134 A 
ATOM     84  C   UNL A   1      44.874  32.389  32.645  1.00  0.00     0.134 A 
ATOM     85  F   UNL A   1      45.307  33.218  29.134  1.00  0.00    -0.206 F 
ATOM     86  C   UNL A   1      45.705  34.509  31.054  1.00  0.00     0.040 A 
ATOM     87  C   UNL A   1      45.272  33.588  33.237  1.00  0.00     0.040 A 
ATOM     88  F   UNL A   1      44.485  31.390  33.450  1.00  0.00    -0.206 F 
ATOM     89  C   UNL A   1      45.696  34.650  32.440  1.00  0.00     0.006 A 
ENDBRANCH  65  82
ENDBRANCH  39  40
ENDBRANCH  31  34
ENDBRANCH  29  30
ENDBRANCH  28  29
ENDBRANCH  27  28
ENDBRANCH  26  27
ENDBRANCH   1  26
TORSDOF 17
ENDMDL
MODEL 2
REMARK VINA RESULT:     -10.3      1.045      6.836
REMARK SMILES C[C@@H](C(=O)NCCCCCCNC(=O)c1ccc(-c2c3nc(c(-c4c(F)cccc4F)c4ccc([nH]4)c(-c4c(F)cccc4F)c4nc(c(-c5c(F)cccc5F)c5ccc2[nH]5)C=C4)C=C3)cc1)N(C)C(=O)NC[C@H]1C[N@@H+]2CCC[C@@H]2CO1
REMARK SMILES IDX 7 1 6 2 5 3 3 4 4 5 2 7 1 8 69 9 70 10 71 11 72 12 73 13
REMARK SMILES IDX 74 15 75 16 76 17 83 18 77 19 82 20 78 21 81 22 79 24 80 25
REMARK SMILES IDX 8 26 9 27 10 28 11 29 12 30 13 31 14 33 15 34 16 35 68 36
REMARK SMILES IDX 17 37 67 38 18 39 19 40 20 41 61 42 21 43 66 44 60 45 62 46
REMARK SMILES IDX 22 47 65 48 59 49 58 50 23 52 49 53 32 54 48 55 33 56 36 57
REMARK SMILES IDX 47 58 63 59 34 60 35 61 46 63 64 64 37 65 24 66 25 67 30 68
REMARK SMILES IDX 26 69 27 70 29 71 31 72 28 73 50 74 51 75 56 76 52 77 53 78
REMARK SMILES IDX 55 79 57 80 54 81 38 82 39 83 44 84 40 85 41 86 43 87 45 88
REMARK SMILES IDX 42 89
REMARK H PARENT 5 6 73 14 77 23 12 32 62 51 36 62
REMARK Flexibility Score: inf
ROOT
ATOM      1  C   UNL A   1      35.294  19.971  24.991  1.00  0.00     0.021 C 
ENDROOT
BRANCH   1   2
ATOM      2  C   UNL A   1      33.796  19.943  25.290  1.00  0.00     0.116 C 
BRANCH   2   3
ATOM      3  N   UNL A   1      33.025  20.031  24.073  1.00  0.00    -0.354 N 
ATOM      4  C   UNL A   1      32.307  21.068  23.554  1.00  0.00     0.242 C 
ATOM      5  O   UNL A   1      31.820  20.877  22.436  1.00  0.00    -0.273 OA
ATOM      6  H   UNL A   1      33.016  19.210  23.530  1.00  0.00     0.163 HD
BRANCH   4   7
ATOM      7  C   UNL A   1      32.230  22.427  24.308  1.00  0.00     0.172 C 
ATOM      8  C   UNL A   1      31.178  22.511  25.418  1.00  0.00     0.042 C 
BRANCH   7   9
ATOM      9  N   UNL A   1      32.122  23.534  23.330  1.00  0.00    -0.316 N 
ATOM     10  C   UNL A   1      30.820  24.170  23.249  1.00  0.00     0.149 C 
BRANCH   9  11
ATOM     11  C   UNL A   1      33.278  24.014  22.773  1.00  0.00     0.317 C 
ATOM     12  O   UNL A   1      33.503  23.956  21.560  1.00  0.00    -0.249 OA
ATOM     13  N   UNL A   1      34.236  24.616  23.496  1.00  0.00    -0.335 N 
ATOM     14  H   UNL A   1      35.022  24.834  22.944  1.00  0.00     0.165 HD
BRANCH  13  15
ATOM     15  C   UNL A   1      34.422  25.030  24.875  1.00  0.00     0.155 C 
BRANCH  15  16
ATOM     16  C   UNL A   1      33.692  26.342  25.251  1.00  0.00     0.192 C 
ATOM     17  C   UNL A   1      33.721  27.422  24.128  1.00  0.00     0.296 C 
ATOM     18  O   UNL A   1      32.389  26.068  25.797  1.00  0.00    -0.364 OA
ATOM     19  N   UNL A   1      32.491  27.585  23.345  1.00  0.00    -0.328 N 
ATOM     20  C   UNL A   1      31.498  27.171  25.653  1.00  0.00     0.225 C 
ATOM     21  C   UNL A   1      32.442  28.861  22.619  1.00  0.00     0.262 C 
ATOM     22  C   UNL A   1      31.264  27.473  24.168  1.00  0.00     0.210 C 
ATOM     23  H   UNL A   1      32.516  26.817  22.674  1.00  0.00     0.348 HD
ATOM     24  C   UNL A   1      30.973  29.244  22.599  1.00  0.00     0.068 C 
ATOM     25  C   UNL A   1      30.488  28.770  23.953  1.00  0.00     0.073 C 
ENDBRANCH  15  16
ENDBRANCH  13  15
ENDBRANCH   9  11
ENDBRANCH   7   9
ENDBRANCH   4   7
ENDBRANCH   2   3
ENDBRANCH   1   2
BRANCH   1  26
ATOM     26  C   UNL A   1      35.837  21.368  24.661  1.00  0.00     0.002 C 
BRANCH  26  27
ATOM     27  C   UNL A   1      37.361  21.462  24.530  1.00  0.00     0.002 C 
BRANCH  27  28
ATOM     28  C   UNL A   1      38.110  20.145  24.749  1.00  0.00     0.021 C 
BRANCH  28  29
ATOM     29  C   UNL A   1      38.957  20.103  26.017  1.00  0.00     0.116 C 
BRANCH  29  30
ATOM     30  N   UNL A   1      40.140  19.272  25.857  1.00  0.00    -0.352 N 
ATOM     31  C   UNL A   1      41.461  19.609  25.989  1.00  0.00     0.251 C 
ATOM     32  H   UNL A   1      39.966  18.333  25.620  1.00  0.00     0.163 HD
ATOM     33  O   UNL A   1      42.338  18.823  25.627  1.00  0.00    -0.269 OA
BRANCH  31  34
ATOM     34  C   UNL A   1      41.841  20.922  26.549  1.00  0.00     0.039 A 
ATOM     35  C   UNL A   1      42.246  21.935  25.676  1.00  0.00     0.014 A 
ATOM     36  C   UNL A   1      41.811  21.154  27.928  1.00  0.00     0.014 A 
ATOM     37  C   UNL A   1      42.569  23.195  26.182  1.00  0.00     0.010 A 
ATOM     38  C   UNL A   1      42.062  22.431  28.422  1.00  0.00     0.010 A 
ATOM     39  C   UNL A   1      42.449  23.464  27.555  1.00  0.00    -0.014 A 
BRANCH  39  40
ATOM     40  C   UNL A   1      42.731  24.818  28.097  1.00  0.00     0.031 A 
ATOM     41  C   UNL A   1      44.125  25.189  28.523  1.00  0.00     0.074 A 
ATOM     42  C   UNL A   1      41.723  25.698  28.247  1.00  0.00     0.049 A 
ATOM     43  N   UNL A   1      44.556  26.302  29.061  1.00  0.00    -0.248 NA
ATOM     44  C   UNL A   1      45.168  24.166  28.343  1.00  0.00     0.031 C 
ATOM     45  C   UNL A   1      40.319  25.443  27.915  1.00  0.00     0.029 A 
ATOM     46  N   UNL A   1      41.721  26.984  28.725  1.00  0.00    -0.354 N 
ATOM     47  C   UNL A   1      45.914  26.113  29.282  1.00  0.00     0.074 A 
ATOM     48  C   UNL A   1      46.224  24.758  28.881  1.00  0.00     0.031 C 
ATOM     49  C   UNL A   1      39.598  26.544  28.178  1.00  0.00     0.029 A 
ATOM     50  C   UNL A   1      40.477  27.568  28.731  1.00  0.00     0.049 A 
ATOM     51  H   UNL A   1      42.534  27.444  29.036  1.00  0.00     0.167 HD
ATOM     52  C   UNL A   1      46.829  26.997  29.748  1.00  0.00     0.037 A 
ATOM     53  C   UNL A   1      40.090  28.791  29.143  1.00  0.00     0.037 A 
ATOM     54  C   UNL A   1      46.522  28.349  30.138  1.00  0.00     0.049 A 
ATOM     55  C   UNL A   1      41.121  29.746  29.678  1.00  0.00     0.074 A 
ATOM     56  C   UNL A   1      47.383  29.332  30.595  1.00  0.00     0.029 A 
ATOM     57  N   UNL A   1      45.253  28.908  30.114  1.00  0.00    -0.354 N 
ATOM     58  N   UNL A   1      42.413  29.573  29.825  1.00  0.00    -0.248 NA
ATOM     59  C   UNL A   1      40.642  31.072  30.094  1.00  0.00     0.031 C 
ATOM     60  C   UNL A   1      46.629  30.474  30.886  1.00  0.00     0.029 A 
ATOM     61  C   UNL A   1      45.307  30.218  30.564  1.00  0.00     0.049 A 
ATOM     62  H   UNL A   1      44.436  28.444  29.822  1.00  0.00     0.167 HD
ATOM     63  C   UNL A   1      42.903  30.774  30.320  1.00  0.00     0.074 A 
ATOM     64  C   UNL A   1      41.774  31.673  30.431  1.00  0.00     0.031 C 
ATOM     65  C   UNL A   1      44.174  31.104  30.656  1.00  0.00     0.037 A 
BRANCH  52  66
ATOM     66  C   UNL A   1      48.253  26.532  29.849  1.00  0.00     0.057 A 
ATOM     67  C   UNL A   1      48.738  25.900  31.002  1.00  0.00     0.134 A 
ATOM     68  C   UNL A   1      49.139  26.682  28.774  1.00  0.00     0.134 A 
ATOM     69  F   UNL A   1      47.946  25.735  32.072  1.00  0.00    -0.206 F 
ATOM     70  C   UNL A   1      50.059  25.457  31.091  1.00  0.00     0.040 A 
ATOM     71  C   UNL A   1      50.454  26.217  28.842  1.00  0.00     0.040 A 
ATOM     72  F   UNL A   1      48.738  27.272  27.638  1.00  0.00    -0.206 F 
ATOM     73  C   UNL A   1      50.919  25.609  30.005  1.00  0.00     0.006 A 
ENDBRANCH  52  66
BRANCH  53  74
ATOM     74  C   UNL A   1      38.663  29.193  29.055  1.00  0.00     0.057 A 
ATOM     75  C   UNL A   1      37.815  29.105  30.166  1.00  0.00     0.134 A 
ATOM     76  C   UNL A   1      38.104  29.646  27.853  1.00  0.00     0.134 A 
ATOM     77  F   UNL A   1      38.288  28.660  31.340  1.00  0.00    -0.206 F 
ATOM     78  C   UNL A   1      36.460  29.422  30.080  1.00  0.00     0.040 A 
ATOM     79  C   UNL A   1      36.755  29.995  27.760  1.00  0.00     0.040 A 
ATOM     80  F   UNL A   1      38.863  29.763  26.754  1.00  0.00    -0.206 F 
ATOM     81  C   UNL A   1      35.926  29.873  28.873  1.00  0.00     0.006 A 
ENDBRANCH  53  74
BRANCH  65  82
ATOM     82  C   UNL A   1      44.415  32.506  31.134  1.00  0.00     0.057 A 
ATOM     83  C   UNL A   1      44.377  32.843  32.493  1.00  0.00     0.134 A 
ATOM     84  C   UNL A   1      44.715  33.527  30.222  1.00  0.00     0.134 A 
ATOM     85  F   UNL A   1      44.082  31.916  33.416  1.00  0.00    -0.206 F 
ATOM     86  C   UNL A   1      44.602  34.151  32.926  1.00  0.00     0.040 A 
ATOM     87  C   UNL A   1      44.969  34.832  30.645  1.00  0.00     0.040 A 
ATOM     88  F   UNL A   1      44.776  33.270  28.907  1.00  0.00    -0.206 F 
ATOM     89  C   UNL A   1      44.905  35.149  32.000  1.00  0.00     0.006 A 
ENDBRANCH  65  82
ENDBRANCH  39  40
ENDBRANCH  31  34
ENDBRANCH  29  30
ENDBRANCH  28  29
ENDBRANCH  27  28
ENDBRANCH  26  27
ENDBRANCH   1  26
TORSDOF 17
ENDMDL
MODEL 3
REMARK VINA RESULT:     -10.2      1.154      6.794
REMARK SMILES C[C@@H](C(=O)NCCCCCCNC(=O)c1ccc(-c2c3nc(c(-c4c(F)cccc4F)c4ccc([nH]4)c(-c4c(F)cccc4F)c4nc(c(-c5c(F)cccc5F)c5ccc2[nH]5)C=C4)C=C3)cc1)N(C)C(=O)NC[C@H]1C[N@@H+]2CCC[C@@H]2CO1
REMARK SMILES IDX 7 1 6 2 5 3 3 4 4 5 2 7 1 8 69 9 70 10 71 11 72 12 73 13
REMARK SMILES IDX 74 15 75 16 76 17 83 18 77 19 82 20 78 21 81 22 79 24 80 25
REMARK SMILES IDX 8 26 9 27 10 28 11 29 12 30 13 31 14 33 15 34 16 35 68 36
REMARK SMILES IDX 17 37 67 38 18 39 19 40 20 41 61 42 21 43 66 44 60 45 62 46
REMARK SMILES IDX 22 47 65 48 59 49 58 50 23 52 49 53 32 54 48 55 33 56 36 57
REMARK SMILES IDX 47 58 63 59 34 60 35 61 46 63 64 64 37 65 24 66 25 67 30 68
REMARK SMILES IDX 26 69 27 70 29 71 31 72 28 73 50 74 51 75 56 76 52 77 53 78
REMARK SMILES IDX 55 79 57 80 54 81 38 82 39 83 44 84 40 85 41 86 43 87 45 88
REMARK SMILES IDX 42 89
REMARK H PARENT 5 6 73 14 77 23 12 32 62 51 36 62
REMARK Flexibility Score: inf
ROOT
ATOM      1  C   UNL A   1      35.101  19.542  24.709  1.00  0.00     0.021 C 
ENDROOT
BRANCH   1   2
ATOM      2  C   UNL A   1      33.601  19.534  24.995  1.00  0.00     0.116 C 
BRANCH   2   3
ATOM      3  N   UNL A   1      32.846  19.824  23.800  1.00  0.00    -0.354 N 
ATOM      4  C   UNL A   1      32.257  20.982  23.385  1.00  0.00     0.242 C 
ATOM      5  O   UNL A   1      31.750  20.953  22.259  1.00  0.00    -0.273 OA
ATOM      6  H   UNL A   1      32.738  19.063  23.185  1.00  0.00     0.163 HD
BRANCH   4   7
ATOM      7  C   UNL A   1      32.345  22.267  24.259  1.00  0.00     0.172 C 
ATOM      8  C   UNL A   1      31.355  22.343  25.425  1.00  0.00     0.042 C 
BRANCH   7   9
ATOM      9  N   UNL A   1      32.301  23.465  23.389  1.00  0.00    -0.316 N 
ATOM     10  C   UNL A   1      31.007  24.114  23.286  1.00  0.00     0.149 C 
BRANCH   9  11
ATOM     11  C   UNL A   1      33.491  23.990  22.959  1.00  0.00     0.317 C 
ATOM     12  O   UNL A   1      33.838  23.960  21.774  1.00  0.00    -0.249 OA
ATOM     13  N   UNL A   1      34.351  24.609  23.782  1.00  0.00    -0.335 N 
ATOM     14  H   UNL A   1      35.181  24.860  23.316  1.00  0.00     0.165 HD
BRANCH  13  15
ATOM     15  C   UNL A   1      34.384  25.005  25.180  1.00  0.00     0.155 C 
BRANCH  15  16
ATOM     16  C   UNL A   1      33.663  26.341  25.481  1.00  0.00     0.192 C 
ATOM     17  C   UNL A   1      33.750  27.377  24.320  1.00  0.00     0.296 C 
ATOM     18  O   UNL A   1      32.337  26.107  25.989  1.00  0.00    -0.364 OA
ATOM     19  N   UNL A   1      32.551  27.530  23.489  1.00  0.00    -0.328 N 
ATOM     20  C   UNL A   1      31.471  27.218  25.773  1.00  0.00     0.225 C 
ATOM     21  C   UNL A   1      32.548  28.779  22.715  1.00  0.00     0.262 C 
ATOM     22  C   UNL A   1      31.294  27.468  24.271  1.00  0.00     0.210 C 
ATOM     23  H   UNL A   1      32.587  26.737  22.848  1.00  0.00     0.348 HD
ATOM     24  C   UNL A   1      31.087  29.183  22.628  1.00  0.00     0.068 C 
ATOM     25  C   UNL A   1      30.548  28.767  23.981  1.00  0.00     0.073 C 
ENDBRANCH  15  16
ENDBRANCH  13  15
ENDBRANCH   9  11
ENDBRANCH   7   9
ENDBRANCH   4   7
ENDBRANCH   2   3
ENDBRANCH   1   2
BRANCH   1  26
ATOM     26  C   UNL A   1      35.824  20.801  25.208  1.00  0.00     0.002 C 
BRANCH  26  27
ATOM     27  C   UNL A   1      37.212  21.038  24.604  1.00  0.00     0.002 C 
BRANCH  27  28
ATOM     28  C   UNL A   1      38.208  19.893  24.802  1.00  0.00     0.021 C 
BRANCH  28  29
ATOM     29  C   UNL A   1      39.142  20.066  25.995  1.00  0.00     0.116 C 
BRANCH  29  30
ATOM     30  N   UNL A   1      40.304  19.195  25.912  1.00  0.00    -0.352 N 
ATOM     31  C   UNL A   1      41.631  19.502  26.055  1.00  0.00     0.251 C 
ATOM     32  H   UNL A   1      40.107  18.248  25.725  1.00  0.00     0.163 HD
ATOM     33  O   UNL A   1      42.492  18.672  25.759  1.00  0.00    -0.269 OA
BRANCH  31  34
ATOM     34  C   UNL A   1      42.036  20.835  26.546  1.00  0.00     0.039 A 
ATOM     35  C   UNL A   1      42.400  21.813  25.617  1.00  0.00     0.014 A 
ATOM     36  C   UNL A   1      42.070  21.119  27.914  1.00  0.00     0.014 A 
ATOM     37  C   UNL A   1      42.747  23.091  26.059  1.00  0.00     0.010 A 
ATOM     38  C   UNL A   1      42.343  22.413  28.348  1.00  0.00     0.010 A 
ATOM     39  C   UNL A   1      42.690  23.412  27.426  1.00  0.00    -0.014 A 
BRANCH  39  40
ATOM     40  C   UNL A   1      42.997  24.785  27.902  1.00  0.00     0.031 A 
ATOM     41  C   UNL A   1      44.422  25.207  28.130  1.00  0.00     0.074 A 
ATOM     42  C   UNL A   1      41.989  25.636  28.172  1.00  0.00     0.049 A 
ATOM     43  N   UNL A   1      44.885  26.344  28.586  1.00  0.00    -0.248 NA
ATOM     44  C   UNL A   1      45.465  24.214  27.827  1.00  0.00     0.031 C 
ATOM     45  C   UNL A   1      40.563  25.331  28.037  1.00  0.00     0.029 A 
ATOM     46  N   UNL A   1      42.009  26.931  28.625  1.00  0.00    -0.354 N 
ATOM     47  C   UNL A   1      46.266  26.202  28.625  1.00  0.00     0.074 A 
ATOM     48  C   UNL A   1      46.563  24.849  28.208  1.00  0.00     0.031 C 
ATOM     49  C   UNL A   1      39.847  26.415  28.377  1.00  0.00     0.029 A 
ATOM     50  C   UNL A   1      40.758  27.477  28.789  1.00  0.00     0.049 A 
ATOM     51  H   UNL A   1      42.840  27.423  28.815  1.00  0.00     0.167 HD
ATOM     52  C   UNL A   1      47.204  27.124  28.948  1.00  0.00     0.037 A 
ATOM     53  C   UNL A   1      40.389  28.696  29.229  1.00  0.00     0.037 A 
ATOM     54  C   UNL A   1      46.908  28.474  29.353  1.00  0.00     0.049 A 
ATOM     55  C   UNL A   1      41.451  29.693  29.604  1.00  0.00     0.074 A 
ATOM     56  C   UNL A   1      47.789  29.491  29.674  1.00  0.00     0.029 A 
ATOM     57  N   UNL A   1      45.630  28.993  29.492  1.00  0.00    -0.354 N 
ATOM     58  N   UNL A   1      42.755  29.563  29.578  1.00  0.00    -0.248 NA
ATOM     59  C   UNL A   1      40.988  31.011  30.059  1.00  0.00     0.031 C 
ATOM     60  C   UNL A   1      47.044  30.615  30.045  1.00  0.00     0.029 A 
ATOM     61  C   UNL A   1      45.699  30.312  29.909  1.00  0.00     0.049 A 
ATOM     62  H   UNL A   1      44.797  28.497  29.321  1.00  0.00     0.167 HD
ATOM     63  C   UNL A   1      43.267  30.788  29.983  1.00  0.00     0.074 A 
ATOM     64  C   UNL A   1      42.134  31.655  30.231  1.00  0.00     0.031 C 
ATOM     65  C   UNL A   1      44.560  31.164  30.138  1.00  0.00     0.037 A 
BRANCH  52  66
ATOM     66  C   UNL A   1      48.644  26.705  28.863  1.00  0.00     0.057 A 
ATOM     67  C   UNL A   1      49.367  26.805  27.667  1.00  0.00     0.134 A 
ATOM     68  C   UNL A   1      49.325  26.231  29.991  1.00  0.00     0.134 A 
ATOM     69  F   UNL A   1      48.771  27.240  26.546  1.00  0.00    -0.206 F 
ATOM     70  C   UNL A   1      50.708  26.426  27.590  1.00  0.00     0.040 A 
ATOM     71  C   UNL A   1      50.675  25.876  29.933  1.00  0.00     0.040 A 
ATOM     72  F   UNL A   1      48.695  26.116  31.170  1.00  0.00    -0.206 F 
ATOM     73  C   UNL A   1      51.368  25.967  28.728  1.00  0.00     0.006 A 
ENDBRANCH  52  66
BRANCH  53  74
ATOM     74  C   UNL A   1      38.950  29.051  29.328  1.00  0.00     0.057 A 
ATOM     75  C   UNL A   1      38.271  29.632  28.251  1.00  0.00     0.134 A 
ATOM     76  C   UNL A   1      38.227  28.845  30.510  1.00  0.00     0.134 A 
ATOM     77  F   UNL A   1      38.916  29.871  27.098  1.00  0.00    -0.206 F 
ATOM     78  C   UNL A   1      36.937  30.024  28.352  1.00  0.00     0.040 A 
ATOM     79  C   UNL A   1      36.882  29.207  30.616  1.00  0.00     0.040 A 
ATOM     80  F   UNL A   1      38.815  28.284  31.575  1.00  0.00    -0.206 F 
ATOM     81  C   UNL A   1      36.237  29.808  29.538  1.00  0.00     0.006 A 
ENDBRANCH  53  74
BRANCH  65  82
ATOM     82  C   UNL A   1      44.816  32.583  30.557  1.00  0.00     0.057 A 
ATOM     83  C   UNL A   1      44.910  33.626  29.626  1.00  0.00     0.134 A 
ATOM     84  C   UNL A   1      44.944  32.912  31.913  1.00  0.00     0.134 A 
ATOM     85  F   UNL A   1      44.811  33.375  28.312  1.00  0.00    -0.206 F 
ATOM     86  C   UNL A   1      45.150  34.941  30.027  1.00  0.00     0.040 A 
ATOM     87  C   UNL A   1      45.155  34.228  32.327  1.00  0.00     0.040 A 
ATOM     88  F   UNL A   1      44.854  31.963  32.856  1.00  0.00    -0.206 F 
ATOM     89  C   UNL A   1      45.266  35.246  31.382  1.00  0.00     0.006 A 
ENDBRANCH  65  82
ENDBRANCH  39  40
ENDBRANCH  31  34
ENDBRANCH  29  30
ENDBRANCH  28  29
ENDBRANCH  27  28
ENDBRANCH  26  27
ENDBRANCH   1  26
TORSDOF 17
ENDMDL
