MODEL 1
REMARK VINA RESULT:     -10.4      0.000      0.000
REMARK SMILES CCCCCCNC(=O)Oc1cccc(-c2ccc([C@@H](C)C(=O)NCCCCCCNC(=O)c3ccc(-c4c5nc(c(-c6c(F)cccc6F)c6ccc([nH]6)c(-c6c(F)cccc6F)c6nc(c(-c7c(F)cccc7F)c7ccc4[nH]7)C=C6)C=C5)cc3)cc2F)c1
REMARK SMILES IDX 22 1 23 2 24 3 20 5 21 6 19 7 16 8 17 9 89 10 18 11 88 12
REMARK SMILES IDX 90 13 15 14 11 15 12 16 91 17 13 18 14 19 10 20 8 21 7 22
REMARK SMILES IDX 9 24 6 25 5 26 4 27 3 28 2 29 1 30 25 31 26 32 27 33 28 34
REMARK SMILES IDX 29 35 30 36 31 37 32 38 33 40 34 41 35 42 87 43 36 44 86 45
REMARK SMILES IDX 37 46 38 47 39 48 80 49 40 50 85 51 79 52 81 53 41 54 84 55
REMARK SMILES IDX 78 56 77 57 42 59 68 60 51 61 67 62 52 63 55 64 66 65 82 66
REMARK SMILES IDX 53 67 54 68 65 70 83 71 56 72 43 73 44 74 49 75 45 76 46 77
REMARK SMILES IDX 48 78 50 79 47 80 69 81 70 82 75 83 71 84 72 85 74 86 76 87
REMARK SMILES IDX 73 88 57 89 58 90 63 91 59 92 60 93 62 94 64 95 61 96
REMARK H PARENT 24 4 7 23 31 39 81 58 55 69
REMARK Flexibility Score: inf
ROOT
ATOM      1  C   UNL A   1      32.601  29.189  25.480  1.00  0.00     0.227 C 
ATOM      2  O   UNL A   1      32.313  29.401  24.297  1.00  0.00    -0.274 OA
ATOM      3  N   UNL A   1      33.454  30.074  26.063  1.00  0.00    -0.356 N 
ATOM      4  H   UNL A   1      33.696  30.838  25.491  1.00  0.00     0.163 HD
ENDROOT
BRANCH   1   5
ATOM      5  C   UNL A   1      31.989  27.985  26.213  1.00  0.00     0.105 C 
ATOM      6  C   UNL A   1      31.437  28.316  27.599  1.00  0.00     0.023 C 
BRANCH   5   7
ATOM      7  C   UNL A   1      32.831  26.723  26.110  1.00  0.00    -0.033 A 
ATOM      8  C   UNL A   1      34.243  24.249  25.818  1.00  0.00     0.018 A 
ATOM      9  C   UNL A   1      34.678  25.427  25.188  1.00  0.00     0.012 A 
ATOM     10  C   UNL A   1      33.112  24.360  26.638  1.00  0.00     0.131 A 
ATOM     11  C   UNL A   1      34.006  26.644  25.357  1.00  0.00     0.005 A 
ATOM     12  C   UNL A   1      32.407  25.560  26.768  1.00  0.00     0.044 A 
ATOM     13  F   UNL A   1      32.663  23.301  27.330  1.00  0.00    -0.206 F 
BRANCH   8  14
ATOM     14  C   UNL A   1      34.940  22.965  25.581  1.00  0.00    -0.012 A 
ATOM     15  C   UNL A   1      34.935  20.649  24.832  1.00  0.00     0.133 A 
ATOM     16  C   UNL A   1      36.303  20.537  25.047  1.00  0.00     0.047 A 
ATOM     17  C   UNL A   1      34.252  21.838  25.101  1.00  0.00     0.056 A 
ATOM     18  C   UNL A   1      37.004  21.637  25.525  1.00  0.00     0.004 A 
ATOM     19  C   UNL A   1      36.329  22.833  25.795  1.00  0.00     0.009 A 
BRANCH  15  20
ATOM     20  O   UNL A   1      34.250  19.485  24.452  1.00  0.00    -0.410 OA
BRANCH  20  21
ATOM     21  C   UNL A   1      32.942  19.329  24.884  1.00  0.00     0.412 C 
ATOM     22  N   UNL A   1      32.028  19.498  23.880  1.00  0.00    -0.321 N 
ATOM     23  H   UNL A   1      31.080  19.407  24.125  1.00  0.00     0.167 HD
ATOM     24  O   UNL A   1      32.582  19.082  26.029  1.00  0.00    -0.224 OA
BRANCH  22  25
ATOM     25  C   UNL A   1      32.315  19.798  22.491  1.00  0.00     0.119 C 
BRANCH  25  26
ATOM     26  C   UNL A   1      32.209  21.293  22.194  1.00  0.00     0.021 C 
BRANCH  26  27
ATOM     27  C   UNL A   1      31.384  22.094  23.209  1.00  0.00     0.002 C 
BRANCH  27  28
ATOM     28  C   UNL A   1      31.666  23.600  23.249  1.00  0.00    -0.000 C 
BRANCH  28  29
ATOM     29  C   UNL A   1      30.572  24.456  23.892  1.00  0.00    -0.003 C 
ATOM     30  C   UNL A   1      30.552  25.889  23.384  1.00  0.00     0.004 C 
ENDBRANCH  28  29
ENDBRANCH  27  28
ENDBRANCH  26  27
ENDBRANCH  25  26
ENDBRANCH  22  25
ENDBRANCH  20  21
ENDBRANCH  15  20
ENDBRANCH   8  14
ENDBRANCH   5   7
ENDBRANCH   1   5
BRANCH   3  31
ATOM     31  C   UNL A   1      34.069  30.098  27.374  1.00  0.00     0.116 C 
BRANCH  31  32
ATOM     32  C   UNL A   1      34.842  31.396  27.614  1.00  0.00     0.021 C 
BRANCH  32  33
ATOM     33  C   UNL A   1      34.429  32.135  28.892  1.00  0.00     0.002 C 
BRANCH  33  34
ATOM     34  C   UNL A   1      34.562  33.663  28.832  1.00  0.00     0.002 C 
BRANCH  34  35
ATOM     35  C   UNL A   1      33.245  34.443  28.893  1.00  0.00     0.021 C 
BRANCH  35  36
ATOM     36  C   UNL A   1      33.380  35.889  29.364  1.00  0.00     0.116 C 
BRANCH  36  37
ATOM     37  N   UNL A   1      32.566  36.154  30.539  1.00  0.00    -0.352 N 
ATOM     38  C   UNL A   1      32.680  35.668  31.817  1.00  0.00     0.251 C 
ATOM     39  H   UNL A   1      31.818  36.779  30.397  1.00  0.00     0.163 HD
ATOM     40  O   UNL A   1      31.761  35.822  32.616  1.00  0.00    -0.269 OA
BRANCH  38  41
ATOM     41  C   UNL A   1      33.902  34.949  32.236  1.00  0.00     0.039 A 
ATOM     42  C   UNL A   1      33.786  33.638  32.704  1.00  0.00     0.014 A 
ATOM     43  C   UNL A   1      35.151  35.577  32.209  1.00  0.00     0.014 A 
ATOM     44  C   UNL A   1      34.929  32.937  33.093  1.00  0.00     0.010 A 
ATOM     45  C   UNL A   1      36.298  34.855  32.534  1.00  0.00     0.010 A 
ATOM     46  C   UNL A   1      36.197  33.530  32.984  1.00  0.00    -0.014 A 
BRANCH  46  47
ATOM     47  C   UNL A   1      37.428  32.777  33.332  1.00  0.00     0.031 A 
ATOM     48  C   UNL A   1      38.168  33.075  34.606  1.00  0.00     0.074 A 
ATOM     49  C   UNL A   1      37.911  31.862  32.470  1.00  0.00     0.049 A 
ATOM     50  N   UNL A   1      39.284  32.558  35.056  1.00  0.00    -0.248 NA
ATOM     51  C   UNL A   1      37.593  34.110  35.480  1.00  0.00     0.031 C 
ATOM     52  C   UNL A   1      37.312  31.518  31.180  1.00  0.00     0.029 A 
ATOM     53  N   UNL A   1      39.023  31.062  32.545  1.00  0.00    -0.354 N 
ATOM     54  C   UNL A   1      39.550  33.211  36.252  1.00  0.00     0.074 A 
ATOM     55  C   UNL A   1      38.508  34.198  36.434  1.00  0.00     0.031 C 
ATOM     56  C   UNL A   1      38.050  30.561  30.595  1.00  0.00     0.029 A 
ATOM     57  C   UNL A   1      39.191  30.249  31.450  1.00  0.00     0.049 A 
ATOM     58  H   UNL A   1      39.642  31.068  33.310  1.00  0.00     0.167 HD
ATOM     59  C   UNL A   1      40.558  32.993  37.129  1.00  0.00     0.037 A 
ATOM     60  C   UNL A   1      40.156  29.355  31.167  1.00  0.00     0.037 A 
ATOM     61  C   UNL A   1      41.581  31.995  36.956  1.00  0.00     0.049 A 
ATOM     62  C   UNL A   1      41.264  29.132  32.157  1.00  0.00     0.074 A 
ATOM     63  C   UNL A   1      42.609  31.653  37.819  1.00  0.00     0.029 A 
ATOM     64  N   UNL A   1      41.709  31.180  35.841  1.00  0.00    -0.354 N 
ATOM     65  N   UNL A   1      41.464  29.706  33.317  1.00  0.00    -0.248 NA
ATOM     66  C   UNL A   1      42.277  28.128  31.799  1.00  0.00     0.031 C 
ATOM     67  C   UNL A   1      43.382  30.661  37.207  1.00  0.00     0.029 A 
ATOM     68  C   UNL A   1      42.810  30.353  35.983  1.00  0.00     0.049 A 
ATOM     69  H   UNL A   1      41.105  31.189  35.064  1.00  0.00     0.167 HD
ATOM     70  C   UNL A   1      42.609  29.120  33.840  1.00  0.00     0.074 A 
ATOM     71  C   UNL A   1      43.051  28.133  32.877  1.00  0.00     0.031 C 
ATOM     72  C   UNL A   1      43.237  29.376  35.013  1.00  0.00     0.037 A 
BRANCH  59  73
ATOM     73  C   UNL A   1      40.601  33.854  38.360  1.00  0.00     0.057 A 
ATOM     74  C   UNL A   1      41.373  35.022  38.417  1.00  0.00     0.134 A 
ATOM     75  C   UNL A   1      39.841  33.527  39.489  1.00  0.00     0.134 A 
ATOM     76  F   UNL A   1      42.134  35.386  37.374  1.00  0.00    -0.206 F 
ATOM     77  C   UNL A   1      41.412  35.817  39.564  1.00  0.00     0.040 A 
ATOM     78  C   UNL A   1      39.849  34.330  40.632  1.00  0.00     0.040 A 
ATOM     79  F   UNL A   1      39.072  32.428  39.500  1.00  0.00    -0.206 F 
ATOM     80  C   UNL A   1      40.642  35.474  40.674  1.00  0.00     0.006 A 
ENDBRANCH  59  73
BRANCH  60  81
ATOM     81  C   UNL A   1      40.102  28.585  29.898  1.00  0.00     0.057 A 
ATOM     82  C   UNL A   1      39.361  27.402  29.805  1.00  0.00     0.134 A 
ATOM     83  C   UNL A   1      40.782  29.013  28.752  1.00  0.00     0.134 A 
ATOM     84  F   UNL A   1      38.702  26.933  30.876  1.00  0.00    -0.206 F 
ATOM     85  C   UNL A   1      39.310  26.662  28.624  1.00  0.00     0.040 A 
ATOM     86  C   UNL A   1      40.721  28.296  27.557  1.00  0.00     0.040 A 
ATOM     87  F   UNL A   1      41.503  30.144  28.775  1.00  0.00    -0.206 F 
ATOM     88  C   UNL A   1      39.989  27.112  27.492  1.00  0.00     0.006 A 
ENDBRANCH  60  81
BRANCH  72  89
ATOM     89  C   UNL A   1      44.456  28.558  35.329  1.00  0.00     0.057 A 
ATOM     90  C   UNL A   1      44.369  27.334  36.004  1.00  0.00     0.134 A 
ATOM     91  C   UNL A   1      45.727  28.985  34.923  1.00  0.00     0.134 A 
ATOM     92  F   UNL A   1      43.182  26.877  36.432  1.00  0.00    -0.206 F 
ATOM     93  C   UNL A   1      45.506  26.576  36.287  1.00  0.00     0.040 A 
ATOM     94  C   UNL A   1      46.867  28.223  35.176  1.00  0.00     0.040 A 
ATOM     95  F   UNL A   1      45.878  30.144  34.264  1.00  0.00    -0.206 F 
ATOM     96  C   UNL A   1      46.760  27.017  35.867  1.00  0.00     0.006 A 
ENDBRANCH  72  89
ENDBRANCH  46  47
ENDBRANCH  38  41
ENDBRANCH  36  37
ENDBRANCH  35  36
ENDBRANCH  34  35
ENDBRANCH  33  34
ENDBRANCH  32  33
ENDBRANCH  31  32
ENDBRANCH   3  31
TORSDOF 22
ENDMDL
MODEL 2
REMARK VINA RESULT:     -10.4      3.292      5.859
REMARK SMILES CCCCCCNC(=O)Oc1cccc(-c2ccc([C@@H](C)C(=O)NCCCCCCNC(=O)c3ccc(-c4c5nc(c(-c6c(F)cccc6F)c6ccc([nH]6)c(-c6c(F)cccc6F)c6nc(c(-c7c(F)cccc7F)c7ccc4[nH]7)C=C6)C=C5)cc3)cc2F)c1
REMARK SMILES IDX 22 1 23 2 24 3 20 5 21 6 19 7 16 8 17 9 89 10 18 11 88 12
REMARK SMILES IDX 90 13 15 14 11 15 12 16 91 17 13 18 14 19 10 20 8 21 7 22
REMARK SMILES IDX 9 24 6 25 5 26 4 27 3 28 2 29 1 30 25 31 26 32 27 33 28 34
REMARK SMILES IDX 29 35 30 36 31 37 32 38 33 40 34 41 35 42 87 43 36 44 86 45
REMARK SMILES IDX 37 46 38 47 39 48 80 49 40 50 85 51 79 52 81 53 41 54 84 55
REMARK SMILES IDX 78 56 77 57 42 59 68 60 51 61 67 62 52 63 55 64 66 65 82 66
REMARK SMILES IDX 53 67 54 68 65 70 83 71 56 72 43 73 44 74 49 75 45 76 46 77
REMARK SMILES IDX 48 78 50 79 47 80 69 81 70 82 75 83 71 84 72 85 74 86 76 87
REMARK SMILES IDX 73 88 57 89 58 90 63 91 59 92 60 93 62 94 64 95 61 96
REMARK H PARENT 24 4 7 23 31 39 81 58 55 69
REMARK Flexibility Score: inf
ROOT
ATOM      1  C   UNL A   1      31.468  23.726  23.280  1.00  0.00     0.227 C 
ATOM      2  O   UNL A   1      30.650  23.324  24.115  1.00  0.00    -0.274 OA
ATOM      3  N   UNL A   1      31.352  25.026  22.895  1.00  0.00    -0.356 N 
ATOM      4  H   UNL A   1      30.662  25.531  23.384  1.00  0.00     0.163 HD
ENDROOT
BRANCH   1   5
ATOM      5  C   UNL A   1      32.549  22.772  22.747  1.00  0.00     0.105 C 
ATOM      6  C   UNL A   1      32.031  21.374  22.409  1.00  0.00     0.023 C 
BRANCH   5   7
ATOM      7  C   UNL A   1      33.850  22.833  23.532  1.00  0.00    -0.033 A 
ATOM      8  C   UNL A   1      36.333  22.734  24.955  1.00  0.00     0.018 A 
ATOM      9  C   UNL A   1      36.147  23.583  23.852  1.00  0.00     0.012 A 
ATOM     10  C   UNL A   1      35.222  21.976  25.354  1.00  0.00     0.131 A 
ATOM     11  C   UNL A   1      34.922  23.655  23.176  1.00  0.00     0.005 A 
ATOM     12  C   UNL A   1      34.015  22.005  24.651  1.00  0.00     0.044 A 
ATOM     13  F   UNL A   1      35.288  21.186  26.438  1.00  0.00    -0.206 F 
BRANCH   8  14
ATOM     14  C   UNL A   1      37.651  22.637  25.620  1.00  0.00    -0.012 A 
ATOM     15  C   UNL A   1      39.699  21.418  26.114  1.00  0.00     0.133 A 
ATOM     16  C   UNL A   1      40.215  22.497  26.822  1.00  0.00     0.047 A 
ATOM     17  C   UNL A   1      38.434  21.474  25.526  1.00  0.00     0.056 A 
ATOM     18  C   UNL A   1      39.459  23.656  26.932  1.00  0.00     0.004 A 
ATOM     19  C   UNL A   1      38.190  23.722  26.344  1.00  0.00     0.009 A 
BRANCH  15  20
ATOM     20  O   UNL A   1      40.449  20.232  26.120  1.00  0.00    -0.410 OA
BRANCH  20  21
ATOM     21  C   UNL A   1      41.271  19.987  27.209  1.00  0.00     0.412 C 
ATOM     22  N   UNL A   1      42.560  19.705  26.848  1.00  0.00    -0.321 N 
ATOM     23  H   UNL A   1      43.192  19.514  27.578  1.00  0.00     0.167 HD
ATOM     24  O   UNL A   1      40.933  19.994  28.387  1.00  0.00    -0.224 OA
BRANCH  22  25
ATOM     25  C   UNL A   1      43.090  19.657  25.501  1.00  0.00     0.119 C 
BRANCH  25  26
ATOM     26  C   UNL A   1      44.302  20.573  25.328  1.00  0.00     0.021 C 
BRANCH  26  27
ATOM     27  C   UNL A   1      43.964  22.022  24.959  1.00  0.00     0.002 C 
BRANCH  27  28
ATOM     28  C   UNL A   1      44.905  22.683  23.945  1.00  0.00    -0.000 C 
BRANCH  28  29
ATOM     29  C   UNL A   1      46.362  22.824  24.397  1.00  0.00    -0.003 C 
ATOM     30  C   UNL A   1      46.791  24.268  24.601  1.00  0.00     0.004 C 
ENDBRANCH  28  29
ENDBRANCH  27  28
ENDBRANCH  26  27
ENDBRANCH  25  26
ENDBRANCH  22  25
ENDBRANCH  20  21
ENDBRANCH  15  20
ENDBRANCH   8  14
ENDBRANCH   5   7
ENDBRANCH   1   5
BRANCH   3  31
ATOM     31  C   UNL A   1      32.059  25.802  21.898  1.00  0.00     0.116 C 
BRANCH  31  32
ATOM     32  C   UNL A   1      32.528  27.148  22.455  1.00  0.00     0.021 C 
BRANCH  32  33
ATOM     33  C   UNL A   1      33.382  27.031  23.722  1.00  0.00     0.002 C 
BRANCH  33  34
ATOM     34  C   UNL A   1      33.785  28.366  24.361  1.00  0.00     0.002 C 
BRANCH  34  35
ATOM     35  C   UNL A   1      32.627  29.303  24.719  1.00  0.00     0.021 C 
BRANCH  35  36
ATOM     36  C   UNL A   1      32.542  29.677  26.198  1.00  0.00     0.116 C 
BRANCH  36  37
ATOM     37  N   UNL A   1      32.366  31.108  26.385  1.00  0.00    -0.352 N 
ATOM     38  C   UNL A   1      33.048  31.981  27.193  1.00  0.00     0.251 C 
ATOM     39  H   UNL A   1      31.646  31.513  25.848  1.00  0.00     0.163 HD
ATOM     40  O   UNL A   1      32.603  33.108  27.392  1.00  0.00    -0.269 OA
BRANCH  38  41
ATOM     41  C   UNL A   1      34.314  31.570  27.836  1.00  0.00     0.039 A 
ATOM     42  C   UNL A   1      35.316  32.524  28.025  1.00  0.00     0.014 A 
ATOM     43  C   UNL A   1      34.531  30.241  28.212  1.00  0.00     0.014 A 
ATOM     44  C   UNL A   1      36.515  32.159  28.641  1.00  0.00     0.010 A 
ATOM     45  C   UNL A   1      35.699  29.892  28.887  1.00  0.00     0.010 A 
ATOM     46  C   UNL A   1      36.705  30.847  29.102  1.00  0.00    -0.014 A 
BRANCH  46  47
ATOM     47  C   UNL A   1      37.946  30.458  29.817  1.00  0.00     0.031 A 
ATOM     48  C   UNL A   1      38.185  30.912  31.230  1.00  0.00     0.074 A 
ATOM     49  C   UNL A   1      38.887  29.743  29.171  1.00  0.00     0.049 A 
ATOM     50  N   UNL A   1      39.226  30.714  31.998  1.00  0.00    -0.248 NA
ATOM     51  C   UNL A   1      37.123  31.716  31.856  1.00  0.00     0.031 C 
ATOM     52  C   UNL A   1      38.795  29.286  27.783  1.00  0.00     0.029 A 
ATOM     53  N   UNL A   1      40.109  29.284  29.592  1.00  0.00    -0.354 N 
ATOM     54  C   UNL A   1      38.953  31.378  33.187  1.00  0.00     0.074 A 
ATOM     55  C   UNL A   1      37.670  32.027  33.021  1.00  0.00     0.031 C 
ATOM     56  C   UNL A   1      39.903  28.592  27.476  1.00  0.00     0.029 A 
ATOM     57  C   UNL A   1      40.797  28.585  28.630  1.00  0.00     0.049 A 
ATOM     58  H   UNL A   1      40.460  29.440  30.499  1.00  0.00     0.167 HD
ATOM     59  C   UNL A   1      39.692  31.424  34.320  1.00  0.00     0.037 A 
ATOM     60  C   UNL A   1      42.011  28.007  28.672  1.00  0.00     0.037 A 
ATOM     61  C   UNL A   1      40.958  30.758  34.489  1.00  0.00     0.049 A 
ATOM     62  C   UNL A   1      42.812  28.073  29.942  1.00  0.00     0.074 A 
ATOM     63  C   UNL A   1      41.753  30.691  35.621  1.00  0.00     0.029 A 
ATOM     64  N   UNL A   1      41.615  30.047  33.497  1.00  0.00    -0.354 N 
ATOM     65  N   UNL A   1      42.510  28.643  31.081  1.00  0.00    -0.248 NA
ATOM     66  C   UNL A   1      44.122  27.405  29.932  1.00  0.00     0.031 C 
ATOM     67  C   UNL A   1      42.912  29.975  35.299  1.00  0.00     0.029 A 
ATOM     68  C   UNL A   1      42.817  29.558  33.981  1.00  0.00     0.049 A 
ATOM     69  H   UNL A   1      41.276  29.911  32.582  1.00  0.00     0.167 HD
ATOM     70  C   UNL A   1      43.577  28.385  31.932  1.00  0.00     0.074 A 
ATOM     71  C   UNL A   1      44.528  27.592  31.181  1.00  0.00     0.031 C 
ATOM     72  C   UNL A   1      43.753  28.771  33.219  1.00  0.00     0.037 A 
BRANCH  59  73
ATOM     73  C   UNL A   1      39.147  32.223  35.469  1.00  0.00     0.057 A 
ATOM     74  C   UNL A   1      39.387  33.598  35.592  1.00  0.00     0.134 A 
ATOM     75  C   UNL A   1      38.349  31.618  36.448  1.00  0.00     0.134 A 
ATOM     76  F   UNL A   1      40.153  34.237  34.695  1.00  0.00    -0.206 F 
ATOM     77  C   UNL A   1      38.880  34.336  36.663  1.00  0.00     0.040 A 
ATOM     78  C   UNL A   1      37.813  32.351  37.508  1.00  0.00     0.040 A 
ATOM     79  F   UNL A   1      38.071  30.307  36.387  1.00  0.00    -0.206 F 
ATOM     80  C   UNL A   1      38.084  33.712  37.622  1.00  0.00     0.006 A 
ENDBRANCH  59  73
BRANCH  60  81
ATOM     81  C   UNL A   1      42.532  27.294  27.479  1.00  0.00     0.057 A 
ATOM     82  C   UNL A   1      43.086  27.998  26.405  1.00  0.00     0.134 A 
ATOM     83  C   UNL A   1      42.495  25.898  27.386  1.00  0.00     0.134 A 
ATOM     84  F   UNL A   1      43.134  29.338  26.429  1.00  0.00    -0.206 F 
ATOM     85  C   UNL A   1      43.569  27.342  25.272  1.00  0.00     0.040 A 
ATOM     86  C   UNL A   1      42.996  25.227  26.270  1.00  0.00     0.040 A 
ATOM     87  F   UNL A   1      41.984  25.166  28.388  1.00  0.00    -0.206 F 
ATOM     88  C   UNL A   1      43.529  25.950  25.205  1.00  0.00     0.006 A 
ENDBRANCH  60  81
BRANCH  72  89
ATOM     89  C   UNL A   1      45.010  28.318  33.902  1.00  0.00     0.057 A 
ATOM     90  C   UNL A   1      46.169  29.104  33.912  1.00  0.00     0.134 A 
ATOM     91  C   UNL A   1      45.050  27.095  34.586  1.00  0.00     0.134 A 
ATOM     92  F   UNL A   1      46.200  30.279  33.264  1.00  0.00    -0.206 F 
ATOM     93  C   UNL A   1      47.332  28.678  34.556  1.00  0.00     0.040 A 
ATOM     94  C   UNL A   1      46.198  26.672  35.256  1.00  0.00     0.040 A 
ATOM     95  F   UNL A   1      43.971  26.299  34.622  1.00  0.00    -0.206 F 
ATOM     96  C   UNL A   1      47.347  27.461  35.236  1.00  0.00     0.006 A 
ENDBRANCH  72  89
ENDBRANCH  46  47
ENDBRANCH  38  41
ENDBRANCH  36  37
ENDBRANCH  35  36
ENDBRANCH  34  35
ENDBRANCH  33  34
ENDBRANCH  32  33
ENDBRANCH  31  32
ENDBRANCH   3  31
TORSDOF 22
ENDMDL
MODEL 3
REMARK VINA RESULT:     -10.3      3.348      8.208
REMARK SMILES CCCCCCNC(=O)Oc1cccc(-c2ccc([C@@H](C)C(=O)NCCCCCCNC(=O)c3ccc(-c4c5nc(c(-c6c(F)cccc6F)c6ccc([nH]6)c(-c6c(F)cccc6F)c6nc(c(-c7c(F)cccc7F)c7ccc4[nH]7)C=C6)C=C5)cc3)cc2F)c1
REMARK SMILES IDX 22 1 23 2 24 3 20 5 21 6 19 7 16 8 17 9 89 10 18 11 88 12
REMARK SMILES IDX 90 13 15 14 11 15 12 16 91 17 13 18 14 19 10 20 8 21 7 22
REMARK SMILES IDX 9 24 6 25 5 26 4 27 3 28 2 29 1 30 25 31 26 32 27 33 28 34
REMARK SMILES IDX 29 35 30 36 31 37 32 38 33 40 34 41 35 42 87 43 36 44 86 45
REMARK SMILES IDX 37 46 38 47 39 48 80 49 40 50 85 51 79 52 81 53 41 54 84 55
REMARK SMILES IDX 78 56 77 57 42 59 68 60 51 61 67 62 52 63 55 64 66 65 82 66
REMARK SMILES IDX 53 67 54 68 65 70 83 71 56 72 43 73 44 74 49 75 45 76 46 77
REMARK SMILES IDX 48 78 50 79 47 80 69 81 70 82 75 83 71 84 72 85 74 86 76 87
REMARK SMILES IDX 73 88 57 89 58 90 63 91 59 92 60 93 62 94 64 95 61 96
REMARK H PARENT 24 4 7 23 31 39 81 58 55 69
REMARK Flexibility Score: inf
ROOT
ATOM      1  C   UNL A   1      31.088  22.705  25.385  1.00  0.00     0.227 C 
ATOM      2  O   UNL A   1      30.931  21.533  25.747  1.00  0.00    -0.274 OA
ATOM      3  N   UNL A   1      30.324  23.639  26.013  1.00  0.00    -0.356 N 
ATOM      4  H   UNL A   1      29.774  23.283  26.748  1.00  0.00     0.163 HD
ENDROOT
BRANCH   1   5
ATOM      5  C   UNL A   1      32.114  23.037  24.290  1.00  0.00     0.105 C 
ATOM      6  C   UNL A   1      31.786  22.426  22.928  1.00  0.00     0.023 C 
BRANCH   5   7
ATOM      7  C   UNL A   1      33.556  22.907  24.753  1.00  0.00    -0.033 A 
ATOM      8  C   UNL A   1      36.315  22.853  25.517  1.00  0.00     0.018 A 
ATOM      9  C   UNL A   1      35.287  22.948  26.468  1.00  0.00     0.012 A 
ATOM     10  C   UNL A   1      35.918  22.733  24.178  1.00  0.00     0.131 A 
ATOM     11  C   UNL A   1      33.936  22.942  26.097  1.00  0.00     0.005 A 
ATOM     12  C   UNL A   1      34.574  22.779  23.797  1.00  0.00     0.044 A 
ATOM     13  F   UNL A   1      36.830  22.571  23.207  1.00  0.00    -0.206 F 
BRANCH   8  14
ATOM     14  C   UNL A   1      37.735  22.914  25.931  1.00  0.00    -0.012 A 
ATOM     15  C   UNL A   1      39.943  21.905  26.108  1.00  0.00     0.133 A 
ATOM     16  C   UNL A   1      40.474  23.072  26.644  1.00  0.00     0.047 A 
ATOM     17  C   UNL A   1      38.593  21.814  25.761  1.00  0.00     0.056 A 
ATOM     18  C   UNL A   1      39.644  24.172  26.825  1.00  0.00     0.004 A 
ATOM     19  C   UNL A   1      38.290  24.090  26.479  1.00  0.00     0.009 A 
BRANCH  15  20
ATOM     20  O   UNL A   1      40.790  20.789  26.044  1.00  0.00    -0.410 OA
BRANCH  20  21
ATOM     21  C   UNL A   1      41.163  20.186  27.235  1.00  0.00     0.412 C 
ATOM     22  N   UNL A   1      42.021  19.135  27.052  1.00  0.00    -0.321 N 
ATOM     23  H   UNL A   1      42.317  18.660  27.862  1.00  0.00     0.167 HD
ATOM     24  O   UNL A   1      40.786  20.504  28.356  1.00  0.00    -0.224 OA
BRANCH  22  25
ATOM     25  C   UNL A   1      42.538  18.651  25.788  1.00  0.00     0.119 C 
BRANCH  25  26
ATOM     26  C   UNL A   1      43.993  19.065  25.567  1.00  0.00     0.021 C 
BRANCH  26  27
ATOM     27  C   UNL A   1      44.220  20.578  25.461  1.00  0.00     0.002 C 
BRANCH  27  28
ATOM     28  C   UNL A   1      45.630  21.006  25.038  1.00  0.00    -0.000 C 
BRANCH  28  29
ATOM     29  C   UNL A   1      46.013  22.446  25.391  1.00  0.00    -0.003 C 
ATOM     30  C   UNL A   1      46.398  23.281  24.180  1.00  0.00     0.004 C 
ENDBRANCH  28  29
ENDBRANCH  27  28
ENDBRANCH  26  27
ENDBRANCH  25  26
ENDBRANCH  22  25
ENDBRANCH  20  21
ENDBRANCH  15  20
ENDBRANCH   8  14
ENDBRANCH   5   7
ENDBRANCH   1   5
BRANCH   3  31
ATOM     31  C   UNL A   1      30.176  25.063  25.799  1.00  0.00     0.116 C 
BRANCH  31  32
ATOM     32  C   UNL A   1      31.433  25.833  26.208  1.00  0.00     0.021 C 
BRANCH  32  33
ATOM     33  C   UNL A   1      31.521  27.240  25.605  1.00  0.00     0.002 C 
BRANCH  33  34
ATOM     34  C   UNL A   1      32.086  27.303  24.180  1.00  0.00     0.002 C 
BRANCH  34  35
ATOM     35  C   UNL A   1      32.992  28.502  23.881  1.00  0.00     0.021 C 
BRANCH  35  36
ATOM     36  C   UNL A   1      33.726  29.066  25.096  1.00  0.00     0.116 C 
BRANCH  36  37
ATOM     37  N   UNL A   1      33.017  30.194  25.680  1.00  0.00    -0.352 N 
ATOM     38  C   UNL A   1      33.271  30.892  26.832  1.00  0.00     0.251 C 
ATOM     39  H   UNL A   1      32.234  30.505  25.169  1.00  0.00     0.163 HD
ATOM     40  O   UNL A   1      32.428  31.661  27.283  1.00  0.00    -0.269 OA
BRANCH  38  41
ATOM     41  C   UNL A   1      34.556  30.717  27.544  1.00  0.00     0.039 A 
ATOM     42  C   UNL A   1      35.432  31.801  27.631  1.00  0.00     0.014 A 
ATOM     43  C   UNL A   1      34.914  29.479  28.086  1.00  0.00     0.014 A 
ATOM     44  C   UNL A   1      36.645  31.660  28.308  1.00  0.00     0.010 A 
ATOM     45  C   UNL A   1      36.093  29.357  28.819  1.00  0.00     0.010 A 
ATOM     46  C   UNL A   1      36.972  30.445  28.933  1.00  0.00    -0.014 A 
BRANCH  46  47
ATOM     47  C   UNL A   1      38.227  30.298  29.712  1.00  0.00     0.031 A 
ATOM     48  C   UNL A   1      39.396  29.549  29.137  1.00  0.00     0.074 A 
ATOM     49  C   UNL A   1      38.291  30.790  30.964  1.00  0.00     0.049 A 
ATOM     50  N   UNL A   1      40.554  29.275  29.684  1.00  0.00    -0.248 NA
ATOM     51  C   UNL A   1      39.235  29.013  27.775  1.00  0.00     0.031 C 
ATOM     52  C   UNL A   1      37.207  31.493  31.652  1.00  0.00     0.029 A 
ATOM     53  N   UNL A   1      39.309  30.766  31.884  1.00  0.00    -0.354 N 
ATOM     54  C   UNL A   1      41.251  28.528  28.744  1.00  0.00     0.074 A 
ATOM     55  C   UNL A   1      40.368  28.347  27.612  1.00  0.00     0.031 C 
ATOM     56  C   UNL A   1      37.625  31.853  32.876  1.00  0.00     0.029 A 
ATOM     57  C   UNL A   1      38.991  31.378  33.072  1.00  0.00     0.049 A 
ATOM     58  H   UNL A   1      40.184  30.351  31.709  1.00  0.00     0.167 HD
ATOM     59  C   UNL A   1      42.518  28.055  28.809  1.00  0.00     0.037 A 
ATOM     60  C   UNL A   1      39.718  31.536  34.194  1.00  0.00     0.037 A 
ATOM     61  C   UNL A   1      43.401  28.256  29.928  1.00  0.00     0.049 A 
ATOM     62  C   UNL A   1      41.121  31.001  34.241  1.00  0.00     0.074 A 
ATOM     63  C   UNL A   1      44.724  27.871  30.063  1.00  0.00     0.029 A 
ATOM     64  N   UNL A   1      43.048  28.894  31.108  1.00  0.00    -0.354 N 
ATOM     65  N   UNL A   1      41.792  30.359  33.317  1.00  0.00    -0.248 NA
ATOM     66  C   UNL A   1      41.871  31.222  35.486  1.00  0.00     0.031 C 
ATOM     67  C   UNL A   1      45.158  28.240  31.342  1.00  0.00     0.029 A 
ATOM     68  C   UNL A   1      44.120  28.894  31.985  1.00  0.00     0.049 A 
ATOM     69  H   UNL A   1      42.166  29.288  31.294  1.00  0.00     0.167 HD
ATOM     70  C   UNL A   1      43.049  30.119  33.857  1.00  0.00     0.074 A 
ATOM     71  C   UNL A   1      43.052  30.700  35.184  1.00  0.00     0.031 C 
ATOM     72  C   UNL A   1      44.106  29.475  33.303  1.00  0.00     0.037 A 
BRANCH  59  73
ATOM     73  C   UNL A   1      43.024  27.272  27.631  1.00  0.00     0.057 A 
ATOM     74  C   UNL A   1      42.957  25.873  27.590  1.00  0.00     0.134 A 
ATOM     75  C   UNL A   1      43.560  27.925  26.514  1.00  0.00     0.134 A 
ATOM     76  F   UNL A   1      42.466  25.185  28.632  1.00  0.00    -0.206 F 
ATOM     77  C   UNL A   1      43.431  25.150  26.494  1.00  0.00     0.040 A 
ATOM     78  C   UNL A   1      44.011  27.214  25.400  1.00  0.00     0.040 A 
ATOM     79  F   UNL A   1      43.646  29.263  26.482  1.00  0.00    -0.206 F 
ATOM     80  C   UNL A   1      43.955  25.823  25.391  1.00  0.00     0.006 A 
ENDBRANCH  59  73
BRANCH  60  81
ATOM     81  C   UNL A   1      39.137  32.254  35.356  1.00  0.00     0.057 A 
ATOM     82  C   UNL A   1      39.274  33.640  35.487  1.00  0.00     0.134 A 
ATOM     83  C   UNL A   1      38.431  31.577  36.357  1.00  0.00     0.134 A 
ATOM     84  F   UNL A   1      39.956  34.341  34.568  1.00  0.00    -0.206 F 
ATOM     85  C   UNL A   1      38.745  34.327  36.580  1.00  0.00     0.040 A 
ATOM     86  C   UNL A   1      37.876  32.254  37.443  1.00  0.00     0.040 A 
ATOM     87  F   UNL A   1      38.258  30.249  36.284  1.00  0.00    -0.206 F 
ATOM     88  C   UNL A   1      38.037  33.633  37.561  1.00  0.00     0.006 A 
ENDBRANCH  60  81
BRANCH  72  89
ATOM     89  C   UNL A   1      45.360  29.389  34.124  1.00  0.00     0.057 A 
ATOM     90  C   UNL A   1      46.372  30.352  34.028  1.00  0.00     0.134 A 
ATOM     91  C   UNL A   1      45.541  28.347  35.043  1.00  0.00     0.134 A 
ATOM     92  F   UNL A   1      46.265  31.367  33.157  1.00  0.00    -0.206 F 
ATOM     93  C   UNL A   1      47.532  30.269  34.800  1.00  0.00     0.040 A 
ATOM     94  C   UNL A   1      46.684  28.268  35.839  1.00  0.00     0.040 A 
ATOM     95  F   UNL A   1      44.605  27.397  35.189  1.00  0.00    -0.206 F 
ATOM     96  C   UNL A   1      47.687  29.227  35.714  1.00  0.00     0.006 A 
ENDBRANCH  72  89
ENDBRANCH  46  47
ENDBRANCH  38  41
ENDBRANCH  36  37
ENDBRANCH  35  36
ENDBRANCH  34  35
ENDBRANCH  33  34
ENDBRANCH  32  33
ENDBRANCH  31  32
ENDBRANCH   3  31
TORSDOF 22
ENDMDL
