MODEL 1
REMARK VINA RESULT:     -11.7      0.000      0.000
REMARK SMILES O=C(NCCCCCCNC(=O)c1cc(NC(=S)NC(=O)c2ccccc2Cl)c(Cl)cc1Cl)c1ccc(-c2c3nc(c(-c4c(F)cccc4F)c4ccc([nH]4)c(-c4c(F)cccc4F)c4nc(c(-c5c(F)cccc5F)c5ccc2[nH]5)C=C4)C=C3)cc1
REMARK SMILES IDX 7 1 6 2 5 3 4 4 3 5 1 6 2 7 34 9 35 10 87 11 36 12 86 13
REMARK SMILES IDX 37 14 38 15 39 16 80 17 40 18 85 19 79 20 81 21 41 22 84 23
REMARK SMILES IDX 78 24 77 25 42 27 68 28 51 29 67 30 52 31 55 32 66 33 82 34
REMARK SMILES IDX 53 35 54 36 65 38 83 39 56 40 43 41 44 42 49 43 45 44 46 45
REMARK SMILES IDX 48 46 50 47 47 48 69 49 70 50 75 51 71 52 72 53 74 54 76 55
REMARK SMILES IDX 73 56 57 57 58 58 63 59 59 60 60 61 62 62 64 63 61 64 8 65
REMARK SMILES IDX 9 66 10 67 11 68 12 70 13 71 14 72 32 73 15 74 31 75 33 76
REMARK SMILES IDX 29 77 30 78 16 79 17 81 18 82 19 83 20 84 21 86 22 87 23 88
REMARK SMILES IDX 27 89 24 90 26 91 28 92 25 93
REMARK H PARENT 3 8 81 26 55 37 10 69 16 80 19 85
REMARK Flexibility Score: inf
ROOT
ATOM      1  C   UNL A   1      40.759  27.901  26.762  1.00  0.00     0.002 C 
ENDROOT
BRANCH   1   2
ATOM      2  C   UNL A   1      40.798  26.629  27.619  1.00  0.00     0.002 C 
BRANCH   2   3
ATOM      3  C   UNL A   1      40.186  25.367  27.002  1.00  0.00     0.021 C 
BRANCH   3   4
ATOM      4  C   UNL A   1      40.504  24.055  27.718  1.00  0.00     0.116 C 
BRANCH   4   5
ATOM      5  N   UNL A   1      41.115  23.075  26.841  1.00  0.00    -0.352 N 
ATOM      6  O   UNL A   1      42.544  22.248  25.316  1.00  0.00    -0.269 OA
ATOM      7  C   UNL A   1      42.269  23.152  26.103  1.00  0.00     0.251 C 
ATOM      8  H   UNL A   1      40.626  22.223  26.763  1.00  0.00     0.163 HD
BRANCH   7   9
ATOM      9  C   UNL A   1      43.186  24.311  26.224  1.00  0.00     0.039 A 
ATOM     10  C   UNL A   1      43.902  24.570  27.397  1.00  0.00     0.014 A 
ATOM     11  C   UNL A   1      43.396  25.109  25.093  1.00  0.00     0.014 A 
ATOM     12  C   UNL A   1      44.775  25.659  27.456  1.00  0.00     0.010 A 
ATOM     13  C   UNL A   1      44.296  26.178  25.141  1.00  0.00     0.010 A 
ATOM     14  C   UNL A   1      44.983  26.468  26.327  1.00  0.00    -0.014 A 
BRANCH  14  15
ATOM     15  C   UNL A   1      45.973  27.570  26.378  1.00  0.00     0.031 A 
ATOM     16  C   UNL A   1      47.442  27.300  26.233  1.00  0.00     0.074 A 
ATOM     17  C   UNL A   1      45.539  28.831  26.560  1.00  0.00     0.049 A 
ATOM     18  N   UNL A   1      48.437  28.152  26.218  1.00  0.00    -0.248 NA
ATOM     19  C   UNL A   1      47.848  25.894  26.090  1.00  0.00     0.031 C 
ATOM     20  C   UNL A   1      44.142  29.224  26.747  1.00  0.00     0.029 A 
ATOM     21  N   UNL A   1      46.230  30.015  26.608  1.00  0.00    -0.354 N 
ATOM     22  C   UNL A   1      49.587  27.388  26.079  1.00  0.00     0.074 A 
ATOM     23  C   UNL A   1      49.169  26.002  26.021  1.00  0.00     0.031 C 
ATOM     24  C   UNL A   1      44.075  30.561  26.861  1.00  0.00     0.029 A 
ATOM     25  C   UNL A   1      45.424  31.112  26.771  1.00  0.00     0.049 A 
ATOM     26  H   UNL A   1      47.210  30.071  26.532  1.00  0.00     0.167 HD
ATOM     27  C   UNL A   1      50.874  27.804  26.003  1.00  0.00     0.037 A 
ATOM     28  C   UNL A   1      45.734  32.420  26.837  1.00  0.00     0.037 A 
ATOM     29  C   UNL A   1      51.300  29.177  26.041  1.00  0.00     0.049 A 
ATOM     30  C   UNL A   1      47.163  32.856  26.724  1.00  0.00     0.074 A 
ATOM     31  C   UNL A   1      52.582  29.687  25.926  1.00  0.00     0.029 A 
ATOM     32  N   UNL A   1      50.453  30.260  26.211  1.00  0.00    -0.354 N 
ATOM     33  N   UNL A   1      48.234  32.123  26.552  1.00  0.00    -0.248 NA
ATOM     34  C   UNL A   1      47.425  34.299  26.817  1.00  0.00     0.031 C 
ATOM     35  C   UNL A   1      52.511  31.082  26.040  1.00  0.00     0.029 A 
ATOM     36  C   UNL A   1      51.184  31.436  26.214  1.00  0.00     0.049 A 
ATOM     37  H   UNL A   1      49.475  30.201  26.314  1.00  0.00     0.167 HD
ATOM     38  C   UNL A   1      49.298  33.013  26.518  1.00  0.00     0.074 A 
ATOM     39  C   UNL A   1      48.743  34.342  26.672  1.00  0.00     0.031 C 
ATOM     40  C   UNL A   1      50.618  32.748  26.376  1.00  0.00     0.037 A 
BRANCH  27  41
ATOM     41  C   UNL A   1      51.925  26.747  25.871  1.00  0.00     0.057 A 
ATOM     42  C   UNL A   1      52.311  26.255  24.619  1.00  0.00     0.134 A 
ATOM     43  C   UNL A   1      52.580  26.246  27.001  1.00  0.00     0.134 A 
ATOM     44  F   UNL A   1      51.708  26.692  23.502  1.00  0.00    -0.206 F 
ATOM     45  C   UNL A   1      53.313  25.293  24.496  1.00  0.00     0.040 A 
ATOM     46  C   UNL A   1      53.590  25.289  26.889  1.00  0.00     0.040 A 
ATOM     47  F   UNL A   1      52.251  26.679  28.227  1.00  0.00    -0.206 F 
ATOM     48  C   UNL A   1      53.959  24.809  25.633  1.00  0.00     0.006 A 
ENDBRANCH  27  41
BRANCH  28  49
ATOM     49  C   UNL A   1      44.652  33.416  26.996  1.00  0.00     0.057 A 
ATOM     50  C   UNL A   1      44.215  33.799  28.267  1.00  0.00     0.134 A 
ATOM     51  C   UNL A   1      44.053  34.021  25.888  1.00  0.00     0.134 A 
ATOM     52  F   UNL A   1      44.748  33.240  29.363  1.00  0.00    -0.206 F 
ATOM     53  C   UNL A   1      43.213  34.756  28.432  1.00  0.00     0.040 A 
ATOM     54  C   UNL A   1      43.057  34.985  26.037  1.00  0.00     0.040 A 
ATOM     55  F   UNL A   1      44.437  33.688  24.646  1.00  0.00    -0.206 F 
ATOM     56  C   UNL A   1      42.634  35.355  27.314  1.00  0.00     0.006 A 
ENDBRANCH  28  49
BRANCH  40  57
ATOM     57  C   UNL A   1      51.546  33.920  26.387  1.00  0.00     0.057 A 
ATOM     58  C   UNL A   1      51.945  34.539  25.197  1.00  0.00     0.134 A 
ATOM     59  C   UNL A   1      52.028  34.447  27.591  1.00  0.00     0.134 A 
ATOM     60  F   UNL A   1      51.525  34.069  24.013  1.00  0.00    -0.206 F 
ATOM     61  C   UNL A   1      52.801  35.641  25.204  1.00  0.00     0.040 A 
ATOM     62  C   UNL A   1      52.878  35.552  27.611  1.00  0.00     0.040 A 
ATOM     63  F   UNL A   1      51.682  33.892  28.762  1.00  0.00    -0.206 F 
ATOM     64  C   UNL A   1      53.268  36.151  26.414  1.00  0.00     0.006 A 
ENDBRANCH  40  57
ENDBRANCH  14  15
ENDBRANCH   7   9
ENDBRANCH   4   5
ENDBRANCH   3   4
ENDBRANCH   2   3
ENDBRANCH   1   2
BRANCH   1  65
ATOM     65  C   UNL A   1      39.789  28.989  27.224  1.00  0.00     0.021 C 
BRANCH  65  66
ATOM     66  C   UNL A   1      38.806  28.530  28.297  1.00  0.00     0.116 C 
BRANCH  66  67
ATOM     67  N   UNL A   1      38.153  29.667  28.946  1.00  0.00    -0.352 N 
ATOM     68  C   UNL A   1      36.822  29.723  29.328  1.00  0.00     0.252 C 
ATOM     69  H   UNL A   1      38.706  30.461  29.127  1.00  0.00     0.163 HD
ATOM     70  O   UNL A   1      36.583  29.540  30.527  1.00  0.00    -0.269 OA
BRANCH  68  71
ATOM     71  C   UNL A   1      35.498  30.288  28.258  1.00  0.00     0.060 A 
ATOM     72  C   UNL A   1      34.260  29.143  27.073  1.00  0.00     0.043 A 
ATOM     73  C   UNL A   1      35.646  31.443  28.778  1.00  0.00     0.055 A 
ATOM     74  C   UNL A   1      33.287  28.745  26.316  1.00  0.00     0.060 A 
ATOM     75  C   UNL A   1      34.637  31.111  28.046  1.00  0.00     0.044 A 
ATOM     76  Cl  UNL A   1      36.733  32.704  28.412  1.00  0.00    -0.083 Cl
ATOM     77  C   UNL A   1      33.451  29.876  26.910  1.00  0.00     0.066 A 
ATOM     78  Cl  UNL A   1      31.584  30.474  26.018  1.00  0.00    -0.082 Cl
BRANCH  74  79
ATOM     79  N   UNL A   1      32.591  27.560  26.657  1.00  0.00    -0.331 N 
ATOM     80  H   UNL A   1      32.944  27.157  27.482  1.00  0.00     0.169 HD
BRANCH  79  81
ATOM     81  C   UNL A   1      31.564  26.835  26.143  1.00  0.00     0.177 C 
ATOM     82  S   UNL A   1      31.087  27.207  24.578  1.00  0.00    -0.040 S 
BRANCH  81  83
ATOM     83  N   UNL A   1      30.941  25.756  26.732  1.00  0.00    -0.299 N 
ATOM     84  C   UNL A   1      30.947  24.356  26.714  1.00  0.00     0.258 C 
ATOM     85  H   UNL A   1      30.272  26.076  27.380  1.00  0.00     0.172 HD
ATOM     86  O   UNL A   1      30.000  23.692  27.111  1.00  0.00    -0.269 OA
BRANCH  84  87
ATOM     87  C   UNL A   1      32.134  23.717  26.137  1.00  0.00     0.058 A 
ATOM     88  C   UNL A   1      33.494  22.751  27.272  1.00  0.00     0.015 A 
ATOM     89  C   UNL A   1      31.843  22.983  24.337  1.00  0.00     0.053 A 
ATOM     90  C   UNL A   1      34.283  21.152  26.440  1.00  0.00     0.001 A 
ATOM     91  C   UNL A   1      32.640  21.394  23.509  1.00  0.00     0.021 A 
ATOM     92  Cl  UNL A   1      30.606  23.748  23.375  1.00  0.00    -0.083 Cl
ATOM     93  C   UNL A   1      33.943  20.394  24.662  1.00  0.00     0.002 A 
ENDBRANCH  84  87
ENDBRANCH  81  83
ENDBRANCH  79  81
ENDBRANCH  74  79
ENDBRANCH  68  71
ENDBRANCH  66  67
ENDBRANCH  65  66
ENDBRANCH   1  65
TORSDOF 17
ENDMDL
MODEL 2
REMARK VINA RESULT:     -11.6      0.375      5.996
REMARK SMILES O=C(NCCCCCCNC(=O)c1cc(NC(=S)NC(=O)c2ccccc2Cl)c(Cl)cc1Cl)c1ccc(-c2c3nc(c(-c4c(F)cccc4F)c4ccc([nH]4)c(-c4c(F)cccc4F)c4nc(c(-c5c(F)cccc5F)c5ccc2[nH]5)C=C4)C=C3)cc1
REMARK SMILES IDX 7 1 6 2 5 3 4 4 3 5 1 6 2 7 34 9 35 10 87 11 36 12 86 13
REMARK SMILES IDX 37 14 38 15 39 16 80 17 40 18 85 19 79 20 81 21 41 22 84 23
REMARK SMILES IDX 78 24 77 25 42 27 68 28 51 29 67 30 52 31 55 32 66 33 82 34
REMARK SMILES IDX 53 35 54 36 65 38 83 39 56 40 43 41 44 42 49 43 45 44 46 45
REMARK SMILES IDX 48 46 50 47 47 48 69 49 70 50 75 51 71 52 72 53 74 54 76 55
REMARK SMILES IDX 73 56 57 57 58 58 63 59 59 60 60 61 62 62 64 63 61 64 8 65
REMARK SMILES IDX 9 66 10 67 11 68 12 70 13 71 14 72 32 73 15 74 31 75 33 76
REMARK SMILES IDX 29 77 30 78 16 79 17 81 18 82 19 83 20 84 21 86 22 87 23 88
REMARK SMILES IDX 27 89 24 90 26 91 28 92 25 93
REMARK H PARENT 3 8 81 26 55 37 10 69 16 80 19 85
REMARK Flexibility Score: inf
ROOT
ATOM      1  C   UNL A   1      40.443  28.261  26.865  1.00  0.00     0.002 C 
ENDROOT
BRANCH   1   2
ATOM      2  C   UNL A   1      40.452  26.995  27.731  1.00  0.00     0.002 C 
BRANCH   2   3
ATOM      3  C   UNL A   1      40.007  25.695  27.052  1.00  0.00     0.021 C 
BRANCH   3   4
ATOM      4  C   UNL A   1      40.193  24.418  27.870  1.00  0.00     0.116 C 
BRANCH   4   5
ATOM      5  N   UNL A   1      40.792  23.345  27.101  1.00  0.00    -0.352 N 
ATOM      6  O   UNL A   1      42.227  22.341  25.693  1.00  0.00    -0.269 OA
ATOM      7  C   UNL A   1      41.964  23.320  26.388  1.00  0.00     0.251 C 
ATOM      8  H   UNL A   1      40.279  22.505  27.088  1.00  0.00     0.163 HD
BRANCH   7   9
ATOM      9  C   UNL A   1      42.915  24.458  26.427  1.00  0.00     0.039 A 
ATOM     10  C   UNL A   1      43.642  24.777  27.578  1.00  0.00     0.014 A 
ATOM     11  C   UNL A   1      43.145  25.168  25.243  1.00  0.00     0.014 A 
ATOM     12  C   UNL A   1      44.546  25.841  27.560  1.00  0.00     0.010 A 
ATOM     13  C   UNL A   1      44.075  26.211  25.215  1.00  0.00     0.010 A 
ATOM     14  C   UNL A   1      44.774  26.563  26.377  1.00  0.00    -0.014 A 
BRANCH  14  15
ATOM     15  C   UNL A   1      45.796  27.637  26.350  1.00  0.00     0.031 A 
ATOM     16  C   UNL A   1      45.417  29.074  26.555  1.00  0.00     0.074 A 
ATOM     17  C   UNL A   1      47.085  27.308  26.136  1.00  0.00     0.049 A 
ATOM     18  N   UNL A   1      46.190  30.129  26.598  1.00  0.00    -0.248 NA
ATOM     19  C   UNL A   1      43.987  29.364  26.732  1.00  0.00     0.031 C 
ATOM     20  C   UNL A   1      47.580  25.953  25.890  1.00  0.00     0.029 A 
ATOM     21  N   UNL A   1      48.211  28.089  26.099  1.00  0.00    -0.354 N 
ATOM     22  C   UNL A   1      45.343  31.211  26.791  1.00  0.00     0.074 A 
ATOM     23  C   UNL A   1      43.995  30.686  26.851  1.00  0.00     0.031 C 
ATOM     24  C   UNL A   1      48.916  25.994  25.756  1.00  0.00     0.029 A 
ATOM     25  C   UNL A   1      49.364  27.377  25.891  1.00  0.00     0.049 A 
ATOM     26  H   UNL A   1      48.193  29.067  26.212  1.00  0.00     0.167 HD
ATOM     27  C   UNL A   1      45.660  32.523  26.911  1.00  0.00     0.037 A 
ATOM     28  C   UNL A   1      50.643  27.789  25.820  1.00  0.00     0.037 A 
ATOM     29  C   UNL A   1      46.996  33.055  26.871  1.00  0.00     0.049 A 
ATOM     30  C   UNL A   1      50.970  29.242  25.982  1.00  0.00     0.074 A 
ATOM     31  C   UNL A   1      47.408  34.367  27.029  1.00  0.00     0.029 A 
ATOM     32  N   UNL A   1      48.138  32.300  26.656  1.00  0.00    -0.354 N 
ATOM     33  N   UNL A   1      50.160  30.247  26.205  1.00  0.00    -0.248 NA
ATOM     34  C   UNL A   1      52.387  29.618  25.881  1.00  0.00     0.031 C 
ATOM     35  C   UNL A   1      48.802  34.408  26.895  1.00  0.00     0.029 A 
ATOM     36  C   UNL A   1      49.254  33.120  26.665  1.00  0.00     0.049 A 
ATOM     37  H   UNL A   1      48.152  31.326  26.515  1.00  0.00     0.167 HD
ATOM     38  C   UNL A   1      50.966  31.374  26.269  1.00  0.00     0.074 A 
ATOM     39  C   UNL A   1      52.331  30.929  26.077  1.00  0.00     0.031 C 
ATOM     40  C   UNL A   1      50.603  32.664  26.465  1.00  0.00     0.037 A 
BRANCH  27  41
ATOM     41  C   UNL A   1      44.529  33.484  27.097  1.00  0.00     0.057 A 
ATOM     42  C   UNL A   1      44.059  33.819  28.372  1.00  0.00     0.134 A 
ATOM     43  C   UNL A   1      43.930  34.105  25.995  1.00  0.00     0.134 A 
ATOM     44  F   UNL A   1      44.589  33.246  29.464  1.00  0.00    -0.206 F 
ATOM     45  C   UNL A   1      43.025  34.739  28.545  1.00  0.00     0.040 A 
ATOM     46  C   UNL A   1      42.899  35.032  26.157  1.00  0.00     0.040 A 
ATOM     47  F   UNL A   1      44.337  33.821  24.749  1.00  0.00    -0.206 F 
ATOM     48  C   UNL A   1      42.444  35.351  27.436  1.00  0.00     0.006 A 
ENDBRANCH  27  41
BRANCH  28  49
ATOM     49  C   UNL A   1      51.716  26.794  25.606  1.00  0.00     0.057 A 
ATOM     50  C   UNL A   1      52.175  26.503  24.318  1.00  0.00     0.134 A 
ATOM     51  C   UNL A   1      52.320  26.135  26.681  1.00  0.00     0.134 A 
ATOM     52  F   UNL A   1      51.620  27.098  23.253  1.00  0.00    -0.206 F 
ATOM     53  C   UNL A   1      53.203  25.585  24.105  1.00  0.00     0.040 A 
ATOM     54  C   UNL A   1      53.355  25.223  26.483  1.00  0.00     0.040 A 
ATOM     55  F   UNL A   1      51.917  26.380  27.937  1.00  0.00    -0.206 F 
ATOM     56  C   UNL A   1      53.800  24.945  25.191  1.00  0.00     0.006 A 
ENDBRANCH  28  49
BRANCH  40  57
ATOM     57  C   UNL A   1      51.700  33.679  26.474  1.00  0.00     0.057 A 
ATOM     58  C   UNL A   1      52.098  34.325  25.299  1.00  0.00     0.134 A 
ATOM     59  C   UNL A   1      52.348  34.029  27.664  1.00  0.00     0.134 A 
ATOM     60  F   UNL A   1      51.521  34.020  24.126  1.00  0.00    -0.206 F 
ATOM     61  C   UNL A   1      53.113  35.283  25.305  1.00  0.00     0.040 A 
ATOM     62  C   UNL A   1      53.359  34.990  27.684  1.00  0.00     0.040 A 
ATOM     63  F   UNL A   1      52.011  33.440  28.821  1.00  0.00    -0.206 F 
ATOM     64  C   UNL A   1      53.744  35.619  26.501  1.00  0.00     0.006 A 
ENDBRANCH  40  57
ENDBRANCH  14  15
ENDBRANCH   7   9
ENDBRANCH   4   5
ENDBRANCH   3   4
ENDBRANCH   2   3
ENDBRANCH   1   2
BRANCH   1  65
ATOM     65  C   UNL A   1      39.451  29.348  27.281  1.00  0.00     0.021 C 
BRANCH  65  66
ATOM     66  C   UNL A   1      38.733  29.064  28.597  1.00  0.00     0.116 C 
BRANCH  66  67
ATOM     67  N   UNL A   1      38.046  30.254  29.100  1.00  0.00    -0.352 N 
ATOM     68  C   UNL A   1      36.703  30.328  29.436  1.00  0.00     0.252 C 
ATOM     69  H   UNL A   1      38.582  31.072  29.208  1.00  0.00     0.163 HD
ATOM     70  O   UNL A   1      36.431  30.273  30.640  1.00  0.00    -0.269 OA
BRANCH  68  71
ATOM     71  C   UNL A   1      35.404  30.751  28.273  1.00  0.00     0.060 A 
ATOM     72  C   UNL A   1      34.321  29.471  27.075  1.00  0.00     0.043 A 
ATOM     73  C   UNL A   1      35.440  31.934  28.750  1.00  0.00     0.055 A 
ATOM     74  C   UNL A   1      33.422  28.973  26.286  1.00  0.00     0.060 A 
ATOM     75  C   UNL A   1      34.500  31.499  27.980  1.00  0.00     0.044 A 
ATOM     76  Cl  UNL A   1      36.453  33.256  28.388  1.00  0.00    -0.083 Cl
ATOM     77  C   UNL A   1      33.472  30.136  26.838  1.00  0.00     0.066 A 
ATOM     78  Cl  UNL A   1      31.619  30.558  25.822  1.00  0.00    -0.082 Cl
BRANCH  74  79
ATOM     79  N   UNL A   1      32.796  27.755  26.640  1.00  0.00    -0.331 N 
ATOM     80  H   UNL A   1      33.076  27.448  27.533  1.00  0.00     0.169 HD
BRANCH  79  81
ATOM     81  C   UNL A   1      31.908  26.897  26.071  1.00  0.00     0.177 C 
ATOM     82  S   UNL A   1      31.677  27.041  24.416  1.00  0.00    -0.040 S 
BRANCH  81  83
ATOM     83  N   UNL A   1      31.255  25.855  26.692  1.00  0.00    -0.299 N 
ATOM     84  C   UNL A   1      31.197  24.456  26.691  1.00  0.00     0.258 C 
ATOM     85  H   UNL A   1      30.622  26.212  27.356  1.00  0.00     0.172 HD
ATOM     86  O   UNL A   1      30.234  23.840  27.125  1.00  0.00    -0.269 OA
BRANCH  84  87
ATOM     87  C   UNL A   1      32.336  23.757  26.086  1.00  0.00     0.058 A 
ATOM     88  C   UNL A   1      33.742  22.831  27.196  1.00  0.00     0.015 A 
ATOM     89  C   UNL A   1      31.924  22.923  24.355  1.00  0.00     0.053 A 
ATOM     90  C   UNL A   1      34.451  21.168  26.419  1.00  0.00     0.001 A 
ATOM     91  C   UNL A   1      32.639  21.269  23.581  1.00  0.00     0.021 A 
ATOM     92  Cl  UNL A   1      30.645  23.655  23.421  1.00  0.00    -0.083 Cl
ATOM     93  C   UNL A   1      33.990  20.311  24.714  1.00  0.00     0.002 A 
ENDBRANCH  84  87
ENDBRANCH  81  83
ENDBRANCH  79  81
ENDBRANCH  74  79
ENDBRANCH  68  71
ENDBRANCH  66  67
ENDBRANCH  65  66
ENDBRANCH   1  65
TORSDOF 17
ENDMDL
MODEL 3
REMARK VINA RESULT:     -11.2      6.938     11.436
REMARK SMILES O=C(NCCCCCCNC(=O)c1cc(NC(=S)NC(=O)c2ccccc2Cl)c(Cl)cc1Cl)c1ccc(-c2c3nc(c(-c4c(F)cccc4F)c4ccc([nH]4)c(-c4c(F)cccc4F)c4nc(c(-c5c(F)cccc5F)c5ccc2[nH]5)C=C4)C=C3)cc1
REMARK SMILES IDX 7 1 6 2 5 3 4 4 3 5 1 6 2 7 34 9 35 10 87 11 36 12 86 13
REMARK SMILES IDX 37 14 38 15 39 16 80 17 40 18 85 19 79 20 81 21 41 22 84 23
REMARK SMILES IDX 78 24 77 25 42 27 68 28 51 29 67 30 52 31 55 32 66 33 82 34
REMARK SMILES IDX 53 35 54 36 65 38 83 39 56 40 43 41 44 42 49 43 45 44 46 45
REMARK SMILES IDX 48 46 50 47 47 48 69 49 70 50 75 51 71 52 72 53 74 54 76 55
REMARK SMILES IDX 73 56 57 57 58 58 63 59 59 60 60 61 62 62 64 63 61 64 8 65
REMARK SMILES IDX 9 66 10 67 11 68 12 70 13 71 14 72 32 73 15 74 31 75 33 76
REMARK SMILES IDX 29 77 30 78 16 79 17 81 18 82 19 83 20 84 21 86 22 87 23 88
REMARK SMILES IDX 27 89 24 90 26 91 28 92 25 93
REMARK H PARENT 3 8 81 26 55 37 10 69 16 80 19 85
REMARK Flexibility Score: inf
ROOT
ATOM      1  C   UNL A   1      30.448  30.334  24.415  1.00  0.00     0.002 C 
ENDROOT
BRANCH   1   2
ATOM      2  C   UNL A   1      31.392  30.465  25.617  1.00  0.00     0.002 C 
BRANCH   2   3
ATOM      3  C   UNL A   1      31.285  31.756  26.436  1.00  0.00     0.021 C 
BRANCH   3   4
ATOM      4  C   UNL A   1      32.607  32.341  26.932  1.00  0.00     0.116 C 
BRANCH   4   5
ATOM      5  N   UNL A   1      32.471  33.703  27.409  1.00  0.00    -0.352 N 
ATOM      6  O   UNL A   1      32.791  35.486  28.738  1.00  0.00    -0.269 OA
ATOM      7  C   UNL A   1      33.154  34.362  28.400  1.00  0.00     0.251 C 
ATOM      8  H   UNL A   1      31.782  34.238  26.951  1.00  0.00     0.163 HD
BRANCH   7   9
ATOM      9  C   UNL A   1      34.314  33.738  29.083  1.00  0.00     0.039 A 
ATOM     10  C   UNL A   1      34.163  32.680  29.984  1.00  0.00     0.014 A 
ATOM     11  C   UNL A   1      35.597  34.177  28.736  1.00  0.00     0.014 A 
ATOM     12  C   UNL A   1      35.287  32.107  30.582  1.00  0.00     0.010 A 
ATOM     13  C   UNL A   1      36.725  33.581  29.309  1.00  0.00     0.010 A 
ATOM     14  C   UNL A   1      36.577  32.549  30.245  1.00  0.00    -0.014 A 
BRANCH  14  15
ATOM     15  C   UNL A   1      37.765  31.877  30.825  1.00  0.00     0.031 A 
ATOM     16  C   UNL A   1      38.202  32.154  32.234  1.00  0.00     0.074 A 
ATOM     17  C   UNL A   1      38.459  31.006  30.068  1.00  0.00     0.049 A 
ATOM     18  N   UNL A   1      39.194  31.626  32.905  1.00  0.00    -0.248 NA
ATOM     19  C   UNL A   1      37.428  33.154  32.984  1.00  0.00     0.031 C 
ATOM     20  C   UNL A   1      38.158  30.674  28.675  1.00  0.00     0.029 A 
ATOM     21  N   UNL A   1      39.554  30.237  30.369  1.00  0.00    -0.354 N 
ATOM     22  C   UNL A   1      39.176  32.237  34.151  1.00  0.00     0.074 A 
ATOM     23  C   UNL A   1      38.078  33.183  34.141  1.00  0.00     0.031 C 
ATOM     24  C   UNL A   1      39.031  29.745  28.250  1.00  0.00     0.029 A 
ATOM     25  C   UNL A   1      39.957  29.433  29.334  1.00  0.00     0.049 A 
ATOM     26  H   UNL A   1      40.005  30.260  31.243  1.00  0.00     0.167 HD
ATOM     27  C   UNL A   1      39.997  32.029  35.208  1.00  0.00     0.037 A 
ATOM     28  C   UNL A   1      40.960  28.539  29.265  1.00  0.00     0.037 A 
ATOM     29  C   UNL A   1      41.078  31.081  35.236  1.00  0.00     0.049 A 
ATOM     30  C   UNL A   1      41.838  28.307  30.456  1.00  0.00     0.074 A 
ATOM     31  C   UNL A   1      41.932  30.775  36.283  1.00  0.00     0.029 A 
ATOM     32  N   UNL A   1      41.458  30.287  34.166  1.00  0.00    -0.354 N 
ATOM     33  N   UNL A   1      41.782  28.864  31.640  1.00  0.00    -0.248 NA
ATOM     34  C   UNL A   1      42.919  27.323  30.302  1.00  0.00     0.031 C 
ATOM     35  C   UNL A   1      42.838  29.803  35.840  1.00  0.00     0.029 A 
ATOM     36  C   UNL A   1      42.539  29.499  34.523  1.00  0.00     0.049 A 
ATOM     37  H   UNL A   1      41.023  30.284  33.283  1.00  0.00     0.167 HD
ATOM     38  C   UNL A   1      42.818  28.304  32.371  1.00  0.00     0.074 A 
ATOM     39  C   UNL A   1      43.480  27.350  31.504  1.00  0.00     0.031 C 
ATOM     40  C   UNL A   1      43.190  28.562  33.647  1.00  0.00     0.037 A 
BRANCH  27  41
ATOM     41  C   UNL A   1      39.754  32.852  36.433  1.00  0.00     0.057 A 
ATOM     42  C   UNL A   1      40.459  34.039  36.665  1.00  0.00     0.134 A 
ATOM     43  C   UNL A   1      38.783  32.474  37.367  1.00  0.00     0.134 A 
ATOM     44  F   UNL A   1      41.409  34.443  35.808  1.00  0.00    -0.206 F 
ATOM     45  C   UNL A   1      40.209  34.822  37.792  1.00  0.00     0.040 A 
ATOM     46  C   UNL A   1      38.519  33.254  38.495  1.00  0.00     0.040 A 
ATOM     47  F   UNL A   1      38.079  31.346  37.199  1.00  0.00    -0.206 F 
ATOM     48  C   UNL A   1      39.234  34.432  38.709  1.00  0.00     0.006 A 
ENDBRANCH  27  41
BRANCH  28  49
ATOM     49  C   UNL A   1      41.168  27.775  28.015  1.00  0.00     0.057 A 
ATOM     50  C   UNL A   1      40.610  26.504  27.853  1.00  0.00     0.134 A 
ATOM     51  C   UNL A   1      41.903  28.308  26.952  1.00  0.00     0.134 A 
ATOM     52  F   UNL A   1      39.907  25.943  28.847  1.00  0.00    -0.206 F 
ATOM     53  C   UNL A   1      40.776  25.784  26.670  1.00  0.00     0.040 A 
ATOM     54  C   UNL A   1      42.070  27.604  25.761  1.00  0.00     0.040 A 
ATOM     55  F   UNL A   1      42.458  29.525  27.057  1.00  0.00    -0.206 F 
ATOM     56  C   UNL A   1      41.505  26.337  25.618  1.00  0.00     0.006 A 
ENDBRANCH  28  49
BRANCH  40  57
ATOM     57  C   UNL A   1      44.367  27.805  34.173  1.00  0.00     0.057 A 
ATOM     58  C   UNL A   1      45.662  28.330  34.089  1.00  0.00     0.134 A 
ATOM     59  C   UNL A   1      44.206  26.557  34.786  1.00  0.00     0.134 A 
ATOM     60  F   UNL A   1      45.877  29.516  33.500  1.00  0.00    -0.206 F 
ATOM     61  C   UNL A   1      46.761  27.632  34.590  1.00  0.00     0.040 A 
ATOM     62  C   UNL A   1      45.297  25.854  35.297  1.00  0.00     0.040 A 
ATOM     63  F   UNL A   1      42.989  26.003  34.891  1.00  0.00    -0.206 F 
ATOM     64  C   UNL A   1      46.580  26.391  35.198  1.00  0.00     0.006 A 
ENDBRANCH  40  57
ENDBRANCH  14  15
ENDBRANCH   7   9
ENDBRANCH   4   5
ENDBRANCH   3   4
ENDBRANCH   2   3
ENDBRANCH   1   2
BRANCH   1  65
ATOM     65  C   UNL A   1      30.997  29.560  23.216  1.00  0.00     0.021 C 
BRANCH  65  66
ATOM     66  C   UNL A   1      32.366  28.931  23.456  1.00  0.00     0.116 C 
BRANCH  66  67
ATOM     67  N   UNL A   1      32.438  27.578  22.904  1.00  0.00    -0.352 N 
ATOM     68  C   UNL A   1      31.352  26.764  22.621  1.00  0.00     0.252 C 
ATOM     69  H   UNL A   1      33.334  27.214  22.717  1.00  0.00     0.163 HD
ATOM     70  O   UNL A   1      31.010  26.692  21.436  1.00  0.00    -0.269 OA
BRANCH  68  71
ATOM     71  C   UNL A   1      30.610  25.641  23.807  1.00  0.00     0.060 A 
ATOM     72  C   UNL A   1      31.208  23.724  24.271  1.00  0.00     0.043 A 
ATOM     73  C   UNL A   1      29.890  26.619  24.198  1.00  0.00     0.055 A 
ATOM     74  C   UNL A   1      31.352  22.577  24.855  1.00  0.00     0.060 A 
ATOM     75  C   UNL A   1      30.000  25.508  24.843  1.00  0.00     0.044 A 
ATOM     76  Cl  UNL A   1      28.426  27.244  23.590  1.00  0.00    -0.083 Cl
ATOM     77  C   UNL A   1      30.687  23.612  25.238  1.00  0.00     0.066 A 
ATOM     78  Cl  UNL A   1      30.125  22.455  26.967  1.00  0.00    -0.082 Cl
BRANCH  74  79
ATOM     79  N   UNL A   1      32.657  22.104  25.129  1.00  0.00    -0.331 N 
ATOM     80  H   UNL A   1      32.660  21.140  25.327  1.00  0.00     0.169 HD
BRANCH  79  81
ATOM     81  C   UNL A   1      33.907  22.632  25.190  1.00  0.00     0.177 C 
ATOM     82  S   UNL A   1      34.418  23.188  26.689  1.00  0.00    -0.040 S 
BRANCH  81  83
ATOM     83  N   UNL A   1      34.839  22.665  24.176  1.00  0.00    -0.299 N 
ATOM     84  C   UNL A   1      36.204  22.452  23.948  1.00  0.00     0.258 C 
ATOM     85  H   UNL A   1      34.399  22.923  23.334  1.00  0.00     0.172 HD
ATOM     86  O   UNL A   1      36.788  22.920  22.982  1.00  0.00    -0.269 OA
BRANCH  84  87
ATOM     87  C   UNL A   1      36.921  21.676  24.966  1.00  0.00     0.058 A 
ATOM     88  C   UNL A   1      37.427  19.743  24.687  1.00  0.00     0.015 A 
ATOM     89  C   UNL A   1      38.175  22.744  26.038  1.00  0.00     0.053 A 
ATOM     90  C   UNL A   1      39.155  19.217  25.465  1.00  0.00     0.001 A 
ATOM     91  C   UNL A   1      39.894  22.212  26.819  1.00  0.00     0.021 A 
ATOM     92  Cl  UNL A   1      37.803  24.439  26.213  1.00  0.00    -0.083 Cl
ATOM     93  C   UNL A   1      40.429  20.307  26.485  1.00  0.00     0.002 A 
ENDBRANCH  84  87
ENDBRANCH  81  83
ENDBRANCH  79  81
ENDBRANCH  74  79
ENDBRANCH  68  71
ENDBRANCH  66  67
ENDBRANCH  65  66
ENDBRANCH   1  65
TORSDOF 17
ENDMDL
