MODEL 1
REMARK VINA RESULT:     -12.3      0.000      0.000
REMARK SMILES Cc1ccc(C[C@@H](Cc2cc(F)cc(Br)c2)C(=O)NCCCCCCNC(=O)c2ccc(-c3c4nc(c(-c5c(F)cccc5F)c5ccc([nH]5)c(-c5c(F)cccc5F)c5nc(c(-c6c(F)cccc6F)c6ccc3[nH]6)C=C5)C=C4)cc2)cc1
REMARK SMILES IDX 22 1 21 2 20 3 19 4 17 5 18 6 7 8 6 9 5 10 1 11 2 12 3 13
REMARK SMILES IDX 84 14 4 15 83 16 8 17 9 18 10 19 16 20 11 21 14 22 12 23
REMARK SMILES IDX 13 24 15 25 23 26 24 27 25 28 26 29 27 30 28 32 29 33 30 34
REMARK SMILES IDX 82 35 31 36 81 37 32 38 33 39 34 40 75 41 35 42 80 43 74 44
REMARK SMILES IDX 76 45 36 46 79 47 73 48 72 49 37 51 63 52 46 53 62 54 47 55
REMARK SMILES IDX 50 56 61 57 77 58 48 59 49 60 60 62 78 63 51 64 38 65 39 66
REMARK SMILES IDX 44 67 40 68 41 69 43 70 45 71 42 72 64 73 65 74 70 75 66 76
REMARK SMILES IDX 67 77 69 78 71 79 68 80 52 81 53 82 58 83 54 84 55 85 57 86
REMARK SMILES IDX 59 87 56 88
REMARK H PARENT 19 7 26 31 76 50 50 61
REMARK Flexibility Score: inf
ROOT
ATOM      1  C   UNL A   1      32.293  28.651  26.501  1.00  0.00     0.002 C 
ENDROOT
BRANCH   1   2
ATOM      2  C   UNL A   1      31.277  27.524  26.728  1.00  0.00     0.021 C 
BRANCH   2   3
ATOM      3  C   UNL A   1      31.516  26.289  25.868  1.00  0.00     0.116 C 
BRANCH   3   4
ATOM      4  N   UNL A   1      31.465  26.599  24.454  1.00  0.00    -0.356 N 
ATOM      5  C   UNL A   1      31.910  25.886  23.385  1.00  0.00     0.223 C 
ATOM      6  O   UNL A   1      31.631  26.308  22.259  1.00  0.00    -0.275 OA
ATOM      7  H   UNL A   1      31.042  27.459  24.232  1.00  0.00     0.163 HD
BRANCH   5   8
ATOM      8  C   UNL A   1      32.749  24.625  23.546  1.00  0.00     0.087 C 
BRANCH   8   9
ATOM      9  C   UNL A   1      34.173  25.097  23.954  1.00  0.00     0.049 C 
BRANCH   9  10
ATOM     10  C   UNL A   1      35.207  24.091  24.408  1.00  0.00    -0.047 A 
ATOM     11  C   UNL A   1      38.492  21.501  25.517  1.00  0.00     0.044 C 
ATOM     12  C   UNL A   1      37.354  22.393  25.122  1.00  0.00    -0.051 A 
ATOM     13  C   UNL A   1      36.793  23.261  26.060  1.00  0.00     0.004 A 
ATOM     14  C   UNL A   1      36.830  22.369  23.826  1.00  0.00     0.004 A 
ATOM     15  C   UNL A   1      35.744  24.112  25.701  1.00  0.00     0.004 A 
ATOM     16  C   UNL A   1      35.767  23.207  23.476  1.00  0.00     0.004 A 
ENDBRANCH   9  10
ENDBRANCH   8   9
BRANCH   8  17
ATOM     17  C   UNL A   1      32.138  23.499  24.416  1.00  0.00     0.049 C 
BRANCH  17  18
ATOM     18  C   UNL A   1      32.110  22.032  24.023  1.00  0.00    -0.043 A 
ATOM     19  C   UNL A   1      31.948  21.739  22.655  1.00  0.00     0.043 A 
ATOM     20  C   UNL A   1      32.275  20.954  24.903  1.00  0.00     0.019 A 
ATOM     21  C   UNL A   1      32.062  20.435  22.183  1.00  0.00     0.124 A 
ATOM     22  C   UNL A   1      32.432  19.652  24.406  1.00  0.00     0.021 A 
ATOM     23  F   UNL A   1      31.944  20.199  20.869  1.00  0.00    -0.207 F 
ATOM     24  C   UNL A   1      32.336  19.387  23.044  1.00  0.00     0.055 A 
ATOM     25  Br  UNL A   1      32.854  18.243  25.596  1.00  0.00    -0.051 Br
ENDBRANCH  17  18
ENDBRANCH   8  17
ENDBRANCH   5   8
ENDBRANCH   3   4
ENDBRANCH   2   3
ENDBRANCH   1   2
BRANCH   1  26
ATOM     26  C   UNL A   1      31.828  30.071  26.872  1.00  0.00     0.002 C 
BRANCH  26  27
ATOM     27  C   UNL A   1      32.934  31.099  27.136  1.00  0.00     0.021 C 
BRANCH  27  28
ATOM     28  C   UNL A   1      34.243  30.488  27.610  1.00  0.00     0.116 C 
BRANCH  28  29
ATOM     29  N   UNL A   1      35.127  31.417  28.294  1.00  0.00    -0.352 N 
ATOM     30  C   UNL A   1      36.331  31.197  28.942  1.00  0.00     0.251 C 
ATOM     31  H   UNL A   1      34.820  32.352  28.298  1.00  0.00     0.163 HD
ATOM     32  O   UNL A   1      36.856  32.113  29.549  1.00  0.00    -0.269 OA
BRANCH  30  33
ATOM     33  C   UNL A   1      37.059  29.906  28.775  1.00  0.00     0.039 A 
ATOM     34  C   UNL A   1      37.255  29.126  29.924  1.00  0.00     0.014 A 
ATOM     35  C   UNL A   1      37.707  29.560  27.595  1.00  0.00     0.014 A 
ATOM     36  C   UNL A   1      38.288  28.192  29.959  1.00  0.00     0.010 A 
ATOM     37  C   UNL A   1      38.797  28.716  27.652  1.00  0.00     0.010 A 
ATOM     38  C   UNL A   1      39.129  28.089  28.855  1.00  0.00    -0.014 A 
BRANCH  38  39
ATOM     39  C   UNL A   1      40.436  27.453  28.895  1.00  0.00     0.031 A 
ATOM     40  C   UNL A   1      40.587  26.024  28.563  1.00  0.00     0.074 A 
ATOM     41  C   UNL A   1      41.526  28.219  29.124  1.00  0.00     0.049 A 
ATOM     42  N   UNL A   1      41.580  25.296  28.944  1.00  0.00    -0.248 NA
ATOM     43  C   UNL A   1      39.598  25.288  27.786  1.00  0.00     0.031 C 
ATOM     44  C   UNL A   1      42.924  27.862  28.909  1.00  0.00     0.029 A 
ATOM     45  N   UNL A   1      41.579  29.446  29.799  1.00  0.00    -0.354 N 
ATOM     46  C   UNL A   1      41.513  24.105  28.260  1.00  0.00     0.074 A 
ATOM     47  C   UNL A   1      40.230  24.126  27.595  1.00  0.00     0.031 C 
ATOM     48  C   UNL A   1      43.696  28.665  29.658  1.00  0.00     0.029 A 
ATOM     49  C   UNL A   1      42.809  29.459  30.489  1.00  0.00     0.049 A 
ATOM     50  H   UNL A   1      40.896  30.156  29.792  1.00  0.00     0.167 HD
ATOM     51  C   UNL A   1      42.607  23.291  28.225  1.00  0.00     0.037 A 
ATOM     52  C   UNL A   1      42.855  29.504  31.853  1.00  0.00     0.037 A 
ATOM     53  C   UNL A   1      43.704  23.846  29.012  1.00  0.00     0.049 A 
ATOM     54  C   UNL A   1      43.546  28.316  32.480  1.00  0.00     0.074 A 
ATOM     55  C   UNL A   1      44.807  24.610  28.665  1.00  0.00     0.029 A 
ATOM     56  N   UNL A   1      43.587  23.928  30.394  1.00  0.00    -0.354 N 
ATOM     57  N   UNL A   1      43.733  27.178  31.870  1.00  0.00    -0.248 NA
ATOM     58  C   UNL A   1      44.070  28.310  33.842  1.00  0.00     0.031 C 
ATOM     59  C   UNL A   1      45.327  25.195  29.845  1.00  0.00     0.029 A 
ATOM     60  C   UNL A   1      44.554  24.771  30.911  1.00  0.00     0.049 A 
ATOM     61  H   UNL A   1      42.912  23.453  30.931  1.00  0.00     0.167 HD
ATOM     62  C   UNL A   1      44.360  26.300  32.718  1.00  0.00     0.074 A 
ATOM     63  C   UNL A   1      44.566  27.063  33.934  1.00  0.00     0.031 C 
ATOM     64  C   UNL A   1      44.643  25.017  32.341  1.00  0.00     0.037 A 
BRANCH  51  65
ATOM     65  C   UNL A   1      42.769  22.162  27.237  1.00  0.00     0.057 A 
ATOM     66  C   UNL A   1      42.000  20.986  27.342  1.00  0.00     0.134 A 
ATOM     67  C   UNL A   1      43.701  22.153  26.186  1.00  0.00     0.134 A 
ATOM     68  F   UNL A   1      40.996  20.874  28.222  1.00  0.00    -0.206 F 
ATOM     69  C   UNL A   1      42.225  19.852  26.549  1.00  0.00     0.040 A 
ATOM     70  C   UNL A   1      43.975  21.009  25.420  1.00  0.00     0.040 A 
ATOM     71  F   UNL A   1      44.356  23.265  25.826  1.00  0.00    -0.206 F 
ATOM     72  C   UNL A   1      43.245  19.846  25.612  1.00  0.00     0.006 A 
ENDBRANCH  51  65
BRANCH  52  73
ATOM     73  C   UNL A   1      41.720  30.254  32.449  1.00  0.00     0.057 A 
ATOM     74  C   UNL A   1      40.677  29.523  33.042  1.00  0.00     0.134 A 
ATOM     75  C   UNL A   1      41.837  31.601  32.805  1.00  0.00     0.134 A 
ATOM     76  F   UNL A   1      40.510  28.225  32.743  1.00  0.00    -0.206 F 
ATOM     77  C   UNL A   1      39.862  30.071  34.036  1.00  0.00     0.040 A 
ATOM     78  C   UNL A   1      41.019  32.164  33.793  1.00  0.00     0.040 A 
ATOM     79  F   UNL A   1      42.822  32.358  32.298  1.00  0.00    -0.206 F 
ATOM     80  C   UNL A   1      40.058  31.387  34.441  1.00  0.00     0.006 A 
ENDBRANCH  52  73
BRANCH  64  81
ATOM     81  C   UNL A   1      45.113  23.895  33.238  1.00  0.00     0.057 A 
ATOM     82  C   UNL A   1      46.393  23.816  33.806  1.00  0.00     0.134 A 
ATOM     83  C   UNL A   1      44.201  22.910  33.688  1.00  0.00     0.134 A 
ATOM     84  F   UNL A   1      47.330  24.740  33.562  1.00  0.00    -0.206 F 
ATOM     85  C   UNL A   1      46.753  22.807  34.711  1.00  0.00     0.040 A 
ATOM     86  C   UNL A   1      44.533  21.935  34.632  1.00  0.00     0.040 A 
ATOM     87  F   UNL A   1      42.934  22.867  33.252  1.00  0.00    -0.206 F 
ATOM     88  C   UNL A   1      45.821  21.871  35.139  1.00  0.00     0.006 A 
ENDBRANCH  64  81
ENDBRANCH  38  39
ENDBRANCH  30  33
ENDBRANCH  28  29
ENDBRANCH  27  28
ENDBRANCH  26  27
ENDBRANCH   1  26
TORSDOF 17
ENDMDL
MODEL 2
REMARK VINA RESULT:     -12.2      4.140      9.193
REMARK SMILES Cc1ccc(C[C@@H](Cc2cc(F)cc(Br)c2)C(=O)NCCCCCCNC(=O)c2ccc(-c3c4nc(c(-c5c(F)cccc5F)c5ccc([nH]5)c(-c5c(F)cccc5F)c5nc(c(-c6c(F)cccc6F)c6ccc3[nH]6)C=C5)C=C4)cc2)cc1
REMARK SMILES IDX 22 1 21 2 20 3 19 4 17 5 18 6 7 8 6 9 5 10 1 11 2 12 3 13
REMARK SMILES IDX 84 14 4 15 83 16 8 17 9 18 10 19 16 20 11 21 14 22 12 23
REMARK SMILES IDX 13 24 15 25 23 26 24 27 25 28 26 29 27 30 28 32 29 33 30 34
REMARK SMILES IDX 82 35 31 36 81 37 32 38 33 39 34 40 75 41 35 42 80 43 74 44
REMARK SMILES IDX 76 45 36 46 79 47 73 48 72 49 37 51 63 52 46 53 62 54 47 55
REMARK SMILES IDX 50 56 61 57 77 58 48 59 49 60 60 62 78 63 51 64 38 65 39 66
REMARK SMILES IDX 44 67 40 68 41 69 43 70 45 71 42 72 64 73 65 74 70 75 66 76
REMARK SMILES IDX 67 77 69 78 71 79 68 80 52 81 53 82 58 83 54 84 55 85 57 86
REMARK SMILES IDX 59 87 56 88
REMARK H PARENT 19 7 26 31 76 50 50 61
REMARK Flexibility Score: inf
ROOT
ATOM      1  C   UNL A   1      35.988  21.957  25.884  1.00  0.00     0.002 C 
ENDROOT
BRANCH   1   2
ATOM      2  C   UNL A   1      34.578  21.827  26.474  1.00  0.00     0.021 C 
BRANCH   2   3
ATOM      3  C   UNL A   1      33.461  21.939  25.443  1.00  0.00     0.116 C 
BRANCH   3   4
ATOM      4  N   UNL A   1      33.979  22.176  24.111  1.00  0.00    -0.356 N 
ATOM      5  C   UNL A   1      33.898  23.283  23.325  1.00  0.00     0.223 C 
ATOM      6  O   UNL A   1      34.539  23.285  22.270  1.00  0.00    -0.275 OA
ATOM      7  H   UNL A   1      34.467  21.420  23.713  1.00  0.00     0.163 HD
BRANCH   5   8
ATOM      8  C   UNL A   1      33.031  24.480  23.698  1.00  0.00     0.087 C 
BRANCH   8   9
ATOM      9  C   UNL A   1      33.948  25.454  24.489  1.00  0.00     0.049 C 
BRANCH   9  10
ATOM     10  C   UNL A   1      33.413  26.789  24.957  1.00  0.00    -0.047 A 
ATOM     11  C   UNL A   1      31.575  30.584  25.930  1.00  0.00     0.044 C 
ATOM     12  C   UNL A   1      32.219  29.275  25.585  1.00  0.00    -0.051 A 
ATOM     13  C   UNL A   1      31.858  28.119  26.278  1.00  0.00     0.004 A 
ATOM     14  C   UNL A   1      33.188  29.186  24.583  1.00  0.00     0.004 A 
ATOM     15  C   UNL A   1      32.435  26.888  25.955  1.00  0.00     0.004 A 
ATOM     16  C   UNL A   1      33.780  27.957  24.275  1.00  0.00     0.004 A 
ENDBRANCH   9  10
ENDBRANCH   8   9
BRANCH   8  17
ATOM     17  C   UNL A   1      32.205  25.113  22.552  1.00  0.00     0.049 C 
BRANCH  17  18
ATOM     18  C   UNL A   1      31.038  26.062  22.760  1.00  0.00    -0.043 A 
ATOM     19  C   UNL A   1      30.007  25.631  23.617  1.00  0.00     0.043 A 
ATOM     20  C   UNL A   1      30.927  27.344  22.204  1.00  0.00     0.019 A 
ATOM     21  C   UNL A   1      28.976  26.490  23.987  1.00  0.00     0.124 A 
ATOM     22  C   UNL A   1      29.907  28.211  22.621  1.00  0.00     0.021 A 
ATOM     23  F   UNL A   1      28.035  26.059  24.837  1.00  0.00    -0.207 F 
ATOM     24  C   UNL A   1      28.932  27.793  23.521  1.00  0.00     0.055 A 
ATOM     25  Br  UNL A   1      29.895  30.001  22.010  1.00  0.00    -0.051 Br
ENDBRANCH  17  18
ENDBRANCH   8  17
ENDBRANCH   5   8
ENDBRANCH   3   4
ENDBRANCH   2   3
ENDBRANCH   1   2
BRANCH   1  26
ATOM     26  C   UNL A   1      36.594  23.373  25.876  1.00  0.00     0.002 C 
BRANCH  26  27
ATOM     27  C   UNL A   1      38.100  23.465  25.606  1.00  0.00     0.021 C 
BRANCH  27  28
ATOM     28  C   UNL A   1      38.933  22.493  26.427  1.00  0.00     0.116 C 
BRANCH  28  29
ATOM     29  N   UNL A   1      40.365  22.730  26.367  1.00  0.00    -0.352 N 
ATOM     30  C   UNL A   1      41.086  23.906  26.500  1.00  0.00     0.251 C 
ATOM     31  H   UNL A   1      40.911  21.927  26.207  1.00  0.00     0.163 HD
ATOM     32  O   UNL A   1      42.287  23.893  26.304  1.00  0.00    -0.269 OA
BRANCH  30  33
ATOM     33  C   UNL A   1      40.436  25.141  27.026  1.00  0.00     0.039 A 
ATOM     34  C   UNL A   1      40.609  26.322  26.289  1.00  0.00     0.014 A 
ATOM     35  C   UNL A   1      39.854  25.201  28.287  1.00  0.00     0.014 A 
ATOM     36  C   UNL A   1      40.459  27.557  26.915  1.00  0.00     0.010 A 
ATOM     37  C   UNL A   1      39.806  26.412  28.946  1.00  0.00     0.010 A 
ATOM     38  C   UNL A   1      40.179  27.581  28.279  1.00  0.00    -0.014 A 
BRANCH  38  39
ATOM     39  C   UNL A   1      40.367  28.754  29.119  1.00  0.00     0.031 A 
ATOM     40  C   UNL A   1      39.272  29.722  29.315  1.00  0.00     0.074 A 
ATOM     41  C   UNL A   1      41.521  28.878  29.811  1.00  0.00     0.049 A 
ATOM     42  N   UNL A   1      39.448  30.944  29.685  1.00  0.00    -0.248 NA
ATOM     43  C   UNL A   1      37.874  29.386  29.079  1.00  0.00     0.031 C 
ATOM     44  C   UNL A   1      41.798  29.785  30.921  1.00  0.00     0.029 A 
ATOM     45  N   UNL A   1      42.768  28.317  29.501  1.00  0.00    -0.354 N 
ATOM     46  C   UNL A   1      38.215  31.468  29.996  1.00  0.00     0.074 A 
ATOM     47  C   UNL A   1      37.262  30.478  29.547  1.00  0.00     0.031 C 
ATOM     48  C   UNL A   1      43.126  29.944  31.029  1.00  0.00     0.029 A 
ATOM     49  C   UNL A   1      43.733  29.265  29.899  1.00  0.00     0.049 A 
ATOM     50  H   UNL A   1      42.934  27.437  29.090  1.00  0.00     0.167 HD
ATOM     51  C   UNL A   1      38.142  32.622  30.718  1.00  0.00     0.037 A 
ATOM     52  C   UNL A   1      44.559  29.859  28.988  1.00  0.00     0.037 A 
ATOM     53  C   UNL A   1      39.471  33.151  31.007  1.00  0.00     0.049 A 
ATOM     54  C   UNL A   1      44.421  31.361  28.926  1.00  0.00     0.074 A 
ATOM     55  C   UNL A   1      40.302  33.031  32.109  1.00  0.00     0.029 A 
ATOM     56  N   UNL A   1      40.258  33.638  29.971  1.00  0.00    -0.354 N 
ATOM     57  N   UNL A   1      43.383  32.015  29.371  1.00  0.00    -0.248 NA
ATOM     58  C   UNL A   1      45.431  32.244  28.351  1.00  0.00     0.031 C 
ATOM     59  C   UNL A   1      41.611  33.403  31.717  1.00  0.00     0.029 A 
ATOM     60  C   UNL A   1      41.571  33.770  30.384  1.00  0.00     0.049 A 
ATOM     61  H   UNL A   1      39.928  33.860  29.070  1.00  0.00     0.167 HD
ATOM     62  C   UNL A   1      43.553  33.357  29.140  1.00  0.00     0.074 A 
ATOM     63  C   UNL A   1      44.859  33.450  28.518  1.00  0.00     0.031 C 
ATOM     64  C   UNL A   1      42.593  34.270  29.477  1.00  0.00     0.037 A 
BRANCH  51  65
ATOM     65  C   UNL A   1      36.883  33.090  31.409  1.00  0.00     0.057 A 
ATOM     66  C   UNL A   1      36.632  32.772  32.758  1.00  0.00     0.134 A 
ATOM     67  C   UNL A   1      35.856  33.817  30.783  1.00  0.00     0.134 A 
ATOM     68  F   UNL A   1      37.551  32.176  33.528  1.00  0.00    -0.206 F 
ATOM     69  C   UNL A   1      35.412  33.045  33.393  1.00  0.00     0.040 A 
ATOM     70  C   UNL A   1      34.611  34.050  31.386  1.00  0.00     0.040 A 
ATOM     71  F   UNL A   1      36.031  34.371  29.576  1.00  0.00    -0.206 F 
ATOM     72  C   UNL A   1      34.380  33.649  32.694  1.00  0.00     0.006 A 
ENDBRANCH  51  65
BRANCH  52  73
ATOM     73  C   UNL A   1      44.889  28.976  27.839  1.00  0.00     0.057 A 
ATOM     74  C   UNL A   1      45.823  27.945  28.039  1.00  0.00     0.134 A 
ATOM     75  C   UNL A   1      44.042  28.863  26.733  1.00  0.00     0.134 A 
ATOM     76  F   UNL A   1      46.665  27.993  29.084  1.00  0.00    -0.206 F 
ATOM     77  C   UNL A   1      45.834  26.794  27.247  1.00  0.00     0.040 A 
ATOM     78  C   UNL A   1      44.051  27.718  25.926  1.00  0.00     0.040 A 
ATOM     79  F   UNL A   1      43.110  29.796  26.489  1.00  0.00    -0.206 F 
ATOM     80  C   UNL A   1      44.919  26.663  26.208  1.00  0.00     0.006 A 
ENDBRANCH  52  73
BRANCH  64  81
ATOM     81  C   UNL A   1      42.551  35.727  29.077  1.00  0.00     0.057 A 
ATOM     82  C   UNL A   1      43.350  36.729  29.646  1.00  0.00     0.134 A 
ATOM     83  C   UNL A   1      41.783  36.140  27.962  1.00  0.00     0.134 A 
ATOM     84  F   UNL A   1      44.211  36.465  30.636  1.00  0.00    -0.206 F 
ATOM     85  C   UNL A   1      43.348  38.050  29.176  1.00  0.00     0.040 A 
ATOM     86  C   UNL A   1      41.817  37.440  27.450  1.00  0.00     0.040 A 
ATOM     87  F   UNL A   1      40.984  35.291  27.299  1.00  0.00    -0.206 F 
ATOM     88  C   UNL A   1      42.592  38.408  28.067  1.00  0.00     0.006 A 
ENDBRANCH  64  81
ENDBRANCH  38  39
ENDBRANCH  30  33
ENDBRANCH  28  29
ENDBRANCH  27  28
ENDBRANCH  26  27
ENDBRANCH   1  26
TORSDOF 17
ENDMDL
MODEL 3
REMARK VINA RESULT:     -11.9      1.251      2.020
REMARK SMILES Cc1ccc(C[C@@H](Cc2cc(F)cc(Br)c2)C(=O)NCCCCCCNC(=O)c2ccc(-c3c4nc(c(-c5c(F)cccc5F)c5ccc([nH]5)c(-c5c(F)cccc5F)c5nc(c(-c6c(F)cccc6F)c6ccc3[nH]6)C=C5)C=C4)cc2)cc1
REMARK SMILES IDX 22 1 21 2 20 3 19 4 17 5 18 6 7 8 6 9 5 10 1 11 2 12 3 13
REMARK SMILES IDX 84 14 4 15 83 16 8 17 9 18 10 19 16 20 11 21 14 22 12 23
REMARK SMILES IDX 13 24 15 25 23 26 24 27 25 28 26 29 27 30 28 32 29 33 30 34
REMARK SMILES IDX 82 35 31 36 81 37 32 38 33 39 34 40 75 41 35 42 80 43 74 44
REMARK SMILES IDX 76 45 36 46 79 47 73 48 72 49 37 51 63 52 46 53 62 54 47 55
REMARK SMILES IDX 50 56 61 57 77 58 48 59 49 60 60 62 78 63 51 64 38 65 39 66
REMARK SMILES IDX 44 67 40 68 41 69 43 70 45 71 42 72 64 73 65 74 70 75 66 76
REMARK SMILES IDX 67 77 69 78 71 79 68 80 52 81 53 82 58 83 54 84 55 85 57 86
REMARK SMILES IDX 59 87 56 88
REMARK H PARENT 19 7 26 31 76 50 50 61
REMARK Flexibility Score: inf
ROOT
ATOM      1  C   UNL A   1      33.855  28.524  27.181  1.00  0.00     0.002 C 
ENDROOT
BRANCH   1   2
ATOM      2  C   UNL A   1      32.331  28.459  27.347  1.00  0.00     0.021 C 
BRANCH   2   3
ATOM      3  C   UNL A   1      31.676  27.296  26.612  1.00  0.00     0.116 C 
BRANCH   3   4
ATOM      4  N   UNL A   1      31.186  27.691  25.307  1.00  0.00    -0.356 N 
ATOM      5  C   UNL A   1      31.182  27.008  24.131  1.00  0.00     0.223 C 
ATOM      6  O   UNL A   1      30.585  27.515  23.177  1.00  0.00    -0.275 OA
ATOM      7  H   UNL A   1      30.795  28.592  25.265  1.00  0.00     0.163 HD
BRANCH   5   8
ATOM      8  C   UNL A   1      31.906  25.678  23.964  1.00  0.00     0.087 C 
BRANCH   8   9
ATOM      9  C   UNL A   1      33.395  25.944  24.324  1.00  0.00     0.049 C 
BRANCH   9  10
ATOM     10  C   UNL A   1      34.356  24.788  24.485  1.00  0.00    -0.047 A 
ATOM     11  C   UNL A   1      36.724  21.209  25.053  1.00  0.00     0.044 C 
ATOM     12  C   UNL A   1      35.904  22.451  24.868  1.00  0.00    -0.051 A 
ATOM     13  C   UNL A   1      35.546  22.863  23.584  1.00  0.00     0.004 A 
ATOM     14  C   UNL A   1      35.493  23.218  25.962  1.00  0.00     0.004 A 
ATOM     15  C   UNL A   1      34.766  24.007  23.396  1.00  0.00     0.004 A 
ATOM     16  C   UNL A   1      34.731  24.374  25.771  1.00  0.00     0.004 A 
ENDBRANCH   9  10
ENDBRANCH   8   9
BRANCH   8  17
ATOM     17  C   UNL A   1      31.256  24.451  24.649  1.00  0.00     0.049 C 
BRANCH  17  18
ATOM     18  C   UNL A   1      31.575  23.008  24.301  1.00  0.00    -0.043 A 
ATOM     19  C   UNL A   1      31.563  22.660  22.936  1.00  0.00     0.043 A 
ATOM     20  C   UNL A   1      31.920  22.009  25.222  1.00  0.00     0.019 A 
ATOM     21  C   UNL A   1      31.990  21.405  22.513  1.00  0.00     0.124 A 
ATOM     22  C   UNL A   1      32.389  20.765  24.776  1.00  0.00     0.021 A 
ATOM     23  F   UNL A   1      32.005  21.124  21.203  1.00  0.00    -0.207 F 
ATOM     24  C   UNL A   1      32.435  20.460  23.420  1.00  0.00     0.055 A 
ATOM     25  Br  UNL A   1      33.038  19.507  26.031  1.00  0.00    -0.051 Br
ENDBRANCH  17  18
ENDBRANCH   8  17
ENDBRANCH   5   8
ENDBRANCH   3   4
ENDBRANCH   2   3
ENDBRANCH   1   2
BRANCH   1  26
ATOM     26  C   UNL A   1      34.449  29.914  26.885  1.00  0.00     0.002 C 
BRANCH  26  27
ATOM     27  C   UNL A   1      33.836  31.091  27.651  1.00  0.00     0.021 C 
BRANCH  27  28
ATOM     28  C   UNL A   1      34.838  32.171  28.027  1.00  0.00     0.116 C 
BRANCH  28  29
ATOM     29  N   UNL A   1      35.071  32.304  29.455  1.00  0.00    -0.352 N 
ATOM     30  C   UNL A   1      35.804  31.510  30.322  1.00  0.00     0.251 C 
ATOM     31  H   UNL A   1      34.638  33.083  29.874  1.00  0.00     0.163 HD
ATOM     32  O   UNL A   1      35.776  31.749  31.515  1.00  0.00    -0.269 OA
BRANCH  30  33
ATOM     33  C   UNL A   1      36.740  30.475  29.796  1.00  0.00     0.039 A 
ATOM     34  C   UNL A   1      36.866  29.289  30.534  1.00  0.00     0.014 A 
ATOM     35  C   UNL A   1      37.616  30.722  28.745  1.00  0.00     0.014 A 
ATOM     36  C   UNL A   1      38.010  28.507  30.399  1.00  0.00     0.010 A 
ATOM     37  C   UNL A   1      38.800  30.016  28.679  1.00  0.00     0.010 A 
ATOM     38  C   UNL A   1      39.025  28.954  29.556  1.00  0.00    -0.014 A 
BRANCH  38  39
ATOM     39  C   UNL A   1      40.391  28.456  29.607  1.00  0.00     0.031 A 
ATOM     40  C   UNL A   1      40.754  27.187  28.949  1.00  0.00     0.074 A 
ATOM     41  C   UNL A   1      41.346  29.234  30.164  1.00  0.00     0.049 A 
ATOM     42  N   UNL A   1      41.786  26.482  29.262  1.00  0.00    -0.248 NA
ATOM     43  C   UNL A   1      39.950  26.595  27.888  1.00  0.00     0.031 C 
ATOM     44  C   UNL A   1      42.793  29.081  30.052  1.00  0.00     0.029 A 
ATOM     45  N   UNL A   1      41.175  30.238  31.127  1.00  0.00    -0.354 N 
ATOM     46  C   UNL A   1      41.940  25.514  28.297  1.00  0.00     0.074 A 
ATOM     47  C   UNL A   1      40.740  25.590  27.495  1.00  0.00     0.031 C 
ATOM     48  C   UNL A   1      43.376  29.725  31.075  1.00  0.00     0.029 A 
ATOM     49  C   UNL A   1      42.316  30.183  31.954  1.00  0.00     0.049 A 
ATOM     50  H   UNL A   1      40.412  30.855  31.209  1.00  0.00     0.167 HD
ATOM     51  C   UNL A   1      43.126  24.847  28.203  1.00  0.00     0.037 A 
ATOM     52  C   UNL A   1      42.216  29.868  33.279  1.00  0.00     0.037 A 
ATOM     53  C   UNL A   1      44.057  25.274  29.242  1.00  0.00     0.049 A 
ATOM     54  C   UNL A   1      42.982  28.628  33.672  1.00  0.00     0.074 A 
ATOM     55  C   UNL A   1      45.085  26.203  29.247  1.00  0.00     0.029 A 
ATOM     56  N   UNL A   1      43.789  24.975  30.572  1.00  0.00    -0.354 N 
ATOM     57  N   UNL A   1      43.373  27.716  32.825  1.00  0.00    -0.248 NA
ATOM     58  C   UNL A   1      43.360  28.310  35.046  1.00  0.00     0.031 C 
ATOM     59  C   UNL A   1      45.403  26.501  30.594  1.00  0.00     0.029 A 
ATOM     60  C   UNL A   1      44.584  25.738  31.407  1.00  0.00     0.049 A 
ATOM     61  H   UNL A   1      43.128  24.313  30.878  1.00  0.00     0.167 HD
ATOM     62  C   UNL A   1      44.014  26.708  33.500  1.00  0.00     0.074 A 
ATOM     63  C   UNL A   1      43.997  27.137  34.885  1.00  0.00     0.031 C 
ATOM     64  C   UNL A   1      44.494  25.604  32.852  1.00  0.00     0.037 A 
BRANCH  51  65
ATOM     65  C   UNL A   1      43.529  24.041  26.992  1.00  0.00     0.057 A 
ATOM     66  C   UNL A   1      44.162  24.648  25.890  1.00  0.00     0.134 A 
ATOM     67  C   UNL A   1      43.277  22.668  26.831  1.00  0.00     0.134 A 
ATOM     68  F   UNL A   1      44.567  25.925  25.922  1.00  0.00    -0.206 F 
ATOM     69  C   UNL A   1      44.410  23.977  24.685  1.00  0.00     0.040 A 
ATOM     70  C   UNL A   1      43.469  21.995  25.614  1.00  0.00     0.040 A 
ATOM     71  F   UNL A   1      42.875  21.908  27.859  1.00  0.00    -0.206 F 
ATOM     72  C   UNL A   1      44.024  22.655  24.529  1.00  0.00     0.006 A 
ENDBRANCH  51  65
BRANCH  52  73
ATOM     73  C   UNL A   1      40.940  30.323  33.890  1.00  0.00     0.057 A 
ATOM     74  C   UNL A   1      40.841  31.662  34.306  1.00  0.00     0.134 A 
ATOM     75  C   UNL A   1      39.744  29.624  33.699  1.00  0.00     0.134 A 
ATOM     76  F   UNL A   1      41.952  32.388  34.507  1.00  0.00    -0.206 F 
ATOM     77  C   UNL A   1      39.609  32.314  34.408  1.00  0.00     0.040 A 
ATOM     78  C   UNL A   1      38.504  30.266  33.808  1.00  0.00     0.040 A 
ATOM     79  F   UNL A   1      39.758  28.349  33.282  1.00  0.00    -0.206 F 
ATOM     80  C   UNL A   1      38.437  31.623  34.121  1.00  0.00     0.006 A 
ENDBRANCH  52  73
BRANCH  64  81
ATOM     81  C   UNL A   1      45.007  24.333  33.491  1.00  0.00     0.057 A 
ATOM     82  C   UNL A   1      46.330  24.133  33.909  1.00  0.00     0.134 A 
ATOM     83  C   UNL A   1      44.107  23.301  33.851  1.00  0.00     0.134 A 
ATOM     84  F   UNL A   1      47.272  25.069  33.738  1.00  0.00    -0.206 F 
ATOM     85  C   UNL A   1      46.739  22.975  34.586  1.00  0.00     0.040 A 
ATOM     86  C   UNL A   1      44.493  22.169  34.575  1.00  0.00     0.040 A 
ATOM     87  F   UNL A   1      42.805  23.357  33.540  1.00  0.00    -0.206 F 
ATOM     88  C   UNL A   1      45.819  21.995  34.934  1.00  0.00     0.006 A 
ENDBRANCH  64  81
ENDBRANCH  38  39
ENDBRANCH  30  33
ENDBRANCH  28  29
ENDBRANCH  27  28
ENDBRANCH  26  27
ENDBRANCH   1  26
TORSDOF 17
ENDMDL
