MODEL 1
REMARK VINA RESULT:      -8.2      0.000      0.000
REMARK SMILES CCCCCCNC(=O)Oc1cccc(-c2ccc(CC(=O)NCCCCCCNC(=O)c3ccc(-c4c5nc(c(-c6c(F)cccc6F)c6ccc([nH]6)c(-c6c(F)cccc6F)c6nc(c(-c7c(F)cccc7F)c7ccc4[nH]7)C=C6)C=C5)cc3)cc2F)c1
REMARK SMILES IDX 21 1 22 2 23 3 20 5 19 6 16 7 17 8 88 9 18 10 87 11 89 12
REMARK SMILES IDX 15 13 11 14 12 15 90 16 13 17 14 18 10 19 8 20 7 21 9 23
REMARK SMILES IDX 6 24 5 25 4 26 3 27 2 28 1 29 24 30 25 31 26 32 27 33 28 34
REMARK SMILES IDX 29 35 30 36 31 37 32 39 33 40 34 41 86 42 35 43 85 44 36 45
REMARK SMILES IDX 37 46 38 47 79 48 39 49 84 50 78 51 80 52 40 53 83 54 77 55
REMARK SMILES IDX 76 56 41 58 67 59 50 60 66 61 51 62 54 63 65 64 81 65 52 66
REMARK SMILES IDX 53 67 64 69 82 70 55 71 42 72 43 73 48 74 44 75 45 76 47 77
REMARK SMILES IDX 49 78 46 79 68 80 69 81 74 82 70 83 71 84 73 85 75 86 72 87
REMARK SMILES IDX 56 88 57 89 62 90 58 91 59 92 61 93 63 94 60 95
REMARK H PARENT 23 4 7 22 30 38 80 57 54 68
REMARK Flexibility Score: inf
ROOT
ATOM      1  C   UNL A   1      40.413  23.281  26.916  1.00  0.00     0.224 C 
ATOM      2  O   UNL A   1      39.203  23.219  26.690  1.00  0.00    -0.275 OA
ATOM      3  N   UNL A   1      41.020  22.207  27.501  1.00  0.00    -0.356 N 
ATOM      4  H   UNL A   1      40.451  21.411  27.615  1.00  0.00     0.163 HD
ENDROOT
BRANCH   1   5
ATOM      5  C   UNL A   1      41.232  24.493  26.509  1.00  0.00     0.135 C 
BRANCH   5   6
ATOM      6  C   UNL A   1      40.792  25.789  27.141  1.00  0.00    -0.036 A 
ATOM      7  C   UNL A   1      40.046  28.264  28.320  1.00  0.00     0.018 A 
ATOM      8  C   UNL A   1      40.041  27.073  29.066  1.00  0.00     0.012 A 
ATOM      9  C   UNL A   1      40.407  28.175  26.969  1.00  0.00     0.131 A 
ATOM     10  C   UNL A   1      40.407  25.851  28.486  1.00  0.00     0.005 A 
ATOM     11  C   UNL A   1      40.758  26.962  26.380  1.00  0.00     0.044 A 
ATOM     12  F   UNL A   1      40.450  29.275  26.201  1.00  0.00    -0.206 F 
BRANCH   7  13
ATOM     13  C   UNL A   1      39.678  29.552  28.930  1.00  0.00    -0.012 A 
ATOM     14  C   UNL A   1      38.013  31.255  29.417  1.00  0.00     0.133 A 
ATOM     15  C   UNL A   1      38.970  32.050  30.043  1.00  0.00     0.047 A 
ATOM     16  C   UNL A   1      38.360  30.028  28.853  1.00  0.00     0.056 A 
ATOM     17  C   UNL A   1      40.282  31.593  30.133  1.00  0.00     0.004 A 
ATOM     18  C   UNL A   1      40.632  30.355  29.583  1.00  0.00     0.009 A 
BRANCH  14  19
ATOM     19  O   UNL A   1      36.725  31.795  29.273  1.00  0.00    -0.410 OA
BRANCH  19  20
ATOM     20  C   UNL A   1      36.513  33.114  29.647  1.00  0.00     0.412 C 
ATOM     21  N   UNL A   1      35.809  33.240  30.812  1.00  0.00    -0.321 N 
ATOM     22  H   UNL A   1      35.627  34.158  31.118  1.00  0.00     0.167 HD
ATOM     23  O   UNL A   1      36.887  34.109  29.032  1.00  0.00    -0.224 OA
BRANCH  21  24
ATOM     24  C   UNL A   1      35.304  32.166  31.643  1.00  0.00     0.119 C 
BRANCH  24  25
ATOM     25  C   UNL A   1      36.003  32.115  33.001  1.00  0.00     0.021 C 
BRANCH  25  26
ATOM     26  C   UNL A   1      37.188  31.143  33.083  1.00  0.00     0.002 C 
BRANCH  26  27
ATOM     27  C   UNL A   1      37.034  29.840  32.292  1.00  0.00    -0.000 C 
BRANCH  27  28
ATOM     28  C   UNL A   1      37.863  28.659  32.801  1.00  0.00    -0.003 C 
ATOM     29  C   UNL A   1      39.357  28.834  32.586  1.00  0.00     0.004 C 
ENDBRANCH  27  28
ENDBRANCH  26  27
ENDBRANCH  25  26
ENDBRANCH  24  25
ENDBRANCH  21  24
ENDBRANCH  19  20
ENDBRANCH  14  19
ENDBRANCH   7  13
ENDBRANCH   5   6
ENDBRANCH   1   5
BRANCH   3  30
ATOM     30  C   UNL A   1      42.383  22.069  27.976  1.00  0.00     0.116 C 
BRANCH  30  31
ATOM     31  C   UNL A   1      42.644  22.971  29.184  1.00  0.00     0.021 C 
BRANCH  31  32
ATOM     32  C   UNL A   1      44.131  23.157  29.517  1.00  0.00     0.002 C 
BRANCH  32  33
ATOM     33  C   UNL A   1      44.844  24.264  28.730  1.00  0.00     0.002 C 
BRANCH  33  34
ATOM     34  C   UNL A   1      45.632  23.789  27.506  1.00  0.00     0.021 C 
BRANCH  34  35
ATOM     35  C   UNL A   1      44.967  24.088  26.164  1.00  0.00     0.116 C 
BRANCH  35  36
ATOM     36  N   UNL A   1      45.873  24.751  25.237  1.00  0.00    -0.352 N 
ATOM     37  C   UNL A   1      46.217  26.078  25.151  1.00  0.00     0.251 C 
ATOM     38  H   UNL A   1      46.301  24.162  24.575  1.00  0.00     0.163 HD
ATOM     39  O   UNL A   1      46.854  26.492  24.189  1.00  0.00    -0.269 OA
BRANCH  37  40
ATOM     40  C   UNL A   1      45.797  27.016  26.213  1.00  0.00     0.039 A 
ATOM     41  C   UNL A   1      44.441  27.332  26.341  1.00  0.00     0.014 A 
ATOM     42  C   UNL A   1      46.737  27.580  27.080  1.00  0.00     0.014 A 
ATOM     43  C   UNL A   1      44.018  28.151  27.390  1.00  0.00     0.010 A 
ATOM     44  C   UNL A   1      46.308  28.348  28.159  1.00  0.00     0.010 A 
ATOM     45  C   UNL A   1      44.943  28.630  28.331  1.00  0.00    -0.014 A 
BRANCH  45  46
ATOM     46  C   UNL A   1      44.509  29.397  29.525  1.00  0.00     0.031 A 
ATOM     47  C   UNL A   1      44.207  28.688  30.813  1.00  0.00     0.074 A 
ATOM     48  C   UNL A   1      44.288  30.722  29.415  1.00  0.00     0.049 A 
ATOM     49  N   UNL A   1      43.693  29.165  31.917  1.00  0.00    -0.248 NA
ATOM     50  C   UNL A   1      44.497  27.246  30.855  1.00  0.00     0.031 C 
ATOM     51  C   UNL A   1      44.501  31.518  28.205  1.00  0.00     0.029 A 
ATOM     52  N   UNL A   1      43.808  31.627  30.328  1.00  0.00    -0.354 N 
ATOM     53  C   UNL A   1      43.577  28.081  32.778  1.00  0.00     0.074 A 
ATOM     54  C   UNL A   1      44.040  26.916  32.055  1.00  0.00     0.031 C 
ATOM     55  C   UNL A   1      44.151  32.790  28.449  1.00  0.00     0.029 A 
ATOM     56  C   UNL A   1      43.653  32.892  29.817  1.00  0.00     0.049 A 
ATOM     57  H   UNL A   1      43.593  31.391  31.260  1.00  0.00     0.167 HD
ATOM     58  C   UNL A   1      43.135  28.063  34.057  1.00  0.00     0.037 A 
ATOM     59  C   UNL A   1      43.144  34.006  30.379  1.00  0.00     0.037 A 
ATOM     60  C   UNL A   1      42.703  29.228  34.783  1.00  0.00     0.049 A 
ATOM     61  C   UNL A   1      42.648  33.958  31.796  1.00  0.00     0.074 A 
ATOM     62  C   UNL A   1      42.331  29.327  36.112  1.00  0.00     0.029 A 
ATOM     63  N   UNL A   1      42.574  30.496  34.235  1.00  0.00    -0.354 N 
ATOM     64  N   UNL A   1      42.618  32.943  32.625  1.00  0.00    -0.248 NA
ATOM     65  C   UNL A   1      42.111  35.207  32.354  1.00  0.00     0.031 C 
ATOM     66  C   UNL A   1      41.931  30.646  36.357  1.00  0.00     0.029 A 
ATOM     67  C   UNL A   1      42.094  31.376  35.190  1.00  0.00     0.049 A 
ATOM     68  H   UNL A   1      42.793  30.735  33.306  1.00  0.00     0.167 HD
ATOM     69  C   UNL A   1      42.072  33.431  33.804  1.00  0.00     0.074 A 
ATOM     70  C   UNL A   1      41.800  34.837  33.590  1.00  0.00     0.031 C 
ATOM     71  C   UNL A   1      41.819  32.771  34.959  1.00  0.00     0.037 A 
BRANCH  58  72
ATOM     72  C   UNL A   1      43.097  26.737  34.758  1.00  0.00     0.057 A 
ATOM     73  C   UNL A   1      41.916  25.993  34.871  1.00  0.00     0.134 A 
ATOM     74  C   UNL A   1      44.265  26.182  35.297  1.00  0.00     0.134 A 
ATOM     75  F   UNL A   1      40.761  26.473  34.385  1.00  0.00    -0.206 F 
ATOM     76  C   UNL A   1      41.892  24.755  35.515  1.00  0.00     0.040 A 
ATOM     77  C   UNL A   1      44.258  24.934  35.922  1.00  0.00     0.040 A 
ATOM     78  F   UNL A   1      45.432  26.839  35.218  1.00  0.00    -0.206 F 
ATOM     79  C   UNL A   1      43.068  24.219  36.038  1.00  0.00     0.006 A 
ENDBRANCH  58  72
BRANCH  59  80
ATOM     80  C   UNL A   1      43.073  35.261  29.591  1.00  0.00     0.057 A 
ATOM     81  C   UNL A   1      44.161  36.137  29.529  1.00  0.00     0.134 A 
ATOM     82  C   UNL A   1      41.921  35.608  28.873  1.00  0.00     0.134 A 
ATOM     83  F   UNL A   1      45.284  35.867  30.210  1.00  0.00    -0.206 F 
ATOM     84  C   UNL A   1      44.106  37.320  28.790  1.00  0.00     0.040 A 
ATOM     85  C   UNL A   1      41.859  36.777  28.112  1.00  0.00     0.040 A 
ATOM     86  F   UNL A   1      40.846  34.806  28.888  1.00  0.00    -0.206 F 
ATOM     87  C   UNL A   1      42.953  37.639  28.073  1.00  0.00     0.006 A 
ENDBRANCH  59  80
BRANCH  71  88
ATOM     88  C   UNL A   1      41.221  33.562  36.085  1.00  0.00     0.057 A 
ATOM     89  C   UNL A   1      39.836  33.640  36.268  1.00  0.00     0.134 A 
ATOM     90  C   UNL A   1      42.038  34.202  37.024  1.00  0.00     0.134 A 
ATOM     91  F   UNL A   1      38.999  33.060  35.394  1.00  0.00    -0.206 F 
ATOM     92  C   UNL A   1      39.282  34.338  37.344  1.00  0.00     0.040 A 
ATOM     93  C   UNL A   1      41.498  34.883  38.115  1.00  0.00     0.040 A 
ATOM     94  F   UNL A   1      43.374  34.158  36.908  1.00  0.00    -0.206 F 
ATOM     95  C   UNL A   1      40.116  34.955  38.276  1.00  0.00     0.006 A 
ENDBRANCH  71  88
ENDBRANCH  45  46
ENDBRANCH  37  40
ENDBRANCH  35  36
ENDBRANCH  34  35
ENDBRANCH  33  34
ENDBRANCH  32  33
ENDBRANCH  31  32
ENDBRANCH  30  31
ENDBRANCH   3  30
TORSDOF 22
ENDMDL
MODEL 2
REMARK VINA RESULT:      -8.2      3.948      7.975
REMARK SMILES CCCCCCNC(=O)Oc1cccc(-c2ccc(CC(=O)NCCCCCCNC(=O)c3ccc(-c4c5nc(c(-c6c(F)cccc6F)c6ccc([nH]6)c(-c6c(F)cccc6F)c6nc(c(-c7c(F)cccc7F)c7ccc4[nH]7)C=C6)C=C5)cc3)cc2F)c1
REMARK SMILES IDX 21 1 22 2 23 3 20 5 19 6 16 7 17 8 88 9 18 10 87 11 89 12
REMARK SMILES IDX 15 13 11 14 12 15 90 16 13 17 14 18 10 19 8 20 7 21 9 23
REMARK SMILES IDX 6 24 5 25 4 26 3 27 2 28 1 29 24 30 25 31 26 32 27 33 28 34
REMARK SMILES IDX 29 35 30 36 31 37 32 39 33 40 34 41 86 42 35 43 85 44 36 45
REMARK SMILES IDX 37 46 38 47 79 48 39 49 84 50 78 51 80 52 40 53 83 54 77 55
REMARK SMILES IDX 76 56 41 58 67 59 50 60 66 61 51 62 54 63 65 64 81 65 52 66
REMARK SMILES IDX 53 67 64 69 82 70 55 71 42 72 43 73 48 74 44 75 45 76 47 77
REMARK SMILES IDX 49 78 46 79 68 80 69 81 74 82 70 83 71 84 73 85 75 86 72 87
REMARK SMILES IDX 56 88 57 89 62 90 58 91 59 92 61 93 63 94 60 95
REMARK H PARENT 23 4 7 22 30 38 80 57 54 68
REMARK Flexibility Score: inf
ROOT
ATOM      1  C   UNL A   1      42.687  18.943  25.976  1.00  0.00     0.224 C 
ATOM      2  O   UNL A   1      42.611  17.735  25.746  1.00  0.00    -0.275 OA
ATOM      3  N   UNL A   1      43.565  19.690  25.244  1.00  0.00    -0.356 N 
ATOM      4  H   UNL A   1      44.014  19.213  24.508  1.00  0.00     0.163 HD
ENDROOT
BRANCH   1   5
ATOM      5  C   UNL A   1      41.792  19.609  27.006  1.00  0.00     0.135 C 
BRANCH   5   6
ATOM      6  C   UNL A   1      40.572  20.287  26.433  1.00  0.00    -0.036 A 
ATOM      7  C   UNL A   1      38.246  21.580  25.440  1.00  0.00     0.018 A 
ATOM      8  C   UNL A   1      38.464  20.209  25.223  1.00  0.00     0.012 A 
ATOM      9  C   UNL A   1      39.234  22.285  26.142  1.00  0.00     0.131 A 
ATOM     10  C   UNL A   1      39.611  19.569  25.710  1.00  0.00     0.005 A 
ATOM     11  C   UNL A   1      40.384  21.661  26.617  1.00  0.00     0.044 A 
ATOM     12  F   UNL A   1      39.084  23.594  26.400  1.00  0.00    -0.206 F 
BRANCH   7  13
ATOM     13  C   UNL A   1      37.034  22.252  24.943  1.00  0.00    -0.012 A 
ATOM     14  C   UNL A   1      34.801  23.131  25.330  1.00  0.00     0.133 A 
ATOM     15  C   UNL A   1      34.679  23.486  23.990  1.00  0.00     0.047 A 
ATOM     16  C   UNL A   1      35.955  22.507  25.804  1.00  0.00     0.056 A 
ATOM     17  C   UNL A   1      35.741  23.244  23.121  1.00  0.00     0.004 A 
ATOM     18  C   UNL A   1      36.907  22.635  23.595  1.00  0.00     0.009 A 
BRANCH  14  19
ATOM     19  O   UNL A   1      33.675  23.314  26.148  1.00  0.00    -0.410 OA
BRANCH  19  20
ATOM     20  C   UNL A   1      33.211  22.236  26.889  1.00  0.00     0.412 C 
ATOM     21  N   UNL A   1      32.269  21.494  26.235  1.00  0.00    -0.321 N 
ATOM     22  H   UNL A   1      31.903  20.720  26.723  1.00  0.00     0.167 HD
ATOM     23  O   UNL A   1      33.568  21.934  28.025  1.00  0.00    -0.224 OA
BRANCH  21  24
ATOM     24  C   UNL A   1      31.750  21.726  24.902  1.00  0.00     0.119 C 
BRANCH  24  25
ATOM     25  C   UNL A   1      32.365  20.776  23.875  1.00  0.00     0.021 C 
BRANCH  25  26
ATOM     26  C   UNL A   1      32.833  19.427  24.439  1.00  0.00     0.002 C 
BRANCH  26  27
ATOM     27  C   UNL A   1      32.444  18.194  23.616  1.00  0.00    -0.000 C 
BRANCH  27  28
ATOM     28  C   UNL A   1      33.601  17.266  23.236  1.00  0.00    -0.003 C 
ATOM     29  C   UNL A   1      34.691  17.198  24.293  1.00  0.00     0.004 C 
ENDBRANCH  27  28
ENDBRANCH  26  27
ENDBRANCH  25  26
ENDBRANCH  24  25
ENDBRANCH  21  24
ENDBRANCH  19  20
ENDBRANCH  14  19
ENDBRANCH   7  13
ENDBRANCH   5   6
ENDBRANCH   1   5
BRANCH   3  30
ATOM     30  C   UNL A   1      43.930  21.086  25.394  1.00  0.00     0.116 C 
BRANCH  30  31
ATOM     31  C   UNL A   1      45.449  21.269  25.366  1.00  0.00     0.021 C 
BRANCH  31  32
ATOM     32  C   UNL A   1      45.905  22.621  24.801  1.00  0.00     0.002 C 
BRANCH  32  33
ATOM     33  C   UNL A   1      46.036  23.750  25.832  1.00  0.00     0.002 C 
BRANCH  33  34
ATOM     34  C   UNL A   1      46.242  25.148  25.244  1.00  0.00     0.021 C 
BRANCH  34  35
ATOM     35  C   UNL A   1      45.198  26.179  25.668  1.00  0.00     0.116 C 
BRANCH  35  36
ATOM     36  N   UNL A   1      43.903  25.937  25.047  1.00  0.00    -0.352 N 
ATOM     37  C   UNL A   1      42.642  26.162  25.542  1.00  0.00     0.251 C 
ATOM     38  H   UNL A   1      43.937  25.555  24.141  1.00  0.00     0.163 HD
ATOM     39  O   UNL A   1      41.658  25.725  24.955  1.00  0.00    -0.269 OA
BRANCH  37  40
ATOM     40  C   UNL A   1      42.470  26.915  26.802  1.00  0.00     0.039 A 
ATOM     41  C   UNL A   1      42.841  28.262  26.842  1.00  0.00     0.014 A 
ATOM     42  C   UNL A   1      41.943  26.295  27.938  1.00  0.00     0.014 A 
ATOM     43  C   UNL A   1      42.608  29.010  27.999  1.00  0.00     0.010 A 
ATOM     44  C   UNL A   1      41.657  27.054  29.069  1.00  0.00     0.010 A 
ATOM     45  C   UNL A   1      41.976  28.422  29.106  1.00  0.00    -0.014 A 
BRANCH  45  46
ATOM     46  C   UNL A   1      41.601  29.218  30.300  1.00  0.00     0.031 A 
ATOM     47  C   UNL A   1      40.365  30.068  30.287  1.00  0.00     0.074 A 
ATOM     48  C   UNL A   1      42.435  29.255  31.358  1.00  0.00     0.049 A 
ATOM     49  N   UNL A   1      39.945  30.930  31.178  1.00  0.00    -0.248 NA
ATOM     50  C   UNL A   1      39.498  29.953  29.104  1.00  0.00     0.031 C 
ATOM     51  C   UNL A   1      43.689  28.509  31.473  1.00  0.00     0.029 A 
ATOM     52  N   UNL A   1      42.366  29.971  32.527  1.00  0.00    -0.354 N 
ATOM     53  C   UNL A   1      38.780  31.476  30.655  1.00  0.00     0.074 A 
ATOM     54  C   UNL A   1      38.578  30.875  29.354  1.00  0.00     0.031 C 
ATOM     55  C   UNL A   1      44.273  28.808  32.644  1.00  0.00     0.029 A 
ATOM     56  C   UNL A   1      43.455  29.793  33.344  1.00  0.00     0.049 A 
ATOM     57  H   UNL A   1      41.608  30.556  32.757  1.00  0.00     0.167 HD
ATOM     58  C   UNL A   1      37.949  32.386  31.215  1.00  0.00     0.037 A 
ATOM     59  C   UNL A   1      43.774  30.378  34.516  1.00  0.00     0.037 A 
ATOM     60  C   UNL A   1      38.137  32.960  32.522  1.00  0.00     0.049 A 
ATOM     61  C   UNL A   1      42.843  31.395  35.111  1.00  0.00     0.074 A 
ATOM     62  C   UNL A   1      37.300  33.816  33.216  1.00  0.00     0.029 A 
ATOM     63  N   UNL A   1      39.246  32.745  33.326  1.00  0.00    -0.354 N 
ATOM     64  N   UNL A   1      41.703  31.843  34.643  1.00  0.00    -0.248 NA
ATOM     65  C   UNL A   1      43.243  31.991  36.394  1.00  0.00     0.031 C 
ATOM     66  C   UNL A   1      37.924  34.156  34.421  1.00  0.00     0.029 A 
ATOM     67  C   UNL A   1      39.131  33.479  34.494  1.00  0.00     0.049 A 
ATOM     68  H   UNL A   1      40.002  32.156  33.100  1.00  0.00     0.167 HD
ATOM     69  C   UNL A   1      41.244  32.762  35.575  1.00  0.00     0.074 A 
ATOM     70  C   UNL A   1      42.219  32.797  36.646  1.00  0.00     0.031 C 
ATOM     71  C   UNL A   1      40.115  33.511  35.546  1.00  0.00     0.037 A 
BRANCH  58  72
ATOM     72  C   UNL A   1      36.757  32.821  30.415  1.00  0.00     0.057 A 
ATOM     73  C   UNL A   1      35.492  32.250  30.601  1.00  0.00     0.134 A 
ATOM     74  C   UNL A   1      36.869  33.851  29.472  1.00  0.00     0.134 A 
ATOM     75  F   UNL A   1      35.320  31.252  31.482  1.00  0.00    -0.206 F 
ATOM     76  C   UNL A   1      34.386  32.668  29.860  1.00  0.00     0.040 A 
ATOM     77  C   UNL A   1      35.765  34.294  28.743  1.00  0.00     0.040 A 
ATOM     78  F   UNL A   1      38.051  34.446  29.249  1.00  0.00    -0.206 F 
ATOM     79  C   UNL A   1      34.520  33.699  28.931  1.00  0.00     0.006 A 
ENDBRANCH  58  72
BRANCH  59  80
ATOM     80  C   UNL A   1      45.041  30.016  35.198  1.00  0.00     0.057 A 
ATOM     81  C   UNL A   1      45.085  28.979  36.135  1.00  0.00     0.134 A 
ATOM     82  C   UNL A   1      46.238  30.689  34.921  1.00  0.00     0.134 A 
ATOM     83  F   UNL A   1      43.967  28.311  36.455  1.00  0.00    -0.206 F 
ATOM     84  C   UNL A   1      46.271  28.630  36.783  1.00  0.00     0.040 A 
ATOM     85  C   UNL A   1      47.435  30.336  35.544  1.00  0.00     0.040 A 
ATOM     86  F   UNL A   1      46.261  31.689  34.026  1.00  0.00    -0.206 F 
ATOM     87  C   UNL A   1      47.453  29.306  36.482  1.00  0.00     0.006 A 
ENDBRANCH  59  80
BRANCH  71  88
ATOM     88  C   UNL A   1      39.869  34.429  36.706  1.00  0.00     0.057 A 
ATOM     89  C   UNL A   1      40.247  35.776  36.666  1.00  0.00     0.134 A 
ATOM     90  C   UNL A   1      39.200  33.976  37.849  1.00  0.00     0.134 A 
ATOM     91  F   UNL A   1      40.904  36.268  35.604  1.00  0.00    -0.206 F 
ATOM     92  C   UNL A   1      39.975  36.640  37.728  1.00  0.00     0.040 A 
ATOM     93  C   UNL A   1      38.903  34.834  38.908  1.00  0.00     0.040 A 
ATOM     94  F   UNL A   1      38.806  32.696  37.946  1.00  0.00    -0.206 F 
ATOM     95  C   UNL A   1      39.293  36.170  38.851  1.00  0.00     0.006 A 
ENDBRANCH  71  88
ENDBRANCH  45  46
ENDBRANCH  37  40
ENDBRANCH  35  36
ENDBRANCH  34  35
ENDBRANCH  33  34
ENDBRANCH  32  33
ENDBRANCH  31  32
ENDBRANCH  30  31
ENDBRANCH   3  30
TORSDOF 22
ENDMDL
MODEL 3
REMARK VINA RESULT:      -8.1      4.589     10.466
REMARK SMILES CCCCCCNC(=O)Oc1cccc(-c2ccc(CC(=O)NCCCCCCNC(=O)c3ccc(-c4c5nc(c(-c6c(F)cccc6F)c6ccc([nH]6)c(-c6c(F)cccc6F)c6nc(c(-c7c(F)cccc7F)c7ccc4[nH]7)C=C6)C=C5)cc3)cc2F)c1
REMARK SMILES IDX 21 1 22 2 23 3 20 5 19 6 16 7 17 8 88 9 18 10 87 11 89 12
REMARK SMILES IDX 15 13 11 14 12 15 90 16 13 17 14 18 10 19 8 20 7 21 9 23
REMARK SMILES IDX 6 24 5 25 4 26 3 27 2 28 1 29 24 30 25 31 26 32 27 33 28 34
REMARK SMILES IDX 29 35 30 36 31 37 32 39 33 40 34 41 86 42 35 43 85 44 36 45
REMARK SMILES IDX 37 46 38 47 79 48 39 49 84 50 78 51 80 52 40 53 83 54 77 55
REMARK SMILES IDX 76 56 41 58 67 59 50 60 66 61 51 62 54 63 65 64 81 65 52 66
REMARK SMILES IDX 53 67 64 69 82 70 55 71 42 72 43 73 48 74 44 75 45 76 47 77
REMARK SMILES IDX 49 78 46 79 68 80 69 81 74 82 70 83 71 84 73 85 75 86 72 87
REMARK SMILES IDX 56 88 57 89 62 90 58 91 59 92 61 93 63 94 60 95
REMARK H PARENT 23 4 7 22 30 38 80 57 54 68
REMARK Flexibility Score: inf
ROOT
ATOM      1  C   UNL A   1      32.590  31.080  26.810  1.00  0.00     0.224 C 
ATOM      2  O   UNL A   1      31.497  31.639  26.911  1.00  0.00    -0.275 OA
ATOM      3  N   UNL A   1      33.496  31.237  27.820  1.00  0.00    -0.356 N 
ATOM      4  H   UNL A   1      33.165  31.719  28.612  1.00  0.00     0.163 HD
ENDROOT
BRANCH   1   5
ATOM      5  C   UNL A   1      32.916  30.190  25.624  1.00  0.00     0.135 C 
BRANCH   5   6
ATOM      6  C   UNL A   1      32.679  28.719  25.859  1.00  0.00    -0.036 A 
ATOM      7  C   UNL A   1      32.242  25.935  26.213  1.00  0.00     0.018 A 
ATOM      8  C   UNL A   1      31.231  26.870  26.493  1.00  0.00     0.012 A 
ATOM      9  C   UNL A   1      33.477  26.434  25.779  1.00  0.00     0.131 A 
ATOM     10  C   UNL A   1      31.445  28.244  26.321  1.00  0.00     0.005 A 
ATOM     11  C   UNL A   1      33.704  27.798  25.620  1.00  0.00     0.044 A 
ATOM     12  F   UNL A   1      34.483  25.596  25.478  1.00  0.00    -0.206 F 
BRANCH   7  13
ATOM     13  C   UNL A   1      32.016  24.489  26.377  1.00  0.00    -0.012 A 
ATOM     14  C   UNL A   1      32.882  22.248  26.745  1.00  0.00     0.133 A 
ATOM     15  C   UNL A   1      31.604  21.707  26.634  1.00  0.00     0.047 A 
ATOM     16  C   UNL A   1      33.094  23.619  26.603  1.00  0.00     0.056 A 
ATOM     17  C   UNL A   1      30.521  22.555  26.414  1.00  0.00     0.004 A 
ATOM     18  C   UNL A   1      30.726  23.933  26.289  1.00  0.00     0.009 A 
BRANCH  14  19
ATOM     19  O   UNL A   1      33.951  21.348  26.879  1.00  0.00    -0.410 OA
BRANCH  19  20
ATOM     20  C   UNL A   1      34.987  21.407  25.959  1.00  0.00     0.412 C 
ATOM     21  N   UNL A   1      34.884  20.474  24.966  1.00  0.00    -0.321 N 
ATOM     22  H   UNL A   1      35.600  20.471  24.290  1.00  0.00     0.167 HD
ATOM     23  O   UNL A   1      35.934  22.190  25.986  1.00  0.00    -0.224 OA
BRANCH  21  24
ATOM     24  C   UNL A   1      33.833  19.490  24.803  1.00  0.00     0.119 C 
BRANCH  24  25
ATOM     25  C   UNL A   1      32.698  20.005  23.918  1.00  0.00     0.021 C 
BRANCH  25  26
ATOM     26  C   UNL A   1      33.025  21.273  23.117  1.00  0.00     0.002 C 
BRANCH  26  27
ATOM     27  C   UNL A   1      31.868  22.261  22.938  1.00  0.00    -0.000 C 
BRANCH  27  28
ATOM     28  C   UNL A   1      32.265  23.738  22.895  1.00  0.00    -0.003 C 
ATOM     29  C   UNL A   1      33.767  23.956  22.811  1.00  0.00     0.004 C 
ENDBRANCH  27  28
ENDBRANCH  26  27
ENDBRANCH  25  26
ENDBRANCH  24  25
ENDBRANCH  21  24
ENDBRANCH  19  20
ENDBRANCH  14  19
ENDBRANCH   7  13
ENDBRANCH   5   6
ENDBRANCH   1   5
BRANCH   3  30
ATOM     30  C   UNL A   1      34.875  30.794  27.893  1.00  0.00     0.116 C 
BRANCH  30  31
ATOM     31  C   UNL A   1      35.827  31.972  28.109  1.00  0.00     0.021 C 
BRANCH  31  32
ATOM     32  C   UNL A   1      35.319  33.009  29.120  1.00  0.00     0.002 C 
BRANCH  32  33
ATOM     33  C   UNL A   1      35.545  34.474  28.724  1.00  0.00     0.002 C 
BRANCH  33  34
ATOM     34  C   UNL A   1      34.299  35.362  28.771  1.00  0.00     0.021 C 
BRANCH  34  35
ATOM     35  C   UNL A   1      33.104  34.746  29.496  1.00  0.00     0.116 C 
BRANCH  35  36
ATOM     36  N   UNL A   1      32.543  35.647  30.493  1.00  0.00    -0.352 N 
ATOM     37  C   UNL A   1      32.832  35.756  31.831  1.00  0.00     0.251 C 
ATOM     38  H   UNL A   1      31.856  36.268  30.159  1.00  0.00     0.163 HD
ATOM     39  O   UNL A   1      32.129  36.445  32.563  1.00  0.00    -0.269 OA
BRANCH  37  40
ATOM     40  C   UNL A   1      33.982  35.021  32.397  1.00  0.00     0.039 A 
ATOM     41  C   UNL A   1      33.777  33.744  32.926  1.00  0.00     0.014 A 
ATOM     42  C   UNL A   1      35.259  35.589  32.403  1.00  0.00     0.014 A 
ATOM     43  C   UNL A   1      34.867  33.003  33.389  1.00  0.00     0.010 A 
ATOM     44  C   UNL A   1      36.352  34.829  32.809  1.00  0.00     0.010 A 
ATOM     45  C   UNL A   1      36.167  33.523  33.294  1.00  0.00    -0.014 A 
BRANCH  45  46
ATOM     46  C   UNL A   1      37.356  32.714  33.659  1.00  0.00     0.031 A 
ATOM     47  C   UNL A   1      38.132  33.027  34.905  1.00  0.00     0.074 A 
ATOM     48  C   UNL A   1      37.796  31.765  32.810  1.00  0.00     0.049 A 
ATOM     49  N   UNL A   1      39.266  32.523  35.320  1.00  0.00    -0.248 NA
ATOM     50  C   UNL A   1      37.572  34.062  35.788  1.00  0.00     0.031 C 
ATOM     51  C   UNL A   1      37.155  31.399  31.546  1.00  0.00     0.029 A 
ATOM     52  N   UNL A   1      38.902  30.954  32.869  1.00  0.00    -0.354 N 
ATOM     53  C   UNL A   1      39.567  33.193  36.499  1.00  0.00     0.074 A 
ATOM     54  C   UNL A   1      38.516  34.164  36.714  1.00  0.00     0.031 C 
ATOM     55  C   UNL A   1      37.878  30.439  30.948  1.00  0.00     0.029 A 
ATOM     56  C   UNL A   1      39.053  30.151  31.766  1.00  0.00     0.049 A 
ATOM     57  H   UNL A   1      39.527  30.950  33.629  1.00  0.00     0.167 HD
ATOM     58  C   UNL A   1      40.619  33.006  37.331  1.00  0.00     0.037 A 
ATOM     59  C   UNL A   1      40.039  29.295  31.435  1.00  0.00     0.037 A 
ATOM     60  C   UNL A   1      41.647  32.018  37.130  1.00  0.00     0.049 A 
ATOM     61  C   UNL A   1      41.202  29.114  32.369  1.00  0.00     0.074 A 
ATOM     62  C   UNL A   1      42.699  31.686  37.966  1.00  0.00     0.029 A 
ATOM     63  N   UNL A   1      41.758  31.212  36.006  1.00  0.00    -0.354 N 
ATOM     64  N   UNL A   1      41.434  29.697  33.520  1.00  0.00    -0.248 NA
ATOM     65  C   UNL A   1      42.243  28.162  31.956  1.00  0.00     0.031 C 
ATOM     66  C   UNL A   1      43.474  30.712  37.326  1.00  0.00     0.029 A 
ATOM     67  C   UNL A   1      42.880  30.409  36.111  1.00  0.00     0.049 A 
ATOM     68  H   UNL A   1      41.131  31.211  35.248  1.00  0.00     0.167 HD
ATOM     69  C   UNL A   1      42.637  29.175  33.975  1.00  0.00     0.074 A 
ATOM     70  C   UNL A   1      43.080  28.215  32.984  1.00  0.00     0.031 C 
ATOM     71  C   UNL A   1      43.313  29.466  35.112  1.00  0.00     0.037 A 
BRANCH  58  72
ATOM     72  C   UNL A   1      40.712  33.889  38.540  1.00  0.00     0.057 A 
ATOM     73  C   UNL A   1      41.454  35.076  38.535  1.00  0.00     0.134 A 
ATOM     74  C   UNL A   1      40.019  33.564  39.714  1.00  0.00     0.134 A 
ATOM     75  F   UNL A   1      42.148  35.438  37.445  1.00  0.00    -0.206 F 
ATOM     76  C   UNL A   1      41.526  35.897  39.661  1.00  0.00     0.040 A 
ATOM     77  C   UNL A   1      40.063  34.390  40.838  1.00  0.00     0.040 A 
ATOM     78  F   UNL A   1      39.284  32.444  39.784  1.00  0.00    -0.206 F 
ATOM     79  C   UNL A   1      40.823  35.557  40.816  1.00  0.00     0.006 A 
ENDBRANCH  58  72
BRANCH  59  80
ATOM     80  C   UNL A   1      39.969  28.550  30.155  1.00  0.00     0.057 A 
ATOM     81  C   UNL A   1      39.268  27.344  30.059  1.00  0.00     0.134 A 
ATOM     82  C   UNL A   1      40.591  29.030  28.995  1.00  0.00     0.134 A 
ATOM     83  F   UNL A   1      38.667  26.825  31.140  1.00  0.00    -0.206 F 
ATOM     84  C   UNL A   1      39.194  26.635  28.859  1.00  0.00     0.040 A 
ATOM     85  C   UNL A   1      40.508  28.343  27.783  1.00  0.00     0.040 A 
ATOM     86  F   UNL A   1      41.274  30.184  29.022  1.00  0.00    -0.206 F 
ATOM     87  C   UNL A   1      39.811  27.139  27.715  1.00  0.00     0.006 A 
ENDBRANCH  59  80
BRANCH  71  88
ATOM     88  C   UNL A   1      44.602  28.737  35.350  1.00  0.00     0.057 A 
ATOM     89  C   UNL A   1      44.633  27.495  35.995  1.00  0.00     0.134 A 
ATOM     90  C   UNL A   1      45.816  29.255  34.881  1.00  0.00     0.134 A 
ATOM     91  F   UNL A   1      43.505  26.952  36.480  1.00  0.00    -0.206 F 
ATOM     92  C   UNL A   1      45.828  26.797  36.175  1.00  0.00     0.040 A 
ATOM     93  C   UNL A   1      47.014  28.557  35.035  1.00  0.00     0.040 A 
ATOM     94  F   UNL A   1      45.852  30.438  34.248  1.00  0.00    -0.206 F 
ATOM     95  C   UNL A   1      47.023  27.325  35.686  1.00  0.00     0.006 A 
ENDBRANCH  71  88
ENDBRANCH  45  46
ENDBRANCH  37  40
ENDBRANCH  35  36
ENDBRANCH  34  35
ENDBRANCH  33  34
ENDBRANCH  32  33
ENDBRANCH  31  32
ENDBRANCH  30  31
ENDBRANCH   3  30
TORSDOF 22
ENDMDL
