MODEL 1
REMARK VINA RESULT:     -12.1      0.000      0.000
REMARK SMILES CO[C@@H]1C[NH2+][C@@H](O[C@@H]2C[C@@H](C(=O)NCCCCCCNC(=O)c3ccc(-c4c5nc(c(-c6c(F)cccc6F)c6ccc([nH]6)c(-c6c(F)cccc6F)c6nc(c(-c7c(F)cccc7F)c7ccc4[nH]7)C=C6)C=C5)cc3)N(C(=O)OC(C)(C)C)C2)c2cc(Cl)ccc21
REMARK SMILES IDX 16 1 15 2 14 3 13 4 11 5 12 6 10 8 8 9 9 10 85 11 77 12 7 13
REMARK SMILES IDX 6 14 3 15 4 16 92 17 5 18 86 19 91 20 87 23 90 24 88 25
REMARK SMILES IDX 89 26 2 27 1 28 78 29 79 30 80 31 81 32 82 33 83 34 84 35
REMARK SMILES IDX 17 36 18 37 19 38 20 39 21 40 22 42 23 43 24 44 76 45 25 46
REMARK SMILES IDX 75 47 26 48 27 49 28 50 69 51 29 52 74 53 68 54 70 55 30 56
REMARK SMILES IDX 73 57 67 58 66 59 31 61 57 62 40 63 56 64 41 65 44 66 55 67
REMARK SMILES IDX 71 68 42 69 43 70 54 72 72 73 45 74 32 75 33 76 38 77 34 78
REMARK SMILES IDX 35 79 37 80 39 81 36 82 58 83 59 84 64 85 60 86 61 87 63 88
REMARK SMILES IDX 65 89 62 90 46 91 47 92 52 93 48 94 49 95 51 96 53 97 50 98
REMARK H PARENT 13 7 5 21 5 22 20 41 70 60 44 71
REMARK Flexibility Score: inf
ROOT
ATOM      1  C   UNL A   1      36.701  21.889  24.170  1.00  0.00     0.002 C 
ENDROOT
BRANCH   1   2
ATOM      2  C   UNL A   1      36.392  23.385  24.047  1.00  0.00     0.021 C 
BRANCH   2   3
ATOM      3  C   UNL A   1      35.624  24.000  25.213  1.00  0.00     0.116 C 
BRANCH   3   4
ATOM      4  N   UNL A   1      35.464  23.179  26.403  1.00  0.00    -0.354 N 
ATOM      5  C   UNL A   1      34.336  22.480  26.801  1.00  0.00     0.243 C 
ATOM      6  O   UNL A   1      34.472  21.559  27.609  1.00  0.00    -0.273 OA
ATOM      7  H   UNL A   1      36.248  23.113  26.994  1.00  0.00     0.163 HD
BRANCH   5   8
ATOM      8  C   UNL A   1      32.954  22.880  26.225  1.00  0.00     0.180 C 
ATOM      9  C   UNL A   1      30.643  23.469  26.735  1.00  0.00     0.147 C 
ATOM     10  C   UNL A   1      32.065  23.521  27.307  1.00  0.00     0.069 C 
ATOM     11  C   UNL A   1      30.657  22.272  25.793  1.00  0.00     0.156 C 
ATOM     12  N   UNL A   1      32.052  21.908  25.599  1.00  0.00    -0.293 N 
BRANCH   9  13
ATOM     13  O   UNL A   1      30.002  24.644  26.259  1.00  0.00    -0.320 OA
BRANCH  13  14
ATOM     14  C   UNL A   1      30.308  25.439  25.126  1.00  0.00     0.354 C 
ATOM     15  C   UNL A   1      32.595  24.914  23.358  1.00  0.00     0.203 C 
ATOM     16  C   UNL A   1      31.215  24.231  23.158  1.00  0.00     0.300 C 
ATOM     17  C   UNL A   1      32.617  26.101  24.315  1.00  0.00    -0.002 A 
ATOM     18  N   UNL A   1      30.067  24.799  23.848  1.00  0.00    -0.315 N 
ATOM     19  C   UNL A   1      31.531  26.316  25.183  1.00  0.00     0.046 A 
ATOM     20  C   UNL A   1      33.764  26.901  24.466  1.00  0.00     0.009 A 
ATOM     21  H   UNL A   1      29.400  24.043  24.006  1.00  0.00     0.349 HD
ATOM     22  H   UNL A   1      29.739  25.548  23.237  1.00  0.00     0.349 HD
ATOM     23  C   UNL A   1      31.585  27.353  26.136  1.00  0.00     0.033 A 
ATOM     24  C   UNL A   1      33.832  27.886  25.456  1.00  0.00     0.021 A 
ATOM     25  C   UNL A   1      32.738  28.116  26.281  1.00  0.00     0.041 A 
ATOM     26  Cl  UNL A   1      32.820  29.312  27.513  1.00  0.00    -0.084 Cl
BRANCH  15  27
ATOM     27  O   UNL A   1      33.384  25.094  22.179  1.00  0.00    -0.371 OA
ATOM     28  C   UNL A   1      32.704  25.633  21.060  1.00  0.00     0.196 C 
ENDBRANCH  15  27
ENDBRANCH  13  14
ENDBRANCH   9  13
BRANCH  12  29
ATOM     29  C   UNL A   1      32.363  21.010  24.608  1.00  0.00     0.411 C 
ATOM     30  O   UNL A   1      32.855  21.354  23.536  1.00  0.00    -0.224 OA
BRANCH  29  31
ATOM     31  O   UNL A   1      32.039  19.738  24.927  1.00  0.00    -0.444 OA
BRANCH  31  32
ATOM     32  C   UNL A   1      32.919  18.631  24.582  1.00  0.00     0.106 C 
ATOM     33  C   UNL A   1      32.662  18.036  23.191  1.00  0.00     0.056 C 
ATOM     34  C   UNL A   1      34.379  19.089  24.710  1.00  0.00     0.056 C 
ATOM     35  C   UNL A   1      32.590  17.526  25.602  1.00  0.00     0.056 C 
ENDBRANCH  31  32
ENDBRANCH  29  31
ENDBRANCH  12  29
ENDBRANCH   5   8
ENDBRANCH   3   4
ENDBRANCH   2   3
ENDBRANCH   1   2
BRANCH   1  36
ATOM     36  C   UNL A   1      37.945  21.499  24.983  1.00  0.00     0.002 C 
BRANCH  36  37
ATOM     37  C   UNL A   1      38.394  20.040  24.903  1.00  0.00     0.021 C 
BRANCH  37  38
ATOM     38  C   UNL A   1      39.191  19.545  26.101  1.00  0.00     0.116 C 
BRANCH  38  39
ATOM     39  N   UNL A   1      40.511  19.049  25.732  1.00  0.00    -0.352 N 
ATOM     40  C   UNL A   1      41.749  19.644  25.758  1.00  0.00     0.251 C 
ATOM     41  H   UNL A   1      40.517  18.120  25.403  1.00  0.00     0.163 HD
ATOM     42  O   UNL A   1      42.697  19.090  25.208  1.00  0.00    -0.269 OA
BRANCH  40  43
ATOM     43  C   UNL A   1      41.956  20.949  26.426  1.00  0.00     0.039 A 
ATOM     44  C   UNL A   1      41.996  22.131  25.691  1.00  0.00     0.014 A 
ATOM     45  C   UNL A   1      42.069  21.004  27.821  1.00  0.00     0.014 A 
ATOM     46  C   UNL A   1      42.347  23.322  26.313  1.00  0.00     0.010 A 
ATOM     47  C   UNL A   1      42.295  22.229  28.463  1.00  0.00     0.010 A 
ATOM     48  C   UNL A   1      42.480  23.397  27.709  1.00  0.00    -0.014 A 
BRANCH  48  49
ATOM     49  C   UNL A   1      42.781  24.719  28.324  1.00  0.00     0.031 A 
ATOM     50  C   UNL A   1      44.197  25.154  28.596  1.00  0.00     0.074 A 
ATOM     51  C   UNL A   1      41.762  25.575  28.543  1.00  0.00     0.049 A 
ATOM     52  N   UNL A   1      44.633  26.308  29.041  1.00  0.00    -0.248 NA
ATOM     53  C   UNL A   1      45.262  24.171  28.349  1.00  0.00     0.031 C 
ATOM     54  C   UNL A   1      40.344  25.270  28.329  1.00  0.00     0.029 A 
ATOM     55  N   UNL A   1      41.758  26.889  28.937  1.00  0.00    -0.354 N 
ATOM     56  C   UNL A   1      46.014  26.183  29.139  1.00  0.00     0.074 A 
ATOM     57  C   UNL A   1      46.342  24.831  28.743  1.00  0.00     0.031 C 
ATOM     58  C   UNL A   1      39.621  26.386  28.494  1.00  0.00     0.029 A 
ATOM     59  C   UNL A   1      40.510  27.466  28.904  1.00  0.00     0.049 A 
ATOM     60  H   UNL A   1      42.569  27.372  29.215  1.00  0.00     0.167 HD
ATOM     61  C   UNL A   1      46.927  27.114  29.513  1.00  0.00     0.037 A 
ATOM     62  C   UNL A   1      40.121  28.725  29.177  1.00  0.00     0.037 A 
ATOM     63  C   UNL A   1      46.601  28.465  29.895  1.00  0.00     0.049 A 
ATOM     64  C   UNL A   1      41.153  29.723  29.611  1.00  0.00     0.074 A 
ATOM     65  C   UNL A   1      47.453  29.479  30.300  1.00  0.00     0.029 A 
ATOM     66  N   UNL A   1      45.319  28.992  29.912  1.00  0.00    -0.354 N 
ATOM     67  N   UNL A   1      42.452  29.585  29.704  1.00  0.00    -0.248 NA
ATOM     68  C   UNL A   1      40.657  31.052  29.993  1.00  0.00     0.031 C 
ATOM     69  C   UNL A   1      46.681  30.612  30.592  1.00  0.00     0.029 A 
ATOM     70  C   UNL A   1      45.354  30.315  30.327  1.00  0.00     0.049 A 
ATOM     71  H   UNL A   1      44.502  28.501  29.665  1.00  0.00     0.167 HD
ATOM     72  C   UNL A   1      42.931  30.809  30.147  1.00  0.00     0.074 A 
ATOM     73  C   UNL A   1      41.786  31.688  30.265  1.00  0.00     0.031 C 
ATOM     74  C   UNL A   1      44.203  31.172  30.442  1.00  0.00     0.037 A 
BRANCH  61  75
ATOM     75  C   UNL A   1      48.369  26.695  29.535  1.00  0.00     0.057 A 
ATOM     76  C   UNL A   1      49.192  26.894  28.420  1.00  0.00     0.134 A 
ATOM     77  C   UNL A   1      48.940  26.071  30.653  1.00  0.00     0.134 A 
ATOM     78  F   UNL A   1      48.710  27.480  27.314  1.00  0.00    -0.206 F 
ATOM     79  C   UNL A   1      50.529  26.488  28.415  1.00  0.00     0.040 A 
ATOM     80  C   UNL A   1      50.282  25.683  30.669  1.00  0.00     0.040 A 
ATOM     81  F   UNL A   1      48.211  25.863  31.761  1.00  0.00    -0.206 F 
ATOM     82  C   UNL A   1      51.079  25.887  29.544  1.00  0.00     0.006 A 
ENDBRANCH  61  75
BRANCH  62  83
ATOM     83  C   UNL A   1      38.692  29.114  29.062  1.00  0.00     0.057 A 
ATOM     84  C   UNL A   1      37.830  29.064  30.164  1.00  0.00     0.134 A 
ATOM     85  C   UNL A   1      38.164  29.578  27.851  1.00  0.00     0.134 A 
ATOM     86  F   UNL A   1      38.272  28.623  31.350  1.00  0.00    -0.206 F 
ATOM     87  C   UNL A   1      36.494  29.455  30.066  1.00  0.00     0.040 A 
ATOM     88  C   UNL A   1      36.838  30.003  27.747  1.00  0.00     0.040 A 
ATOM     89  F   UNL A   1      38.943  29.669  26.763  1.00  0.00    -0.206 F 
ATOM     90  C   UNL A   1      35.998  29.937  28.857  1.00  0.00     0.006 A 
ENDBRANCH  62  83
BRANCH  74  91
ATOM     91  C   UNL A   1      44.404  32.588  30.893  1.00  0.00     0.057 A 
ATOM     92  C   UNL A   1      44.615  33.611  29.961  1.00  0.00     0.134 A 
ATOM     93  C   UNL A   1      44.357  32.945  32.248  1.00  0.00     0.134 A 
ATOM     94  F   UNL A   1      44.675  33.336  28.649  1.00  0.00    -0.206 F 
ATOM     95  C   UNL A   1      44.758  34.941  30.359  1.00  0.00     0.040 A 
ATOM     96  C   UNL A   1      44.472  34.275  32.656  1.00  0.00     0.040 A 
ATOM     97  F   UNL A   1      44.138  32.014  33.189  1.00  0.00    -0.206 F 
ATOM     98  C   UNL A   1      44.674  35.277  31.709  1.00  0.00     0.006 A 
ENDBRANCH  74  91
ENDBRANCH  48  49
ENDBRANCH  40  43
ENDBRANCH  38  39
ENDBRANCH  37  38
ENDBRANCH  36  37
ENDBRANCH   1  36
TORSDOF 19
ENDMDL
MODEL 2
REMARK VINA RESULT:     -11.9      1.353      1.997
REMARK SMILES CO[C@@H]1C[NH2+][C@@H](O[C@@H]2C[C@@H](C(=O)NCCCCCCNC(=O)c3ccc(-c4c5nc(c(-c6c(F)cccc6F)c6ccc([nH]6)c(-c6c(F)cccc6F)c6nc(c(-c7c(F)cccc7F)c7ccc4[nH]7)C=C6)C=C5)cc3)N(C(=O)OC(C)(C)C)C2)c2cc(Cl)ccc21
REMARK SMILES IDX 16 1 15 2 14 3 13 4 11 5 12 6 10 8 8 9 9 10 85 11 77 12 7 13
REMARK SMILES IDX 6 14 3 15 4 16 92 17 5 18 86 19 91 20 87 23 90 24 88 25
REMARK SMILES IDX 89 26 2 27 1 28 78 29 79 30 80 31 81 32 82 33 83 34 84 35
REMARK SMILES IDX 17 36 18 37 19 38 20 39 21 40 22 42 23 43 24 44 76 45 25 46
REMARK SMILES IDX 75 47 26 48 27 49 28 50 69 51 29 52 74 53 68 54 70 55 30 56
REMARK SMILES IDX 73 57 67 58 66 59 31 61 57 62 40 63 56 64 41 65 44 66 55 67
REMARK SMILES IDX 71 68 42 69 43 70 54 72 72 73 45 74 32 75 33 76 38 77 34 78
REMARK SMILES IDX 35 79 37 80 39 81 36 82 58 83 59 84 64 85 60 86 61 87 63 88
REMARK SMILES IDX 65 89 62 90 46 91 47 92 52 93 48 94 49 95 51 96 53 97 50 98
REMARK H PARENT 13 7 5 21 5 22 20 41 70 60 44 71
REMARK Flexibility Score: inf
ROOT
ATOM      1  C   UNL A   1      37.952  22.317  25.553  1.00  0.00     0.002 C 
ENDROOT
BRANCH   1   2
ATOM      2  C   UNL A   1      37.356  23.717  25.369  1.00  0.00     0.021 C 
BRANCH   2   3
ATOM      3  C   UNL A   1      35.963  23.925  25.956  1.00  0.00     0.116 C 
BRANCH   3   4
ATOM      4  N   UNL A   1      35.482  22.917  26.887  1.00  0.00    -0.354 N 
ATOM      5  C   UNL A   1      34.257  22.270  26.874  1.00  0.00     0.243 C 
ATOM      6  O   UNL A   1      34.149  21.207  27.486  1.00  0.00    -0.273 OA
ATOM      7  H   UNL A   1      36.100  22.665  27.611  1.00  0.00     0.163 HD
BRANCH   5   8
ATOM      8  C   UNL A   1      33.074  22.905  26.099  1.00  0.00     0.180 C 
ATOM      9  C   UNL A   1      30.893  23.983  26.266  1.00  0.00     0.147 C 
ATOM     10  C   UNL A   1      32.209  23.782  27.025  1.00  0.00     0.069 C 
ATOM     11  C   UNL A   1      30.774  22.751  25.379  1.00  0.00     0.156 C 
ATOM     12  N   UNL A   1      32.075  22.099  25.391  1.00  0.00    -0.293 N 
BRANCH   9  13
ATOM     13  O   UNL A   1      30.578  25.231  25.664  1.00  0.00    -0.320 OA
BRANCH  13  14
ATOM     14  C   UNL A   1      30.915  25.718  24.376  1.00  0.00     0.354 C 
ATOM     15  C   UNL A   1      32.549  28.120  23.939  1.00  0.00     0.203 C 
ATOM     16  C   UNL A   1      33.176  26.715  24.144  1.00  0.00     0.300 C 
ATOM     17  C   UNL A   1      31.050  28.146  23.659  1.00  0.00    -0.002 A 
ATOM     18  N   UNL A   1      32.308  25.555  24.008  1.00  0.00    -0.315 N 
ATOM     19  C   UNL A   1      30.275  26.999  23.911  1.00  0.00     0.046 A 
ATOM     20  C   UNL A   1      30.390  29.335  23.303  1.00  0.00     0.009 A 
ATOM     21  H   UNL A   1      32.694  24.813  24.592  1.00  0.00     0.349 HD
ATOM     22  H   UNL A   1      32.293  25.357  23.007  1.00  0.00     0.349 HD
ATOM     23  C   UNL A   1      28.876  27.043  23.746  1.00  0.00     0.033 A 
ATOM     24  C   UNL A   1      28.996  29.386  23.203  1.00  0.00     0.021 A 
ATOM     25  C   UNL A   1      28.245  28.236  23.415  1.00  0.00     0.041 A 
ATOM     26  Cl  UNL A   1      26.529  28.294  23.312  1.00  0.00    -0.084 Cl
BRANCH  15  27
ATOM     27  O   UNL A   1      33.310  29.038  23.150  1.00  0.00    -0.371 OA
ATOM     28  C   UNL A   1      34.164  28.456  22.182  1.00  0.00     0.196 C 
ENDBRANCH  15  27
ENDBRANCH  13  14
ENDBRANCH   9  13
BRANCH  12  29
ATOM     29  C   UNL A   1      32.313  21.095  24.486  1.00  0.00     0.411 C 
ATOM     30  O   UNL A   1      32.668  21.318  23.330  1.00  0.00    -0.224 OA
BRANCH  29  31
ATOM     31  O   UNL A   1      32.083  19.863  24.989  1.00  0.00    -0.444 OA
BRANCH  31  32
ATOM     32  C   UNL A   1      32.883  18.720  24.573  1.00  0.00     0.106 C 
ATOM     33  C   UNL A   1      32.536  18.188  23.176  1.00  0.00     0.056 C 
ATOM     34  C   UNL A   1      34.371  19.091  24.653  1.00  0.00     0.056 C 
ATOM     35  C   UNL A   1      32.532  17.602  25.570  1.00  0.00     0.056 C 
ENDBRANCH  31  32
ENDBRANCH  29  31
ENDBRANCH  12  29
ENDBRANCH   5   8
ENDBRANCH   3   4
ENDBRANCH   2   3
ENDBRANCH   1   2
BRANCH   1  36
ATOM     36  C   UNL A   1      37.448  21.214  24.609  1.00  0.00     0.002 C 
BRANCH  36  37
ATOM     37  C   UNL A   1      38.108  19.842  24.733  1.00  0.00     0.021 C 
BRANCH  37  38
ATOM     38  C   UNL A   1      38.882  19.612  26.022  1.00  0.00     0.116 C 
BRANCH  38  39
ATOM     39  N   UNL A   1      40.189  19.009  25.794  1.00  0.00    -0.352 N 
ATOM     40  C   UNL A   1      41.460  19.520  25.901  1.00  0.00     0.251 C 
ATOM     41  H   UNL A   1      40.155  18.066  25.512  1.00  0.00     0.163 HD
ATOM     42  O   UNL A   1      42.409  18.873  25.463  1.00  0.00    -0.269 OA
BRANCH  40  43
ATOM     43  C   UNL A   1      41.704  20.842  26.521  1.00  0.00     0.039 A 
ATOM     44  C   UNL A   1      41.853  21.984  25.739  1.00  0.00     0.014 A 
ATOM     45  C   UNL A   1      41.742  20.956  27.917  1.00  0.00     0.014 A 
ATOM     46  C   UNL A   1      42.236  23.182  26.327  1.00  0.00     0.010 A 
ATOM     47  C   UNL A   1      42.001  22.196  28.516  1.00  0.00     0.010 A 
ATOM     48  C   UNL A   1      42.295  23.314  27.725  1.00  0.00    -0.014 A 
BRANCH  48  49
ATOM     49  C   UNL A   1      42.636  24.646  28.297  1.00  0.00     0.031 A 
ATOM     50  C   UNL A   1      44.067  25.062  28.515  1.00  0.00     0.074 A 
ATOM     51  C   UNL A   1      41.639  25.524  28.526  1.00  0.00     0.049 A 
ATOM     52  N   UNL A   1      44.536  26.219  28.918  1.00  0.00    -0.248 NA
ATOM     53  C   UNL A   1      45.107  24.056  28.259  1.00  0.00     0.031 C 
ATOM     54  C   UNL A   1      40.211  25.238  28.363  1.00  0.00     0.029 A 
ATOM     55  N   UNL A   1      41.669  26.847  28.888  1.00  0.00    -0.354 N 
ATOM     56  C   UNL A   1      45.917  26.073  28.977  1.00  0.00     0.074 A 
ATOM     57  C   UNL A   1      46.210  24.707  28.604  1.00  0.00     0.031 C 
ATOM     58  C   UNL A   1      39.511  26.371  28.522  1.00  0.00     0.029 A 
ATOM     59  C   UNL A   1      40.430  27.444  28.879  1.00  0.00     0.049 A 
ATOM     60  H   UNL A   1      42.496  27.322  29.129  1.00  0.00     0.167 HD
ATOM     61  C   UNL A   1      46.856  26.997  29.299  1.00  0.00     0.037 A 
ATOM     62  C   UNL A   1      40.070  28.716  29.132  1.00  0.00     0.037 A 
ATOM     63  C   UNL A   1      46.564  28.362  29.658  1.00  0.00     0.049 A 
ATOM     64  C   UNL A   1      41.131  29.707  29.510  1.00  0.00     0.074 A 
ATOM     65  C   UNL A   1      47.444  29.371  30.012  1.00  0.00     0.029 A 
ATOM     66  N   UNL A   1      45.292  28.912  29.701  1.00  0.00    -0.354 N 
ATOM     67  N   UNL A   1      42.430  29.548  29.567  1.00  0.00    -0.248 NA
ATOM     68  C   UNL A   1      40.669  31.053  29.874  1.00  0.00     0.031 C 
ATOM     69  C   UNL A   1      46.701  30.524  30.299  1.00  0.00     0.029 A 
ATOM     70  C   UNL A   1      45.362  30.244  30.082  1.00  0.00     0.049 A 
ATOM     71  H   UNL A   1      44.460  28.428  29.491  1.00  0.00     0.167 HD
ATOM     72  C   UNL A   1      42.943  30.774  29.964  1.00  0.00     0.074 A 
ATOM     73  C   UNL A   1      41.816  31.675  30.096  1.00  0.00     0.031 C 
ATOM     74  C   UNL A   1      44.229  31.122  30.211  1.00  0.00     0.037 A 
BRANCH  61  75
ATOM     75  C   UNL A   1      48.291  26.554  29.288  1.00  0.00     0.057 A 
ATOM     76  C   UNL A   1      48.876  25.986  30.427  1.00  0.00     0.134 A 
ATOM     77  C   UNL A   1      49.105  26.712  28.158  1.00  0.00     0.134 A 
ATOM     78  F   UNL A   1      48.157  25.811  31.546  1.00  0.00    -0.206 F 
ATOM     79  C   UNL A   1      50.215  25.591  30.443  1.00  0.00     0.040 A 
ATOM     80  C   UNL A   1      50.440  26.299  28.154  1.00  0.00     0.040 A 
ATOM     81  F   UNL A   1      48.605  27.237  27.029  1.00  0.00    -0.206 F 
ATOM     82  C   UNL A   1      50.999  25.740  29.302  1.00  0.00     0.006 A 
ENDBRANCH  61  75
BRANCH  62  83
ATOM     83  C   UNL A   1      38.645  29.126  29.051  1.00  0.00     0.057 A 
ATOM     84  C   UNL A   1      37.803  29.067  30.168  1.00  0.00     0.134 A 
ATOM     85  C   UNL A   1      38.101  29.621  27.859  1.00  0.00     0.134 A 
ATOM     86  F   UNL A   1      38.261  28.597  31.338  1.00  0.00    -0.206 F 
ATOM     87  C   UNL A   1      36.471  29.478  30.103  1.00  0.00     0.040 A 
ATOM     88  C   UNL A   1      36.779  30.066  27.789  1.00  0.00     0.040 A 
ATOM     89  F   UNL A   1      38.862  29.722  26.759  1.00  0.00    -0.206 F 
ATOM     90  C   UNL A   1      35.959  29.990  28.913  1.00  0.00     0.006 A 
ENDBRANCH  62  83
BRANCH  74  91
ATOM     91  C   UNL A   1      44.467  32.546  30.621  1.00  0.00     0.057 A 
ATOM     92  C   UNL A   1      44.439  32.914  31.971  1.00  0.00     0.134 A 
ATOM     93  C   UNL A   1      44.756  33.546  29.682  1.00  0.00     0.134 A 
ATOM     94  F   UNL A   1      44.164  32.006  32.920  1.00  0.00    -0.206 F 
ATOM     95  C   UNL A   1      44.703  34.223  32.375  1.00  0.00     0.040 A 
ATOM     96  C   UNL A   1      45.048  34.852  30.075  1.00  0.00     0.040 A 
ATOM     97  F   UNL A   1      44.817  33.253  28.374  1.00  0.00    -0.206 F 
ATOM     98  C   UNL A   1      45.021  35.194  31.426  1.00  0.00     0.006 A 
ENDBRANCH  74  91
ENDBRANCH  48  49
ENDBRANCH  40  43
ENDBRANCH  38  39
ENDBRANCH  37  38
ENDBRANCH  36  37
ENDBRANCH   1  36
TORSDOF 19
ENDMDL
MODEL 3
REMARK VINA RESULT:     -11.4      0.886      5.945
REMARK SMILES CO[C@@H]1C[NH2+][C@@H](O[C@@H]2C[C@@H](C(=O)NCCCCCCNC(=O)c3ccc(-c4c5nc(c(-c6c(F)cccc6F)c6ccc([nH]6)c(-c6c(F)cccc6F)c6nc(c(-c7c(F)cccc7F)c7ccc4[nH]7)C=C6)C=C5)cc3)N(C(=O)OC(C)(C)C)C2)c2cc(Cl)ccc21
REMARK SMILES IDX 16 1 15 2 14 3 13 4 11 5 12 6 10 8 8 9 9 10 85 11 77 12 7 13
REMARK SMILES IDX 6 14 3 15 4 16 92 17 5 18 86 19 91 20 87 23 90 24 88 25
REMARK SMILES IDX 89 26 2 27 1 28 78 29 79 30 80 31 81 32 82 33 83 34 84 35
REMARK SMILES IDX 17 36 18 37 19 38 20 39 21 40 22 42 23 43 24 44 76 45 25 46
REMARK SMILES IDX 75 47 26 48 27 49 28 50 69 51 29 52 74 53 68 54 70 55 30 56
REMARK SMILES IDX 73 57 67 58 66 59 31 61 57 62 40 63 56 64 41 65 44 66 55 67
REMARK SMILES IDX 71 68 42 69 43 70 54 72 72 73 45 74 32 75 33 76 38 77 34 78
REMARK SMILES IDX 35 79 37 80 39 81 36 82 58 83 59 84 64 85 60 86 61 87 63 88
REMARK SMILES IDX 65 89 62 90 46 91 47 92 52 93 48 94 49 95 51 96 53 97 50 98
REMARK H PARENT 13 7 5 21 5 22 20 41 70 60 44 71
REMARK Flexibility Score: inf
ROOT
ATOM      1  C   UNL A   1      38.056  23.502  26.129  1.00  0.00     0.002 C 
ENDROOT
BRANCH   1   2
ATOM      2  C   UNL A   1      37.043  23.731  25.001  1.00  0.00     0.021 C 
BRANCH   2   3
ATOM      3  C   UNL A   1      35.657  23.136  25.226  1.00  0.00     0.116 C 
BRANCH   3   4
ATOM      4  N   UNL A   1      35.380  22.588  26.544  1.00  0.00    -0.354 N 
ATOM      5  C   UNL A   1      34.158  22.170  27.046  1.00  0.00     0.243 C 
ATOM      6  O   UNL A   1      34.151  21.406  28.013  1.00  0.00    -0.273 OA
ATOM      7  H   UNL A   1      36.152  22.503  27.150  1.00  0.00     0.163 HD
BRANCH   5   8
ATOM      8  C   UNL A   1      32.853  22.680  26.383  1.00  0.00     0.180 C 
ATOM      9  C   UNL A   1      30.531  23.339  26.732  1.00  0.00     0.147 C 
ATOM     10  C   UNL A   1      31.894  23.278  27.430  1.00  0.00     0.069 C 
ATOM     11  C   UNL A   1      30.583  22.219  25.700  1.00  0.00     0.156 C 
ATOM     12  N   UNL A   1      31.974  21.804  25.603  1.00  0.00    -0.293 N 
BRANCH   9  13
ATOM     13  O   UNL A   1      29.986  24.577  26.297  1.00  0.00    -0.320 OA
BRANCH  13  14
ATOM     14  C   UNL A   1      30.362  25.389  25.198  1.00  0.00     0.354 C 
ATOM     15  C   UNL A   1      32.506  24.671  23.322  1.00  0.00     0.203 C 
ATOM     16  C   UNL A   1      31.042  24.188  23.136  1.00  0.00     0.300 C 
ATOM     17  C   UNL A   1      32.714  25.788  24.340  1.00  0.00    -0.002 A 
ATOM     18  N   UNL A   1      30.001  24.861  23.897  1.00  0.00    -0.315 N 
ATOM     19  C   UNL A   1      31.692  26.093  25.257  1.00  0.00     0.046 A 
ATOM     20  C   UNL A   1      33.961  26.419  24.491  1.00  0.00     0.009 A 
ATOM     21  H   UNL A   1      29.244  24.191  24.039  1.00  0.00     0.349 HD
ATOM     22  H   UNL A   1      29.758  25.680  23.340  1.00  0.00     0.349 HD
ATOM     23  C   UNL A   1      31.911  27.057  26.260  1.00  0.00     0.033 A 
ATOM     24  C   UNL A   1      34.189  27.329  25.529  1.00  0.00     0.021 A 
ATOM     25  C   UNL A   1      33.159  27.652  26.404  1.00  0.00     0.041 A 
ATOM     26  Cl  UNL A   1      33.436  28.755  27.694  1.00  0.00    -0.084 Cl
BRANCH  15  27
ATOM     27  O   UNL A   1      33.277  24.813  22.126  1.00  0.00    -0.371 OA
ATOM     28  C   UNL A   1      32.709  25.633  21.122  1.00  0.00     0.196 C 
ENDBRANCH  15  27
ENDBRANCH  13  14
ENDBRANCH   9  13
BRANCH  12  29
ATOM     29  C   UNL A   1      32.338  20.971  24.574  1.00  0.00     0.411 C 
ATOM     30  O   UNL A   1      32.891  21.382  23.556  1.00  0.00    -0.224 OA
BRANCH  29  31
ATOM     31  O   UNL A   1      31.994  19.684  24.789  1.00  0.00    -0.444 OA
BRANCH  31  32
ATOM     32  C   UNL A   1      32.966  18.611  24.631  1.00  0.00     0.106 C 
ATOM     33  C   UNL A   1      34.427  19.074  24.699  1.00  0.00     0.056 C 
ATOM     34  C   UNL A   1      32.695  17.528  25.686  1.00  0.00     0.056 C 
ATOM     35  C   UNL A   1      32.739  18.072  23.207  1.00  0.00     0.056 C 
ENDBRANCH  31  32
ENDBRANCH  29  31
ENDBRANCH  12  29
ENDBRANCH   5   8
ENDBRANCH   3   4
ENDBRANCH   2   3
ENDBRANCH   1   2
BRANCH   1  36
ATOM     36  C   UNL A   1      39.213  22.534  25.842  1.00  0.00     0.002 C 
BRANCH  36  37
ATOM     37  C   UNL A   1      39.040  21.089  26.307  1.00  0.00     0.021 C 
BRANCH  37  38
ATOM     38  C   UNL A   1      39.534  20.033  25.330  1.00  0.00     0.116 C 
BRANCH  38  39
ATOM     39  N   UNL A   1      40.520  19.138  25.920  1.00  0.00    -0.352 N 
ATOM     40  C   UNL A   1      41.750  19.381  26.483  1.00  0.00     0.251 C 
ATOM     41  H   UNL A   1      40.260  18.188  25.913  1.00  0.00     0.163 HD
ATOM     42  O   UNL A   1      42.494  18.437  26.738  1.00  0.00    -0.269 OA
BRANCH  40  43
ATOM     43  C   UNL A   1      42.198  20.761  26.775  1.00  0.00     0.039 A 
ATOM     44  C   UNL A   1      42.155  21.270  28.070  1.00  0.00     0.014 A 
ATOM     45  C   UNL A   1      42.715  21.555  25.742  1.00  0.00     0.014 A 
ATOM     46  C   UNL A   1      42.431  22.612  28.297  1.00  0.00     0.010 A 
ATOM     47  C   UNL A   1      43.115  22.873  25.999  1.00  0.00     0.010 A 
ATOM     48  C   UNL A   1      42.935  23.430  27.272  1.00  0.00    -0.014 A 
BRANCH  48  49
ATOM     49  C   UNL A   1      43.285  24.841  27.597  1.00  0.00     0.031 A 
ATOM     50  C   UNL A   1      42.224  25.849  27.953  1.00  0.00     0.074 A 
ATOM     51  C   UNL A   1      44.587  25.182  27.669  1.00  0.00     0.049 A 
ATOM     52  N   UNL A   1      42.368  27.091  28.349  1.00  0.00    -0.248 NA
ATOM     53  C   UNL A   1      40.823  25.419  27.843  1.00  0.00     0.031 C 
ATOM     54  C   UNL A   1      45.709  24.299  27.340  1.00  0.00     0.029 A 
ATOM     55  N   UNL A   1      45.194  26.337  28.094  1.00  0.00    -0.354 N 
ATOM     56  C   UNL A   1      41.083  27.590  28.521  1.00  0.00     0.074 A 
ATOM     57  C   UNL A   1      40.169  26.532  28.151  1.00  0.00     0.031 C 
ATOM     58  C   UNL A   1      46.860  24.901  27.670  1.00  0.00     0.029 A 
ATOM     59  C   UNL A   1      46.564  26.243  28.157  1.00  0.00     0.049 A 
ATOM     60  H   UNL A   1      44.697  27.152  28.332  1.00  0.00     0.167 HD
ATOM     61  C   UNL A   1      40.698  28.815  28.959  1.00  0.00     0.037 A 
ATOM     62  C   UNL A   1      47.485  27.139  28.558  1.00  0.00     0.037 A 
ATOM     63  C   UNL A   1      41.608  29.865  29.339  1.00  0.00     0.049 A 
ATOM     64  C   UNL A   1      47.027  28.493  29.013  1.00  0.00     0.074 A 
ATOM     65  C   UNL A   1      41.317  31.144  29.784  1.00  0.00     0.029 A 
ATOM     66  N   UNL A   1      42.991  29.755  29.326  1.00  0.00    -0.354 N 
ATOM     67  N   UNL A   1      45.808  28.948  29.161  1.00  0.00    -0.248 NA
ATOM     68  C   UNL A   1      48.080  29.463  29.343  1.00  0.00     0.031 C 
ATOM     69  C   UNL A   1      42.525  31.817  30.011  1.00  0.00     0.029 A 
ATOM     70  C   UNL A   1      43.567  30.943  29.748  1.00  0.00     0.049 A 
ATOM     71  H   UNL A   1      43.490  28.950  29.057  1.00  0.00     0.167 HD
ATOM     72  C   UNL A   1      45.944  30.254  29.609  1.00  0.00     0.074 A 
ATOM     73  C   UNL A   1      47.366  30.502  29.745  1.00  0.00     0.031 C 
ATOM     74  C   UNL A   1      44.983  31.172  29.873  1.00  0.00     0.037 A 
BRANCH  61  75
ATOM     75  C   UNL A   1      39.223  29.087  29.038  1.00  0.00     0.057 A 
ATOM     76  C   UNL A   1      38.524  28.911  30.239  1.00  0.00     0.134 A 
ATOM     77  C   UNL A   1      38.486  29.499  27.919  1.00  0.00     0.134 A 
ATOM     78  F   UNL A   1      39.165  28.513  31.348  1.00  0.00    -0.206 F 
ATOM     79  C   UNL A   1      37.149  29.135  30.325  1.00  0.00     0.040 A 
ATOM     80  C   UNL A   1      37.114  29.750  27.999  1.00  0.00     0.040 A 
ATOM     81  F   UNL A   1      39.096  29.700  26.741  1.00  0.00    -0.206 F 
ATOM     82  C   UNL A   1      36.441  29.563  29.204  1.00  0.00     0.006 A 
ENDBRANCH  61  75
BRANCH  62  83
ATOM     83  C   UNL A   1      48.930  26.795  28.538  1.00  0.00     0.057 A 
ATOM     84  C   UNL A   1      49.564  26.242  29.657  1.00  0.00     0.134 A 
ATOM     85  C   UNL A   1      49.703  26.983  27.386  1.00  0.00     0.134 A 
ATOM     86  F   UNL A   1      48.881  26.042  30.793  1.00  0.00    -0.206 F 
ATOM     87  C   UNL A   1      50.914  25.892  29.634  1.00  0.00     0.040 A 
ATOM     88  C   UNL A   1      51.047  26.608  27.339  1.00  0.00     0.040 A 
ATOM     89  F   UNL A   1      49.149  27.491  26.275  1.00  0.00    -0.206 F 
ATOM     90  C   UNL A   1      51.657  26.065  28.468  1.00  0.00     0.006 A 
ENDBRANCH  62  83
BRANCH  74  91
ATOM     91  C   UNL A   1      45.454  32.511  30.358  1.00  0.00     0.057 A 
ATOM     92  C   UNL A   1      45.664  32.743  31.722  1.00  0.00     0.134 A 
ATOM     93  C   UNL A   1      45.731  33.561  29.471  1.00  0.00     0.134 A 
ATOM     94  F   UNL A   1      45.415  31.781  32.623  1.00  0.00    -0.206 F 
ATOM     95  C   UNL A   1      46.147  33.966  32.187  1.00  0.00     0.040 A 
ATOM     96  C   UNL A   1      46.239  34.780  29.922  1.00  0.00     0.040 A 
ATOM     97  F   UNL A   1      45.569  33.396  28.149  1.00  0.00    -0.206 F 
ATOM     98  C   UNL A   1      46.447  34.985  31.284  1.00  0.00     0.006 A 
ENDBRANCH  74  91
ENDBRANCH  48  49
ENDBRANCH  40  43
ENDBRANCH  38  39
ENDBRANCH  37  38
ENDBRANCH  36  37
ENDBRANCH   1  36
TORSDOF 19
ENDMDL
