MODEL 1
REMARK VINA RESULT:     -10.4      0.000      0.000
REMARK SMILES CC(C)c1ncc(SC[C@H](O)CO)c(C(=O)NCCCCCCNC(=O)c2ccc(-c3c4nc(c(-c5c(F)cccc5F)c5ccc([nH]5)c(-c5c(F)cccc5F)c5nc(c(-c6c(F)cccc6F)c6ccc3[nH]6)C=C5)C=C4)cc2)n1
REMARK SMILES IDX 19 1 18 2 17 3 15 4 16 5 14 7 4 8 5 9 81 10 6 11 7 12 2 13
REMARK SMILES IDX 1 14 3 15 8 16 9 17 10 18 12 19 13 20 11 22 20 24 21 25
REMARK SMILES IDX 22 26 23 27 24 28 25 29 26 31 27 32 28 33 80 34 29 35 79 36
REMARK SMILES IDX 30 37 31 38 32 39 73 40 33 41 78 42 72 43 74 44 34 45 77 46
REMARK SMILES IDX 71 47 70 48 35 50 61 51 44 52 60 53 45 54 48 55 59 56 75 57
REMARK SMILES IDX 46 58 47 59 58 61 76 62 49 63 36 64 37 65 42 66 38 67 39 68
REMARK SMILES IDX 41 69 43 70 40 71 62 72 63 73 68 74 64 75 65 76 67 77 69 78
REMARK SMILES IDX 66 79 50 80 51 81 56 82 52 83 53 84 55 85 57 86 54 87
REMARK H PARENT 17 6 13 21 11 23 24 30 74 49 48 60
REMARK Flexibility Score: inf
ROOT
ATOM      1  C   UNL A   1      36.658  22.905  24.108  1.00  0.00     0.021 C 
ENDROOT
BRANCH   1   2
ATOM      2  C   UNL A   1      35.650  23.790  24.850  1.00  0.00     0.116 C 
BRANCH   2   3
ATOM      3  N   UNL A   1      34.965  22.996  25.836  1.00  0.00    -0.351 N 
ATOM      4  C   UNL A   1      33.915  22.117  25.781  1.00  0.00     0.271 C 
ATOM      5  O   UNL A   1      33.471  21.780  26.885  1.00  0.00    -0.267 OA
ATOM      6  H   UNL A   1      35.327  23.111  26.744  1.00  0.00     0.163 HD
BRANCH   4   7
ATOM      7  C   UNL A   1      33.348  21.451  24.548  1.00  0.00     0.145 A 
ATOM      8  C   UNL A   1      32.759  19.293  23.876  1.00  0.00     0.131 A 
ATOM      9  N   UNL A   1      32.155  19.741  22.771  1.00  0.00    -0.240 NA
ATOM     10  N   UNL A   1      33.407  20.095  24.724  1.00  0.00    -0.226 NA
ATOM     11  C   UNL A   1      32.124  21.078  22.608  1.00  0.00     0.130 A 
ATOM     12  C   UNL A   1      32.698  22.019  23.458  1.00  0.00     0.057 A 
BRANCH   8  13
ATOM     13  C   UNL A   1      32.611  17.821  24.221  1.00  0.00     0.051 C 
ATOM     14  C   UNL A   1      33.611  16.929  23.473  1.00  0.00     0.016 C 
ATOM     15  C   UNL A   1      32.792  17.609  25.730  1.00  0.00     0.016 C 
ENDBRANCH   8  13
BRANCH  12  16
ATOM     16  S   UNL A   1      32.222  23.693  23.145  1.00  0.00    -0.119 SA
BRANCH  16  17
ATOM     17  C   UNL A   1      30.857  24.098  24.328  1.00  0.00     0.109 C 
BRANCH  17  18
ATOM     18  C   UNL A   1      30.968  24.382  25.834  1.00  0.00     0.150 C 
BRANCH  18  19
ATOM     19  C   UNL A   1      30.439  23.327  26.807  1.00  0.00     0.188 C 
BRANCH  19  20
ATOM     20  O   UNL A   1      29.138  23.725  27.252  1.00  0.00    -0.394 OA
ATOM     21  H   UNL A   1      28.463  23.312  26.691  1.00  0.00     0.210 HD
ENDBRANCH  19  20
ENDBRANCH  18  19
BRANCH  18  22
ATOM     22  O   UNL A   1      32.316  24.706  26.194  1.00  0.00    -0.390 OA
ATOM     23  H   UNL A   1      32.906  23.990  25.912  1.00  0.00     0.211 HD
ENDBRANCH  18  22
ENDBRANCH  17  18
ENDBRANCH  16  17
ENDBRANCH  12  16
ENDBRANCH   4   7
ENDBRANCH   2   3
ENDBRANCH   1   2
BRANCH   1  24
ATOM     24  C   UNL A   1      37.351  21.870  24.999  1.00  0.00     0.002 C 
BRANCH  24  25
ATOM     25  C   UNL A   1      37.006  20.413  24.671  1.00  0.00     0.002 C 
BRANCH  25  26
ATOM     26  C   UNL A   1      38.106  19.393  24.985  1.00  0.00     0.021 C 
BRANCH  26  27
ATOM     27  C   UNL A   1      39.281  19.944  25.788  1.00  0.00     0.116 C 
BRANCH  27  28
ATOM     28  N   UNL A   1      40.337  18.958  25.949  1.00  0.00    -0.352 N 
ATOM     29  C   UNL A   1      41.685  19.141  26.122  1.00  0.00     0.251 C 
ATOM     30  H   UNL A   1      40.039  18.019  25.930  1.00  0.00     0.163 HD
ATOM     31  O   UNL A   1      42.455  18.193  26.008  1.00  0.00    -0.269 OA
BRANCH  29  32
ATOM     32  C   UNL A   1      42.217  20.484  26.435  1.00  0.00     0.039 A 
ATOM     33  C   UNL A   1      42.683  21.287  25.390  1.00  0.00     0.014 A 
ATOM     34  C   UNL A   1      42.292  20.937  27.755  1.00  0.00     0.014 A 
ATOM     35  C   UNL A   1      43.177  22.564  25.664  1.00  0.00     0.010 A 
ATOM     36  C   UNL A   1      42.725  22.234  28.020  1.00  0.00     0.010 A 
ATOM     37  C   UNL A   1      43.176  23.057  26.978  1.00  0.00    -0.014 A 
BRANCH  37  38
ATOM     38  C   UNL A   1      43.651  24.431  27.282  1.00  0.00     0.031 A 
ATOM     39  C   UNL A   1      42.678  25.490  27.716  1.00  0.00     0.074 A 
ATOM     40  C   UNL A   1      44.951  24.739  27.107  1.00  0.00     0.049 A 
ATOM     41  N   UNL A   1      42.890  26.760  27.960  1.00  0.00    -0.248 NA
ATOM     42  C   UNL A   1      41.275  25.076  27.873  1.00  0.00     0.031 C 
ATOM     43  C   UNL A   1      45.987  23.811  26.650  1.00  0.00     0.029 A 
ATOM     44  N   UNL A   1      45.621  25.924  27.285  1.00  0.00    -0.354 N 
ATOM     45  C   UNL A   1      41.650  27.295  28.283  1.00  0.00     0.074 A 
ATOM     46  C   UNL A   1      40.682  26.226  28.156  1.00  0.00     0.031 C 
ATOM     47  C   UNL A   1      47.164  24.456  26.601  1.00  0.00     0.029 A 
ATOM     48  C   UNL A   1      46.960  25.848  26.990  1.00  0.00     0.049 A 
ATOM     49  H   UNL A   1      45.182  26.750  27.593  1.00  0.00     0.167 HD
ATOM     50  C   UNL A   1      41.348  28.557  28.671  1.00  0.00     0.037 A 
ATOM     51  C   UNL A   1      47.916  26.796  27.024  1.00  0.00     0.037 A 
ATOM     52  C   UNL A   1      42.316  29.611  28.823  1.00  0.00     0.049 A 
ATOM     53  C   UNL A   1      47.555  28.190  27.456  1.00  0.00     0.074 A 
ATOM     54  C   UNL A   1      42.119  30.906  29.271  1.00  0.00     0.029 A 
ATOM     55  N   UNL A   1      43.666  29.491  28.529  1.00  0.00    -0.354 N 
ATOM     56  N   UNL A   1      46.389  28.666  27.818  1.00  0.00    -0.248 NA
ATOM     57  C   UNL A   1      48.644  29.176  27.487  1.00  0.00     0.031 C 
ATOM     58  C   UNL A   1      43.342  31.582  29.209  1.00  0.00     0.029 A 
ATOM     59  C   UNL A   1      44.310  30.696  28.765  1.00  0.00     0.049 A 
ATOM     60  H   UNL A   1      44.102  28.672  28.201  1.00  0.00     0.167 HD
ATOM     61  C   UNL A   1      46.608  29.998  28.145  1.00  0.00     0.074 A 
ATOM     62  C   UNL A   1      48.020  30.250  27.950  1.00  0.00     0.031 C 
ATOM     63  C   UNL A   1      45.718  30.928  28.568  1.00  0.00     0.037 A 
BRANCH  50  64
ATOM     64  C   UNL A   1      39.908  28.865  28.962  1.00  0.00     0.057 A 
ATOM     65  C   UNL A   1      39.017  29.250  27.952  1.00  0.00     0.134 A 
ATOM     66  C   UNL A   1      39.398  28.746  30.261  1.00  0.00     0.134 A 
ATOM     67  F   UNL A   1      39.443  29.395  26.688  1.00  0.00    -0.206 F 
ATOM     68  C   UNL A   1      37.677  29.533  28.227  1.00  0.00     0.040 A 
ATOM     69  C   UNL A   1      38.055  29.000  30.545  1.00  0.00     0.040 A 
ATOM     70  F   UNL A   1      40.194  28.375  31.275  1.00  0.00    -0.206 F 
ATOM     71  C   UNL A   1      37.192  29.401  29.526  1.00  0.00     0.006 A 
ENDBRANCH  50  64
BRANCH  51  72
ATOM     72  C   UNL A   1      49.313  26.453  26.660  1.00  0.00     0.057 A 
ATOM     73  C   UNL A   1      49.791  26.660  25.362  1.00  0.00     0.134 A 
ATOM     74  C   UNL A   1      50.202  25.911  27.597  1.00  0.00     0.134 A 
ATOM     75  F   UNL A   1      48.981  27.160  24.417  1.00  0.00    -0.206 F 
ATOM     76  C   UNL A   1      51.096  26.325  25.000  1.00  0.00     0.040 A 
ATOM     77  C   UNL A   1      51.517  25.592  27.255  1.00  0.00     0.040 A 
ATOM     78  F   UNL A   1      49.807  25.697  28.861  1.00  0.00    -0.206 F 
ATOM     79  C   UNL A   1      51.965  25.793  25.951  1.00  0.00     0.006 A 
ENDBRANCH  51  72
BRANCH  63  80
ATOM     80  C   UNL A   1      46.251  32.297  28.872  1.00  0.00     0.057 A 
ATOM     81  C   UNL A   1      46.736  32.634  30.142  1.00  0.00     0.134 A 
ATOM     82  C   UNL A   1      46.312  33.278  27.874  1.00  0.00     0.134 A 
ATOM     83  F   UNL A   1      46.693  31.744  31.145  1.00  0.00    -0.206 F 
ATOM     84  C   UNL A   1      47.245  33.905  30.414  1.00  0.00     0.040 A 
ATOM     85  C   UNL A   1      46.840  34.543  28.127  1.00  0.00     0.040 A 
ATOM     86  F   UNL A   1      45.870  33.015  26.634  1.00  0.00    -0.206 F 
ATOM     87  C   UNL A   1      47.304  34.862  29.401  1.00  0.00     0.006 A 
ENDBRANCH  63  80
ENDBRANCH  37  38
ENDBRANCH  29  32
ENDBRANCH  27  28
ENDBRANCH  26  27
ENDBRANCH  25  26
ENDBRANCH  24  25
ENDBRANCH   1  24
TORSDOF 20
ENDMDL
MODEL 2
REMARK VINA RESULT:     -10.4      1.398      6.518
REMARK SMILES CC(C)c1ncc(SC[C@H](O)CO)c(C(=O)NCCCCCCNC(=O)c2ccc(-c3c4nc(c(-c5c(F)cccc5F)c5ccc([nH]5)c(-c5c(F)cccc5F)c5nc(c(-c6c(F)cccc6F)c6ccc3[nH]6)C=C5)C=C4)cc2)n1
REMARK SMILES IDX 19 1 18 2 17 3 15 4 16 5 14 7 4 8 5 9 81 10 6 11 7 12 2 13
REMARK SMILES IDX 1 14 3 15 8 16 9 17 10 18 12 19 13 20 11 22 20 24 21 25
REMARK SMILES IDX 22 26 23 27 24 28 25 29 26 31 27 32 28 33 80 34 29 35 79 36
REMARK SMILES IDX 30 37 31 38 32 39 73 40 33 41 78 42 72 43 74 44 34 45 77 46
REMARK SMILES IDX 71 47 70 48 35 50 61 51 44 52 60 53 45 54 48 55 59 56 75 57
REMARK SMILES IDX 46 58 47 59 58 61 76 62 49 63 36 64 37 65 42 66 38 67 39 68
REMARK SMILES IDX 41 69 43 70 40 71 62 72 63 73 68 74 64 75 65 76 67 77 69 78
REMARK SMILES IDX 66 79 50 80 51 81 56 82 52 83 53 84 55 85 57 86 54 87
REMARK H PARENT 17 6 13 21 11 23 24 30 74 49 48 60
REMARK Flexibility Score: inf
ROOT
ATOM      1  C   UNL A   1      36.916  23.234  24.677  1.00  0.00     0.021 C 
ENDROOT
BRANCH   1   2
ATOM      2  C   UNL A   1      36.062  24.068  25.640  1.00  0.00     0.116 C 
BRANCH   2   3
ATOM      3  N   UNL A   1      35.343  23.182  26.517  1.00  0.00    -0.351 N 
ATOM      4  C   UNL A   1      34.199  22.440  26.384  1.00  0.00     0.271 C 
ATOM      5  O   UNL A   1      33.777  21.954  27.440  1.00  0.00    -0.267 OA
ATOM      6  H   UNL A   1      35.762  23.091  27.403  1.00  0.00     0.163 HD
BRANCH   4   7
ATOM      7  C   UNL A   1      33.496  22.073  25.097  1.00  0.00     0.145 A 
ATOM      8  C   UNL A   1      32.907  20.122  23.955  1.00  0.00     0.131 A 
ATOM      9  N   UNL A   1      32.141  20.794  23.089  1.00  0.00    -0.240 NA
ATOM     10  N   UNL A   1      33.632  20.725  24.900  1.00  0.00    -0.226 NA
ATOM     11  C   UNL A   1      32.036  22.122  23.289  1.00  0.00     0.130 A 
ATOM     12  C   UNL A   1      32.682  22.852  24.282  1.00  0.00     0.057 A 
BRANCH   8  13
ATOM     13  C   UNL A   1      32.865  18.605  23.914  1.00  0.00     0.051 C 
ATOM     14  C   UNL A   1      32.443  18.055  22.546  1.00  0.00     0.016 C 
ATOM     15  C   UNL A   1      34.240  18.026  24.276  1.00  0.00     0.016 C 
ENDBRANCH   8  13
BRANCH  12  16
ATOM     16  S   UNL A   1      32.103  24.510  24.482  1.00  0.00    -0.119 SA
BRANCH  16  17
ATOM     17  C   UNL A   1      31.395  25.037  22.854  1.00  0.00     0.109 C 
BRANCH  17  18
ATOM     18  C   UNL A   1      31.830  26.221  21.977  1.00  0.00     0.150 C 
BRANCH  18  19
ATOM     19  C   UNL A   1      33.288  26.674  22.049  1.00  0.00     0.188 C 
BRANCH  19  20
ATOM     20  O   UNL A   1      34.132  25.521  21.960  1.00  0.00    -0.394 OA
ATOM     21  H   UNL A   1      34.368  25.363  21.032  1.00  0.00     0.210 HD
ENDBRANCH  19  20
ENDBRANCH  18  19
BRANCH  18  22
ATOM     22  O   UNL A   1      31.485  25.993  20.605  1.00  0.00    -0.390 OA
ATOM     23  H   UNL A   1      31.142  25.091  20.505  1.00  0.00     0.211 HD
ENDBRANCH  18  22
ENDBRANCH  17  18
ENDBRANCH  16  17
ENDBRANCH  12  16
ENDBRANCH   4   7
ENDBRANCH   2   3
ENDBRANCH   1   2
BRANCH   1  24
ATOM     24  C   UNL A   1      37.550  21.998  25.321  1.00  0.00     0.002 C 
BRANCH  24  25
ATOM     25  C   UNL A   1      37.269  20.682  24.587  1.00  0.00     0.002 C 
BRANCH  25  26
ATOM     26  C   UNL A   1      38.210  19.523  24.934  1.00  0.00     0.021 C 
BRANCH  26  27
ATOM     27  C   UNL A   1      39.181  19.807  26.077  1.00  0.00     0.116 C 
BRANCH  27  28
ATOM     28  N   UNL A   1      40.354  18.952  26.016  1.00  0.00    -0.352 N 
ATOM     29  C   UNL A   1      41.684  19.287  26.052  1.00  0.00     0.251 C 
ATOM     30  H   UNL A   1      40.166  17.988  25.936  1.00  0.00     0.163 HD
ATOM     31  O   UNL A   1      42.537  18.457  25.757  1.00  0.00    -0.269 OA
BRANCH  29  32
ATOM     32  C   UNL A   1      42.094  20.654  26.439  1.00  0.00     0.039 A 
ATOM     33  C   UNL A   1      42.331  21.597  25.434  1.00  0.00     0.014 A 
ATOM     34  C   UNL A   1      42.280  20.996  27.781  1.00  0.00     0.014 A 
ATOM     35  C   UNL A   1      42.705  22.898  25.779  1.00  0.00     0.010 A 
ATOM     36  C   UNL A   1      42.591  22.309  28.126  1.00  0.00     0.010 A 
ATOM     37  C   UNL A   1      42.813  23.271  27.128  1.00  0.00    -0.014 A 
BRANCH  37  38
ATOM     38  C   UNL A   1      43.161  24.661  27.514  1.00  0.00     0.031 A 
ATOM     39  C   UNL A   1      44.596  25.110  27.514  1.00  0.00     0.074 A 
ATOM     40  C   UNL A   1      42.191  25.502  27.923  1.00  0.00     0.049 A 
ATOM     41  N   UNL A   1      45.103  26.259  27.884  1.00  0.00    -0.248 NA
ATOM     42  C   UNL A   1      45.596  24.129  27.065  1.00  0.00     0.031 C 
ATOM     43  C   UNL A   1      40.768  25.173  28.007  1.00  0.00     0.029 A 
ATOM     44  N   UNL A   1      42.258  26.803  28.354  1.00  0.00    -0.354 N 
ATOM     45  C   UNL A   1      46.478  26.134  27.725  1.00  0.00     0.074 A 
ATOM     46  C   UNL A   1      46.729  24.782  27.274  1.00  0.00     0.031 C 
ATOM     47  C   UNL A   1      40.093  26.249  28.443  1.00  0.00     0.029 A 
ATOM     48  C   UNL A   1      41.039  27.331  28.702  1.00  0.00     0.049 A 
ATOM     49  H   UNL A   1      43.101  27.309  28.409  1.00  0.00     0.167 HD
ATOM     50  C   UNL A   1      47.440  27.067  27.916  1.00  0.00     0.037 A 
ATOM     51  C   UNL A   1      40.720  28.548  29.180  1.00  0.00     0.037 A 
ATOM     52  C   UNL A   1      47.185  28.419  28.338  1.00  0.00     0.049 A 
ATOM     53  C   UNL A   1      41.807  29.566  29.386  1.00  0.00     0.074 A 
ATOM     54  C   UNL A   1      48.086  29.458  28.500  1.00  0.00     0.029 A 
ATOM     55  N   UNL A   1      45.935  28.921  28.666  1.00  0.00    -0.354 N 
ATOM     56  N   UNL A   1      43.095  29.453  29.172  1.00  0.00    -0.248 NA
ATOM     57  C   UNL A   1      41.394  30.881  29.896  1.00  0.00     0.031 C 
ATOM     58  C   UNL A   1      47.386  30.576  28.966  1.00  0.00     0.029 A 
ATOM     59  C   UNL A   1      46.043  30.248  29.052  1.00  0.00     0.049 A 
ATOM     60  H   UNL A   1      45.094  28.410  28.631  1.00  0.00     0.167 HD
ATOM     61  C   UNL A   1      43.643  30.687  29.496  1.00  0.00     0.074 A 
ATOM     62  C   UNL A   1      42.546  31.537  29.908  1.00  0.00     0.031 C 
ATOM     63  C   UNL A   1      44.939  31.080  29.456  1.00  0.00     0.037 A 
BRANCH  50  64
ATOM     64  C   UNL A   1      48.862  26.655  27.667  1.00  0.00     0.057 A 
ATOM     65  C   UNL A   1      49.671  26.138  28.687  1.00  0.00     0.134 A 
ATOM     66  C   UNL A   1      49.421  26.749  26.386  1.00  0.00     0.134 A 
ATOM     67  F   UNL A   1      49.201  26.034  29.940  1.00  0.00    -0.206 F 
ATOM     68  C   UNL A   1      50.992  25.753  28.450  1.00  0.00     0.040 A 
ATOM     69  C   UNL A   1      50.732  26.343  26.130  1.00  0.00     0.040 A 
ATOM     70  F   UNL A   1      48.701  27.229  25.361  1.00  0.00    -0.206 F 
ATOM     71  C   UNL A   1      51.523  25.850  27.165  1.00  0.00     0.006 A 
ENDBRANCH  50  64
BRANCH  51  72
ATOM     72  C   UNL A   1      39.304  28.881  29.474  1.00  0.00     0.057 A 
ATOM     73  C   UNL A   1      38.757  28.643  30.740  1.00  0.00     0.134 A 
ATOM     74  C   UNL A   1      38.466  29.441  28.503  1.00  0.00     0.134 A 
ATOM     75  F   UNL A   1      39.506  28.091  31.705  1.00  0.00    -0.206 F 
ATOM     76  C   UNL A   1      37.422  28.933  31.026  1.00  0.00     0.040 A 
ATOM     77  C   UNL A   1      37.135  29.758  28.782  1.00  0.00     0.040 A 
ATOM     78  F   UNL A   1      38.934  29.703  27.273  1.00  0.00    -0.206 F 
ATOM     79  C   UNL A   1      36.608  29.497  30.045  1.00  0.00     0.006 A 
ENDBRANCH  51  72
BRANCH  63  80
ATOM     80  C   UNL A   1      45.237  32.498  29.844  1.00  0.00     0.057 A 
ATOM     81  C   UNL A   1      45.186  33.544  28.914  1.00  0.00     0.134 A 
ATOM     82  C   UNL A   1      45.544  32.826  31.171  1.00  0.00     0.134 A 
ATOM     83  F   UNL A   1      44.911  33.294  27.625  1.00  0.00    -0.206 F 
ATOM     84  C   UNL A   1      45.449  34.864  29.285  1.00  0.00     0.040 A 
ATOM     85  C   UNL A   1      45.785  34.144  31.560  1.00  0.00     0.040 A 
ATOM     86  F   UNL A   1      45.602  31.871  32.112  1.00  0.00    -0.206 F 
ATOM     87  C   UNL A   1      45.743  35.167  30.615  1.00  0.00     0.006 A 
ENDBRANCH  63  80
ENDBRANCH  37  38
ENDBRANCH  29  32
ENDBRANCH  27  28
ENDBRANCH  26  27
ENDBRANCH  25  26
ENDBRANCH  24  25
ENDBRANCH   1  24
TORSDOF 20
ENDMDL
MODEL 3
REMARK VINA RESULT:     -10.4      5.679     10.399
REMARK SMILES CC(C)c1ncc(SC[C@H](O)CO)c(C(=O)NCCCCCCNC(=O)c2ccc(-c3c4nc(c(-c5c(F)cccc5F)c5ccc([nH]5)c(-c5c(F)cccc5F)c5nc(c(-c6c(F)cccc6F)c6ccc3[nH]6)C=C5)C=C4)cc2)n1
REMARK SMILES IDX 19 1 18 2 17 3 15 4 16 5 14 7 4 8 5 9 81 10 6 11 7 12 2 13
REMARK SMILES IDX 1 14 3 15 8 16 9 17 10 18 12 19 13 20 11 22 20 24 21 25
REMARK SMILES IDX 22 26 23 27 24 28 25 29 26 31 27 32 28 33 80 34 29 35 79 36
REMARK SMILES IDX 30 37 31 38 32 39 73 40 33 41 78 42 72 43 74 44 34 45 77 46
REMARK SMILES IDX 71 47 70 48 35 50 61 51 44 52 60 53 45 54 48 55 59 56 75 57
REMARK SMILES IDX 46 58 47 59 58 61 76 62 49 63 36 64 37 65 42 66 38 67 39 68
REMARK SMILES IDX 41 69 43 70 40 71 62 72 63 73 68 74 64 75 65 76 67 77 69 78
REMARK SMILES IDX 66 79 50 80 51 81 56 82 52 83 53 84 55 85 57 86 54 87
REMARK H PARENT 17 6 13 21 11 23 24 30 74 49 48 60
REMARK Flexibility Score: inf
ROOT
ATOM      1  C   UNL A   1      33.626  29.447  26.699  1.00  0.00     0.021 C 
ENDROOT
BRANCH   1   2
ATOM      2  C   UNL A   1      33.844  28.198  25.837  1.00  0.00     0.116 C 
BRANCH   2   3
ATOM      3  N   UNL A   1      34.025  28.599  24.467  1.00  0.00    -0.351 N 
ATOM      4  C   UNL A   1      33.757  28.004  23.262  1.00  0.00     0.271 C 
ATOM      5  O   UNL A   1      34.247  28.583  22.284  1.00  0.00    -0.267 OA
ATOM      6  H   UNL A   1      34.430  29.492  24.376  1.00  0.00     0.163 HD
BRANCH   4   7
ATOM      7  C   UNL A   1      32.852  26.819  23.013  1.00  0.00     0.145 A 
ATOM      8  C   UNL A   1      33.067  24.502  22.807  1.00  0.00     0.131 A 
ATOM      9  N   UNL A   1      31.744  24.320  22.843  1.00  0.00    -0.240 NA
ATOM     10  N   UNL A   1      33.633  25.712  22.819  1.00  0.00    -0.226 NA
ATOM     11  C   UNL A   1      30.993  25.425  23.015  1.00  0.00     0.130 A 
ATOM     12  C   UNL A   1      31.468  26.729  23.115  1.00  0.00     0.057 A 
BRANCH   8  13
ATOM     13  C   UNL A   1      33.958  23.273  22.854  1.00  0.00     0.051 C 
ATOM     14  C   UNL A   1      35.265  23.512  23.620  1.00  0.00     0.016 C 
ATOM     15  C   UNL A   1      33.210  22.101  23.504  1.00  0.00     0.016 C 
ENDBRANCH   8  13
BRANCH  12  16
ATOM     16  S   UNL A   1      30.273  27.918  23.647  1.00  0.00    -0.119 SA
BRANCH  16  17
ATOM     17  C   UNL A   1      30.234  29.257  22.369  1.00  0.00     0.109 C 
BRANCH  17  18
ATOM     18  C   UNL A   1      29.085  30.228  22.056  1.00  0.00     0.150 C 
BRANCH  18  19
ATOM     19  C   UNL A   1      27.787  30.087  22.851  1.00  0.00     0.188 C 
BRANCH  19  20
ATOM     20  O   UNL A   1      27.290  31.395  23.153  1.00  0.00    -0.394 OA
ATOM     21  H   UNL A   1      26.629  31.652  22.492  1.00  0.00     0.210 HD
ENDBRANCH  19  20
ENDBRANCH  18  19
BRANCH  18  22
ATOM     22  O   UNL A   1      29.531  31.587  22.136  1.00  0.00    -0.390 OA
ATOM     23  H   UNL A   1      28.807  32.145  22.459  1.00  0.00     0.211 HD
ENDBRANCH  18  22
ENDBRANCH  17  18
ENDBRANCH  16  17
ENDBRANCH  12  16
ENDBRANCH   4   7
ENDBRANCH   2   3
ENDBRANCH   1   2
BRANCH   1  24
ATOM     24  C   UNL A   1      32.154  29.747  26.998  1.00  0.00     0.002 C 
BRANCH  24  25
ATOM     25  C   UNL A   1      31.519  30.798  26.081  1.00  0.00     0.002 C 
BRANCH  25  26
ATOM     26  C   UNL A   1      31.366  32.195  26.693  1.00  0.00     0.021 C 
BRANCH  26  27
ATOM     27  C   UNL A   1      32.676  32.949  26.905  1.00  0.00     0.116 C 
BRANCH  27  28
ATOM     28  N   UNL A   1      32.469  34.211  27.595  1.00  0.00    -0.352 N 
ATOM     29  C   UNL A   1      33.040  34.680  28.751  1.00  0.00     0.251 C 
ATOM     30  H   UNL A   1      31.822  34.820  27.169  1.00  0.00     0.163 HD
ATOM     31  O   UNL A   1      32.577  35.667  29.310  1.00  0.00    -0.269 OA
BRANCH  29  32
ATOM     32  C   UNL A   1      34.212  33.990  29.332  1.00  0.00     0.039 A 
ATOM     33  C   UNL A   1      35.493  34.427  28.986  1.00  0.00     0.014 A 
ATOM     34  C   UNL A   1      34.051  32.894  30.184  1.00  0.00     0.014 A 
ATOM     35  C   UNL A   1      36.613  33.798  29.534  1.00  0.00     0.010 A 
ATOM     36  C   UNL A   1      35.165  32.309  30.780  1.00  0.00     0.010 A 
ATOM     37  C   UNL A   1      36.456  32.751  30.456  1.00  0.00    -0.014 A 
BRANCH  37  38
ATOM     38  C   UNL A   1      37.633  32.102  31.088  1.00  0.00     0.031 A 
ATOM     39  C   UNL A   1      38.367  31.004  30.372  1.00  0.00     0.074 A 
ATOM     40  C   UNL A   1      38.004  32.463  32.332  1.00  0.00     0.049 A 
ATOM     41  N   UNL A   1      39.372  30.272  30.786  1.00  0.00    -0.248 NA
ATOM     42  C   UNL A   1      37.894  30.662  29.021  1.00  0.00     0.031 C 
ATOM     43  C   UNL A   1      37.348  33.485  33.147  1.00  0.00     0.029 A 
ATOM     44  N   UNL A   1      39.019  32.000  33.132  1.00  0.00    -0.354 N 
ATOM     45  C   UNL A   1      39.639  29.379  29.757  1.00  0.00     0.074 A 
ATOM     46  C   UNL A   1      38.660  29.625  28.719  1.00  0.00     0.031 C 
ATOM     47  C   UNL A   1      37.987  33.587  34.323  1.00  0.00     0.029 A 
ATOM     48  C   UNL A   1      39.075  32.614  34.359  1.00  0.00     0.049 A 
ATOM     49  H   UNL A   1      39.646  31.294  32.853  1.00  0.00     0.167 HD
ATOM     50  C   UNL A   1      40.624  28.453  29.674  1.00  0.00     0.037 A 
ATOM     51  C   UNL A   1      39.907  32.412  35.398  1.00  0.00     0.037 A 
ATOM     52  C   UNL A   1      41.612  28.229  30.695  1.00  0.00     0.049 A 
ATOM     53  C   UNL A   1      40.991  31.376  35.282  1.00  0.00     0.074 A 
ATOM     54  C   UNL A   1      42.688  27.358  30.679  1.00  0.00     0.029 A 
ATOM     55  N   UNL A   1      41.646  28.882  31.918  1.00  0.00    -0.354 N 
ATOM     56  N   UNL A   1      41.270  30.582  34.278  1.00  0.00    -0.248 NA
ATOM     57  C   UNL A   1      41.877  31.213  36.444  1.00  0.00     0.031 C 
ATOM     58  C   UNL A   1      43.348  27.454  31.909  1.00  0.00     0.029 A 
ATOM     59  C   UNL A   1      42.711  28.417  32.674  1.00  0.00     0.049 A 
ATOM     60  H   UNL A   1      41.008  29.573  32.207  1.00  0.00     0.167 HD
ATOM     61  C   UNL A   1      42.377  29.844  34.675  1.00  0.00     0.074 A 
ATOM     62  C   UNL A   1      42.726  30.294  36.006  1.00  0.00     0.031 C 
ATOM     63  C   UNL A   1      43.045  28.878  33.997  1.00  0.00     0.037 A 
BRANCH  50  64
ATOM     64  C   UNL A   1      40.680  27.613  28.432  1.00  0.00     0.057 A 
ATOM     65  C   UNL A   1      41.427  28.000  27.311  1.00  0.00     0.134 A 
ATOM     66  C   UNL A   1      40.004  26.388  28.363  1.00  0.00     0.134 A 
ATOM     67  F   UNL A   1      42.088  29.167  27.306  1.00  0.00    -0.206 F 
ATOM     68  C   UNL A   1      41.480  27.214  26.159  1.00  0.00     0.040 A 
ATOM     69  C   UNL A   1      40.069  25.580  27.227  1.00  0.00     0.040 A 
ATOM     70  F   UNL A   1      39.275  25.953  29.402  1.00  0.00    -0.206 F 
ATOM     71  C   UNL A   1      40.803  25.995  26.118  1.00  0.00     0.006 A 
ENDBRANCH  50  64
BRANCH  51  72
ATOM     72  C   UNL A   1      39.764  33.225  36.631  1.00  0.00     0.057 A 
ATOM     73  C   UNL A   1      40.511  34.394  36.813  1.00  0.00     0.134 A 
ATOM     74  C   UNL A   1      38.882  32.856  37.654  1.00  0.00     0.134 A 
ATOM     75  F   UNL A   1      41.385  34.789  35.877  1.00  0.00    -0.206 F 
ATOM     76  C   UNL A   1      40.401  35.159  37.976  1.00  0.00     0.040 A 
ATOM     77  C   UNL A   1      38.745  33.623  38.812  1.00  0.00     0.040 A 
ATOM     78  F   UNL A   1      38.131  31.751  37.534  1.00  0.00    -0.206 F 
ATOM     79  C   UNL A   1      39.511  34.775  38.977  1.00  0.00     0.006 A 
ENDBRANCH  51  72
BRANCH  63  80
ATOM     80  C   UNL A   1      44.234  28.264  34.674  1.00  0.00     0.057 A 
ATOM     81  C   UNL A   1      45.494  28.873  34.648  1.00  0.00     0.134 A 
ATOM     82  C   UNL A   1      44.107  27.067  35.390  1.00  0.00     0.134 A 
ATOM     83  F   UNL A   1      45.684  30.014  33.967  1.00  0.00    -0.206 F 
ATOM     84  C   UNL A   1      46.593  28.303  35.293  1.00  0.00     0.040 A 
ATOM     85  C   UNL A   1      45.192  26.500  36.060  1.00  0.00     0.040 A 
ATOM     86  F   UNL A   1      42.925  26.437  35.460  1.00  0.00    -0.206 F 
ATOM     87  C   UNL A   1      46.441  27.115  36.008  1.00  0.00     0.006 A 
ENDBRANCH  63  80
ENDBRANCH  37  38
ENDBRANCH  29  32
ENDBRANCH  27  28
ENDBRANCH  26  27
ENDBRANCH  25  26
ENDBRANCH  24  25
ENDBRANCH   1  24
TORSDOF 20
ENDMDL
