MODEL 1
REMARK VINA RESULT:     -10.8      0.000      0.000
REMARK SMILES Cc1c(Br)c(C(=O)NCCCCCCNC(=O)c2ccc(-c3c4nc(c(-c5c(F)cccc5F)c5ccc([nH]5)c(-c5c(F)cccc5F)c5nc(c(-c6c(F)cccc6F)c6ccc3[nH]6)C=C5)C=C4)cc2)nn1CC(F)(F)F
REMARK SMILES IDX 11 1 10 2 9 3 8 4 6 5 7 6 5 8 1 9 2 10 3 11 73 12 4 13 72 14
REMARK SMILES IDX 74 15 75 16 76 17 77 18 78 19 12 20 13 21 14 22 15 23 16 24
REMARK SMILES IDX 17 26 18 27 19 28 71 29 20 30 70 31 21 32 22 33 23 34 64 35
REMARK SMILES IDX 24 36 69 37 63 38 65 39 25 40 68 41 62 42 61 43 26 45 52 46
REMARK SMILES IDX 35 47 51 48 36 49 39 50 50 51 66 52 37 53 38 54 49 56 67 57
REMARK SMILES IDX 40 58 27 59 28 60 33 61 29 62 30 63 32 64 34 65 31 66 53 67
REMARK SMILES IDX 54 68 59 69 55 70 56 71 58 72 60 73 57 74 41 75 42 76 47 77
REMARK SMILES IDX 43 78 44 79 46 80 48 81 45 82
REMARK H PARENT 8 7 15 25 65 44 39 55
REMARK Flexibility Score: inf
ROOT
ATOM      1  C   UNL A   1      40.086  21.601  26.292  1.00  0.00     0.002 C 
ENDROOT
BRANCH   1   2
ATOM      2  C   UNL A   1      39.263  22.882  26.438  1.00  0.00     0.021 C 
BRANCH   2   3
ATOM      3  C   UNL A   1      37.792  22.754  26.052  1.00  0.00     0.116 C 
BRANCH   3   4
ATOM      4  N   UNL A   1      37.593  22.761  24.613  1.00  0.00    -0.351 N 
ATOM      5  C   UNL A   1      36.476  23.023  23.841  1.00  0.00     0.272 C 
ATOM      6  O   UNL A   1      36.633  22.955  22.621  1.00  0.00    -0.267 OA
ATOM      7  H   UNL A   1      38.400  22.540  24.093  1.00  0.00     0.163 HD
BRANCH   5   8
ATOM      8  C   UNL A   1      35.171  23.349  24.453  1.00  0.00     0.164 A 
ATOM      9  C   UNL A   1      31.877  22.891  26.123  1.00  0.00     0.067 C 
ATOM     10  C   UNL A   1      33.164  23.248  25.479  1.00  0.00     0.051 A 
ATOM     11  C   UNL A   1      34.183  22.466  24.969  1.00  0.00     0.072 A 
ATOM     12  N   UNL A   1      33.603  24.533  25.303  1.00  0.00    -0.259 N 
ATOM     13  Br  UNL A   1      34.249  20.590  24.977  1.00  0.00    -0.046 Br
ATOM     14  N   UNL A   1      34.719  24.609  24.575  1.00  0.00    -0.166 NA
BRANCH  12  15
ATOM     15  C   UNL A   1      33.004  25.778  25.731  1.00  0.00     0.259 C 
BRANCH  15  16
ATOM     16  C   UNL A   1      32.152  26.393  24.649  1.00  0.00     0.408 C 
ATOM     17  F   UNL A   1      30.994  26.918  25.099  1.00  0.00    -0.169 F 
ATOM     18  F   UNL A   1      32.834  27.410  24.060  1.00  0.00    -0.169 F 
ATOM     19  F   UNL A   1      31.861  25.506  23.670  1.00  0.00    -0.169 F 
ENDBRANCH  15  16
ENDBRANCH  12  15
ENDBRANCH   5   8
ENDBRANCH   3   4
ENDBRANCH   2   3
ENDBRANCH   1   2
BRANCH   1  20
ATOM     20  C   UNL A   1      41.149  21.341  27.373  1.00  0.00     0.002 C 
BRANCH  20  21
ATOM     21  C   UNL A   1      42.059  20.114  27.198  1.00  0.00     0.021 C 
BRANCH  21  22
ATOM     22  C   UNL A   1      42.229  19.654  25.761  1.00  0.00     0.116 C 
BRANCH  22  23
ATOM     23  N   UNL A   1      43.633  19.497  25.353  1.00  0.00    -0.352 N 
ATOM     24  C   UNL A   1      44.540  20.474  24.956  1.00  0.00     0.251 C 
ATOM     25  H   UNL A   1      43.977  18.575  25.360  1.00  0.00     0.163 HD
ATOM     26  O   UNL A   1      45.533  20.193  24.303  1.00  0.00    -0.269 OA
BRANCH  24  27
ATOM     27  C   UNL A   1      44.284  21.868  25.362  1.00  0.00     0.039 A 
ATOM     28  C   UNL A   1      43.386  22.721  24.717  1.00  0.00     0.014 A 
ATOM     29  C   UNL A   1      44.962  22.295  26.490  1.00  0.00     0.014 A 
ATOM     30  C   UNL A   1      43.165  23.984  25.269  1.00  0.00     0.010 A 
ATOM     31  C   UNL A   1      44.463  23.333  27.205  1.00  0.00     0.010 A 
ATOM     32  C   UNL A   1      43.721  24.273  26.525  1.00  0.00    -0.014 A 
BRANCH  32  33
ATOM     33  C   UNL A   1      43.541  25.535  27.224  1.00  0.00     0.031 A 
ATOM     34  C   UNL A   1      44.524  26.562  26.830  1.00  0.00     0.074 A 
ATOM     35  C   UNL A   1      42.421  25.816  27.933  1.00  0.00     0.049 A 
ATOM     36  N   UNL A   1      45.550  26.960  27.501  1.00  0.00    -0.248 NA
ATOM     37  C   UNL A   1      44.475  27.076  25.451  1.00  0.00     0.031 C 
ATOM     38  C   UNL A   1      41.198  25.000  28.064  1.00  0.00     0.029 A 
ATOM     39  N   UNL A   1      42.087  26.950  28.615  1.00  0.00    -0.354 N 
ATOM     40  C   UNL A   1      46.102  27.986  26.742  1.00  0.00     0.074 A 
ATOM     41  C   UNL A   1      45.577  27.830  25.413  1.00  0.00     0.031 C 
ATOM     42  C   UNL A   1      40.195  25.748  28.570  1.00  0.00     0.029 A 
ATOM     43  C   UNL A   1      40.747  27.021  28.986  1.00  0.00     0.049 A 
ATOM     44  H   UNL A   1      42.739  27.657  28.827  1.00  0.00     0.167 HD
ATOM     45  C   UNL A   1      46.640  29.074  27.359  1.00  0.00     0.037 A 
ATOM     46  C   UNL A   1      40.133  28.056  29.610  1.00  0.00     0.037 A 
ATOM     47  C   UNL A   1      46.755  28.839  28.779  1.00  0.00     0.049 A 
ATOM     48  C   UNL A   1      41.187  28.853  30.274  1.00  0.00     0.074 A 
ATOM     49  C   UNL A   1      47.573  28.115  29.616  1.00  0.00     0.029 A 
ATOM     50  N   UNL A   1      45.601  29.112  29.467  1.00  0.00    -0.354 N 
ATOM     51  N   UNL A   1      41.912  28.400  31.259  1.00  0.00    -0.248 NA
ATOM     52  C   UNL A   1      41.713  30.037  29.604  1.00  0.00     0.031 C 
ATOM     53  C   UNL A   1      46.801  27.836  30.785  1.00  0.00     0.029 A 
ATOM     54  C   UNL A   1      45.549  28.434  30.653  1.00  0.00     0.049 A 
ATOM     55  H   UNL A   1      44.897  29.722  29.147  1.00  0.00     0.167 HD
ATOM     56  C   UNL A   1      43.158  28.958  31.051  1.00  0.00     0.074 A 
ATOM     57  C   UNL A   1      42.933  30.079  30.146  1.00  0.00     0.031 C 
ATOM     58  C   UNL A   1      44.293  28.262  31.350  1.00  0.00     0.037 A 
BRANCH  45  59
ATOM     59  C   UNL A   1      46.580  30.491  26.834  1.00  0.00     0.057 A 
ATOM     60  C   UNL A   1      47.747  31.276  26.878  1.00  0.00     0.134 A 
ATOM     61  C   UNL A   1      45.391  31.208  26.583  1.00  0.00     0.134 A 
ATOM     62  F   UNL A   1      48.942  30.716  27.126  1.00  0.00    -0.206 F 
ATOM     63  C   UNL A   1      47.723  32.670  26.748  1.00  0.00     0.040 A 
ATOM     64  C   UNL A   1      45.363  32.593  26.402  1.00  0.00     0.040 A 
ATOM     65  F   UNL A   1      44.183  30.634  26.604  1.00  0.00    -0.206 F 
ATOM     66  C   UNL A   1      46.526  33.335  26.514  1.00  0.00     0.006 A 
ENDBRANCH  45  59
BRANCH  46  67
ATOM     67  C   UNL A   1      38.745  28.543  29.461  1.00  0.00     0.057 A 
ATOM     68  C   UNL A   1      37.863  28.590  30.549  1.00  0.00     0.134 A 
ATOM     69  C   UNL A   1      38.352  29.253  28.313  1.00  0.00     0.134 A 
ATOM     70  F   UNL A   1      38.168  27.968  31.697  1.00  0.00    -0.206 F 
ATOM     71  C   UNL A   1      36.675  29.333  30.512  1.00  0.00     0.040 A 
ATOM     72  C   UNL A   1      37.171  29.999  28.264  1.00  0.00     0.040 A 
ATOM     73  F   UNL A   1      39.154  29.320  27.239  1.00  0.00    -0.206 F 
ATOM     74  C   UNL A   1      36.335  30.055  29.373  1.00  0.00     0.006 A 
ENDBRANCH  46  67
BRANCH  58  75
ATOM     75  C   UNL A   1      44.180  27.150  32.346  1.00  0.00     0.057 A 
ATOM     76  C   UNL A   1      43.992  27.325  33.724  1.00  0.00     0.134 A 
ATOM     77  C   UNL A   1      44.188  25.835  31.870  1.00  0.00     0.134 A 
ATOM     78  F   UNL A   1      43.902  28.547  34.261  1.00  0.00    -0.206 F 
ATOM     79  C   UNL A   1      43.853  26.237  34.591  1.00  0.00     0.040 A 
ATOM     80  C   UNL A   1      44.019  24.742  32.719  1.00  0.00     0.040 A 
ATOM     81  F   UNL A   1      44.325  25.596  30.556  1.00  0.00    -0.206 F 
ATOM     82  C   UNL A   1      43.861  24.940  34.087  1.00  0.00     0.006 A 
ENDBRANCH  58  75
ENDBRANCH  32  33
ENDBRANCH  24  27
ENDBRANCH  22  23
ENDBRANCH  21  22
ENDBRANCH  20  21
ENDBRANCH   1  20
TORSDOF 15
ENDMDL
MODEL 2
REMARK VINA RESULT:     -10.6      1.922      2.334
REMARK SMILES Cc1c(Br)c(C(=O)NCCCCCCNC(=O)c2ccc(-c3c4nc(c(-c5c(F)cccc5F)c5ccc([nH]5)c(-c5c(F)cccc5F)c5nc(c(-c6c(F)cccc6F)c6ccc3[nH]6)C=C5)C=C4)cc2)nn1CC(F)(F)F
REMARK SMILES IDX 11 1 10 2 9 3 8 4 6 5 7 6 5 8 1 9 2 10 3 11 73 12 4 13 72 14
REMARK SMILES IDX 74 15 75 16 76 17 77 18 78 19 12 20 13 21 14 22 15 23 16 24
REMARK SMILES IDX 17 26 18 27 19 28 71 29 20 30 70 31 21 32 22 33 23 34 64 35
REMARK SMILES IDX 24 36 69 37 63 38 65 39 25 40 68 41 62 42 61 43 26 45 52 46
REMARK SMILES IDX 35 47 51 48 36 49 39 50 50 51 66 52 37 53 38 54 49 56 67 57
REMARK SMILES IDX 40 58 27 59 28 60 33 61 29 62 30 63 32 64 34 65 31 66 53 67
REMARK SMILES IDX 54 68 59 69 55 70 56 71 58 72 60 73 57 74 41 75 42 76 47 77
REMARK SMILES IDX 43 78 44 79 46 80 48 81 45 82
REMARK H PARENT 8 7 15 25 65 44 39 55
REMARK Flexibility Score: inf
ROOT
ATOM      1  C   UNL A   1      39.828  20.653  26.643  1.00  0.00     0.002 C 
ENDROOT
BRANCH   1   2
ATOM      2  C   UNL A   1      38.836  20.842  25.495  1.00  0.00     0.021 C 
BRANCH   2   3
ATOM      3  C   UNL A   1      37.954  22.084  25.599  1.00  0.00     0.116 C 
BRANCH   3   4
ATOM      4  N   UNL A   1      37.553  22.591  24.298  1.00  0.00    -0.351 N 
ATOM      5  C   UNL A   1      36.312  22.704  23.699  1.00  0.00     0.272 C 
ATOM      6  O   UNL A   1      36.299  23.193  22.568  1.00  0.00    -0.267 OA
ATOM      7  H   UNL A   1      38.300  22.912  23.743  1.00  0.00     0.163 HD
BRANCH   5   8
ATOM      8  C   UNL A   1      35.080  22.249  24.377  1.00  0.00     0.164 A 
ATOM      9  C   UNL A   1      31.726  22.361  25.984  1.00  0.00     0.067 C 
ATOM     10  C   UNL A   1      33.050  22.140  25.355  1.00  0.00     0.051 A 
ATOM     11  C   UNL A   1      33.977  23.022  24.833  1.00  0.00     0.072 A 
ATOM     12  N   UNL A   1      33.600  20.905  25.141  1.00  0.00    -0.259 N 
ATOM     13  Br  UNL A   1      33.796  24.887  24.733  1.00  0.00    -0.046 Br
ATOM     14  N   UNL A   1      34.856  20.962  24.693  1.00  0.00    -0.166 NA
BRANCH  12  15
ATOM     15  C   UNL A   1      33.043  19.592  25.389  1.00  0.00     0.259 C 
BRANCH  15  16
ATOM     16  C   UNL A   1      32.798  18.835  24.108  1.00  0.00     0.408 C 
ATOM     17  F   UNL A   1      32.348  19.606  23.096  1.00  0.00    -0.169 F 
ATOM     18  F   UNL A   1      33.961  18.278  23.681  1.00  0.00    -0.169 F 
ATOM     19  F   UNL A   1      31.924  17.817  24.283  1.00  0.00    -0.169 F 
ENDBRANCH  15  16
ENDBRANCH  12  15
ENDBRANCH   5   8
ENDBRANCH   3   4
ENDBRANCH   2   3
ENDBRANCH   1   2
BRANCH   1  20
ATOM     20  C   UNL A   1      41.318  20.610  26.263  1.00  0.00     0.002 C 
BRANCH  20  21
ATOM     21  C   UNL A   1      41.876  19.287  25.713  1.00  0.00     0.021 C 
BRANCH  21  22
ATOM     22  C   UNL A   1      43.282  18.953  26.178  1.00  0.00     0.116 C 
BRANCH  22  23
ATOM     23  N   UNL A   1      44.272  18.916  25.091  1.00  0.00    -0.352 N 
ATOM     24  C   UNL A   1      44.726  19.958  24.289  1.00  0.00     0.251 C 
ATOM     25  H   UNL A   1      44.667  18.034  24.905  1.00  0.00     0.163 HD
ATOM     26  O   UNL A   1      45.254  19.747  23.209  1.00  0.00    -0.269 OA
BRANCH  24  27
ATOM     27  C   UNL A   1      44.571  21.337  24.787  1.00  0.00     0.039 A 
ATOM     28  C   UNL A   1      43.811  22.321  24.149  1.00  0.00     0.014 A 
ATOM     29  C   UNL A   1      45.194  21.611  25.991  1.00  0.00     0.014 A 
ATOM     30  C   UNL A   1      43.667  23.557  24.783  1.00  0.00     0.010 A 
ATOM     31  C   UNL A   1      44.740  22.640  26.749  1.00  0.00     0.010 A 
ATOM     32  C   UNL A   1      44.147  23.696  26.095  1.00  0.00    -0.014 A 
BRANCH  32  33
ATOM     33  C   UNL A   1      44.031  24.916  26.878  1.00  0.00     0.031 A 
ATOM     34  C   UNL A   1      45.109  25.886  26.603  1.00  0.00     0.074 A 
ATOM     35  C   UNL A   1      42.904  25.235  27.559  1.00  0.00     0.049 A 
ATOM     36  N   UNL A   1      46.129  26.151  27.344  1.00  0.00    -0.248 NA
ATOM     37  C   UNL A   1      45.165  26.498  25.265  1.00  0.00     0.031 C 
ATOM     38  C   UNL A   1      41.618  24.513  27.577  1.00  0.00     0.029 A 
ATOM     39  N   UNL A   1      42.627  26.340  28.309  1.00  0.00    -0.354 N 
ATOM     40  C   UNL A   1      46.794  27.181  26.687  1.00  0.00     0.074 A 
ATOM     41  C   UNL A   1      46.322  27.162  25.330  1.00  0.00     0.031 C 
ATOM     42  C   UNL A   1      40.652  25.301  28.095  1.00  0.00     0.029 A 
ATOM     43  C   UNL A   1      41.280  26.493  28.628  1.00  0.00     0.049 A 
ATOM     44  H   UNL A   1      43.321  26.975  28.600  1.00  0.00     0.167 HD
ATOM     45  C   UNL A   1      47.384  28.175  27.406  1.00  0.00     0.037 A 
ATOM     46  C   UNL A   1      40.719  27.526  29.301  1.00  0.00     0.037 A 
ATOM     47  C   UNL A   1      47.413  27.831  28.808  1.00  0.00     0.049 A 
ATOM     48  C   UNL A   1      41.798  28.186  30.066  1.00  0.00     0.074 A 
ATOM     49  C   UNL A   1      48.132  26.986  29.622  1.00  0.00     0.029 A 
ATOM     50  N   UNL A   1      46.253  28.147  29.465  1.00  0.00    -0.354 N 
ATOM     51  N   UNL A   1      42.439  27.608  31.044  1.00  0.00    -0.248 NA
ATOM     52  C   UNL A   1      42.445  29.369  29.509  1.00  0.00     0.031 C 
ATOM     53  C   UNL A   1      47.287  26.688  30.734  1.00  0.00     0.029 A 
ATOM     54  C   UNL A   1      46.092  27.393  30.595  1.00  0.00     0.049 A 
ATOM     55  H   UNL A   1      45.614  28.832  29.163  1.00  0.00     0.167 HD
ATOM     56  C   UNL A   1      43.732  28.077  30.931  1.00  0.00     0.074 A 
ATOM     57  C   UNL A   1      43.638  29.274  30.103  1.00  0.00     0.031 C 
ATOM     58  C   UNL A   1      44.795  27.273  31.224  1.00  0.00     0.037 A 
BRANCH  45  59
ATOM     59  C   UNL A   1      47.459  29.627  26.986  1.00  0.00     0.057 A 
ATOM     60  C   UNL A   1      48.686  30.303  27.115  1.00  0.00     0.134 A 
ATOM     61  C   UNL A   1      46.342  30.458  26.761  1.00  0.00     0.134 A 
ATOM     62  F   UNL A   1      49.822  29.627  27.349  1.00  0.00    -0.206 F 
ATOM     63  C   UNL A   1      48.783  31.700  27.089  1.00  0.00     0.040 A 
ATOM     64  C   UNL A   1      46.436  31.851  26.682  1.00  0.00     0.040 A 
ATOM     65  F   UNL A   1      45.091  29.990  26.712  1.00  0.00    -0.206 F 
ATOM     66  C   UNL A   1      47.653  32.480  26.877  1.00  0.00     0.006 A 
ENDBRANCH  45  59
BRANCH  46  67
ATOM     67  C   UNL A   1      39.382  28.133  29.131  1.00  0.00     0.057 A 
ATOM     68  C   UNL A   1      38.467  28.201  30.191  1.00  0.00     0.134 A 
ATOM     69  C   UNL A   1      39.090  28.926  28.008  1.00  0.00     0.134 A 
ATOM     70  F   UNL A   1      38.678  27.504  31.317  1.00  0.00    -0.206 F 
ATOM     71  C   UNL A   1      37.345  29.042  30.152  1.00  0.00     0.040 A 
ATOM     72  C   UNL A   1      37.975  29.768  27.957  1.00  0.00     0.040 A 
ATOM     73  F   UNL A   1      39.933  28.976  26.965  1.00  0.00    -0.206 F 
ATOM     74  C   UNL A   1      37.107  29.842  29.040  1.00  0.00     0.006 A 
ENDBRANCH  46  67
BRANCH  58  75
ATOM     75  C   UNL A   1      44.550  26.105  32.129  1.00  0.00     0.057 A 
ATOM     76  C   UNL A   1      44.325  26.196  33.509  1.00  0.00     0.134 A 
ATOM     77  C   UNL A   1      44.463  24.834  31.554  1.00  0.00     0.134 A 
ATOM     78  F   UNL A   1      44.319  27.378  34.134  1.00  0.00    -0.206 F 
ATOM     79  C   UNL A   1      44.060  25.064  34.286  1.00  0.00     0.040 A 
ATOM     80  C   UNL A   1      44.169  23.700  32.312  1.00  0.00     0.040 A 
ATOM     81  F   UNL A   1      44.630  24.679  30.231  1.00  0.00    -0.206 F 
ATOM     82  C   UNL A   1      43.977  23.811  33.686  1.00  0.00     0.006 A 
ENDBRANCH  58  75
ENDBRANCH  32  33
ENDBRANCH  24  27
ENDBRANCH  22  23
ENDBRANCH  21  22
ENDBRANCH  20  21
ENDBRANCH   1  20
TORSDOF 15
ENDMDL
MODEL 3
REMARK VINA RESULT:     -10.4      4.390      9.574
REMARK SMILES Cc1c(Br)c(C(=O)NCCCCCCNC(=O)c2ccc(-c3c4nc(c(-c5c(F)cccc5F)c5ccc([nH]5)c(-c5c(F)cccc5F)c5nc(c(-c6c(F)cccc6F)c6ccc3[nH]6)C=C5)C=C4)cc2)nn1CC(F)(F)F
REMARK SMILES IDX 11 1 10 2 9 3 8 4 6 5 7 6 5 8 1 9 2 10 3 11 73 12 4 13 72 14
REMARK SMILES IDX 74 15 75 16 76 17 77 18 78 19 12 20 13 21 14 22 15 23 16 24
REMARK SMILES IDX 17 26 18 27 19 28 71 29 20 30 70 31 21 32 22 33 23 34 64 35
REMARK SMILES IDX 24 36 69 37 63 38 65 39 25 40 68 41 62 42 61 43 26 45 52 46
REMARK SMILES IDX 35 47 51 48 36 49 39 50 50 51 66 52 37 53 38 54 49 56 67 57
REMARK SMILES IDX 40 58 27 59 28 60 33 61 29 62 30 63 32 64 34 65 31 66 53 67
REMARK SMILES IDX 54 68 59 69 55 70 56 71 58 72 60 73 57 74 41 75 42 76 47 77
REMARK SMILES IDX 43 78 44 79 46 80 48 81 45 82
REMARK H PARENT 8 7 15 25 65 44 39 55
REMARK Flexibility Score: inf
ROOT
ATOM      1  C   UNL A   1      33.999  31.673  28.024  1.00  0.00     0.002 C 
ENDROOT
BRANCH   1   2
ATOM      2  C   UNL A   1      33.038  31.316  26.890  1.00  0.00     0.021 C 
BRANCH   2   3
ATOM      3  C   UNL A   1      32.889  29.822  26.612  1.00  0.00     0.116 C 
BRANCH   3   4
ATOM      4  N   UNL A   1      33.713  29.379  25.501  1.00  0.00    -0.351 N 
ATOM      5  C   UNL A   1      33.388  28.769  24.303  1.00  0.00     0.272 C 
ATOM      6  O   UNL A   1      34.330  28.521  23.548  1.00  0.00    -0.267 OA
ATOM      7  H   UNL A   1      34.676  29.543  25.621  1.00  0.00     0.163 HD
BRANCH   5   8
ATOM      8  C   UNL A   1      31.992  28.426  23.962  1.00  0.00     0.164 A 
ATOM      9  C   UNL A   1      28.738  26.620  23.939  1.00  0.00     0.067 C 
ATOM     10  C   UNL A   1      29.954  27.464  23.849  1.00  0.00     0.051 A 
ATOM     11  C   UNL A   1      31.212  27.321  24.402  1.00  0.00     0.072 A 
ATOM     12  N   UNL A   1      30.016  28.648  23.167  1.00  0.00    -0.259 N 
ATOM     13  Br  UNL A   1      31.773  25.935  25.537  1.00  0.00    -0.046 Br
ATOM     14  N   UNL A   1      31.250  29.154  23.109  1.00  0.00    -0.166 NA
BRANCH  12  15
ATOM     15  C   UNL A   1      28.972  29.366  22.468  1.00  0.00     0.259 C 
BRANCH  15  16
ATOM     16  C   UNL A   1      28.599  30.645  23.174  1.00  0.00     0.408 C 
ATOM     17  F   UNL A   1      27.335  30.661  23.643  1.00  0.00    -0.169 F 
ATOM     18  F   UNL A   1      29.412  30.822  24.248  1.00  0.00    -0.169 F 
ATOM     19  F   UNL A   1      28.768  31.727  22.380  1.00  0.00    -0.169 F 
ENDBRANCH  15  16
ENDBRANCH  12  15
ENDBRANCH   5   8
ENDBRANCH   3   4
ENDBRANCH   2   3
ENDBRANCH   1   2
BRANCH   1  20
ATOM     20  C   UNL A   1      34.379  33.157  28.160  1.00  0.00     0.002 C 
BRANCH  20  21
ATOM     21  C   UNL A   1      33.272  34.144  28.565  1.00  0.00     0.021 C 
BRANCH  21  22
ATOM     22  C   UNL A   1      33.774  35.450  29.154  1.00  0.00     0.116 C 
BRANCH  22  23
ATOM     23  N   UNL A   1      33.271  35.719  30.509  1.00  0.00    -0.352 N 
ATOM     24  C   UNL A   1      33.439  34.969  31.668  1.00  0.00     0.251 C 
ATOM     25  H   UNL A   1      32.742  36.544  30.610  1.00  0.00     0.163 HD
ATOM     26  O   UNL A   1      32.688  35.092  32.622  1.00  0.00    -0.269 OA
BRANCH  24  27
ATOM     27  C   UNL A   1      34.569  34.023  31.727  1.00  0.00     0.039 A 
ATOM     28  C   UNL A   1      34.429  32.633  31.741  1.00  0.00     0.014 A 
ATOM     29  C   UNL A   1      35.828  34.596  31.712  1.00  0.00     0.014 A 
ATOM     30  C   UNL A   1      35.587  31.854  31.695  1.00  0.00     0.010 A 
ATOM     31  C   UNL A   1      36.884  33.857  31.289  1.00  0.00     0.010 A 
ATOM     32  C   UNL A   1      36.816  32.493  31.468  1.00  0.00    -0.014 A 
BRANCH  32  33
ATOM     33  C   UNL A   1      38.088  31.798  31.366  1.00  0.00     0.031 A 
ATOM     34  C   UNL A   1      38.713  31.533  32.677  1.00  0.00     0.074 A 
ATOM     35  C   UNL A   1      38.500  31.208  30.218  1.00  0.00     0.049 A 
ATOM     36  N   UNL A   1      39.712  32.153  33.205  1.00  0.00    -0.248 NA
ATOM     37  C   UNL A   1      38.035  30.600  33.591  1.00  0.00     0.031 C 
ATOM     38  C   UNL A   1      37.762  31.076  28.947  1.00  0.00     0.029 A 
ATOM     39  N   UNL A   1      39.639  30.500  29.966  1.00  0.00    -0.354 N 
ATOM     40  C   UNL A   1      39.963  31.481  34.396  1.00  0.00     0.074 A 
ATOM     41  C   UNL A   1      38.771  30.738  34.698  1.00  0.00     0.031 C 
ATOM     42  C   UNL A   1      38.356  30.156  28.159  1.00  0.00     0.029 A 
ATOM     43  C   UNL A   1      39.616  29.784  28.771  1.00  0.00     0.049 A 
ATOM     44  H   UNL A   1      40.411  30.496  30.577  1.00  0.00     0.167 HD
ATOM     45  C   UNL A   1      41.245  31.309  34.821  1.00  0.00     0.037 A 
ATOM     46  C   UNL A   1      40.578  28.951  28.308  1.00  0.00     0.037 A 
ATOM     47  C   UNL A   1      42.148  32.108  34.028  1.00  0.00     0.049 A 
ATOM     48  C   UNL A   1      41.836  29.310  28.996  1.00  0.00     0.074 A 
ATOM     49  C   UNL A   1      42.492  33.436  33.926  1.00  0.00     0.029 A 
ATOM     50  N   UNL A   1      42.531  31.493  32.864  1.00  0.00    -0.354 N 
ATOM     51  N   UNL A   1      42.439  30.456  28.833  1.00  0.00    -0.248 NA
ATOM     52  C   UNL A   1      42.247  28.550  30.171  1.00  0.00     0.031 C 
ATOM     53  C   UNL A   1      42.964  33.625  32.591  1.00  0.00     0.029 A 
ATOM     54  C   UNL A   1      42.938  32.402  31.925  1.00  0.00     0.049 A 
ATOM     55  H   UNL A   1      42.516  30.519  32.720  1.00  0.00     0.167 HD
ATOM     56  C   UNL A   1      42.962  30.747  30.077  1.00  0.00     0.074 A 
ATOM     57  C   UNL A   1      42.973  29.480  30.798  1.00  0.00     0.031 C 
ATOM     58  C   UNL A   1      43.015  32.034  30.528  1.00  0.00     0.037 A 
BRANCH  45  59
ATOM     59  C   UNL A   1      41.763  30.090  35.553  1.00  0.00     0.057 A 
ATOM     60  C   UNL A   1      42.681  30.274  36.604  1.00  0.00     0.134 A 
ATOM     61  C   UNL A   1      41.652  28.763  35.087  1.00  0.00     0.134 A 
ATOM     62  F   UNL A   1      42.892  31.493  37.125  1.00  0.00    -0.206 F 
ATOM     63  C   UNL A   1      43.471  29.233  37.105  1.00  0.00     0.040 A 
ATOM     64  C   UNL A   1      42.400  27.707  35.615  1.00  0.00     0.040 A 
ATOM     65  F   UNL A   1      40.901  28.428  34.032  1.00  0.00    -0.206 F 
ATOM     66  C   UNL A   1      43.336  27.943  36.607  1.00  0.00     0.006 A 
ENDBRANCH  45  59
BRANCH  46  67
ATOM     67  C   UNL A   1      40.436  27.714  27.511  1.00  0.00     0.057 A 
ATOM     68  C   UNL A   1      41.146  27.522  26.318  1.00  0.00     0.134 A 
ATOM     69  C   UNL A   1      39.829  26.571  28.061  1.00  0.00     0.134 A 
ATOM     70  F   UNL A   1      41.784  28.548  25.736  1.00  0.00    -0.206 F 
ATOM     71  C   UNL A   1      41.279  26.259  25.726  1.00  0.00     0.040 A 
ATOM     72  C   UNL A   1      39.954  25.305  27.481  1.00  0.00     0.040 A 
ATOM     73  F   UNL A   1      39.176  26.637  29.232  1.00  0.00    -0.206 F 
ATOM     74  C   UNL A   1      40.696  25.142  26.318  1.00  0.00     0.006 A 
ENDBRANCH  46  67
BRANCH  58  75
ATOM     75  C   UNL A   1      42.990  33.127  29.504  1.00  0.00     0.057 A 
ATOM     76  C   UNL A   1      41.902  33.980  29.271  1.00  0.00     0.134 A 
ATOM     77  C   UNL A   1      44.155  33.371  28.772  1.00  0.00     0.134 A 
ATOM     78  F   UNL A   1      40.769  33.866  29.973  1.00  0.00    -0.206 F 
ATOM     79  C   UNL A   1      41.964  35.008  28.325  1.00  0.00     0.040 A 
ATOM     80  C   UNL A   1      44.241  34.413  27.848  1.00  0.00     0.040 A 
ATOM     81  F   UNL A   1      45.247  32.617  28.973  1.00  0.00    -0.206 F 
ATOM     82  C   UNL A   1      43.139  35.229  27.614  1.00  0.00     0.006 A 
ENDBRANCH  58  75
ENDBRANCH  32  33
ENDBRANCH  24  27
ENDBRANCH  22  23
ENDBRANCH  21  22
ENDBRANCH  20  21
ENDBRANCH   1  20
TORSDOF 15
ENDMDL
