MODEL 1
REMARK VINA RESULT:     -12.0      0.000      0.000
REMARK SMILES C[C@@H](C(=O)NCCCCCCNC(=O)c1ccc(-c2c3nc(c(-c4c(F)cccc4F)c4ccc([nH]4)c(-c4c(F)cccc4F)c4nc(c(-c5c(F)cccc5F)c5ccc2[nH]5)C=C4)C=C3)cc1)c1ccc(-c2cccc(OC(=O)NC3CC3)c2)c(F)c1
REMARK SMILES IDX 7 1 6 2 5 3 3 4 4 5 2 7 1 8 69 9 70 10 88 11 71 12 86 13
REMARK SMILES IDX 72 14 87 15 73 16 74 17 85 18 75 19 77 20 76 21 78 22 79 23
REMARK SMILES IDX 80 24 81 25 82 27 83 28 84 29 8 30 9 31 10 32 11 33 12 34
REMARK SMILES IDX 13 35 14 37 15 38 16 39 68 40 17 41 67 42 18 43 19 44 20 45
REMARK SMILES IDX 61 46 21 47 66 48 60 49 62 50 22 51 65 52 59 53 58 54 23 56
REMARK SMILES IDX 49 57 32 58 48 59 33 60 36 61 47 62 63 63 34 64 35 65 46 67
REMARK SMILES IDX 64 68 37 69 24 70 25 71 30 72 26 73 27 74 29 75 31 76 28 77
REMARK SMILES IDX 50 78 51 79 56 80 52 81 53 82 55 83 57 84 54 85 38 86 39 87
REMARK SMILES IDX 44 88 40 89 41 90 43 91 45 92 42 93
REMARK H PARENT 5 6 81 26 12 36 62 55 36 66
REMARK Flexibility Score: inf
ROOT
ATOM      1  C   UNL A   1      31.678  28.205  27.481  1.00  0.00     0.021 C 
ENDROOT
BRANCH   1   2
ATOM      2  C   UNL A   1      32.052  27.076  26.516  1.00  0.00     0.116 C 
BRANCH   2   3
ATOM      3  N   UNL A   1      31.372  25.860  26.906  1.00  0.00    -0.356 N 
ATOM      4  C   UNL A   1      31.050  24.773  26.147  1.00  0.00     0.227 C 
ATOM      5  O   UNL A   1      30.211  24.000  26.612  1.00  0.00    -0.274 OA
ATOM      6  H   UNL A   1      31.104  25.810  27.851  1.00  0.00     0.163 HD
BRANCH   4   7
ATOM      7  C   UNL A   1      31.773  24.537  24.805  1.00  0.00     0.105 C 
ATOM      8  C   UNL A   1      30.913  23.675  23.870  1.00  0.00     0.023 C 
BRANCH   7   9
ATOM      9  C   UNL A   1      33.180  23.970  25.015  1.00  0.00    -0.033 A 
ATOM     10  C   UNL A   1      34.257  24.301  24.181  1.00  0.00     0.005 A 
ATOM     11  C   UNL A   1      33.413  23.059  26.059  1.00  0.00     0.044 A 
ATOM     12  C   UNL A   1      35.508  23.710  24.349  1.00  0.00     0.012 A 
ATOM     13  C   UNL A   1      34.664  22.457  26.211  1.00  0.00     0.131 A 
ATOM     14  C   UNL A   1      35.726  22.758  25.352  1.00  0.00     0.018 A 
ATOM     15  F   UNL A   1      34.819  21.555  27.192  1.00  0.00    -0.206 F 
BRANCH  14  16
ATOM     16  C   UNL A   1      37.003  22.042  25.394  1.00  0.00    -0.012 A 
ATOM     17  C   UNL A   1      37.126  20.734  24.900  1.00  0.00     0.009 A 
ATOM     18  C   UNL A   1      38.103  22.630  26.040  1.00  0.00     0.056 A 
ATOM     19  C   UNL A   1      38.316  20.022  25.059  1.00  0.00     0.004 A 
ATOM     20  C   UNL A   1      39.282  21.913  26.208  1.00  0.00     0.133 A 
ATOM     21  C   UNL A   1      39.392  20.609  25.720  1.00  0.00     0.047 A 
BRANCH  20  22
ATOM     22  O   UNL A   1      40.425  22.406  26.880  1.00  0.00    -0.410 OA
BRANCH  22  23
ATOM     23  C   UNL A   1      41.743  22.335  26.442  1.00  0.00     0.412 C 
ATOM     24  O   UNL A   1      42.120  22.015  25.318  1.00  0.00    -0.224 OA
ATOM     25  N   UNL A   1      42.665  22.650  27.405  1.00  0.00    -0.318 N 
ATOM     26  H   UNL A   1      43.606  22.556  27.128  1.00  0.00     0.167 HD
BRANCH  25  27
ATOM     27  C   UNL A   1      42.470  23.094  28.744  1.00  0.00     0.085 C 
ATOM     28  C   UNL A   1      43.508  23.202  29.824  1.00  0.00     0.027 C 
ATOM     29  C   UNL A   1      43.021  24.441  29.139  1.00  0.00     0.027 C 
ENDBRANCH  25  27
ENDBRANCH  22  23
ENDBRANCH  20  22
ENDBRANCH  14  16
ENDBRANCH   7   9
ENDBRANCH   4   7
ENDBRANCH   2   3
ENDBRANCH   1   2
BRANCH   1  30
ATOM     30  C   UNL A   1      32.497  29.486  27.271  1.00  0.00     0.002 C 
BRANCH  30  31
ATOM     31  C   UNL A   1      31.949  30.420  26.190  1.00  0.00     0.002 C 
BRANCH  31  32
ATOM     32  C   UNL A   1      31.588  31.819  26.690  1.00  0.00     0.021 C 
BRANCH  32  33
ATOM     33  C   UNL A   1      32.747  32.553  27.352  1.00  0.00     0.116 C 
BRANCH  33  34
ATOM     34  N   UNL A   1      32.432  33.952  27.595  1.00  0.00    -0.352 N 
ATOM     35  C   UNL A   1      32.995  34.810  28.507  1.00  0.00     0.251 C 
ATOM     36  H   UNL A   1      31.721  34.335  27.032  1.00  0.00     0.163 HD
ATOM     37  O   UNL A   1      32.483  35.897  28.750  1.00  0.00    -0.269 OA
BRANCH  35  38
ATOM     38  C   UNL A   1      34.223  34.391  29.208  1.00  0.00     0.039 A 
ATOM     39  C   UNL A   1      34.128  33.838  30.486  1.00  0.00     0.014 A 
ATOM     40  C   UNL A   1      35.462  34.512  28.574  1.00  0.00     0.014 A 
ATOM     41  C   UNL A   1      35.276  33.342  31.106  1.00  0.00     0.010 A 
ATOM     42  C   UNL A   1      36.588  33.946  29.156  1.00  0.00     0.010 A 
ATOM     43  C   UNL A   1      36.507  33.360  30.430  1.00  0.00    -0.014 A 
BRANCH  43  44
ATOM     44  C   UNL A   1      37.740  32.790  31.027  1.00  0.00     0.031 A 
ATOM     45  C   UNL A   1      38.365  31.571  30.413  1.00  0.00     0.074 A 
ATOM     46  C   UNL A   1      38.225  33.295  32.176  1.00  0.00     0.049 A 
ATOM     47  N   UNL A   1      39.337  30.822  30.862  1.00  0.00    -0.248 NA
ATOM     48  C   UNL A   1      37.788  31.113  29.139  1.00  0.00     0.031 C 
ATOM     49  C   UNL A   1      37.680  34.449  32.892  1.00  0.00     0.029 A 
ATOM     50  N   UNL A   1      39.270  32.877  32.963  1.00  0.00    -0.354 N 
ATOM     51  C   UNL A   1      39.470  29.790  29.943  1.00  0.00     0.074 A 
ATOM     52  C   UNL A   1      38.442  29.979  28.942  1.00  0.00     0.031 C 
ATOM     53  C   UNL A   1      38.394  34.647  34.011  1.00  0.00     0.029 A 
ATOM     54  C   UNL A   1      39.413  33.605  34.118  1.00  0.00     0.049 A 
ATOM     55  H   UNL A   1      39.860  32.126  32.722  1.00  0.00     0.167 HD
ATOM     56  C   UNL A   1      40.376  28.784  29.926  1.00  0.00     0.037 A 
ATOM     57  C   UNL A   1      40.250  33.438  35.160  1.00  0.00     0.037 A 
ATOM     58  C   UNL A   1      41.405  28.614  30.918  1.00  0.00     0.049 A 
ATOM     59  C   UNL A   1      41.243  32.310  35.133  1.00  0.00     0.074 A 
ATOM     60  C   UNL A   1      42.416  27.673  30.957  1.00  0.00     0.029 A 
ATOM     61  N   UNL A   1      41.542  29.399  32.055  1.00  0.00    -0.354 N 
ATOM     62  N   UNL A   1      41.408  31.380  34.223  1.00  0.00    -0.248 NA
ATOM     63  C   UNL A   1      42.168  32.208  36.270  1.00  0.00     0.031 C 
ATOM     64  C   UNL A   1      43.127  27.847  32.149  1.00  0.00     0.029 A 
ATOM     65  C   UNL A   1      42.602  28.941  32.819  1.00  0.00     0.049 A 
ATOM     66  H   UNL A   1      40.970  30.167  32.283  1.00  0.00     0.167 HD
ATOM     67  C   UNL A   1      42.473  30.602  34.659  1.00  0.00     0.074 A 
ATOM     68  C   UNL A   1      42.915  31.169  35.918  1.00  0.00     0.031 C 
ATOM     69  C   UNL A   1      43.037  29.521  34.066  1.00  0.00     0.037 A 
BRANCH  56  70
ATOM     70  C   UNL A   1      40.273  27.783  28.810  1.00  0.00     0.057 A 
ATOM     71  C   UNL A   1      39.532  26.599  28.935  1.00  0.00     0.134 A 
ATOM     72  C   UNL A   1      40.932  28.003  27.594  1.00  0.00     0.134 A 
ATOM     73  F   UNL A   1      38.883  26.320  30.076  1.00  0.00    -0.206 F 
ATOM     74  C   UNL A   1      39.494  25.649  27.913  1.00  0.00     0.040 A 
ATOM     75  C   UNL A   1      40.872  27.077  26.551  1.00  0.00     0.040 A 
ATOM     76  F   UNL A   1      41.651  29.119  27.399  1.00  0.00    -0.206 F 
ATOM     77  C   UNL A   1      40.162  25.889  26.715  1.00  0.00     0.006 A 
ENDBRANCH  56  70
BRANCH  57  78
ATOM     78  C   UNL A   1      40.176  34.374  36.310  1.00  0.00     0.057 A 
ATOM     79  C   UNL A   1      40.947  35.540  36.347  1.00  0.00     0.134 A 
ATOM     80  C   UNL A   1      39.299  34.146  37.379  1.00  0.00     0.134 A 
ATOM     81  F   UNL A   1      41.817  35.805  35.360  1.00  0.00    -0.206 F 
ATOM     82  C   UNL A   1      40.855  36.445  37.406  1.00  0.00     0.040 A 
ATOM     83  C   UNL A   1      39.179  35.054  38.432  1.00  0.00     0.040 A 
ATOM     84  F   UNL A   1      38.523  33.053  37.398  1.00  0.00    -0.206 F 
ATOM     85  C   UNL A   1      39.961  36.207  38.448  1.00  0.00     0.006 A 
ENDBRANCH  57  78
BRANCH  69  86
ATOM     86  C   UNL A   1      44.226  28.896  34.735  1.00  0.00     0.057 A 
ATOM     87  C   UNL A   1      45.525  29.382  34.549  1.00  0.00     0.134 A 
ATOM     88  C   UNL A   1      44.051  27.849  35.651  1.00  0.00     0.134 A 
ATOM     89  F   UNL A   1      45.762  30.373  33.677  1.00  0.00    -0.206 F 
ATOM     90  C   UNL A   1      46.609  28.848  35.250  1.00  0.00     0.040 A 
ATOM     91  C   UNL A   1      45.121  27.327  36.377  1.00  0.00     0.040 A 
ATOM     92  F   UNL A   1      42.830  27.343  35.882  1.00  0.00    -0.206 F 
ATOM     93  C   UNL A   1      46.406  27.827  36.177  1.00  0.00     0.006 A 
ENDBRANCH  69  86
ENDBRANCH  43  44
ENDBRANCH  35  38
ENDBRANCH  33  34
ENDBRANCH  32  33
ENDBRANCH  31  32
ENDBRANCH  30  31
ENDBRANCH   1  30
TORSDOF 18
ENDMDL
MODEL 2
REMARK VINA RESULT:     -11.6      2.729     10.847
REMARK SMILES C[C@@H](C(=O)NCCCCCCNC(=O)c1ccc(-c2c3nc(c(-c4c(F)cccc4F)c4ccc([nH]4)c(-c4c(F)cccc4F)c4nc(c(-c5c(F)cccc5F)c5ccc2[nH]5)C=C4)C=C3)cc1)c1ccc(-c2cccc(OC(=O)NC3CC3)c2)c(F)c1
REMARK SMILES IDX 7 1 6 2 5 3 3 4 4 5 2 7 1 8 69 9 70 10 88 11 71 12 86 13
REMARK SMILES IDX 72 14 87 15 73 16 74 17 85 18 75 19 77 20 76 21 78 22 79 23
REMARK SMILES IDX 80 24 81 25 82 27 83 28 84 29 8 30 9 31 10 32 11 33 12 34
REMARK SMILES IDX 13 35 14 37 15 38 16 39 68 40 17 41 67 42 18 43 19 44 20 45
REMARK SMILES IDX 61 46 21 47 66 48 60 49 62 50 22 51 65 52 59 53 58 54 23 56
REMARK SMILES IDX 49 57 32 58 48 59 33 60 36 61 47 62 63 63 34 64 35 65 46 67
REMARK SMILES IDX 64 68 37 69 24 70 25 71 30 72 26 73 27 74 29 75 31 76 28 77
REMARK SMILES IDX 50 78 51 79 56 80 52 81 53 82 55 83 57 84 54 85 38 86 39 87
REMARK SMILES IDX 44 88 40 89 41 90 43 91 45 92 42 93
REMARK H PARENT 5 6 81 26 12 36 62 55 36 66
REMARK Flexibility Score: inf
ROOT
ATOM      1  C   UNL A   1      43.766  23.769  30.026  1.00  0.00     0.021 C 
ENDROOT
BRANCH   1   2
ATOM      2  C   UNL A   1      42.644  23.002  29.319  1.00  0.00     0.116 C 
BRANCH   2   3
ATOM      3  N   UNL A   1      42.729  23.224  27.892  1.00  0.00    -0.356 N 
ATOM      4  C   UNL A   1      42.271  22.443  26.871  1.00  0.00     0.227 C 
ATOM      5  O   UNL A   1      42.723  22.677  25.749  1.00  0.00    -0.274 OA
ATOM      6  H   UNL A   1      43.178  24.056  27.620  1.00  0.00     0.163 HD
BRANCH   4   7
ATOM      7  C   UNL A   1      41.200  21.371  27.150  1.00  0.00     0.105 C 
ATOM      8  C   UNL A   1      41.714  19.976  26.766  1.00  0.00     0.023 C 
BRANCH   7   9
ATOM      9  C   UNL A   1      39.866  21.721  26.484  1.00  0.00    -0.033 A 
ATOM     10  C   UNL A   1      39.219  22.947  26.692  1.00  0.00     0.005 A 
ATOM     11  C   UNL A   1      39.235  20.778  25.654  1.00  0.00     0.044 A 
ATOM     12  C   UNL A   1      37.968  23.207  26.135  1.00  0.00     0.012 A 
ATOM     13  C   UNL A   1      37.975  21.037  25.114  1.00  0.00     0.131 A 
ATOM     14  C   UNL A   1      37.313  22.245  25.356  1.00  0.00     0.018 A 
ATOM     15  F   UNL A   1      37.394  20.083  24.371  1.00  0.00    -0.206 F 
BRANCH  14  16
ATOM     16  C   UNL A   1      35.935  22.493  24.925  1.00  0.00    -0.012 A 
ATOM     17  C   UNL A   1      34.891  21.624  25.275  1.00  0.00     0.009 A 
ATOM     18  C   UNL A   1      35.666  23.559  24.050  1.00  0.00     0.056 A 
ATOM     19  C   UNL A   1      33.609  21.804  24.755  1.00  0.00     0.004 A 
ATOM     20  C   UNL A   1      34.391  23.728  23.524  1.00  0.00     0.133 A 
ATOM     21  C   UNL A   1      33.360  22.853  23.872  1.00  0.00     0.047 A 
BRANCH  20  22
ATOM     22  O   UNL A   1      34.037  24.745  22.606  1.00  0.00    -0.410 OA
BRANCH  22  23
ATOM     23  C   UNL A   1      33.101  24.651  21.581  1.00  0.00     0.412 C 
ATOM     24  O   UNL A   1      33.270  24.121  20.487  1.00  0.00    -0.224 OA
ATOM     25  N   UNL A   1      31.898  25.237  21.875  1.00  0.00    -0.318 N 
ATOM     26  H   UNL A   1      31.239  25.225  21.143  1.00  0.00     0.167 HD
BRANCH  25  27
ATOM     27  C   UNL A   1      31.454  25.858  23.077  1.00  0.00     0.085 C 
ATOM     28  C   UNL A   1      30.414  26.932  23.214  1.00  0.00     0.027 C 
ATOM     29  C   UNL A   1      30.077  25.523  23.590  1.00  0.00     0.027 C 
ENDBRANCH  25  27
ENDBRANCH  22  23
ENDBRANCH  20  22
ENDBRANCH  14  16
ENDBRANCH   7   9
ENDBRANCH   4   7
ENDBRANCH   2   3
ENDBRANCH   1   2
BRANCH   1  30
ATOM     30  C   UNL A   1      44.153  23.172  31.385  1.00  0.00     0.002 C 
BRANCH  30  31
ATOM     31  C   UNL A   1      44.700  24.187  32.393  1.00  0.00     0.002 C 
BRANCH  31  32
ATOM     32  C   UNL A   1      45.326  23.561  33.640  1.00  0.00     0.021 C 
BRANCH  32  33
ATOM     33  C   UNL A   1      46.675  24.161  34.015  1.00  0.00     0.116 C 
BRANCH  33  34
ATOM     34  N   UNL A   1      46.779  24.400  35.447  1.00  0.00    -0.352 N 
ATOM     35  C   UNL A   1      46.252  25.433  36.182  1.00  0.00     0.251 C 
ATOM     36  H   UNL A   1      47.295  23.734  35.955  1.00  0.00     0.163 HD
ATOM     37  O   UNL A   1      46.601  25.623  37.342  1.00  0.00    -0.269 OA
BRANCH  35  38
ATOM     38  C   UNL A   1      45.268  26.326  35.544  1.00  0.00     0.039 A 
ATOM     39  C   UNL A   1      45.713  27.463  34.865  1.00  0.00     0.014 A 
ATOM     40  C   UNL A   1      43.908  26.008  35.587  1.00  0.00     0.014 A 
ATOM     41  C   UNL A   1      44.794  28.250  34.170  1.00  0.00     0.010 A 
ATOM     42  C   UNL A   1      43.009  26.745  34.828  1.00  0.00     0.010 A 
ATOM     43  C   UNL A   1      43.441  27.875  34.117  1.00  0.00    -0.014 A 
BRANCH  43  44
ATOM     44  C   UNL A   1      42.442  28.650  33.340  1.00  0.00     0.031 A 
ATOM     45  C   UNL A   1      41.543  29.620  34.051  1.00  0.00     0.074 A 
ATOM     46  C   UNL A   1      42.268  28.399  32.030  1.00  0.00     0.049 A 
ATOM     47  N   UNL A   1      40.504  30.271  33.599  1.00  0.00    -0.248 NA
ATOM     48  C   UNL A   1      41.832  29.856  35.474  1.00  0.00     0.031 C 
ATOM     49  C   UNL A   1      43.049  27.449  31.238  1.00  0.00     0.029 A 
ATOM     50  N   UNL A   1      41.350  28.899  31.140  1.00  0.00    -0.354 N 
ATOM     51  C   UNL A   1      39.998  30.971  34.686  1.00  0.00     0.074 A 
ATOM     52  C   UNL A   1      40.811  30.620  35.831  1.00  0.00     0.031 C 
ATOM     53  C   UNL A   1      42.579  27.435  29.981  1.00  0.00     0.029 A 
ATOM     54  C   UNL A   1      41.432  28.336  29.891  1.00  0.00     0.049 A 
ATOM     55  H   UNL A   1      40.695  29.597  31.375  1.00  0.00     0.167 HD
ATOM     56  C   UNL A   1      38.960  31.839  34.724  1.00  0.00     0.037 A 
ATOM     57  C   UNL A   1      40.656  28.502  28.803  1.00  0.00     0.037 A 
ATOM     58  C   UNL A   1      38.168  32.194  33.576  1.00  0.00     0.049 A 
ATOM     59  C   UNL A   1      39.499  29.461  28.864  1.00  0.00     0.074 A 
ATOM     60  C   UNL A   1      37.141  33.115  33.489  1.00  0.00     0.029 A 
ATOM     61  N   UNL A   1      38.308  31.629  32.316  1.00  0.00    -0.354 N 
ATOM     62  N   UNL A   1      39.073  30.173  29.878  1.00  0.00    -0.248 NA
ATOM     63  C   UNL A   1      38.720  29.645  27.632  1.00  0.00     0.031 C 
ATOM     64  C   UNL A   1      36.617  33.062  32.194  1.00  0.00     0.029 A 
ATOM     65  C   UNL A   1      37.363  32.159  31.454  1.00  0.00     0.049 A 
ATOM     66  H   UNL A   1      38.981  30.952  32.071  1.00  0.00     0.167 HD
ATOM     67  C   UNL A   1      37.997  30.912  29.403  1.00  0.00     0.074 A 
ATOM     68  C   UNL A   1      37.835  30.561  28.006  1.00  0.00     0.031 C 
ATOM     69  C   UNL A   1      37.220  31.806  30.062  1.00  0.00     0.037 A 
BRANCH  56  70
ATOM     70  C   UNL A   1      38.616  32.442  36.057  1.00  0.00     0.057 A 
ATOM     71  C   UNL A   1      38.948  33.764  36.387  1.00  0.00     0.134 A 
ATOM     72  C   UNL A   1      37.949  31.686  37.029  1.00  0.00     0.134 A 
ATOM     73  F   UNL A   1      39.595  34.543  35.506  1.00  0.00    -0.206 F 
ATOM     74  C   UNL A   1      38.676  34.293  37.649  1.00  0.00     0.040 A 
ATOM     75  C   UNL A   1      37.639  32.216  38.283  1.00  0.00     0.040 A 
ATOM     76  F   UNL A   1      37.591  30.417  36.780  1.00  0.00    -0.206 F 
ATOM     77  C   UNL A   1      38.016  33.519  38.601  1.00  0.00     0.006 A 
ENDBRANCH  56  70
BRANCH  57  78
ATOM     78  C   UNL A   1      40.961  27.738  27.567  1.00  0.00     0.057 A 
ATOM     79  C   UNL A   1      41.866  28.226  26.619  1.00  0.00     0.134 A 
ATOM     80  C   UNL A   1      40.389  26.482  27.327  1.00  0.00     0.134 A 
ATOM     81  F   UNL A   1      42.435  29.429  26.785  1.00  0.00    -0.206 F 
ATOM     82  C   UNL A   1      42.189  27.496  25.473  1.00  0.00     0.040 A 
ATOM     83  C   UNL A   1      40.721  25.731  26.199  1.00  0.00     0.040 A 
ATOM     84  F   UNL A   1      39.523  25.954  28.204  1.00  0.00    -0.206 F 
ATOM     85  C   UNL A   1      41.622  26.240  25.266  1.00  0.00     0.006 A 
ENDBRANCH  57  78
BRANCH  69  86
ATOM     86  C   UNL A   1      36.148  32.511  29.284  1.00  0.00     0.057 A 
ATOM     87  C   UNL A   1      34.949  31.882  28.930  1.00  0.00     0.134 A 
ATOM     88  C   UNL A   1      36.283  33.870  28.968  1.00  0.00     0.134 A 
ATOM     89  F   UNL A   1      34.761  30.580  29.192  1.00  0.00    -0.206 F 
ATOM     90  C   UNL A   1      33.923  32.579  28.288  1.00  0.00     0.040 A 
ATOM     91  C   UNL A   1      35.256  34.584  28.352  1.00  0.00     0.040 A 
ATOM     92  F   UNL A   1      37.405  34.535  29.287  1.00  0.00    -0.206 F 
ATOM     93  C   UNL A   1      34.070  33.937  28.010  1.00  0.00     0.006 A 
ENDBRANCH  69  86
ENDBRANCH  43  44
ENDBRANCH  35  38
ENDBRANCH  33  34
ENDBRANCH  32  33
ENDBRANCH  31  32
ENDBRANCH  30  31
ENDBRANCH   1  30
TORSDOF 18
ENDMDL
MODEL 3
REMARK VINA RESULT:     -11.5      0.862      5.996
REMARK SMILES C[C@@H](C(=O)NCCCCCCNC(=O)c1ccc(-c2c3nc(c(-c4c(F)cccc4F)c4ccc([nH]4)c(-c4c(F)cccc4F)c4nc(c(-c5c(F)cccc5F)c5ccc2[nH]5)C=C4)C=C3)cc1)c1ccc(-c2cccc(OC(=O)NC3CC3)c2)c(F)c1
REMARK SMILES IDX 7 1 6 2 5 3 3 4 4 5 2 7 1 8 69 9 70 10 88 11 71 12 86 13
REMARK SMILES IDX 72 14 87 15 73 16 74 17 85 18 75 19 77 20 76 21 78 22 79 23
REMARK SMILES IDX 80 24 81 25 82 27 83 28 84 29 8 30 9 31 10 32 11 33 12 34
REMARK SMILES IDX 13 35 14 37 15 38 16 39 68 40 17 41 67 42 18 43 19 44 20 45
REMARK SMILES IDX 61 46 21 47 66 48 60 49 62 50 22 51 65 52 59 53 58 54 23 56
REMARK SMILES IDX 49 57 32 58 48 59 33 60 36 61 47 62 63 63 34 64 35 65 46 67
REMARK SMILES IDX 64 68 37 69 24 70 25 71 30 72 26 73 27 74 29 75 31 76 28 77
REMARK SMILES IDX 50 78 51 79 56 80 52 81 53 82 55 83 57 84 54 85 38 86 39 87
REMARK SMILES IDX 44 88 40 89 41 90 43 91 45 92 42 93
REMARK H PARENT 5 6 81 26 12 36 62 55 36 66
REMARK Flexibility Score: inf
ROOT
ATOM      1  C   UNL A   1      31.383  28.570  26.873  1.00  0.00     0.021 C 
ENDROOT
BRANCH   1   2
ATOM      2  C   UNL A   1      32.164  27.295  26.539  1.00  0.00     0.116 C 
BRANCH   2   3
ATOM      3  N   UNL A   1      31.384  26.136  26.916  1.00  0.00    -0.356 N 
ATOM      4  C   UNL A   1      30.953  25.100  26.140  1.00  0.00     0.227 C 
ATOM      5  O   UNL A   1      30.055  24.395  26.605  1.00  0.00    -0.274 OA
ATOM      6  H   UNL A   1      31.130  26.088  27.865  1.00  0.00     0.163 HD
BRANCH   4   7
ATOM      7  C   UNL A   1      31.626  24.832  24.779  1.00  0.00     0.105 C 
ATOM      8  C   UNL A   1      30.692  24.033  23.859  1.00  0.00     0.023 C 
BRANCH   7   9
ATOM      9  C   UNL A   1      33.000  24.178  24.949  1.00  0.00    -0.033 A 
ATOM     10  C   UNL A   1      34.053  24.393  24.049  1.00  0.00     0.005 A 
ATOM     11  C   UNL A   1      33.224  23.302  26.026  1.00  0.00     0.044 A 
ATOM     12  C   UNL A   1      35.269  23.723  24.187  1.00  0.00     0.012 A 
ATOM     13  C   UNL A   1      34.437  22.622  26.147  1.00  0.00     0.131 A 
ATOM     14  C   UNL A   1      35.472  22.806  25.225  1.00  0.00     0.018 A 
ATOM     15  F   UNL A   1      34.580  21.758  27.164  1.00  0.00    -0.206 F 
BRANCH  14  16
ATOM     16  C   UNL A   1      36.698  22.006  25.241  1.00  0.00    -0.012 A 
ATOM     17  C   UNL A   1      36.713  20.680  24.781  1.00  0.00     0.009 A 
ATOM     18  C   UNL A   1      37.859  22.532  25.830  1.00  0.00     0.056 A 
ATOM     19  C   UNL A   1      37.856  19.892  24.918  1.00  0.00     0.004 A 
ATOM     20  C   UNL A   1      38.992  21.741  25.977  1.00  0.00     0.133 A 
ATOM     21  C   UNL A   1      38.994  20.420  25.523  1.00  0.00     0.047 A 
BRANCH  20  22
ATOM     22  O   UNL A   1      40.190  22.170  26.593  1.00  0.00    -0.410 OA
BRANCH  22  23
ATOM     23  C   UNL A   1      41.206  21.361  27.092  1.00  0.00     0.412 C 
ATOM     24  O   UNL A   1      41.112  20.564  28.021  1.00  0.00    -0.224 OA
ATOM     25  N   UNL A   1      42.407  21.523  26.454  1.00  0.00    -0.318 N 
ATOM     26  H   UNL A   1      43.151  20.995  26.825  1.00  0.00     0.167 HD
BRANCH  25  27
ATOM     27  C   UNL A   1      42.743  22.336  25.334  1.00  0.00     0.085 C 
ATOM     28  C   UNL A   1      43.201  23.766  25.355  1.00  0.00     0.027 C 
ATOM     29  C   UNL A   1      44.194  22.674  25.104  1.00  0.00     0.027 C 
ENDBRANCH  25  27
ENDBRANCH  22  23
ENDBRANCH  20  22
ENDBRANCH  14  16
ENDBRANCH   7   9
ENDBRANCH   4   7
ENDBRANCH   2   3
ENDBRANCH   1   2
BRANCH   1  30
ATOM     30  C   UNL A   1      32.227  29.848  26.774  1.00  0.00     0.002 C 
BRANCH  30  31
ATOM     31  C   UNL A   1      31.576  30.979  25.975  1.00  0.00     0.002 C 
BRANCH  31  32
ATOM     32  C   UNL A   1      31.364  32.269  26.769  1.00  0.00     0.021 C 
BRANCH  32  33
ATOM     33  C   UNL A   1      32.652  32.877  27.308  1.00  0.00     0.116 C 
BRANCH  33  34
ATOM     34  N   UNL A   1      32.480  34.277  27.663  1.00  0.00    -0.352 N 
ATOM     35  C   UNL A   1      33.090  34.985  28.669  1.00  0.00     0.251 C 
ATOM     36  H   UNL A   1      31.842  34.784  27.111  1.00  0.00     0.163 HD
ATOM     37  O   UNL A   1      32.690  36.099  28.989  1.00  0.00    -0.269 OA
BRANCH  35  38
ATOM     38  C   UNL A   1      34.231  34.373  29.375  1.00  0.00     0.039 A 
ATOM     39  C   UNL A   1      34.003  33.648  30.547  1.00  0.00     0.014 A 
ATOM     40  C   UNL A   1      35.519  34.486  28.846  1.00  0.00     0.014 A 
ATOM     41  C   UNL A   1      35.065  32.978  31.156  1.00  0.00     0.010 A 
ATOM     42  C   UNL A   1      36.556  33.753  29.406  1.00  0.00     0.010 A 
ATOM     43  C   UNL A   1      36.341  32.996  30.569  1.00  0.00    -0.014 A 
BRANCH  43  44
ATOM     44  C   UNL A   1      37.483  32.249  31.151  1.00  0.00     0.031 A 
ATOM     45  C   UNL A   1      38.170  32.783  32.375  1.00  0.00     0.074 A 
ATOM     46  C   UNL A   1      37.969  31.165  30.519  1.00  0.00     0.049 A 
ATOM     47  N   UNL A   1      39.276  32.383  32.945  1.00  0.00    -0.248 NA
ATOM     48  C   UNL A   1      37.546  33.950  33.018  1.00  0.00     0.031 C 
ATOM     49  C   UNL A   1      37.415  30.576  29.299  1.00  0.00     0.029 A 
ATOM     50  N   UNL A   1      39.064  30.385  30.799  1.00  0.00    -0.354 N 
ATOM     51  C   UNL A   1      39.496  33.264  33.996  1.00  0.00     0.074 A 
ATOM     52  C   UNL A   1      38.439  34.252  33.947  1.00  0.00     0.031 C 
ATOM     53  C   UNL A   1      38.172  29.529  28.936  1.00  0.00     0.029 A 
ATOM     54  C   UNL A   1      39.292  29.404  29.866  1.00  0.00     0.049 A 
ATOM     55  H   UNL A   1      39.632  30.517  31.592  1.00  0.00     0.167 HD
ATOM     56  C   UNL A   1      40.479  33.243  34.925  1.00  0.00     0.037 A 
ATOM     57  C   UNL A   1      40.302  28.520  29.755  1.00  0.00     0.037 A 
ATOM     58  C   UNL A   1      41.516  32.246  34.974  1.00  0.00     0.049 A 
ATOM     59  C   UNL A   1      41.394  28.517  30.788  1.00  0.00     0.074 A 
ATOM     60  C   UNL A   1      42.519  32.092  35.913  1.00  0.00     0.029 A 
ATOM     61  N   UNL A   1      41.690  31.242  34.032  1.00  0.00    -0.354 N 
ATOM     62  N   UNL A   1      41.554  29.310  31.819  1.00  0.00    -0.248 NA
ATOM     63  C   UNL A   1      42.441  27.496  30.648  1.00  0.00     0.031 C 
ATOM     64  C   UNL A   1      43.337  31.034  35.506  1.00  0.00     0.029 A 
ATOM     65  C   UNL A   1      42.804  30.485  34.350  1.00  0.00     0.049 A 
ATOM     66  H   UNL A   1      41.107  31.091  33.253  1.00  0.00     0.167 HD
ATOM     67  C   UNL A   1      42.700  28.868  32.469  1.00  0.00     0.074 A 
ATOM     68  C   UNL A   1      43.195  27.735  31.714  1.00  0.00     0.031 C 
ATOM     69  C   UNL A   1      43.282  29.353  33.593  1.00  0.00     0.037 A 
BRANCH  56  70
ATOM     70  C   UNL A   1      40.486  34.347  35.945  1.00  0.00     0.057 A 
ATOM     71  C   UNL A   1      39.781  34.251  37.154  1.00  0.00     0.134 A 
ATOM     72  C   UNL A   1      41.201  35.528  35.711  1.00  0.00     0.134 A 
ATOM     73  F   UNL A   1      39.067  33.151  37.440  1.00  0.00    -0.206 F 
ATOM     74  C   UNL A   1      39.746  35.306  38.066  1.00  0.00     0.040 A 
ATOM     75  C   UNL A   1      41.203  36.576  36.632  1.00  0.00     0.040 A 
ATOM     76  F   UNL A   1      41.906  35.686  34.581  1.00  0.00    -0.206 F 
ATOM     77  C   UNL A   1      40.462  36.473  37.808  1.00  0.00     0.006 A 
ENDBRANCH  56  70
BRANCH  57  78
ATOM     78  C   UNL A   1      40.313  27.568  28.616  1.00  0.00     0.057 A 
ATOM     79  C   UNL A   1      39.605  26.362  28.673  1.00  0.00     0.134 A 
ATOM     80  C   UNL A   1      40.996  27.859  27.429  1.00  0.00     0.134 A 
ATOM     81  F   UNL A   1      38.945  26.020  29.790  1.00  0.00    -0.206 F 
ATOM     82  C   UNL A   1      39.578  25.479  27.593  1.00  0.00     0.040 A 
ATOM     83  C   UNL A   1      40.957  26.997  26.332  1.00  0.00     0.040 A 
ATOM     84  F   UNL A   1      41.684  29.004  27.307  1.00  0.00    -0.206 F 
ATOM     85  C   UNL A   1      40.248  25.800  26.414  1.00  0.00     0.006 A 
ENDBRANCH  57  78
BRANCH  69  86
ATOM     86  C   UNL A   1      44.496  28.642  34.116  1.00  0.00     0.057 A 
ATOM     87  C   UNL A   1      45.795  29.061  33.804  1.00  0.00     0.134 A 
ATOM     88  C   UNL A   1      44.358  27.581  35.021  1.00  0.00     0.134 A 
ATOM     89  F   UNL A   1      45.996  30.063  32.935  1.00  0.00    -0.206 F 
ATOM     90  C   UNL A   1      46.914  28.448  34.373  1.00  0.00     0.040 A 
ATOM     91  C   UNL A   1      45.466  26.979  35.617  1.00  0.00     0.040 A 
ATOM     92  F   UNL A   1      43.140  27.137  35.369  1.00  0.00    -0.206 F 
ATOM     93  C   UNL A   1      46.750  27.413  35.292  1.00  0.00     0.006 A 
ENDBRANCH  69  86
ENDBRANCH  43  44
ENDBRANCH  35  38
ENDBRANCH  33  34
ENDBRANCH  32  33
ENDBRANCH  31  32
ENDBRANCH  30  31
ENDBRANCH   1  30
TORSDOF 18
ENDMDL
