MODEL 1
REMARK VINA RESULT:     -11.6      0.000      0.000
REMARK SMILES O=C(NCCCCCCNC(=O)c1ccc(Br)c(NC(=S)NC(=O)c2cccs2)c1)c1ccc(-c2c3nc(c(-c4c(F)cccc4F)c4ccc([nH]4)c(-c4c(F)cccc4F)c4nc(c(-c5c(F)cccc5F)c5ccc2[nH]5)C=C4)C=C3)cc1
REMARK SMILES IDX 7 1 6 2 5 3 4 4 3 5 1 6 2 7 31 9 32 10 84 11 33 12 83 13
REMARK SMILES IDX 34 14 35 15 36 16 77 17 37 18 82 19 76 20 78 21 38 22 81 23
REMARK SMILES IDX 75 24 74 25 39 27 65 28 48 29 64 30 49 31 52 32 63 33 79 34
REMARK SMILES IDX 50 35 51 36 62 38 80 39 53 40 40 41 41 42 46 43 42 44 43 45
REMARK SMILES IDX 45 46 47 47 44 48 66 49 67 50 72 51 68 52 69 53 71 54 73 55
REMARK SMILES IDX 70 56 54 57 55 58 60 59 56 60 57 61 59 62 61 63 58 64 8 65
REMARK SMILES IDX 9 66 10 67 11 68 12 70 13 71 14 72 30 73 15 74 18 75 16 76
REMARK SMILES IDX 17 77 19 78 20 80 21 81 22 82 23 83 24 85 25 86 26 87 29 88
REMARK SMILES IDX 27 89 28 90
REMARK H PARENT 3 8 78 26 52 37 10 69 19 79 22 84
REMARK Flexibility Score: inf
ROOT
ATOM      1  C   UNL A   1      35.338  19.266  24.400  1.00  0.00     0.002 C 
ENDROOT
BRANCH   1   2
ATOM      2  C   UNL A   1      36.717  18.940  24.988  1.00  0.00     0.002 C 
BRANCH   2   3
ATOM      3  C   UNL A   1      37.803  19.948  24.630  1.00  0.00     0.021 C 
BRANCH   3   4
ATOM      4  C   UNL A   1      38.803  20.168  25.746  1.00  0.00     0.116 C 
BRANCH   4   5
ATOM      5  N   UNL A   1      39.800  19.113  25.787  1.00  0.00    -0.352 N 
ATOM      6  O   UNL A   1      41.914  18.307  25.752  1.00  0.00    -0.269 OA
ATOM      7  C   UNL A   1      41.154  19.244  25.960  1.00  0.00     0.251 C 
ATOM      8  H   UNL A   1      39.464  18.195  25.677  1.00  0.00     0.163 HD
BRANCH   7   9
ATOM      9  C   UNL A   1      41.674  20.553  26.397  1.00  0.00     0.039 A 
ATOM     10  C   UNL A   1      42.005  21.517  25.441  1.00  0.00     0.014 A 
ATOM     11  C   UNL A   1      41.862  20.801  27.757  1.00  0.00     0.014 A 
ATOM     12  C   UNL A   1      42.642  22.682  25.832  1.00  0.00     0.010 A 
ATOM     13  C   UNL A   1      42.389  22.028  28.157  1.00  0.00     0.010 A 
ATOM     14  C   UNL A   1      42.778  22.977  27.197  1.00  0.00    -0.014 A 
BRANCH  14  15
ATOM     15  C   UNL A   1      43.166  24.350  27.591  1.00  0.00     0.031 A 
ATOM     16  C   UNL A   1      42.149  25.373  27.991  1.00  0.00     0.074 A 
ATOM     17  C   UNL A   1      44.478  24.659  27.552  1.00  0.00     0.049 A 
ATOM     18  N   UNL A   1      42.337  26.629  28.302  1.00  0.00    -0.248 NA
ATOM     19  C   UNL A   1      40.743  24.943  28.049  1.00  0.00     0.031 C 
ATOM     20  C   UNL A   1      45.552  23.735  27.169  1.00  0.00     0.029 A 
ATOM     21  N   UNL A   1      45.137  25.828  27.830  1.00  0.00    -0.354 N 
ATOM     22  C   UNL A   1      41.079  27.149  28.566  1.00  0.00     0.074 A 
ATOM     23  C   UNL A   1      40.128  26.073  28.373  1.00  0.00     0.031 C 
ATOM     24  C   UNL A   1      46.730  24.362  27.261  1.00  0.00     0.029 A 
ATOM     25  C   UNL A   1      46.492  25.754  27.614  1.00  0.00     0.049 A 
ATOM     26  H   UNL A   1      44.684  26.641  28.152  1.00  0.00     0.167 HD
ATOM     27  C   UNL A   1      40.757  28.413  28.930  1.00  0.00     0.037 A 
ATOM     28  C   UNL A   1      47.437  26.710  27.640  1.00  0.00     0.037 A 
ATOM     29  C   UNL A   1      41.720  29.468  29.120  1.00  0.00     0.049 A 
ATOM     30  C   UNL A   1      47.030  28.113  27.983  1.00  0.00     0.074 A 
ATOM     31  C   UNL A   1      41.494  30.765  29.548  1.00  0.00     0.029 A 
ATOM     32  N   UNL A   1      43.080  29.363  28.868  1.00  0.00    -0.354 N 
ATOM     33  N   UNL A   1      45.847  28.572  28.314  1.00  0.00    -0.248 NA
ATOM     34  C   UNL A   1      48.083  29.136  27.952  1.00  0.00     0.031 C 
ATOM     35  C   UNL A   1      42.696  31.469  29.464  1.00  0.00     0.029 A 
ATOM     36  C   UNL A   1      43.691  30.589  29.072  1.00  0.00     0.049 A 
ATOM     37  H   UNL A   1      43.541  28.540  28.586  1.00  0.00     0.167 HD
ATOM     38  C   UNL A   1      46.019  29.927  28.550  1.00  0.00     0.074 A 
ATOM     39  C   UNL A   1      47.426  30.211  28.358  1.00  0.00     0.031 C 
ATOM     40  C   UNL A   1      45.094  30.857  28.884  1.00  0.00     0.037 A 
BRANCH  27  41
ATOM     41  C   UNL A   1      39.309  28.759  29.110  1.00  0.00     0.057 A 
ATOM     42  C   UNL A   1      38.656  28.633  30.341  1.00  0.00     0.134 A 
ATOM     43  C   UNL A   1      38.589  29.337  28.053  1.00  0.00     0.134 A 
ATOM     44  F   UNL A   1      39.285  28.088  31.393  1.00  0.00    -0.206 F 
ATOM     45  C   UNL A   1      37.338  29.062  30.514  1.00  0.00     0.040 A 
ATOM     46  C   UNL A   1      37.283  29.796  28.222  1.00  0.00     0.040 A 
ATOM     47  F   UNL A   1      39.160  29.497  26.849  1.00  0.00    -0.206 F 
ATOM     48  C   UNL A   1      36.653  29.658  29.456  1.00  0.00     0.006 A 
ENDBRANCH  27  41
BRANCH  28  49
ATOM     49  C   UNL A   1      48.839  26.393  27.264  1.00  0.00     0.057 A 
ATOM     50  C   UNL A   1      49.275  26.483  25.937  1.00  0.00     0.134 A 
ATOM     51  C   UNL A   1      49.764  25.936  28.213  1.00  0.00     0.134 A 
ATOM     52  F   UNL A   1      48.436  26.906  24.979  1.00  0.00    -0.206 F 
ATOM     53  C   UNL A   1      50.557  26.082  25.559  1.00  0.00     0.040 A 
ATOM     54  C   UNL A   1      51.063  25.575  27.858  1.00  0.00     0.040 A 
ATOM     55  F   UNL A   1      49.420  25.839  29.506  1.00  0.00    -0.206 F 
ATOM     56  C   UNL A   1      51.455  25.626  26.523  1.00  0.00     0.006 A 
ENDBRANCH  28  49
BRANCH  40  57
ATOM     57  C   UNL A   1      45.571  32.265  29.092  1.00  0.00     0.057 A 
ATOM     58  C   UNL A   1      46.164  32.674  30.293  1.00  0.00     0.134 A 
ATOM     59  C   UNL A   1      45.489  33.206  28.058  1.00  0.00     0.134 A 
ATOM     60  F   UNL A   1      46.260  31.826  31.329  1.00  0.00    -0.206 F 
ATOM     61  C   UNL A   1      46.643  33.974  30.464  1.00  0.00     0.040 A 
ATOM     62  C   UNL A   1      45.999  34.497  28.203  1.00  0.00     0.040 A 
ATOM     63  F   UNL A   1      44.941  32.878  26.878  1.00  0.00    -0.206 F 
ATOM     64  C   UNL A   1      46.572  34.885  29.412  1.00  0.00     0.006 A 
ENDBRANCH  40  57
ENDBRANCH  14  15
ENDBRANCH   7   9
ENDBRANCH   4   5
ENDBRANCH   3   4
ENDBRANCH   2   3
ENDBRANCH   1   2
BRANCH   1  65
ATOM     65  C   UNL A   1      34.230  18.263  24.750  1.00  0.00     0.021 C 
BRANCH  65  66
ATOM     66  C   UNL A   1      32.966  18.888  25.334  1.00  0.00     0.116 C 
BRANCH  66  67
ATOM     67  N   UNL A   1      33.280  19.752  26.448  1.00  0.00    -0.352 N 
ATOM     68  C   UNL A   1      33.507  21.097  26.532  1.00  0.00     0.251 C 
ATOM     69  H   UNL A   1      33.343  19.282  27.310  1.00  0.00     0.163 HD
ATOM     70  O   UNL A   1      33.998  21.469  27.592  1.00  0.00    -0.269 OA
BRANCH  68  71
ATOM     71  C   UNL A   1      33.111  22.015  25.313  1.00  0.00     0.041 A 
ATOM     72  C   UNL A   1      34.575  22.297  24.270  1.00  0.00     0.015 A 
ATOM     73  C   UNL A   1      31.420  22.977  24.637  1.00  0.00     0.041 A 
ATOM     74  C   UNL A   1      34.367  23.371  22.862  1.00  0.00     0.018 A 
ATOM     75  C   UNL A   1      31.367  24.036  23.380  1.00  0.00     0.055 A 
ATOM     76  C   UNL A   1      32.827  24.200  22.466  1.00  0.00     0.041 A 
ATOM     77  Br  UNL A   1      32.860  25.457  21.048  1.00  0.00    -0.049 Br
BRANCH  75  78
ATOM     78  N   UNL A   1      30.191  24.806  23.524  1.00  0.00    -0.331 N 
ATOM     79  H   UNL A   1      29.405  24.460  23.044  1.00  0.00     0.169 HD
BRANCH  78  80
ATOM     80  C   UNL A   1      29.976  25.985  24.248  1.00  0.00     0.177 C 
ATOM     81  S   UNL A   1      29.902  25.824  25.921  1.00  0.00    -0.040 S 
BRANCH  80  82
ATOM     82  N   UNL A   1      29.827  27.346  23.751  1.00  0.00    -0.298 N 
ATOM     83  C   UNL A   1      30.241  28.822  23.619  1.00  0.00     0.267 C 
ATOM     84  H   UNL A   1      29.017  27.292  23.194  1.00  0.00     0.172 HD
ATOM     85  O   UNL A   1      29.435  29.592  23.099  1.00  0.00    -0.268 OA
BRANCH  83  86
ATOM     86  C   UNL A   1      31.635  29.253  24.086  1.00  0.00     0.092 A 
ATOM     87  C   UNL A   1      32.879  28.459  23.228  1.00  0.00     0.025 A 
ATOM     88  S   UNL A   1      31.793  29.106  26.391  1.00  0.00    -0.139 S 
ATOM     89  C   UNL A   1      33.899  27.260  24.308  1.00  0.00     0.012 A 
ATOM     90  C   UNL A   1      33.419  27.437  26.226  1.00  0.00     0.065 A 
ENDBRANCH  83  86
ENDBRANCH  80  82
ENDBRANCH  78  80
ENDBRANCH  75  78
ENDBRANCH  68  71
ENDBRANCH  66  67
ENDBRANCH  65  66
ENDBRANCH   1  65
TORSDOF 17
ENDMDL
MODEL 2
REMARK VINA RESULT:     -11.3      1.436      2.302
REMARK SMILES O=C(NCCCCCCNC(=O)c1ccc(Br)c(NC(=S)NC(=O)c2cccs2)c1)c1ccc(-c2c3nc(c(-c4c(F)cccc4F)c4ccc([nH]4)c(-c4c(F)cccc4F)c4nc(c(-c5c(F)cccc5F)c5ccc2[nH]5)C=C4)C=C3)cc1
REMARK SMILES IDX 7 1 6 2 5 3 4 4 3 5 1 6 2 7 31 9 32 10 84 11 33 12 83 13
REMARK SMILES IDX 34 14 35 15 36 16 77 17 37 18 82 19 76 20 78 21 38 22 81 23
REMARK SMILES IDX 75 24 74 25 39 27 65 28 48 29 64 30 49 31 52 32 63 33 79 34
REMARK SMILES IDX 50 35 51 36 62 38 80 39 53 40 40 41 41 42 46 43 42 44 43 45
REMARK SMILES IDX 45 46 47 47 44 48 66 49 67 50 72 51 68 52 69 53 71 54 73 55
REMARK SMILES IDX 70 56 54 57 55 58 60 59 56 60 57 61 59 62 61 63 58 64 8 65
REMARK SMILES IDX 9 66 10 67 11 68 12 70 13 71 14 72 30 73 15 74 18 75 16 76
REMARK SMILES IDX 17 77 19 78 20 80 21 81 22 82 23 83 24 85 25 86 26 87 29 88
REMARK SMILES IDX 27 89 28 90
REMARK H PARENT 3 8 78 26 52 37 10 69 19 79 22 84
REMARK Flexibility Score: inf
ROOT
ATOM      1  C   UNL A   1      35.415  19.292  24.245  1.00  0.00     0.002 C 
ENDROOT
BRANCH   1   2
ATOM      2  C   UNL A   1      36.520  19.774  25.193  1.00  0.00     0.002 C 
BRANCH   2   3
ATOM      3  C   UNL A   1      37.912  19.259  24.844  1.00  0.00     0.021 C 
BRANCH   3   4
ATOM      4  C   UNL A   1      38.998  19.828  25.734  1.00  0.00     0.116 C 
BRANCH   4   5
ATOM      5  N   UNL A   1      40.143  18.939  25.817  1.00  0.00    -0.352 N 
ATOM      6  O   UNL A   1      42.356  18.469  25.885  1.00  0.00    -0.269 OA
ATOM      7  C   UNL A   1      41.450  19.274  26.062  1.00  0.00     0.251 C 
ATOM      8  H   UNL A   1      39.959  17.982  25.681  1.00  0.00     0.163 HD
BRANCH   7   9
ATOM      9  C   UNL A   1      41.738  20.640  26.538  1.00  0.00     0.039 A 
ATOM     10  C   UNL A   1      41.385  21.004  27.841  1.00  0.00     0.014 A 
ATOM     11  C   UNL A   1      42.325  21.562  25.672  1.00  0.00     0.014 A 
ATOM     12  C   UNL A   1      41.504  22.324  28.241  1.00  0.00     0.010 A 
ATOM     13  C   UNL A   1      42.558  22.862  26.121  1.00  0.00     0.010 A 
ATOM     14  C   UNL A   1      42.153  23.248  27.409  1.00  0.00    -0.014 A 
BRANCH  14  15
ATOM     15  C   UNL A   1      42.549  24.557  27.975  1.00  0.00     0.031 A 
ATOM     16  C   UNL A   1      41.540  25.616  28.297  1.00  0.00     0.074 A 
ATOM     17  C   UNL A   1      43.866  24.776  28.168  1.00  0.00     0.049 A 
ATOM     18  N   UNL A   1      41.747  26.829  28.739  1.00  0.00    -0.248 NA
ATOM     19  C   UNL A   1      40.122  25.281  28.097  1.00  0.00     0.031 C 
ATOM     20  C   UNL A   1      44.933  23.812  27.880  1.00  0.00     0.029 A 
ATOM     21  N   UNL A   1      44.537  25.872  28.644  1.00  0.00    -0.354 N 
ATOM     22  C   UNL A   1      40.494  27.413  28.847  1.00  0.00     0.074 A 
ATOM     23  C   UNL A   1      39.528  26.424  28.416  1.00  0.00     0.031 C 
ATOM     24  C   UNL A   1      46.115  24.346  28.208  1.00  0.00     0.029 A 
ATOM     25  C   UNL A   1      45.902  25.720  28.637  1.00  0.00     0.049 A 
ATOM     26  H   UNL A   1      44.085  26.688  28.960  1.00  0.00     0.167 HD
ATOM     27  C   UNL A   1      40.191  28.666  29.262  1.00  0.00     0.037 A 
ATOM     28  C   UNL A   1      46.883  26.603  28.893  1.00  0.00     0.037 A 
ATOM     29  C   UNL A   1      41.168  29.634  29.691  1.00  0.00     0.049 A 
ATOM     30  C   UNL A   1      46.506  28.002  29.287  1.00  0.00     0.074 A 
ATOM     31  C   UNL A   1      40.950  30.908  30.187  1.00  0.00     0.029 A 
ATOM     32  N   UNL A   1      42.543  29.454  29.646  1.00  0.00    -0.354 N 
ATOM     33  N   UNL A   1      45.314  28.515  29.466  1.00  0.00    -0.248 NA
ATOM     34  C   UNL A   1      47.607  28.948  29.508  1.00  0.00     0.031 C 
ATOM     35  C   UNL A   1      42.188  31.530  30.353  1.00  0.00     0.029 A 
ATOM     36  C   UNL A   1      43.181  30.615  30.048  1.00  0.00     0.049 A 
ATOM     37  H   UNL A   1      42.996  28.625  29.370  1.00  0.00     0.167 HD
ATOM     38  C   UNL A   1      45.522  29.834  29.841  1.00  0.00     0.074 A 
ATOM     39  C   UNL A   1      46.955  30.033  29.897  1.00  0.00     0.031 C 
ATOM     40  C   UNL A   1      44.609  30.799  30.105  1.00  0.00     0.037 A 
BRANCH  27  41
ATOM     41  C   UNL A   1      38.754  29.098  29.243  1.00  0.00     0.057 A 
ATOM     42  C   UNL A   1      37.936  29.032  30.376  1.00  0.00     0.134 A 
ATOM     43  C   UNL A   1      38.218  29.697  28.093  1.00  0.00     0.134 A 
ATOM     44  F   UNL A   1      38.386  28.469  31.509  1.00  0.00    -0.206 F 
ATOM     45  C   UNL A   1      36.635  29.538  30.366  1.00  0.00     0.040 A 
ATOM     46  C   UNL A   1      36.930  30.233  28.080  1.00  0.00     0.040 A 
ATOM     47  F   UNL A   1      38.952  29.803  26.975  1.00  0.00    -0.206 F 
ATOM     48  C   UNL A   1      36.134  30.153  29.220  1.00  0.00     0.006 A 
ENDBRANCH  27  41
BRANCH  28  49
ATOM     49  C   UNL A   1      48.308  26.219  28.715  1.00  0.00     0.057 A 
ATOM     50  C   UNL A   1      49.074  25.747  29.786  1.00  0.00     0.134 A 
ATOM     51  C   UNL A   1      48.954  26.367  27.480  1.00  0.00     0.134 A 
ATOM     52  F   UNL A   1      48.516  25.590  30.997  1.00  0.00    -0.206 F 
ATOM     53  C   UNL A   1      50.439  25.490  29.652  1.00  0.00     0.040 A 
ATOM     54  C   UNL A   1      50.307  26.069  27.319  1.00  0.00     0.040 A 
ATOM     55  F   UNL A   1      48.277  26.799  26.405  1.00  0.00    -0.206 F 
ATOM     56  C   UNL A   1      51.058  25.651  28.414  1.00  0.00     0.006 A 
ENDBRANCH  28  49
BRANCH  40  57
ATOM     57  C   UNL A   1      45.126  32.150  30.504  1.00  0.00     0.057 A 
ATOM     58  C   UNL A   1      45.321  33.173  29.568  1.00  0.00     0.134 A 
ATOM     59  C   UNL A   1      45.375  32.449  31.850  1.00  0.00     0.134 A 
ATOM     60  F   UNL A   1      45.115  32.948  28.261  1.00  0.00    -0.206 F 
ATOM     61  C   UNL A   1      45.761  34.440  29.953  1.00  0.00     0.040 A 
ATOM     62  C   UNL A   1      45.779  33.722  32.252  1.00  0.00     0.040 A 
ATOM     63  F   UNL A   1      45.200  31.518  32.800  1.00  0.00    -0.206 F 
ATOM     64  C   UNL A   1      45.979  34.720  31.301  1.00  0.00     0.006 A 
ENDBRANCH  40  57
ENDBRANCH  14  15
ENDBRANCH   7   9
ENDBRANCH   4   5
ENDBRANCH   3   4
ENDBRANCH   2   3
ENDBRANCH   1   2
BRANCH   1  65
ATOM     65  C   UNL A   1      34.358  18.383  24.889  1.00  0.00     0.021 C 
BRANCH  65  66
ATOM     66  C   UNL A   1      33.059  19.087  25.270  1.00  0.00     0.116 C 
BRANCH  66  67
ATOM     67  N   UNL A   1      33.244  19.925  26.432  1.00  0.00    -0.352 N 
ATOM     68  C   UNL A   1      33.338  21.280  26.582  1.00  0.00     0.251 C 
ATOM     69  H   UNL A   1      33.316  19.424  27.276  1.00  0.00     0.163 HD
ATOM     70  O   UNL A   1      33.748  21.647  27.678  1.00  0.00    -0.269 OA
BRANCH  68  71
ATOM     71  C   UNL A   1      32.908  22.212  25.386  1.00  0.00     0.041 A 
ATOM     72  C   UNL A   1      34.368  22.613  24.378  1.00  0.00     0.015 A 
ATOM     73  C   UNL A   1      31.174  23.094  24.712  1.00  0.00     0.041 A 
ATOM     74  C   UNL A   1      34.119  23.719  23.001  1.00  0.00     0.018 A 
ATOM     75  C   UNL A   1      31.077  24.189  23.488  1.00  0.00     0.055 A 
ATOM     76  C   UNL A   1      32.539  24.468  22.604  1.00  0.00     0.041 A 
ATOM     77  Br  UNL A   1      32.520  25.770  21.227  1.00  0.00    -0.049 Br
BRANCH  75  78
ATOM     78  N   UNL A   1      29.856  24.883  23.636  1.00  0.00    -0.331 N 
ATOM     79  H   UNL A   1      29.052  24.368  23.397  1.00  0.00     0.169 HD
BRANCH  78  80
ATOM     80  C   UNL A   1      29.617  26.192  24.072  1.00  0.00     0.177 C 
ATOM     81  S   UNL A   1      30.693  26.800  25.214  1.00  0.00    -0.040 S 
BRANCH  80  82
ATOM     82  N   UNL A   1      28.569  27.116  23.656  1.00  0.00    -0.298 N 
ATOM     83  C   UNL A   1      28.042  28.469  23.151  1.00  0.00     0.267 C 
ATOM     84  H   UNL A   1      27.750  26.578  23.750  1.00  0.00     0.172 HD
ATOM     85  O   UNL A   1      26.827  28.655  23.191  1.00  0.00    -0.268 OA
BRANCH  83  86
ATOM     86  C   UNL A   1      29.030  29.492  22.581  1.00  0.00     0.092 A 
ATOM     87  C   UNL A   1      29.779  30.419  23.802  1.00  0.00     0.025 A 
ATOM     88  S   UNL A   1      28.028  30.724  20.895  1.00  0.00    -0.139 S 
ATOM     89  C   UNL A   1      29.279  32.262  23.768  1.00  0.00     0.012 A 
ATOM     90  C   UNL A   1      28.210  32.686  22.149  1.00  0.00     0.065 A 
ENDBRANCH  83  86
ENDBRANCH  80  82
ENDBRANCH  78  80
ENDBRANCH  75  78
ENDBRANCH  68  71
ENDBRANCH  66  67
ENDBRANCH  65  66
ENDBRANCH   1  65
TORSDOF 17
ENDMDL
MODEL 3
REMARK VINA RESULT:     -11.2      4.307     10.053
REMARK SMILES O=C(NCCCCCCNC(=O)c1ccc(Br)c(NC(=S)NC(=O)c2cccs2)c1)c1ccc(-c2c3nc(c(-c4c(F)cccc4F)c4ccc([nH]4)c(-c4c(F)cccc4F)c4nc(c(-c5c(F)cccc5F)c5ccc2[nH]5)C=C4)C=C3)cc1
REMARK SMILES IDX 7 1 6 2 5 3 4 4 3 5 1 6 2 7 31 9 32 10 84 11 33 12 83 13
REMARK SMILES IDX 34 14 35 15 36 16 77 17 37 18 82 19 76 20 78 21 38 22 81 23
REMARK SMILES IDX 75 24 74 25 39 27 65 28 48 29 64 30 49 31 52 32 63 33 79 34
REMARK SMILES IDX 50 35 51 36 62 38 80 39 53 40 40 41 41 42 46 43 42 44 43 45
REMARK SMILES IDX 45 46 47 47 44 48 66 49 67 50 72 51 68 52 69 53 71 54 73 55
REMARK SMILES IDX 70 56 54 57 55 58 60 59 56 60 57 61 59 62 61 63 58 64 8 65
REMARK SMILES IDX 9 66 10 67 11 68 12 70 13 71 14 72 30 73 15 74 18 75 16 76
REMARK SMILES IDX 17 77 19 78 20 80 21 81 22 82 23 83 24 85 25 86 26 87 29 88
REMARK SMILES IDX 27 89 28 90
REMARK H PARENT 3 8 78 26 52 37 10 69 19 79 22 84
REMARK Flexibility Score: inf
ROOT
ATOM      1  C   UNL A   1      41.971  33.720  32.412  1.00  0.00     0.002 C 
ENDROOT
BRANCH   1   2
ATOM      2  C   UNL A   1      42.144  35.051  33.154  1.00  0.00     0.002 C 
BRANCH   2   3
ATOM      3  C   UNL A   1      43.521  35.684  32.988  1.00  0.00     0.021 C 
BRANCH   3   4
ATOM      4  C   UNL A   1      43.774  36.202  31.587  1.00  0.00     0.116 C 
BRANCH   4   5
ATOM      5  N   UNL A   1      45.167  36.562  31.392  1.00  0.00    -0.352 N 
ATOM      6  O   UNL A   1      47.364  36.110  31.088  1.00  0.00    -0.269 OA
ATOM      7  C   UNL A   1      46.197  35.747  30.999  1.00  0.00     0.251 C 
ATOM      8  H   UNL A   1      45.400  37.503  31.563  1.00  0.00     0.163 HD
BRANCH   7   9
ATOM      9  C   UNL A   1      45.862  34.411  30.472  1.00  0.00     0.039 A 
ATOM     10  C   UNL A   1      45.807  33.320  31.344  1.00  0.00     0.014 A 
ATOM     11  C   UNL A   1      45.638  34.245  29.106  1.00  0.00     0.014 A 
ATOM     12  C   UNL A   1      45.653  32.042  30.836  1.00  0.00     0.010 A 
ATOM     13  C   UNL A   1      45.358  32.971  28.613  1.00  0.00     0.010 A 
ATOM     14  C   UNL A   1      45.360  31.864  29.476  1.00  0.00    -0.014 A 
BRANCH  14  15
ATOM     15  C   UNL A   1      44.889  30.536  29.019  1.00  0.00     0.031 A 
ATOM     16  C   UNL A   1      43.441  30.158  29.055  1.00  0.00     0.074 A 
ATOM     17  C   UNL A   1      45.822  29.662  28.590  1.00  0.00     0.049 A 
ATOM     18  N   UNL A   1      42.892  29.012  28.744  1.00  0.00    -0.248 NA
ATOM     19  C   UNL A   1      42.485  31.184  29.497  1.00  0.00     0.031 C 
ATOM     20  C   UNL A   1      47.262  29.930  28.521  1.00  0.00     0.029 A 
ATOM     21  N   UNL A   1      45.708  28.374  28.135  1.00  0.00    -0.354 N 
ATOM     22  C   UNL A   1      41.533  29.166  28.975  1.00  0.00     0.074 A 
ATOM     23  C   UNL A   1      41.338  30.516  29.461  1.00  0.00     0.031 C 
ATOM     24  C   UNL A   1      47.891  28.855  28.030  1.00  0.00     0.029 A 
ATOM     25  C   UNL A   1      46.917  27.791  27.840  1.00  0.00     0.049 A 
ATOM     26  H   UNL A   1      44.845  27.912  28.030  1.00  0.00     0.167 HD
ATOM     27  C   UNL A   1      40.549  28.254  28.801  1.00  0.00     0.037 A 
ATOM     28  C   UNL A   1      47.221  26.525  27.507  1.00  0.00     0.037 A 
ATOM     29  C   UNL A   1      40.765  26.915  28.313  1.00  0.00     0.049 A 
ATOM     30  C   UNL A   1      46.107  25.526  27.389  1.00  0.00     0.074 A 
ATOM     31  C   UNL A   1      39.819  25.939  28.046  1.00  0.00     0.029 A 
ATOM     32  N   UNL A   1      42.005  26.352  28.049  1.00  0.00    -0.354 N 
ATOM     33  N   UNL A   1      44.816  25.709  27.528  1.00  0.00    -0.248 NA
ATOM     34  C   UNL A   1      46.487  24.143  27.073  1.00  0.00     0.031 C 
ATOM     35  C   UNL A   1      40.490  24.762  27.713  1.00  0.00     0.029 A 
ATOM     36  C   UNL A   1      41.849  25.026  27.682  1.00  0.00     0.049 A 
ATOM     37  H   UNL A   1      42.866  26.825  28.113  1.00  0.00     0.167 HD
ATOM     38  C   UNL A   1      44.231  24.473  27.297  1.00  0.00     0.074 A 
ATOM     39  C   UNL A   1      45.304  23.556  26.974  1.00  0.00     0.031 C 
ATOM     40  C   UNL A   1      42.925  24.124  27.357  1.00  0.00     0.037 A 
BRANCH  27  41
ATOM     41  C   UNL A   1      39.146  28.635  29.174  1.00  0.00     0.057 A 
ATOM     42  C   UNL A   1      38.643  28.467  30.469  1.00  0.00     0.134 A 
ATOM     43  C   UNL A   1      38.325  29.286  28.241  1.00  0.00     0.134 A 
ATOM     44  F   UNL A   1      39.375  27.851  31.410  1.00  0.00    -0.206 F 
ATOM     45  C   UNL A   1      37.372  28.926  30.821  1.00  0.00     0.040 A 
ATOM     46  C   UNL A   1      37.067  29.775  28.589  1.00  0.00     0.040 A 
ATOM     47  F   UNL A   1      38.751  29.489  26.985  1.00  0.00    -0.206 F 
ATOM     48  C   UNL A   1      36.586  29.595  29.884  1.00  0.00     0.006 A 
ENDBRANCH  27  41
BRANCH  28  49
ATOM     49  C   UNL A   1      48.638  26.111  27.336  1.00  0.00     0.057 A 
ATOM     50  C   UNL A   1      49.427  25.744  28.431  1.00  0.00     0.134 A 
ATOM     51  C   UNL A   1      49.255  26.128  26.077  1.00  0.00     0.134 A 
ATOM     52  F   UNL A   1      48.898  25.715  29.664  1.00  0.00    -0.206 F 
ATOM     53  C   UNL A   1      50.786  25.462  28.292  1.00  0.00     0.040 A 
ATOM     54  C   UNL A   1      50.601  25.804  25.916  1.00  0.00     0.040 A 
ATOM     55  F   UNL A   1      48.555  26.455  24.981  1.00  0.00    -0.206 F 
ATOM     56  C   UNL A   1      51.377  25.491  27.029  1.00  0.00     0.006 A 
ENDBRANCH  28  49
BRANCH  40  57
ATOM     57  C   UNL A   1      42.573  22.700  27.042  1.00  0.00     0.057 A 
ATOM     58  C   UNL A   1      42.637  22.194  25.738  1.00  0.00     0.134 A 
ATOM     59  C   UNL A   1      42.223  21.809  28.065  1.00  0.00     0.134 A 
ATOM     60  F   UNL A   1      42.951  22.998  24.710  1.00  0.00    -0.206 F 
ATOM     61  C   UNL A   1      42.348  20.857  25.459  1.00  0.00     0.040 A 
ATOM     62  C   UNL A   1      41.970  20.462  27.805  1.00  0.00     0.040 A 
ATOM     63  F   UNL A   1      42.152  22.225  29.338  1.00  0.00    -0.206 F 
ATOM     64  C   UNL A   1      42.026  19.984  26.497  1.00  0.00     0.006 A 
ENDBRANCH  40  57
ENDBRANCH  14  15
ENDBRANCH   7   9
ENDBRANCH   4   5
ENDBRANCH   3   4
ENDBRANCH   2   3
ENDBRANCH   1   2
BRANCH   1  65
ATOM     65  C   UNL A   1      40.769  32.878  32.862  1.00  0.00     0.021 C 
BRANCH  65  66
ATOM     66  C   UNL A   1      39.865  33.555  33.889  1.00  0.00     0.116 C 
BRANCH  66  67
ATOM     67  N   UNL A   1      39.133  32.578  34.661  1.00  0.00    -0.352 N 
ATOM     68  C   UNL A   1      37.797  32.317  34.784  1.00  0.00     0.251 C 
ATOM     69  H   UNL A   1      39.705  31.987  35.200  1.00  0.00     0.163 HD
ATOM     70  O   UNL A   1      37.501  31.582  35.719  1.00  0.00    -0.269 OA
BRANCH  68  71
ATOM     71  C   UNL A   1      36.798  32.945  33.738  1.00  0.00     0.041 A 
ATOM     72  C   UNL A   1      36.158  34.520  34.386  1.00  0.00     0.015 A 
ATOM     73  C   UNL A   1      36.028  32.437  31.897  1.00  0.00     0.041 A 
ATOM     74  C   UNL A   1      34.952  35.373  33.386  1.00  0.00     0.018 A 
ATOM     75  C   UNL A   1      34.833  33.247  31.110  1.00  0.00     0.055 A 
ATOM     76  C   UNL A   1      34.325  34.737  31.831  1.00  0.00     0.041 A 
ATOM     77  Br  UNL A   1      32.902  35.688  31.017  1.00  0.00    -0.049 Br
BRANCH  75  78
ATOM     78  N   UNL A   1      34.280  32.365  30.155  1.00  0.00    -0.331 N 
ATOM     79  H   UNL A   1      33.781  31.604  30.531  1.00  0.00     0.169 HD
BRANCH  78  80
ATOM     80  C   UNL A   1      34.333  32.410  28.757  1.00  0.00     0.177 C 
ATOM     81  S   UNL A   1      35.635  33.243  28.092  1.00  0.00    -0.040 S 
BRANCH  80  82
ATOM     82  N   UNL A   1      33.421  31.814  27.790  1.00  0.00    -0.298 N 
ATOM     83  C   UNL A   1      32.869  30.653  26.945  1.00  0.00     0.267 C 
ATOM     84  H   UNL A   1      32.839  32.568  27.539  1.00  0.00     0.172 HD
ATOM     85  O   UNL A   1      32.063  30.931  26.058  1.00  0.00    -0.268 OA
BRANCH  83  86
ATOM     86  C   UNL A   1      33.298  29.219  27.272  1.00  0.00     0.092 A 
ATOM     87  C   UNL A   1      34.418  28.605  26.140  1.00  0.00     0.025 A 
ATOM     88  S   UNL A   1      31.440  27.885  27.629  1.00  0.00    -0.139 S 
ATOM     89  C   UNL A   1      33.722  27.173  25.085  1.00  0.00     0.012 A 
ATOM     90  C   UNL A   1      31.948  26.584  25.756  1.00  0.00     0.065 A 
ENDBRANCH  83  86
ENDBRANCH  80  82
ENDBRANCH  78  80
ENDBRANCH  75  78
ENDBRANCH  68  71
ENDBRANCH  66  67
ENDBRANCH  65  66
ENDBRANCH   1  65
TORSDOF 17
ENDMDL
