MODEL 1
REMARK VINA RESULT:     -10.9      0.000      0.000
REMARK SMILES O=C(CNC(=O)CNC(=O)OCc1ccccc1)NCCCCCCNC(=O)c1ccc(-c2c3nc(c(-c4c(F)cccc4F)c4ccc([nH]4)c(-c4c(F)cccc4F)c4nc(c(-c5c(F)cccc5F)c5ccc2[nH]5)C=C4)C=C3)cc1
REMARK SMILES IDX 20 1 19 2 1 3 2 4 3 6 4 7 5 8 6 10 7 11 8 12 9 13 10 15
REMARK SMILES IDX 11 16 12 17 13 18 14 19 18 20 15 21 17 22 16 23 21 24 22 25
REMARK SMILES IDX 23 26 24 27 25 28 26 29 27 30 28 32 29 33 30 34 82 35 31 36
REMARK SMILES IDX 81 37 32 38 33 39 34 40 75 41 35 42 80 43 74 44 76 45 36 46
REMARK SMILES IDX 79 47 73 48 72 49 37 51 63 52 46 53 62 54 47 55 50 56 61 57
REMARK SMILES IDX 77 58 48 59 49 60 60 62 78 63 51 64 38 65 39 66 44 67 40 68
REMARK SMILES IDX 41 69 43 70 45 71 42 72 64 73 65 74 70 75 66 76 67 77 69 78
REMARK SMILES IDX 71 79 68 80 52 81 53 82 58 83 54 84 55 85 57 86 59 87 56 88
REMARK H PARENT 19 5 4 9 8 14 26 31 76 50 50 61
REMARK Flexibility Score: inf
ROOT
ATOM      1  C   UNL A   1      35.725  24.321  24.993  1.00  0.00     0.116 C 
ENDROOT
BRANCH   1   2
ATOM      2  N   UNL A   1      34.400  23.822  24.679  1.00  0.00    -0.355 N 
ATOM      3  O   UNL A   1      34.777  23.516  22.435  1.00  0.00    -0.273 OA
ATOM      4  C   UNL A   1      34.039  23.415  23.413  1.00  0.00     0.239 C 
ATOM      5  H   UNL A   1      33.730  23.771  25.400  1.00  0.00     0.163 HD
BRANCH   4   6
ATOM      6  C   UNL A   1      32.602  22.889  23.269  1.00  0.00     0.216 C 
BRANCH   6   7
ATOM      7  N   UNL A   1      32.423  21.499  23.672  1.00  0.00    -0.346 N 
ATOM      8  C   UNL A   1      32.250  20.978  24.921  1.00  0.00     0.239 C 
ATOM      9  H   UNL A   1      32.426  20.843  22.938  1.00  0.00     0.164 HD
ATOM     10  O   UNL A   1      32.152  19.755  25.033  1.00  0.00    -0.273 OA
BRANCH   8  11
ATOM     11  C   UNL A   1      32.276  21.892  26.147  1.00  0.00     0.219 C 
BRANCH  11  12
ATOM     12  N   UNL A   1      30.902  22.160  26.517  1.00  0.00    -0.312 N 
ATOM     13  C   UNL A   1      30.382  23.350  26.915  1.00  0.00     0.407 C 
ATOM     14  H   UNL A   1      30.279  21.399  26.476  1.00  0.00     0.167 HD
ATOM     15  O   UNL A   1      29.297  23.388  27.479  1.00  0.00    -0.225 OA
BRANCH  13  16
ATOM     16  O   UNL A   1      31.183  24.409  26.659  1.00  0.00    -0.445 OA
BRANCH  16  17
ATOM     17  C   UNL A   1      30.750  25.265  25.588  1.00  0.00     0.270 C 
BRANCH  17  18
ATOM     18  C   UNL A   1      31.103  26.719  25.801  1.00  0.00    -0.011 A 
ATOM     19  C   UNL A   1      31.501  27.191  27.059  1.00  0.00     0.007 A 
ATOM     20  C   UNL A   1      31.033  27.628  24.735  1.00  0.00     0.007 A 
ATOM     21  C   UNL A   1      31.815  28.542  27.240  1.00  0.00     0.000 A 
ATOM     22  C   UNL A   1      31.368  28.970  24.911  1.00  0.00     0.000 A 
ATOM     23  C   UNL A   1      31.754  29.429  26.166  1.00  0.00     0.000 A 
ENDBRANCH  17  18
ENDBRANCH  16  17
ENDBRANCH  13  16
ENDBRANCH  11  12
ENDBRANCH   8  11
ENDBRANCH   6   7
ENDBRANCH   4   6
ENDBRANCH   1   2
BRANCH   1  24
ATOM     24  C   UNL A   1      36.820  23.266  24.841  1.00  0.00     0.021 C 
BRANCH  24  25
ATOM     25  C   UNL A   1      36.640  22.015  25.710  1.00  0.00     0.002 C 
BRANCH  25  26
ATOM     26  C   UNL A   1      36.400  20.700  24.967  1.00  0.00     0.002 C 
BRANCH  26  27
ATOM     27  C   UNL A   1      37.563  19.709  24.972  1.00  0.00     0.021 C 
BRANCH  27  28
ATOM     28  C   UNL A   1      38.854  20.208  25.617  1.00  0.00     0.116 C 
BRANCH  28  29
ATOM     29  N   UNL A   1      39.860  19.166  25.755  1.00  0.00    -0.352 N 
ATOM     30  C   UNL A   1      41.193  19.258  26.075  1.00  0.00     0.251 C 
ATOM     31  H   UNL A   1      39.535  18.252  25.594  1.00  0.00     0.163 HD
ATOM     32  O   UNL A   1      41.907  18.260  26.008  1.00  0.00    -0.269 OA
BRANCH  30  33
ATOM     33  C   UNL A   1      41.791  20.553  26.473  1.00  0.00     0.039 A 
ATOM     34  C   UNL A   1      42.253  21.413  25.470  1.00  0.00     0.014 A 
ATOM     35  C   UNL A   1      41.920  20.918  27.816  1.00  0.00     0.014 A 
ATOM     36  C   UNL A   1      42.773  22.664  25.810  1.00  0.00     0.010 A 
ATOM     37  C   UNL A   1      42.379  22.192  28.150  1.00  0.00     0.010 A 
ATOM     38  C   UNL A   1      42.804  23.079  27.150  1.00  0.00    -0.014 A 
BRANCH  38  39
ATOM     39  C   UNL A   1      43.250  24.450  27.515  1.00  0.00     0.031 A 
ATOM     40  C   UNL A   1      42.255  25.499  27.922  1.00  0.00     0.074 A 
ATOM     41  C   UNL A   1      44.556  24.765  27.420  1.00  0.00     0.049 A 
ATOM     42  N   UNL A   1      42.461  26.753  28.239  1.00  0.00    -0.248 NA
ATOM     43  C   UNL A   1      40.842  25.095  27.952  1.00  0.00     0.031 C 
ATOM     44  C   UNL A   1      45.618  23.855  26.987  1.00  0.00     0.029 A 
ATOM     45  N   UNL A   1      45.213  25.943  27.675  1.00  0.00    -0.354 N 
ATOM     46  C   UNL A   1      41.206  27.291  28.492  1.00  0.00     0.074 A 
ATOM     47  C   UNL A   1      40.242  26.239  28.249  1.00  0.00     0.031 C 
ATOM     48  C   UNL A   1      46.795  24.499  27.032  1.00  0.00     0.029 A 
ATOM     49  C   UNL A   1      46.569  25.874  27.468  1.00  0.00     0.049 A 
ATOM     50  H   UNL A   1      44.756  26.761  27.979  1.00  0.00     0.167 HD
ATOM     51  C   UNL A   1      40.887  28.540  28.908  1.00  0.00     0.037 A 
ATOM     52  C   UNL A   1      47.524  26.810  27.613  1.00  0.00     0.037 A 
ATOM     53  C   UNL A   1      41.847  29.580  29.175  1.00  0.00     0.049 A 
ATOM     54  C   UNL A   1      47.147  28.186  28.081  1.00  0.00     0.074 A 
ATOM     55  C   UNL A   1      41.625  30.852  29.675  1.00  0.00     0.029 A 
ATOM     56  N   UNL A   1      43.212  29.469  28.960  1.00  0.00    -0.354 N 
ATOM     57  N   UNL A   1      45.964  28.657  28.389  1.00  0.00    -0.248 NA
ATOM     58  C   UNL A   1      48.239  29.159  28.224  1.00  0.00     0.031 C 
ATOM     59  C   UNL A   1      42.852  31.523  29.725  1.00  0.00     0.029 A 
ATOM     60  C   UNL A   1      43.843  30.657  29.292  1.00  0.00     0.049 A 
ATOM     61  H   UNL A   1      43.667  28.664  28.620  1.00  0.00     0.167 HD
ATOM     62  C   UNL A   1      46.170  29.973  28.782  1.00  0.00     0.074 A 
ATOM     63  C   UNL A   1      47.594  30.221  28.686  1.00  0.00     0.031 C 
ATOM     64  C   UNL A   1      45.259  30.892  29.187  1.00  0.00     0.037 A 
BRANCH  51  65
ATOM     65  C   UNL A   1      39.431  28.849  29.101  1.00  0.00     0.057 A 
ATOM     66  C   UNL A   1      38.630  29.313  28.050  1.00  0.00     0.134 A 
ATOM     67  C   UNL A   1      38.819  28.661  30.346  1.00  0.00     0.134 A 
ATOM     68  F   UNL A   1      39.158  29.525  26.835  1.00  0.00    -0.206 F 
ATOM     69  C   UNL A   1      37.278  29.605  28.236  1.00  0.00     0.040 A 
ATOM     70  C   UNL A   1      37.462  28.926  30.539  1.00  0.00     0.040 A 
ATOM     71  F   UNL A   1      39.527  28.214  31.394  1.00  0.00    -0.206 F 
ATOM     72  C   UNL A   1      36.689  29.407  29.483  1.00  0.00     0.006 A 
ENDBRANCH  51  65
BRANCH  52  73
ATOM     73  C   UNL A   1      48.941  26.464  27.345  1.00  0.00     0.057 A 
ATOM     74  C   UNL A   1      49.484  26.611  26.064  1.00  0.00     0.134 A 
ATOM     75  C   UNL A   1      49.785  25.993  28.357  1.00  0.00     0.134 A 
ATOM     76  F   UNL A   1      48.717  27.040  25.051  1.00  0.00    -0.206 F 
ATOM     77  C   UNL A   1      50.816  26.291  25.794  1.00  0.00     0.040 A 
ATOM     78  C   UNL A   1      51.123  25.688  28.106  1.00  0.00     0.040 A 
ATOM     79  F   UNL A   1      49.323  25.838  29.607  1.00  0.00    -0.206 F 
ATOM     80  C   UNL A   1      51.641  25.833  26.819  1.00  0.00     0.006 A 
ENDBRANCH  52  73
BRANCH  64  81
ATOM     81  C   UNL A   1      45.783  32.245  29.570  1.00  0.00     0.057 A 
ATOM     82  C   UNL A   1      45.838  33.300  28.651  1.00  0.00     0.134 A 
ATOM     83  C   UNL A   1      46.211  32.500  30.878  1.00  0.00     0.134 A 
ATOM     84  F   UNL A   1      45.456  33.115  27.379  1.00  0.00    -0.206 F 
ATOM     85  C   UNL A   1      46.323  34.557  29.015  1.00  0.00     0.040 A 
ATOM     86  C   UNL A   1      46.677  33.759  31.260  1.00  0.00     0.040 A 
ATOM     87  F   UNL A   1      46.177  31.534  31.808  1.00  0.00    -0.206 F 
ATOM     88  C   UNL A   1      46.740  34.790  30.325  1.00  0.00     0.006 A 
ENDBRANCH  64  81
ENDBRANCH  38  39
ENDBRANCH  30  33
ENDBRANCH  28  29
ENDBRANCH  27  28
ENDBRANCH  26  27
ENDBRANCH  25  26
ENDBRANCH  24  25
ENDBRANCH   1  24
TORSDOF 19
ENDMDL
MODEL 2
REMARK VINA RESULT:     -10.7      3.463      7.762
REMARK SMILES O=C(CNC(=O)CNC(=O)OCc1ccccc1)NCCCCCCNC(=O)c1ccc(-c2c3nc(c(-c4c(F)cccc4F)c4ccc([nH]4)c(-c4c(F)cccc4F)c4nc(c(-c5c(F)cccc5F)c5ccc2[nH]5)C=C4)C=C3)cc1
REMARK SMILES IDX 20 1 19 2 1 3 2 4 3 6 4 7 5 8 6 10 7 11 8 12 9 13 10 15
REMARK SMILES IDX 11 16 12 17 13 18 14 19 18 20 15 21 17 22 16 23 21 24 22 25
REMARK SMILES IDX 23 26 24 27 25 28 26 29 27 30 28 32 29 33 30 34 82 35 31 36
REMARK SMILES IDX 81 37 32 38 33 39 34 40 75 41 35 42 80 43 74 44 76 45 36 46
REMARK SMILES IDX 79 47 73 48 72 49 37 51 63 52 46 53 62 54 47 55 50 56 61 57
REMARK SMILES IDX 77 58 48 59 49 60 60 62 78 63 51 64 38 65 39 66 44 67 40 68
REMARK SMILES IDX 41 69 43 70 45 71 42 72 64 73 65 74 70 75 66 76 67 77 69 78
REMARK SMILES IDX 71 79 68 80 52 81 53 82 58 83 54 84 55 85 57 86 59 87 56 88
REMARK H PARENT 19 5 4 9 8 14 26 31 76 50 50 61
REMARK Flexibility Score: inf
ROOT
ATOM      1  C   UNL A   1      32.317  22.255  26.406  1.00  0.00     0.116 C 
ENDROOT
BRANCH   1   2
ATOM      2  N   UNL A   1      31.822  22.666  25.106  1.00  0.00    -0.355 N 
ATOM      3  O   UNL A   1      30.621  24.471  25.859  1.00  0.00    -0.273 OA
ATOM      4  C   UNL A   1      31.035  23.782  24.929  1.00  0.00     0.239 C 
ATOM      5  H   UNL A   1      32.059  22.125  24.317  1.00  0.00     0.163 HD
BRANCH   4   6
ATOM      6  C   UNL A   1      30.624  24.081  23.478  1.00  0.00     0.216 C 
BRANCH   6   7
ATOM      7  N   UNL A   1      31.703  23.956  22.505  1.00  0.00    -0.346 N 
ATOM      8  C   UNL A   1      32.687  24.848  22.189  1.00  0.00     0.239 C 
ATOM      9  H   UNL A   1      31.725  23.109  22.005  1.00  0.00     0.164 HD
ATOM     10  O   UNL A   1      33.483  24.544  21.299  1.00  0.00    -0.273 OA
BRANCH   8  11
ATOM     11  C   UNL A   1      32.729  26.219  22.864  1.00  0.00     0.219 C 
BRANCH  11  12
ATOM     12  N   UNL A   1      31.817  27.084  22.144  1.00  0.00    -0.312 N 
ATOM     13  C   UNL A   1      30.866  27.892  22.680  1.00  0.00     0.407 C 
ATOM     14  H   UNL A   1      31.895  27.086  21.163  1.00  0.00     0.167 HD
ATOM     15  O   UNL A   1      29.972  28.340  21.974  1.00  0.00    -0.225 OA
BRANCH  13  16
ATOM     16  O   UNL A   1      31.002  28.089  24.010  1.00  0.00    -0.445 OA
BRANCH  16  17
ATOM     17  C   UNL A   1      31.180  29.458  24.415  1.00  0.00     0.270 C 
BRANCH  17  18
ATOM     18  C   UNL A   1      32.245  29.637  25.472  1.00  0.00    -0.011 A 
ATOM     19  C   UNL A   1      32.134  30.634  26.452  1.00  0.00     0.007 A 
ATOM     20  C   UNL A   1      33.374  28.805  25.488  1.00  0.00     0.007 A 
ATOM     21  C   UNL A   1      33.134  30.791  27.417  1.00  0.00     0.000 A 
ATOM     22  C   UNL A   1      34.360  28.949  26.464  1.00  0.00     0.000 A 
ATOM     23  C   UNL A   1      34.242  29.946  27.426  1.00  0.00     0.000 A 
ENDBRANCH  17  18
ENDBRANCH  16  17
ENDBRANCH  13  16
ENDBRANCH  11  12
ENDBRANCH   8  11
ENDBRANCH   6   7
ENDBRANCH   4   6
ENDBRANCH   1   2
BRANCH   1  24
ATOM     24  C   UNL A   1      33.645  22.911  26.782  1.00  0.00     0.021 C 
BRANCH  24  25
ATOM     25  C   UNL A   1      34.844  21.956  26.849  1.00  0.00     0.002 C 
BRANCH  25  26
ATOM     26  C   UNL A   1      35.610  21.737  25.543  1.00  0.00     0.002 C 
BRANCH  26  27
ATOM     27  C   UNL A   1      35.894  22.991  24.717  1.00  0.00     0.021 C 
BRANCH  27  28
ATOM     28  C   UNL A   1      37.206  23.706  25.030  1.00  0.00     0.116 C 
BRANCH  28  29
ATOM     29  N   UNL A   1      38.277  22.792  25.396  1.00  0.00    -0.352 N 
ATOM     30  C   UNL A   1      39.406  23.005  26.150  1.00  0.00     0.251 C 
ATOM     31  H   UNL A   1      38.177  21.877  25.050  1.00  0.00     0.163 HD
ATOM     32  O   UNL A   1      40.261  22.127  26.231  1.00  0.00    -0.269 OA
BRANCH  30  33
ATOM     33  C   UNL A   1      39.622  24.295  26.845  1.00  0.00     0.039 A 
ATOM     34  C   UNL A   1      39.052  24.477  28.110  1.00  0.00     0.014 A 
ATOM     35  C   UNL A   1      40.357  25.329  26.258  1.00  0.00     0.014 A 
ATOM     36  C   UNL A   1      39.282  25.661  28.814  1.00  0.00     0.010 A 
ATOM     37  C   UNL A   1      40.639  26.484  26.987  1.00  0.00     0.010 A 
ATOM     38  C   UNL A   1      40.110  26.658  28.275  1.00  0.00    -0.014 A 
BRANCH  38  39
ATOM     39  C   UNL A   1      40.453  27.874  29.059  1.00  0.00     0.031 A 
ATOM     40  C   UNL A   1      41.781  27.993  29.750  1.00  0.00     0.074 A 
ATOM     41  C   UNL A   1      39.535  28.849  29.199  1.00  0.00     0.049 A 
ATOM     42  N   UNL A   1      42.236  28.963  30.503  1.00  0.00    -0.248 NA
ATOM     43  C   UNL A   1      42.712  26.866  29.594  1.00  0.00     0.031 C 
ATOM     44  C   UNL A   1      38.188  28.834  28.624  1.00  0.00     0.029 A 
ATOM     45  N   UNL A   1      39.593  30.042  29.874  1.00  0.00    -0.354 N 
ATOM     46  C   UNL A   1      43.497  28.557  30.923  1.00  0.00     0.074 A 
ATOM     47  C   UNL A   1      43.716  27.235  30.377  1.00  0.00     0.031 C 
ATOM     48  C   UNL A   1      37.558  29.974  28.949  1.00  0.00     0.029 A 
ATOM     49  C   UNL A   1      38.443  30.787  29.778  1.00  0.00     0.049 A 
ATOM     50  H   UNL A   1      40.385  30.338  30.381  1.00  0.00     0.167 HD
ATOM     51  C   UNL A   1      44.396  29.232  31.678  1.00  0.00     0.037 A 
ATOM     52  C   UNL A   1      38.134  31.990  30.296  1.00  0.00     0.037 A 
ATOM     53  C   UNL A   1      44.189  30.559  32.201  1.00  0.00     0.049 A 
ATOM     54  C   UNL A   1      39.150  32.721  31.125  1.00  0.00     0.074 A 
ATOM     55  C   UNL A   1      45.073  31.354  32.910  1.00  0.00     0.029 A 
ATOM     56  N   UNL A   1      43.013  31.282  32.076  1.00  0.00    -0.354 N 
ATOM     57  N   UNL A   1      40.366  32.358  31.450  1.00  0.00    -0.248 NA
ATOM     58  C   UNL A   1      38.751  34.032  31.656  1.00  0.00     0.031 C 
ATOM     59  C   UNL A   1      44.418  32.544  33.247  1.00  0.00     0.029 A 
ATOM     60  C   UNL A   1      43.139  32.505  32.715  1.00  0.00     0.049 A 
ATOM     61  H   UNL A   1      42.207  30.973  31.603  1.00  0.00     0.167 HD
ATOM     62  C   UNL A   1      40.885  33.400  32.205  1.00  0.00     0.074 A 
ATOM     63  C   UNL A   1      39.856  34.418  32.278  1.00  0.00     0.031 C 
ATOM     64  C   UNL A   1      42.106  33.505  32.785  1.00  0.00     0.037 A 
BRANCH  51  65
ATOM     65  C   UNL A   1      45.693  28.542  31.983  1.00  0.00     0.057 A 
ATOM     66  C   UNL A   1      45.855  27.747  33.125  1.00  0.00     0.134 A 
ATOM     67  C   UNL A   1      46.785  28.654  31.114  1.00  0.00     0.134 A 
ATOM     68  F   UNL A   1      44.851  27.607  34.004  1.00  0.00    -0.206 F 
ATOM     69  C   UNL A   1      47.066  27.112  33.407  1.00  0.00     0.040 A 
ATOM     70  C   UNL A   1      47.992  28.005  31.372  1.00  0.00     0.040 A 
ATOM     71  F   UNL A   1      46.696  29.395  29.999  1.00  0.00    -0.206 F 
ATOM     72  C   UNL A   1      48.138  27.236  32.527  1.00  0.00     0.006 A 
ENDBRANCH  51  65
BRANCH  52  73
ATOM     73  C   UNL A   1      36.810  32.595  30.014  1.00  0.00     0.057 A 
ATOM     74  C   UNL A   1      35.709  32.323  30.834  1.00  0.00     0.134 A 
ATOM     75  C   UNL A   1      36.616  33.463  28.934  1.00  0.00     0.134 A 
ATOM     76  F   UNL A   1      35.832  31.483  31.872  1.00  0.00    -0.206 F 
ATOM     77  C   UNL A   1      34.456  32.885  30.584  1.00  0.00     0.040 A 
ATOM     78  C   UNL A   1      35.374  34.048  28.683  1.00  0.00     0.040 A 
ATOM     79  F   UNL A   1      37.635  33.767  28.117  1.00  0.00    -0.206 F 
ATOM     80  C   UNL A   1      34.288  33.755  29.508  1.00  0.00     0.006 A 
ENDBRANCH  52  73
BRANCH  64  81
ATOM     81  C   UNL A   1      42.397  34.772  33.535  1.00  0.00     0.057 A 
ATOM     82  C   UNL A   1      42.956  35.889  32.903  1.00  0.00     0.134 A 
ATOM     83  C   UNL A   1      42.091  34.882  34.896  1.00  0.00     0.134 A 
ATOM     84  F   UNL A   1      43.286  35.842  31.603  1.00  0.00    -0.206 F 
ATOM     85  C   UNL A   1      43.221  37.066  33.605  1.00  0.00     0.040 A 
ATOM     86  C   UNL A   1      42.330  36.061  35.604  1.00  0.00     0.040 A 
ATOM     87  F   UNL A   1      41.547  33.851  35.559  1.00  0.00    -0.206 F 
ATOM     88  C   UNL A   1      42.903  37.155  34.959  1.00  0.00     0.006 A 
ENDBRANCH  64  81
ENDBRANCH  38  39
ENDBRANCH  30  33
ENDBRANCH  28  29
ENDBRANCH  27  28
ENDBRANCH  26  27
ENDBRANCH  25  26
ENDBRANCH  24  25
ENDBRANCH   1  24
TORSDOF 19
ENDMDL
MODEL 3
REMARK VINA RESULT:     -10.5      3.076      8.548
REMARK SMILES O=C(CNC(=O)CNC(=O)OCc1ccccc1)NCCCCCCNC(=O)c1ccc(-c2c3nc(c(-c4c(F)cccc4F)c4ccc([nH]4)c(-c4c(F)cccc4F)c4nc(c(-c5c(F)cccc5F)c5ccc2[nH]5)C=C4)C=C3)cc1
REMARK SMILES IDX 20 1 19 2 1 3 2 4 3 6 4 7 5 8 6 10 7 11 8 12 9 13 10 15
REMARK SMILES IDX 11 16 12 17 13 18 14 19 18 20 15 21 17 22 16 23 21 24 22 25
REMARK SMILES IDX 23 26 24 27 25 28 26 29 27 30 28 32 29 33 30 34 82 35 31 36
REMARK SMILES IDX 81 37 32 38 33 39 34 40 75 41 35 42 80 43 74 44 76 45 36 46
REMARK SMILES IDX 79 47 73 48 72 49 37 51 63 52 46 53 62 54 47 55 50 56 61 57
REMARK SMILES IDX 77 58 48 59 49 60 60 62 78 63 51 64 38 65 39 66 44 67 40 68
REMARK SMILES IDX 41 69 43 70 45 71 42 72 64 73 65 74 70 75 66 76 67 77 69 78
REMARK SMILES IDX 71 79 68 80 52 81 53 82 58 83 54 84 55 85 57 86 59 87 56 88
REMARK H PARENT 19 5 4 9 8 14 26 31 76 50 50 61
REMARK Flexibility Score: inf
ROOT
ATOM      1  C   UNL A   1      35.480  29.793  27.900  1.00  0.00     0.116 C 
ENDROOT
BRANCH   1   2
ATOM      2  N   UNL A   1      34.117  29.328  27.728  1.00  0.00    -0.355 N 
ATOM      3  O   UNL A   1      34.294  28.872  25.485  1.00  0.00    -0.273 OA
ATOM      4  C   UNL A   1      33.638  28.859  26.524  1.00  0.00     0.239 C 
ATOM      5  H   UNL A   1      33.509  29.348  28.503  1.00  0.00     0.163 HD
BRANCH   4   6
ATOM      6  C   UNL A   1      32.177  28.383  26.532  1.00  0.00     0.216 C 
BRANCH   6   7
ATOM      7  N   UNL A   1      31.394  28.808  25.377  1.00  0.00    -0.346 N 
ATOM      8  C   UNL A   1      31.162  28.152  24.203  1.00  0.00     0.239 C 
ATOM      9  H   UNL A   1      30.974  29.694  25.456  1.00  0.00     0.164 HD
ATOM     10  O   UNL A   1      30.492  28.722  23.341  1.00  0.00    -0.273 OA
BRANCH   8  11
ATOM     11  C   UNL A   1      31.804  26.788  23.944  1.00  0.00     0.219 C 
BRANCH  11  12
ATOM     12  N   UNL A   1      32.156  26.735  22.541  1.00  0.00    -0.312 N 
ATOM     13  C   UNL A   1      32.641  25.663  21.863  1.00  0.00     0.407 C 
ATOM     14  H   UNL A   1      32.030  27.563  22.024  1.00  0.00     0.167 HD
ATOM     15  O   UNL A   1      33.175  25.816  20.772  1.00  0.00    -0.225 OA
BRANCH  13  16
ATOM     16  O   UNL A   1      32.504  24.491  22.523  1.00  0.00    -0.445 OA
BRANCH  16  17
ATOM     17  C   UNL A   1      33.571  23.546  22.331  1.00  0.00     0.270 C 
BRANCH  17  18
ATOM     18  C   UNL A   1      34.622  23.599  23.417  1.00  0.00    -0.011 A 
ATOM     19  C   UNL A   1      35.904  23.073  23.212  1.00  0.00     0.007 A 
ATOM     20  C   UNL A   1      34.325  24.178  24.660  1.00  0.00     0.007 A 
ATOM     21  C   UNL A   1      36.860  23.123  24.232  1.00  0.00     0.000 A 
ATOM     22  C   UNL A   1      35.286  24.246  25.669  1.00  0.00     0.000 A 
ATOM     23  C   UNL A   1      36.553  23.714  25.456  1.00  0.00     0.000 A 
ENDBRANCH  17  18
ENDBRANCH  16  17
ENDBRANCH  13  16
ENDBRANCH  11  12
ENDBRANCH   8  11
ENDBRANCH   6   7
ENDBRANCH   4   6
ENDBRANCH   1   2
BRANCH   1  24
ATOM     24  C   UNL A   1      35.606  31.316  27.879  1.00  0.00     0.021 C 
BRANCH  24  25
ATOM     25  C   UNL A   1      34.376  32.075  28.392  1.00  0.00     0.002 C 
BRANCH  25  26
ATOM     26  C   UNL A   1      34.625  33.486  28.930  1.00  0.00     0.002 C 
BRANCH  26  27
ATOM     27  C   UNL A   1      34.542  33.645  30.448  1.00  0.00     0.021 C 
BRANCH  27  28
ATOM     28  C   UNL A   1      34.700  32.359  31.257  1.00  0.00     0.116 C 
BRANCH  28  29
ATOM     29  N   UNL A   1      35.187  32.594  32.608  1.00  0.00    -0.352 N 
ATOM     30  C   UNL A   1      36.380  32.248  33.193  1.00  0.00     0.251 C 
ATOM     31  H   UNL A   1      34.563  33.078  33.194  1.00  0.00     0.163 HD
ATOM     32  O   UNL A   1      36.544  32.424  34.397  1.00  0.00    -0.269 OA
BRANCH  30  33
ATOM     33  C   UNL A   1      37.467  31.634  32.394  1.00  0.00     0.039 A 
ATOM     34  C   UNL A   1      37.507  31.880  31.018  1.00  0.00     0.014 A 
ATOM     35  C   UNL A   1      38.428  30.805  32.982  1.00  0.00     0.014 A 
ATOM     36  C   UNL A   1      38.549  31.359  30.247  1.00  0.00     0.010 A 
ATOM     37  C   UNL A   1      39.502  30.340  32.224  1.00  0.00     0.010 A 
ATOM     38  C   UNL A   1      39.577  30.617  30.851  1.00  0.00    -0.014 A 
BRANCH  38  39
ATOM     39  C   UNL A   1      40.748  30.153  30.062  1.00  0.00     0.031 A 
ATOM     40  C   UNL A   1      41.879  31.088  29.742  1.00  0.00     0.074 A 
ATOM     41  C   UNL A   1      40.763  28.895  29.581  1.00  0.00     0.049 A 
ATOM     42  N   UNL A   1      42.961  30.865  29.039  1.00  0.00    -0.248 NA
ATOM     43  C   UNL A   1      41.769  32.461  30.258  1.00  0.00     0.031 C 
ATOM     44  C   UNL A   1      39.704  27.902  29.775  1.00  0.00     0.029 A 
ATOM     45  N   UNL A   1      41.699  28.238  28.824  1.00  0.00    -0.354 N 
ATOM     46  C   UNL A   1      43.653  32.070  29.015  1.00  0.00     0.074 A 
ATOM     47  C   UNL A   1      42.846  33.031  29.737  1.00  0.00     0.031 C 
ATOM     48  C   UNL A   1      40.061  26.755  29.176  1.00  0.00     0.029 A 
ATOM     49  C   UNL A   1      41.359  26.939  28.531  1.00  0.00     0.049 A 
ATOM     50  H   UNL A   1      42.537  28.656  28.518  1.00  0.00     0.167 HD
ATOM     51  C   UNL A   1      44.857  32.345  28.460  1.00  0.00     0.037 A 
ATOM     52  C   UNL A   1      42.016  26.001  27.826  1.00  0.00     0.037 A 
ATOM     53  C   UNL A   1      45.673  31.383  27.765  1.00  0.00     0.049 A 
ATOM     54  C   UNL A   1      43.352  26.328  27.225  1.00  0.00     0.074 A 
ATOM     55  C   UNL A   1      46.942  31.548  27.237  1.00  0.00     0.029 A 
ATOM     56  N   UNL A   1      45.296  30.076  27.495  1.00  0.00    -0.354 N 
ATOM     57  N   UNL A   1      44.028  27.449  27.276  1.00  0.00    -0.248 NA
ATOM     58  C   UNL A   1      44.019  25.256  26.472  1.00  0.00     0.031 C 
ATOM     59  C   UNL A   1      47.316  30.352  26.614  1.00  0.00     0.029 A 
ATOM     60  C   UNL A   1      46.297  29.431  26.787  1.00  0.00     0.049 A 
ATOM     61  H   UNL A   1      44.442  29.667  27.766  1.00  0.00     0.167 HD
ATOM     62  C   UNL A   1      45.206  27.214  26.581  1.00  0.00     0.074 A 
ATOM     63  C   UNL A   1      45.160  25.838  26.130  1.00  0.00     0.031 C 
ATOM     64  C   UNL A   1      46.236  28.064  26.339  1.00  0.00     0.037 A 
BRANCH  51  65
ATOM     65  C   UNL A   1      45.367  33.751  28.586  1.00  0.00     0.057 A 
ATOM     66  C   UNL A   1      45.088  34.726  27.621  1.00  0.00     0.134 A 
ATOM     67  C   UNL A   1      46.127  34.139  29.697  1.00  0.00     0.134 A 
ATOM     68  F   UNL A   1      44.374  34.416  26.528  1.00  0.00    -0.206 F 
ATOM     69  C   UNL A   1      45.570  36.031  27.741  1.00  0.00     0.040 A 
ATOM     70  C   UNL A   1      46.594  35.446  29.839  1.00  0.00     0.040 A 
ATOM     71  F   UNL A   1      46.426  33.256  30.661  1.00  0.00    -0.206 F 
ATOM     72  C   UNL A   1      46.322  36.395  28.855  1.00  0.00     0.006 A 
ENDBRANCH  51  65
BRANCH  52  73
ATOM     73  C   UNL A   1      41.432  24.646  27.679  1.00  0.00     0.057 A 
ATOM     74  C   UNL A   1      41.862  23.589  28.490  1.00  0.00     0.134 A 
ATOM     75  C   UNL A   1      40.429  24.376  26.741  1.00  0.00     0.134 A 
ATOM     76  F   UNL A   1      42.834  23.784  29.393  1.00  0.00    -0.206 F 
ATOM     77  C   UNL A   1      41.323  22.308  28.367  1.00  0.00     0.040 A 
ATOM     78  C   UNL A   1      39.867  23.105  26.620  1.00  0.00     0.040 A 
ATOM     79  F   UNL A   1      39.971  25.350  25.940  1.00  0.00    -0.206 F 
ATOM     80  C   UNL A   1      40.317  22.065  27.432  1.00  0.00     0.006 A 
ENDBRANCH  52  73
BRANCH  64  81
ATOM     81  C   UNL A   1      47.400  27.519  25.565  1.00  0.00     0.057 A 
ATOM     82  C   UNL A   1      47.460  27.606  24.169  1.00  0.00     0.134 A 
ATOM     83  C   UNL A   1      48.482  26.925  26.226  1.00  0.00     0.134 A 
ATOM     84  F   UNL A   1      46.448  28.150  23.477  1.00  0.00    -0.206 F 
ATOM     85  C   UNL A   1      48.547  27.100  23.454  1.00  0.00     0.040 A 
ATOM     86  C   UNL A   1      49.585  26.436  25.524  1.00  0.00     0.040 A 
ATOM     87  F   UNL A   1      48.489  26.818  27.563  1.00  0.00    -0.206 F 
ATOM     88  C   UNL A   1      49.616  26.517  24.134  1.00  0.00     0.006 A 
ENDBRANCH  64  81
ENDBRANCH  38  39
ENDBRANCH  30  33
ENDBRANCH  28  29
ENDBRANCH  27  28
ENDBRANCH  26  27
ENDBRANCH  25  26
ENDBRANCH  24  25
ENDBRANCH   1  24
TORSDOF 19
ENDMDL
