MODEL 1
REMARK VINA RESULT:     -12.3      0.000      0.000
REMARK SMILES Cc1nn(C)cc1C[NH+]1CCN(C(=O)Cn2ccc(C(=O)NCCCCCCNC(=O)c3ccc(-c4c5nc(c(-c6c(F)cccc6F)c6ccc([nH]6)c(-c6c(F)cccc6F)c6nc(c(-c7c(F)cccc7F)c7ccc4[nH]7)C=C6)C=C5)cc3)n2)CC1
REMARK SMILES IDX 24 1 23 2 22 3 20 4 21 5 19 7 16 8 17 9 86 10 18 11 15 12
REMARK SMILES IDX 13 13 9 14 10 15 88 16 11 18 87 19 12 20 14 21 8 22 7 23
REMARK SMILES IDX 1 24 2 25 3 26 4 27 6 28 5 29 25 30 26 31 27 32 28 33 29 34
REMARK SMILES IDX 30 35 31 37 32 38 33 39 85 40 34 41 84 42 35 43 36 44 37 45
REMARK SMILES IDX 78 46 38 47 83 48 77 49 79 50 39 51 82 52 76 53 75 54 40 56
REMARK SMILES IDX 66 57 49 58 65 59 50 60 53 61 64 62 80 63 51 64 52 65 63 67
REMARK SMILES IDX 81 68 54 69 41 70 42 71 47 72 43 73 44 74 46 75 48 76 45 77
REMARK SMILES IDX 67 78 68 79 73 80 69 81 70 82 72 83 74 84 71 85 55 86 56 87
REMARK SMILES IDX 61 88 57 89 58 90 60 91 62 92 59 93
REMARK H PARENT 22 6 9 17 29 36 79 55 53 66
REMARK Flexibility Score: inf
ROOT
ATOM      1  C   UNL A   1      40.681  21.161  27.470  1.00  0.00     0.021 C 
ENDROOT
BRANCH   1   2
ATOM      2  C   UNL A   1      39.899  21.252  26.160  1.00  0.00     0.116 C 
BRANCH   2   3
ATOM      3  N   UNL A   1      39.240  22.534  26.048  1.00  0.00    -0.351 N 
ATOM      4  C   UNL A   1      37.941  22.906  25.801  1.00  0.00     0.271 C 
ATOM      5  O   UNL A   1      37.736  24.125  25.800  1.00  0.00    -0.267 OA
ATOM      6  H   UNL A   1      39.848  23.298  26.174  1.00  0.00     0.163 HD
BRANCH   4   7
ATOM      7  C   UNL A   1      36.854  21.926  25.576  1.00  0.00     0.150 A 
ATOM      8  N   UNL A   1      34.899  21.073  25.836  1.00  0.00    -0.263 N 
ATOM      9  C   UNL A   1      35.540  20.208  25.005  1.00  0.00     0.110 A 
ATOM     10  N   UNL A   1      35.655  22.136  26.160  1.00  0.00    -0.167 NA
ATOM     11  C   UNL A   1      36.788  20.744  24.790  1.00  0.00     0.056 A 
BRANCH   8  12
ATOM     12  C   UNL A   1      33.514  21.059  26.299  1.00  0.00     0.244 C 
BRANCH  12  13
ATOM     13  C   UNL A   1      32.517  21.377  25.202  1.00  0.00     0.244 C 
ATOM     14  N   UNL A   1      31.110  25.444  24.491  1.00  0.00    -0.328 N 
ATOM     15  C   UNL A   1      30.606  24.288  23.747  1.00  0.00     0.284 C 
ATOM     16  C   UNL A   1      31.582  25.056  25.820  1.00  0.00     0.284 C 
ATOM     17  H   UNL A   1      30.301  26.044  24.649  1.00  0.00     0.348 HD
ATOM     18  C   UNL A   1      31.511  23.045  23.737  1.00  0.00     0.181 C 
ATOM     19  C   UNL A   1      32.473  23.801  25.915  1.00  0.00     0.181 C 
ATOM     20  N   UNL A   1      32.084  22.692  25.040  1.00  0.00    -0.330 N 
ATOM     21  O   UNL A   1      32.139  20.483  24.438  1.00  0.00    -0.273 OA
BRANCH  14  22
ATOM     22  C   UNL A   1      31.932  26.406  23.751  1.00  0.00     0.302 C 
BRANCH  22  23
ATOM     23  C   UNL A   1      31.286  27.733  23.549  1.00  0.00     0.047 A 
ATOM     24  C   UNL A   1      31.635  28.914  25.875  1.00  0.00     0.069 C 
ATOM     25  C   UNL A   1      31.131  28.801  24.483  1.00  0.00     0.068 A 
ATOM     26  N   UNL A   1      30.375  29.789  23.982  1.00  0.00    -0.178 NA
ATOM     27  N   UNL A   1      30.066  29.367  22.748  1.00  0.00    -0.275 N 
ATOM     28  C   UNL A   1      30.719  28.228  22.390  1.00  0.00     0.118 A 
ATOM     29  C   UNL A   1      29.028  30.034  22.001  1.00  0.00     0.173 C 
ENDBRANCH  22  23
ENDBRANCH  14  22
ENDBRANCH  12  13
ENDBRANCH   8  12
ENDBRANCH   4   7
ENDBRANCH   2   3
ENDBRANCH   1   2
BRANCH   1  30
ATOM     30  C   UNL A   1      42.106  20.616  27.302  1.00  0.00     0.002 C 
BRANCH  30  31
ATOM     31  C   UNL A   1      42.260  19.093  27.444  1.00  0.00     0.002 C 
BRANCH  31  32
ATOM     32  C   UNL A   1      42.857  18.353  26.238  1.00  0.00     0.021 C 
BRANCH  32  33
ATOM     33  C   UNL A   1      44.359  18.539  26.090  1.00  0.00     0.116 C 
BRANCH  33  34
ATOM     34  N   UNL A   1      44.766  18.638  24.690  1.00  0.00    -0.352 N 
ATOM     35  C   UNL A   1      44.746  19.743  23.859  1.00  0.00     0.251 C 
ATOM     36  H   UNL A   1      45.101  17.806  24.284  1.00  0.00     0.163 HD
ATOM     37  O   UNL A   1      44.765  19.623  22.647  1.00  0.00    -0.269 OA
BRANCH  35  38
ATOM     38  C   UNL A   1      44.705  21.079  24.476  1.00  0.00     0.039 A 
ATOM     39  C   UNL A   1      43.672  21.978  24.196  1.00  0.00     0.014 A 
ATOM     40  C   UNL A   1      45.718  21.410  25.369  1.00  0.00     0.014 A 
ATOM     41  C   UNL A   1      43.629  23.186  24.888  1.00  0.00     0.010 A 
ATOM     42  C   UNL A   1      45.581  22.513  26.168  1.00  0.00     0.010 A 
ATOM     43  C   UNL A   1      44.581  23.437  25.888  1.00  0.00    -0.014 A 
BRANCH  43  44
ATOM     44  C   UNL A   1      44.494  24.622  26.735  1.00  0.00     0.031 A 
ATOM     45  C   UNL A   1      45.620  25.583  26.575  1.00  0.00     0.074 A 
ATOM     46  C   UNL A   1      43.369  24.940  27.412  1.00  0.00     0.049 A 
ATOM     47  N   UNL A   1      46.500  25.926  27.456  1.00  0.00    -0.248 NA
ATOM     48  C   UNL A   1      45.875  26.139  25.235  1.00  0.00     0.031 C 
ATOM     49  C   UNL A   1      42.072  24.250  27.397  1.00  0.00     0.029 A 
ATOM     50  N   UNL A   1      43.110  26.032  28.179  1.00  0.00    -0.354 N 
ATOM     51  C   UNL A   1      47.292  26.899  26.850  1.00  0.00     0.074 A 
ATOM     52  C   UNL A   1      46.984  26.850  25.445  1.00  0.00     0.031 C 
ATOM     53  C   UNL A   1      41.119  25.060  27.908  1.00  0.00     0.029 A 
ATOM     54  C   UNL A   1      41.762  26.240  28.453  1.00  0.00     0.049 A 
ATOM     55  H   UNL A   1      43.818  26.628  28.515  1.00  0.00     0.167 HD
ATOM     56  C   UNL A   1      47.946  27.835  27.594  1.00  0.00     0.037 A 
ATOM     57  C   UNL A   1      41.213  27.317  29.065  1.00  0.00     0.037 A 
ATOM     58  C   UNL A   1      48.011  27.438  28.979  1.00  0.00     0.049 A 
ATOM     59  C   UNL A   1      42.302  28.015  29.788  1.00  0.00     0.074 A 
ATOM     60  C   UNL A   1      48.541  26.361  29.663  1.00  0.00     0.029 A 
ATOM     61  N   UNL A   1      47.130  28.031  29.848  1.00  0.00    -0.354 N 
ATOM     62  N   UNL A   1      42.911  27.524  30.829  1.00  0.00    -0.248 NA
ATOM     63  C   UNL A   1      43.021  29.061  29.077  1.00  0.00     0.031 C 
ATOM     64  C   UNL A   1      47.602  26.084  30.699  1.00  0.00     0.029 A 
ATOM     65  C   UNL A   1      46.594  27.047  30.635  1.00  0.00     0.049 A 
ATOM     66  H   UNL A   1      46.920  28.993  29.896  1.00  0.00     0.167 HD
ATOM     67  C   UNL A   1      44.243  27.864  30.648  1.00  0.00     0.074 A 
ATOM     68  C   UNL A   1      44.233  28.895  29.612  1.00  0.00     0.031 C 
ATOM     69  C   UNL A   1      45.241  27.072  31.140  1.00  0.00     0.037 A 
BRANCH  56  70
ATOM     70  C   UNL A   1      48.165  29.271  27.172  1.00  0.00     0.057 A 
ATOM     71  C   UNL A   1      49.450  29.831  27.302  1.00  0.00     0.134 A 
ATOM     72  C   UNL A   1      47.132  30.204  26.942  1.00  0.00     0.134 A 
ATOM     73  F   UNL A   1      50.521  29.054  27.526  1.00  0.00    -0.206 F 
ATOM     74  C   UNL A   1      49.674  31.214  27.301  1.00  0.00     0.040 A 
ATOM     75  C   UNL A   1      47.353  31.583  26.888  1.00  0.00     0.040 A 
ATOM     76  F   UNL A   1      45.845  29.851  26.861  1.00  0.00    -0.206 F 
ATOM     77  C   UNL A   1      48.621  32.095  27.105  1.00  0.00     0.006 A 
ENDBRANCH  56  70
BRANCH  57  78
ATOM     78  C   UNL A   1      39.884  27.936  28.862  1.00  0.00     0.057 A 
ATOM     79  C   UNL A   1      38.945  27.987  29.900  1.00  0.00     0.134 A 
ATOM     80  C   UNL A   1      39.617  28.745  27.744  1.00  0.00     0.134 A 
ATOM     81  F   UNL A   1      39.131  27.275  31.022  1.00  0.00    -0.206 F 
ATOM     82  C   UNL A   1      37.821  28.823  29.848  1.00  0.00     0.040 A 
ATOM     83  C   UNL A   1      38.496  29.580  27.677  1.00  0.00     0.040 A 
ATOM     84  F   UNL A   1      40.482  28.822  26.722  1.00  0.00    -0.206 F 
ATOM     85  C   UNL A   1      37.602  29.634  28.740  1.00  0.00     0.006 A 
ENDBRANCH  57  78
BRANCH  69  86
ATOM     86  C   UNL A   1      44.858  25.988  32.113  1.00  0.00     0.057 A 
ATOM     87  C   UNL A   1      44.541  24.670  31.750  1.00  0.00     0.134 A 
ATOM     88  C   UNL A   1      44.945  26.261  33.482  1.00  0.00     0.134 A 
ATOM     89  F   UNL A   1      44.530  24.284  30.470  1.00  0.00    -0.206 F 
ATOM     90  C   UNL A   1      44.276  23.683  32.706  1.00  0.00     0.040 A 
ATOM     91  C   UNL A   1      44.718  25.277  34.447  1.00  0.00     0.040 A 
ATOM     92  F   UNL A   1      45.297  27.485  33.907  1.00  0.00    -0.206 F 
ATOM     93  C   UNL A   1      44.371  23.986  34.061  1.00  0.00     0.006 A 
ENDBRANCH  69  86
ENDBRANCH  43  44
ENDBRANCH  35  38
ENDBRANCH  33  34
ENDBRANCH  32  33
ENDBRANCH  31  32
ENDBRANCH  30  31
ENDBRANCH   1  30
TORSDOF 17
ENDMDL
MODEL 2
REMARK VINA RESULT:     -11.2      1.777      2.772
REMARK SMILES Cc1nn(C)cc1C[NH+]1CCN(C(=O)Cn2ccc(C(=O)NCCCCCCNC(=O)c3ccc(-c4c5nc(c(-c6c(F)cccc6F)c6ccc([nH]6)c(-c6c(F)cccc6F)c6nc(c(-c7c(F)cccc7F)c7ccc4[nH]7)C=C6)C=C5)cc3)n2)CC1
REMARK SMILES IDX 24 1 23 2 22 3 20 4 21 5 19 7 16 8 17 9 86 10 18 11 15 12
REMARK SMILES IDX 13 13 9 14 10 15 88 16 11 18 87 19 12 20 14 21 8 22 7 23
REMARK SMILES IDX 1 24 2 25 3 26 4 27 6 28 5 29 25 30 26 31 27 32 28 33 29 34
REMARK SMILES IDX 30 35 31 37 32 38 33 39 85 40 34 41 84 42 35 43 36 44 37 45
REMARK SMILES IDX 78 46 38 47 83 48 77 49 79 50 39 51 82 52 76 53 75 54 40 56
REMARK SMILES IDX 66 57 49 58 65 59 50 60 53 61 64 62 80 63 51 64 52 65 63 67
REMARK SMILES IDX 81 68 54 69 41 70 42 71 47 72 43 73 44 74 46 75 48 76 45 77
REMARK SMILES IDX 67 78 68 79 73 80 69 81 70 82 72 83 74 84 71 85 55 86 56 87
REMARK SMILES IDX 61 88 57 89 58 90 60 91 62 92 59 93
REMARK H PARENT 22 6 9 17 29 36 79 55 53 66
REMARK Flexibility Score: inf
ROOT
ATOM      1  C   UNL A   1      38.113  23.048  26.130  1.00  0.00     0.021 C 
ENDROOT
BRANCH   1   2
ATOM      2  C   UNL A   1      37.011  22.059  25.753  1.00  0.00     0.116 C 
BRANCH   2   3
ATOM      3  N   UNL A   1      35.974  22.041  26.760  1.00  0.00    -0.351 N 
ATOM      4  C   UNL A   1      34.655  21.658  26.747  1.00  0.00     0.271 C 
ATOM      5  O   UNL A   1      34.068  21.764  27.829  1.00  0.00    -0.267 OA
ATOM      6  H   UNL A   1      36.276  22.373  27.636  1.00  0.00     0.163 HD
BRANCH   4   7
ATOM      7  C   UNL A   1      33.985  21.130  25.537  1.00  0.00     0.150 A 
ATOM      8  N   UNL A   1      32.923  21.254  23.672  1.00  0.00    -0.263 N 
ATOM      9  C   UNL A   1      33.024  19.920  23.918  1.00  0.00     0.110 A 
ATOM     10  N   UNL A   1      33.531  22.001  24.610  1.00  0.00    -0.167 NA
ATOM     11  C   UNL A   1      33.730  19.804  25.093  1.00  0.00     0.056 A 
BRANCH   8  12
ATOM     12  C   UNL A   1      32.376  21.943  22.507  1.00  0.00     0.244 C 
BRANCH  12  13
ATOM     13  C   UNL A   1      32.941  23.337  22.319  1.00  0.00     0.244 C 
ATOM     14  N   UNL A   1      30.943  26.857  23.943  1.00  0.00    -0.328 N 
ATOM     15  C   UNL A   1      32.154  26.939  23.123  1.00  0.00     0.284 C 
ATOM     16  C   UNL A   1      30.168  25.657  23.627  1.00  0.00     0.284 C 
ATOM     17  H   UNL A   1      30.362  27.645  23.655  1.00  0.00     0.348 HD
ATOM     18  C   UNL A   1      33.005  25.661  23.049  1.00  0.00     0.181 C 
ATOM     19  C   UNL A   1      30.941  24.329  23.502  1.00  0.00     0.181 C 
ATOM     20  N   UNL A   1      32.244  24.426  22.838  1.00  0.00    -0.330 N 
ATOM     21  O   UNL A   1      34.030  23.488  21.755  1.00  0.00    -0.273 OA
BRANCH  14  22
ATOM     22  C   UNL A   1      31.072  27.209  25.360  1.00  0.00     0.302 C 
BRANCH  22  23
ATOM     23  C   UNL A   1      31.627  28.570  25.603  1.00  0.00     0.047 A 
ATOM     24  C   UNL A   1      34.088  28.067  26.387  1.00  0.00     0.069 C 
ATOM     25  C   UNL A   1      32.922  28.934  26.079  1.00  0.00     0.068 A 
ATOM     26  N   UNL A   1      33.014  30.252  26.303  1.00  0.00    -0.178 NA
ATOM     27  N   UNL A   1      31.806  30.724  25.961  1.00  0.00    -0.275 N 
ATOM     28  C   UNL A   1      31.006  29.786  25.385  1.00  0.00     0.118 A 
ATOM     29  C   UNL A   1      31.429  32.065  26.333  1.00  0.00     0.173 C 
ENDBRANCH  22  23
ENDBRANCH  14  22
ENDBRANCH  12  13
ENDBRANCH   8  12
ENDBRANCH   4   7
ENDBRANCH   2   3
ENDBRANCH   1   2
BRANCH   1  30
ATOM     30  C   UNL A   1      39.531  22.525  25.862  1.00  0.00     0.002 C 
BRANCH  30  31
ATOM     31  C   UNL A   1      40.044  21.456  26.842  1.00  0.00     0.002 C 
BRANCH  31  32
ATOM     32  C   UNL A   1      40.828  20.288  26.226  1.00  0.00     0.021 C 
BRANCH  32  33
ATOM     33  C   UNL A   1      42.165  20.026  26.900  1.00  0.00     0.116 C 
BRANCH  33  34
ATOM     34  N   UNL A   1      43.239  19.816  25.931  1.00  0.00    -0.352 N 
ATOM     35  C   UNL A   1      43.922  20.753  25.179  1.00  0.00     0.251 C 
ATOM     36  H   UNL A   1      43.513  18.879  25.795  1.00  0.00     0.163 HD
ATOM     37  O   UNL A   1      44.525  20.436  24.169  1.00  0.00    -0.269 OA
BRANCH  35  38
ATOM     38  C   UNL A   1      43.909  22.154  25.631  1.00  0.00     0.039 A 
ATOM     39  C   UNL A   1      43.049  23.095  25.059  1.00  0.00     0.014 A 
ATOM     40  C   UNL A   1      44.767  22.506  26.667  1.00  0.00     0.014 A 
ATOM     41  C   UNL A   1      43.006  24.378  25.598  1.00  0.00     0.010 A 
ATOM     42  C   UNL A   1      44.602  23.708  27.302  1.00  0.00     0.010 A 
ATOM     43  C   UNL A   1      43.775  24.670  26.735  1.00  0.00    -0.014 A 
BRANCH  43  44
ATOM     44  C   UNL A   1      43.659  25.954  27.417  1.00  0.00     0.031 A 
ATOM     45  C   UNL A   1      44.707  26.948  27.055  1.00  0.00     0.074 A 
ATOM     46  C   UNL A   1      42.557  26.297  28.120  1.00  0.00     0.049 A 
ATOM     47  N   UNL A   1      45.612  27.460  27.822  1.00  0.00    -0.248 NA
ATOM     48  C   UNL A   1      44.847  27.327  25.638  1.00  0.00     0.031 C 
ATOM     49  C   UNL A   1      41.310  25.538  28.284  1.00  0.00     0.029 A 
ATOM     50  N   UNL A   1      42.270  27.469  28.748  1.00  0.00    -0.354 N 
ATOM     51  C   UNL A   1      46.301  28.384  27.039  1.00  0.00     0.074 A 
ATOM     52  C   UNL A   1      45.916  28.123  25.677  1.00  0.00     0.031 C 
ATOM     53  C   UNL A   1      40.336  26.354  28.744  1.00  0.00     0.029 A 
ATOM     54  C   UNL A   1      40.930  27.633  29.080  1.00  0.00     0.049 A 
ATOM     55  H   UNL A   1      42.956  28.145  28.952  1.00  0.00     0.167 HD
ATOM     56  C   UNL A   1      46.933  29.450  27.604  1.00  0.00     0.037 A 
ATOM     57  C   UNL A   1      40.347  28.751  29.577  1.00  0.00     0.037 A 
ATOM     58  C   UNL A   1      47.105  29.254  29.023  1.00  0.00     0.049 A 
ATOM     59  C   UNL A   1      41.427  29.604  30.125  1.00  0.00     0.074 A 
ATOM     60  C   UNL A   1      47.745  28.315  29.808  1.00  0.00     0.029 A 
ATOM     61  N   UNL A   1      46.238  29.909  29.860  1.00  0.00    -0.354 N 
ATOM     62  N   UNL A   1      42.127  29.299  31.180  1.00  0.00    -0.248 NA
ATOM     63  C   UNL A   1      42.032  30.582  29.234  1.00  0.00     0.031 C 
ATOM     64  C   UNL A   1      46.888  28.130  30.933  1.00  0.00     0.029 A 
ATOM     65  C   UNL A   1      45.816  29.014  30.807  1.00  0.00     0.049 A 
ATOM     66  H   UNL A   1      45.968  30.854  29.792  1.00  0.00     0.167 HD
ATOM     67  C   UNL A   1      43.420  29.688  30.866  1.00  0.00     0.074 A 
ATOM     68  C   UNL A   1      43.282  30.563  29.704  1.00  0.00     0.031 C 
ATOM     69  C   UNL A   1      44.496  29.031  31.393  1.00  0.00     0.037 A 
BRANCH  56  70
ATOM     70  C   UNL A   1      47.031  30.824  26.979  1.00  0.00     0.057 A 
ATOM     71  C   UNL A   1      48.273  31.488  26.983  1.00  0.00     0.134 A 
ATOM     72  C   UNL A   1      45.925  31.639  26.658  1.00  0.00     0.134 A 
ATOM     73  F   UNL A   1      49.405  30.829  27.275  1.00  0.00    -0.206 F 
ATOM     74  C   UNL A   1      48.391  32.870  26.782  1.00  0.00     0.040 A 
ATOM     75  C   UNL A   1      46.039  33.009  26.405  1.00  0.00     0.040 A 
ATOM     76  F   UNL A   1      44.667  31.186  26.674  1.00  0.00    -0.206 F 
ATOM     77  C   UNL A   1      47.269  33.636  26.503  1.00  0.00     0.006 A 
ENDBRANCH  56  70
BRANCH  57  78
ATOM     78  C   UNL A   1      38.970  29.258  29.381  1.00  0.00     0.057 A 
ATOM     79  C   UNL A   1      38.478  29.537  28.100  1.00  0.00     0.134 A 
ATOM     80  C   UNL A   1      38.017  29.201  30.413  1.00  0.00     0.134 A 
ATOM     81  F   UNL A   1      39.307  29.578  27.046  1.00  0.00    -0.206 F 
ATOM     82  C   UNL A   1      37.110  29.715  27.849  1.00  0.00     0.040 A 
ATOM     83  C   UNL A   1      36.650  29.382  30.177  1.00  0.00     0.040 A 
ATOM     84  F   UNL A   1      38.370  28.878  31.665  1.00  0.00    -0.206 F 
ATOM     85  C   UNL A   1      36.190  29.622  28.888  1.00  0.00     0.006 A 
ENDBRANCH  57  78
BRANCH  69  86
ATOM     86  C   UNL A   1      44.243  28.072  32.526  1.00  0.00     0.057 A 
ATOM     87  C   UNL A   1      44.041  28.455  33.861  1.00  0.00     0.134 A 
ATOM     88  C   UNL A   1      44.067  26.717  32.227  1.00  0.00     0.134 A 
ATOM     89  F   UNL A   1      44.089  29.740  34.232  1.00  0.00    -0.206 F 
ATOM     90  C   UNL A   1      43.725  27.525  34.858  1.00  0.00     0.040 A 
ATOM     91  C   UNL A   1      43.717  25.784  33.205  1.00  0.00     0.040 A 
ATOM     92  F   UNL A   1      44.190  26.283  30.962  1.00  0.00    -0.206 F 
ATOM     93  C   UNL A   1      43.556  26.184  34.528  1.00  0.00     0.006 A 
ENDBRANCH  69  86
ENDBRANCH  43  44
ENDBRANCH  35  38
ENDBRANCH  33  34
ENDBRANCH  32  33
ENDBRANCH  31  32
ENDBRANCH  30  31
ENDBRANCH   1  30
TORSDOF 17
ENDMDL
MODEL 3
REMARK VINA RESULT:     -11.0      4.464     10.377
REMARK SMILES Cc1nn(C)cc1C[NH+]1CCN(C(=O)Cn2ccc(C(=O)NCCCCCCNC(=O)c3ccc(-c4c5nc(c(-c6c(F)cccc6F)c6ccc([nH]6)c(-c6c(F)cccc6F)c6nc(c(-c7c(F)cccc7F)c7ccc4[nH]7)C=C6)C=C5)cc3)n2)CC1
REMARK SMILES IDX 24 1 23 2 22 3 20 4 21 5 19 7 16 8 17 9 86 10 18 11 15 12
REMARK SMILES IDX 13 13 9 14 10 15 88 16 11 18 87 19 12 20 14 21 8 22 7 23
REMARK SMILES IDX 1 24 2 25 3 26 4 27 6 28 5 29 25 30 26 31 27 32 28 33 29 34
REMARK SMILES IDX 30 35 31 37 32 38 33 39 85 40 34 41 84 42 35 43 36 44 37 45
REMARK SMILES IDX 78 46 38 47 83 48 77 49 79 50 39 51 82 52 76 53 75 54 40 56
REMARK SMILES IDX 66 57 49 58 65 59 50 60 53 61 64 62 80 63 51 64 52 65 63 67
REMARK SMILES IDX 81 68 54 69 41 70 42 71 47 72 43 73 44 74 46 75 48 76 45 77
REMARK SMILES IDX 67 78 68 79 73 80 69 81 70 82 72 83 74 84 71 85 55 86 56 87
REMARK SMILES IDX 61 88 57 89 58 90 60 91 62 92 59 93
REMARK H PARENT 22 6 9 17 29 36 79 55 53 66
REMARK Flexibility Score: inf
ROOT
ATOM      1  C   UNL A   1      34.181  33.326  28.515  1.00  0.00     0.021 C 
ENDROOT
BRANCH   1   2
ATOM      2  C   UNL A   1      33.667  32.194  27.626  1.00  0.00     0.116 C 
BRANCH   2   3
ATOM      3  N   UNL A   1      34.538  31.043  27.712  1.00  0.00    -0.351 N 
ATOM      4  C   UNL A   1      34.489  29.783  27.168  1.00  0.00     0.271 C 
ATOM      5  O   UNL A   1      35.445  29.052  27.450  1.00  0.00    -0.267 OA
ATOM      6  H   UNL A   1      35.329  31.193  28.279  1.00  0.00     0.163 HD
BRANCH   4   7
ATOM      7  C   UNL A   1      33.389  29.332  26.285  1.00  0.00     0.150 A 
ATOM      8  N   UNL A   1      32.443  28.867  24.412  1.00  0.00    -0.263 N 
ATOM      9  C   UNL A   1      31.474  28.660  25.343  1.00  0.00     0.110 A 
ATOM     10  N   UNL A   1      33.617  29.230  24.958  1.00  0.00    -0.167 NA
ATOM     11  C   UNL A   1      32.058  28.918  26.561  1.00  0.00     0.056 A 
BRANCH   8  12
ATOM     12  C   UNL A   1      32.410  28.631  22.971  1.00  0.00     0.244 C 
BRANCH  12  13
ATOM     13  C   UNL A   1      31.657  27.372  22.591  1.00  0.00     0.244 C 
ATOM     14  N   UNL A   1      33.257  23.402  23.434  1.00  0.00    -0.328 N 
ATOM     15  C   UNL A   1      32.004  23.615  22.706  1.00  0.00     0.284 C 
ATOM     16  C   UNL A   1      34.165  24.537  23.271  1.00  0.00     0.284 C 
ATOM     17  H   UNL A   1      33.712  22.614  22.973  1.00  0.00     0.348 HD
ATOM     18  C   UNL A   1      31.326  24.979  22.916  1.00  0.00     0.181 C 
ATOM     19  C   UNL A   1      33.568  25.949  23.433  1.00  0.00     0.181 C 
ATOM     20  N   UNL A   1      32.231  26.131  22.863  1.00  0.00    -0.330 N 
ATOM     21  O   UNL A   1      30.530  27.457  22.093  1.00  0.00    -0.273 OA
BRANCH  14  22
ATOM     22  C   UNL A   1      33.158  22.820  24.775  1.00  0.00     0.302 C 
BRANCH  22  23
ATOM     23  C   UNL A   1      33.343  21.342  24.815  1.00  0.00     0.047 A 
ATOM     24  C   UNL A   1      35.958  21.083  24.947  1.00  0.00     0.069 C 
ATOM     25  C   UNL A   1      34.559  20.596  24.856  1.00  0.00     0.068 A 
ATOM     26  N   UNL A   1      34.334  19.280  24.745  1.00  0.00    -0.178 NA
ATOM     27  N   UNL A   1      32.999  19.185  24.652  1.00  0.00    -0.275 N 
ATOM     28  C   UNL A   1      32.362  20.370  24.854  1.00  0.00     0.118 A 
ATOM     29  C   UNL A   1      32.396  17.943  24.235  1.00  0.00     0.173 C 
ENDBRANCH  22  23
ENDBRANCH  14  22
ENDBRANCH  12  13
ENDBRANCH   8  12
ENDBRANCH   4   7
ENDBRANCH   2   3
ENDBRANCH   1   2
BRANCH   1  30
ATOM     30  C   UNL A   1      33.227  34.526  28.600  1.00  0.00     0.002 C 
BRANCH  30  31
ATOM     31  C   UNL A   1      33.742  35.732  29.402  1.00  0.00     0.002 C 
BRANCH  31  32
ATOM     32  C   UNL A   1      32.893  36.161  30.608  1.00  0.00     0.021 C 
BRANCH  32  33
ATOM     33  C   UNL A   1      33.636  36.096  31.933  1.00  0.00     0.116 C 
BRANCH  33  34
ATOM     34  N   UNL A   1      33.047  35.121  32.848  1.00  0.00    -0.352 N 
ATOM     35  C   UNL A   1      33.405  33.802  33.056  1.00  0.00     0.251 C 
ATOM     36  H   UNL A   1      32.292  35.448  33.391  1.00  0.00     0.163 HD
ATOM     37  O   UNL A   1      32.632  33.009  33.562  1.00  0.00    -0.269 OA
BRANCH  35  38
ATOM     38  C   UNL A   1      34.756  33.375  32.654  1.00  0.00     0.039 A 
ATOM     39  C   UNL A   1      35.896  34.036  33.117  1.00  0.00     0.014 A 
ATOM     40  C   UNL A   1      34.861  32.271  31.815  1.00  0.00     0.014 A 
ATOM     41  C   UNL A   1      37.148  33.523  32.789  1.00  0.00     0.010 A 
ATOM     42  C   UNL A   1      36.078  31.672  31.636  1.00  0.00     0.010 A 
ATOM     43  C   UNL A   1      37.229  32.326  32.060  1.00  0.00    -0.014 A 
BRANCH  43  44
ATOM     44  C   UNL A   1      38.511  31.677  31.812  1.00  0.00     0.031 A 
ATOM     45  C   UNL A   1      39.284  31.339  33.039  1.00  0.00     0.074 A 
ATOM     46  C   UNL A   1      38.850  31.197  30.596  1.00  0.00     0.049 A 
ATOM     47  N   UNL A   1      40.431  31.807  33.407  1.00  0.00    -0.248 NA
ATOM     48  C   UNL A   1      38.649  30.468  34.044  1.00  0.00     0.031 C 
ATOM     49  C   UNL A   1      38.041  31.170  29.370  1.00  0.00     0.029 A 
ATOM     50  N   UNL A   1      39.966  30.514  30.223  1.00  0.00    -0.354 N 
ATOM     51  C   UNL A   1      40.762  31.133  34.581  1.00  0.00     0.074 A 
ATOM     52  C   UNL A   1      39.561  30.472  35.018  1.00  0.00     0.031 C 
ATOM     53  C   UNL A   1      38.582  30.305  28.485  1.00  0.00     0.029 A 
ATOM     54  C   UNL A   1      39.862  29.861  28.999  1.00  0.00     0.049 A 
ATOM     55  H   UNL A   1      40.781  30.484  30.775  1.00  0.00     0.167 HD
ATOM     56  C   UNL A   1      42.062  30.970  34.954  1.00  0.00     0.037 A 
ATOM     57  C   UNL A   1      40.758  29.001  28.459  1.00  0.00     0.037 A 
ATOM     58  C   UNL A   1      42.922  31.874  34.229  1.00  0.00     0.049 A 
ATOM     59  C   UNL A   1      42.048  29.212  29.157  1.00  0.00     0.074 A 
ATOM     60  C   UNL A   1      43.013  33.246  34.104  1.00  0.00     0.029 A 
ATOM     61  N   UNL A   1      43.639  31.357  33.179  1.00  0.00    -0.354 N 
ATOM     62  N   UNL A   1      42.766  30.293  29.041  1.00  0.00    -0.248 NA
ATOM     63  C   UNL A   1      42.317  28.406  30.337  1.00  0.00     0.031 C 
ATOM     64  C   UNL A   1      43.354  33.469  32.737  1.00  0.00     0.029 A 
ATOM     65  C   UNL A   1      43.522  32.226  32.127  1.00  0.00     0.049 A 
ATOM     66  H   UNL A   1      44.146  30.512  33.182  1.00  0.00     0.167 HD
ATOM     67  C   UNL A   1      43.241  30.536  30.321  1.00  0.00     0.074 A 
ATOM     68  C   UNL A   1      43.020  29.289  31.050  1.00  0.00     0.031 C 
ATOM     69  C   UNL A   1      43.492  31.810  30.744  1.00  0.00     0.037 A 
BRANCH  56  70
ATOM     70  C   UNL A   1      42.611  29.745  35.652  1.00  0.00     0.057 A 
ATOM     71  C   UNL A   1      43.470  29.917  36.754  1.00  0.00     0.134 A 
ATOM     72  C   UNL A   1      42.587  28.441  35.117  1.00  0.00     0.134 A 
ATOM     73  F   UNL A   1      43.589  31.110  37.356  1.00  0.00    -0.206 F 
ATOM     74  C   UNL A   1      44.310  28.898  37.222  1.00  0.00     0.040 A 
ATOM     75  C   UNL A   1      43.384  27.403  35.609  1.00  0.00     0.040 A 
ATOM     76  F   UNL A   1      41.878  28.120  34.029  1.00  0.00    -0.206 F 
ATOM     77  C   UNL A   1      44.276  27.639  36.641  1.00  0.00     0.006 A 
ENDBRANCH  56  70
BRANCH  57  78
ATOM     78  C   UNL A   1      40.526  27.836  27.577  1.00  0.00     0.057 A 
ATOM     79  C   UNL A   1      41.234  27.685  26.377  1.00  0.00     0.134 A 
ATOM     80  C   UNL A   1      39.824  26.705  28.028  1.00  0.00     0.134 A 
ATOM     81  F   UNL A   1      41.962  28.699  25.884  1.00  0.00    -0.206 F 
ATOM     82  C   UNL A   1      41.274  26.468  25.683  1.00  0.00     0.040 A 
ATOM     83  C   UNL A   1      39.851  25.486  27.342  1.00  0.00     0.040 A 
ATOM     84  F   UNL A   1      39.166  26.719  29.196  1.00  0.00    -0.206 F 
ATOM     85  C   UNL A   1      40.592  25.360  26.173  1.00  0.00     0.006 A 
ENDBRANCH  57  78
BRANCH  69  86
ATOM     86  C   UNL A   1      43.510  32.901  29.706  1.00  0.00     0.057 A 
ATOM     87  C   UNL A   1      42.425  33.743  29.419  1.00  0.00     0.134 A 
ATOM     88  C   UNL A   1      44.720  33.194  29.067  1.00  0.00     0.134 A 
ATOM     89  F   UNL A   1      41.253  33.609  30.050  1.00  0.00    -0.206 F 
ATOM     90  C   UNL A   1      42.528  34.797  28.503  1.00  0.00     0.040 A 
ATOM     91  C   UNL A   1      44.847  34.263  28.179  1.00  0.00     0.040 A 
ATOM     92  F   UNL A   1      45.817  32.466  29.333  1.00  0.00    -0.206 F 
ATOM     93  C   UNL A   1      43.745  35.062  27.884  1.00  0.00     0.006 A 
ENDBRANCH  69  86
ENDBRANCH  43  44
ENDBRANCH  35  38
ENDBRANCH  33  34
ENDBRANCH  32  33
ENDBRANCH  31  32
ENDBRANCH  30  31
ENDBRANCH   1  30
TORSDOF 17
ENDMDL
