MODEL 1
REMARK VINA RESULT:     -11.0      0.000      0.000
REMARK SMILES Cc1ccc(C)c(OCC(=O)N[C@@H](Cc2ccccc2)C(=O)NCCCCCCNC(=O)c2ccc(-c3c4nc(c(-c5c(F)cccc5F)c5ccc([nH]5)c(-c5c(F)cccc5F)c5nc(c(-c6c(F)cccc6F)c6ccc3[nH]6)C=C5)C=C4)cc2)c1
REMARK SMILES IDX 25 1 24 2 23 3 21 4 22 5 13 7 12 8 10 9 11 10 9 12 8 13 7 14
REMARK SMILES IDX 1 15 2 16 3 17 87 18 4 19 5 20 6 21 14 22 15 23 16 24 20 25
REMARK SMILES IDX 17 26 19 27 18 28 26 29 27 30 28 31 29 32 30 33 31 34 32 36
REMARK SMILES IDX 33 37 34 38 86 39 35 40 85 41 36 42 37 43 38 44 79 45 39 46
REMARK SMILES IDX 84 47 78 48 80 49 40 50 83 51 77 52 76 53 41 55 67 56 50 57
REMARK SMILES IDX 66 58 51 59 54 60 65 61 81 62 52 63 53 64 64 66 82 67 55 68
REMARK SMILES IDX 42 69 43 70 48 71 44 72 45 73 47 74 49 75 46 76 68 77 69 78
REMARK SMILES IDX 74 79 70 80 71 81 73 82 75 83 72 84 56 85 57 86 62 87 58 88
REMARK SMILES IDX 59 89 61 90 63 91 60 92
REMARK H PARENT 23 6 12 11 30 35 80 54 54 65
REMARK Flexibility Score: inf
ROOT
ATOM      1  C   UNL A   1      32.430  28.546  26.751  1.00  0.00     0.021 C 
ENDROOT
BRANCH   1   2
ATOM      2  C   UNL A   1      31.836  28.583  25.348  1.00  0.00     0.116 C 
BRANCH   2   3
ATOM      3  N   UNL A   1      32.785  28.408  24.265  1.00  0.00    -0.354 N 
ATOM      4  C   UNL A   1      33.025  27.296  23.501  1.00  0.00     0.242 C 
ATOM      5  O   UNL A   1      33.358  27.492  22.326  1.00  0.00    -0.273 OA
ATOM      6  H   UNL A   1      33.332  29.198  24.049  1.00  0.00     0.163 HD
BRANCH   4   7
ATOM      7  C   UNL A   1      32.843  25.844  24.014  1.00  0.00     0.175 C 
BRANCH   7   8
ATOM      8  N   UNL A   1      31.441  25.549  24.285  1.00  0.00    -0.341 N 
ATOM      9  C   UNL A   1      30.905  25.274  25.507  1.00  0.00     0.258 C 
ATOM     10  O   UNL A   1      29.729  25.578  25.702  1.00  0.00    -0.271 OA
ATOM     11  H   UNL A   1      30.827  25.550  23.516  1.00  0.00     0.164 HD
BRANCH   9  12
ATOM     12  C   UNL A   1      31.737  24.584  26.591  1.00  0.00     0.329 C 
BRANCH  12  13
ATOM     13  O   UNL A   1      31.497  23.196  26.773  1.00  0.00    -0.483 OA
BRANCH  13  14
ATOM     14  C   UNL A   1      32.147  22.302  25.961  1.00  0.00     0.123 A 
ATOM     15  C   UNL A   1      32.069  20.720  22.485  1.00  0.00     0.044 C 
ATOM     16  C   UNL A   1      32.493  21.069  23.882  1.00  0.00    -0.047 A 
ATOM     17  C   UNL A   1      33.659  20.514  24.414  1.00  0.00     0.004 A 
ATOM     18  C   UNL A   1      31.731  21.943  24.671  1.00  0.00     0.050 A 
ATOM     19  C   UNL A   1      34.061  20.835  25.709  1.00  0.00     0.007 A 
ATOM     20  C   UNL A   1      33.317  21.733  26.491  1.00  0.00    -0.009 A 
ATOM     21  C   UNL A   1      33.802  22.032  27.883  1.00  0.00     0.048 C 
ENDBRANCH  13  14
ENDBRANCH  12  13
ENDBRANCH   9  12
ENDBRANCH   7   8
BRANCH   7  22
ATOM     22  C   UNL A   1      33.599  24.748  23.242  1.00  0.00     0.070 C 
BRANCH  22  23
ATOM     23  C   UNL A   1      34.823  24.133  23.869  1.00  0.00    -0.045 A 
ATOM     24  C   UNL A   1      35.587  23.180  23.180  1.00  0.00     0.004 A 
ATOM     25  C   UNL A   1      35.192  24.474  25.177  1.00  0.00     0.004 A 
ATOM     26  C   UNL A   1      36.717  22.613  23.776  1.00  0.00     0.000 A 
ATOM     27  C   UNL A   1      36.330  23.919  25.764  1.00  0.00     0.000 A 
ATOM     28  C   UNL A   1      37.098  22.995  25.061  1.00  0.00     0.000 A 
ENDBRANCH  22  23
ENDBRANCH   7  22
ENDBRANCH   4   7
ENDBRANCH   2   3
ENDBRANCH   1   2
BRANCH   1  29
ATOM     29  C   UNL A   1      33.935  28.269  26.852  1.00  0.00     0.002 C 
BRANCH  29  30
ATOM     30  C   UNL A   1      34.875  29.391  27.318  1.00  0.00     0.002 C 
BRANCH  30  31
ATOM     31  C   UNL A   1      34.413  30.855  27.319  1.00  0.00     0.021 C 
BRANCH  31  32
ATOM     32  C   UNL A   1      35.261  31.909  28.021  1.00  0.00     0.116 C 
BRANCH  32  33
ATOM     33  N   UNL A   1      34.727  32.352  29.308  1.00  0.00    -0.352 N 
ATOM     34  C   UNL A   1      35.100  32.161  30.622  1.00  0.00     0.251 C 
ATOM     35  H   UNL A   1      33.922  32.912  29.217  1.00  0.00     0.163 HD
ATOM     36  O   UNL A   1      34.321  32.507  31.513  1.00  0.00    -0.269 OA
BRANCH  34  37
ATOM     37  C   UNL A   1      36.404  31.575  31.006  1.00  0.00     0.039 A 
ATOM     38  C   UNL A   1      37.542  32.359  31.225  1.00  0.00     0.014 A 
ATOM     39  C   UNL A   1      36.566  30.202  30.960  1.00  0.00     0.014 A 
ATOM     40  C   UNL A   1      38.799  31.736  31.192  1.00  0.00     0.010 A 
ATOM     41  C   UNL A   1      37.711  29.624  31.410  1.00  0.00     0.010 A 
ATOM     42  C   UNL A   1      38.857  30.344  31.185  1.00  0.00    -0.014 A 
BRANCH  42  43
ATOM     43  C   UNL A   1      40.027  29.548  30.867  1.00  0.00     0.031 A 
ATOM     44  C   UNL A   1      40.853  29.112  32.006  1.00  0.00     0.074 A 
ATOM     45  C   UNL A   1      40.163  28.868  29.705  1.00  0.00     0.049 A 
ATOM     46  N   UNL A   1      42.039  29.517  32.307  1.00  0.00    -0.248 NA
ATOM     47  C   UNL A   1      40.270  28.167  32.968  1.00  0.00     0.031 C 
ATOM     48  C   UNL A   1      39.207  28.701  28.605  1.00  0.00     0.029 A 
ATOM     49  N   UNL A   1      41.195  28.059  29.335  1.00  0.00    -0.354 N 
ATOM     50  C   UNL A   1      42.415  28.778  33.418  1.00  0.00     0.074 A 
ATOM     51  C   UNL A   1      41.230  28.107  33.889  1.00  0.00     0.031 C 
ATOM     52  C   UNL A   1      39.625  27.694  27.797  1.00  0.00     0.029 A 
ATOM     53  C   UNL A   1      40.939  27.255  28.238  1.00  0.00     0.049 A 
ATOM     54  H   UNL A   1      42.056  28.047  29.811  1.00  0.00     0.167 HD
ATOM     55  C   UNL A   1      43.718  28.599  33.761  1.00  0.00     0.037 A 
ATOM     56  C   UNL A   1      41.736  26.264  27.774  1.00  0.00     0.037 A 
ATOM     57  C   UNL A   1      44.605  29.399  32.958  1.00  0.00     0.049 A 
ATOM     58  C   UNL A   1      43.087  26.433  28.362  1.00  0.00     0.074 A 
ATOM     59  C   UNL A   1      44.723  30.751  32.694  1.00  0.00     0.029 A 
ATOM     60  N   UNL A   1      45.307  28.768  31.956  1.00  0.00    -0.354 N 
ATOM     61  N   UNL A   1      43.909  27.396  28.056  1.00  0.00    -0.248 NA
ATOM     62  C   UNL A   1      43.376  25.742  29.610  1.00  0.00     0.031 C 
ATOM     63  C   UNL A   1      45.051  30.832  31.308  1.00  0.00     0.029 A 
ATOM     64  C   UNL A   1      45.146  29.528  30.824  1.00  0.00     0.049 A 
ATOM     65  H   UNL A   1      45.823  27.933  32.036  1.00  0.00     0.167 HD
ATOM     66  C   UNL A   1      44.542  27.712  29.249  1.00  0.00     0.074 A 
ATOM     67  C   UNL A   1      44.262  26.589  30.138  1.00  0.00     0.031 C 
ATOM     68  C   UNL A   1      44.985  28.978  29.499  1.00  0.00     0.037 A 
BRANCH  55  69
ATOM     69  C   UNL A   1      44.210  27.486  34.629  1.00  0.00     0.057 A 
ATOM     70  C   UNL A   1      44.886  27.785  35.821  1.00  0.00     0.134 A 
ATOM     71  C   UNL A   1      44.224  26.133  34.239  1.00  0.00     0.134 A 
ATOM     72  F   UNL A   1      44.972  29.050  36.260  1.00  0.00    -0.206 F 
ATOM     73  C   UNL A   1      45.540  26.803  36.571  1.00  0.00     0.040 A 
ATOM     74  C   UNL A   1      44.824  25.135  35.010  1.00  0.00     0.040 A 
ATOM     75  F   UNL A   1      43.737  25.733  33.056  1.00  0.00    -0.206 F 
ATOM     76  C   UNL A   1      45.503  25.472  36.171  1.00  0.00     0.006 A 
ENDBRANCH  55  69
BRANCH  56  77
ATOM     77  C   UNL A   1      41.338  24.998  27.132  1.00  0.00     0.057 A 
ATOM     78  C   UNL A   1      42.146  24.369  26.178  1.00  0.00     0.134 A 
ATOM     79  C   UNL A   1      40.290  24.234  27.669  1.00  0.00     0.134 A 
ATOM     80  F   UNL A   1      43.203  25.008  25.657  1.00  0.00    -0.206 F 
ATOM     81  C   UNL A   1      41.926  23.045  25.777  1.00  0.00     0.040 A 
ATOM     82  C   UNL A   1      40.077  22.906  27.295  1.00  0.00     0.040 A 
ATOM     83  F   UNL A   1      39.503  24.729  28.638  1.00  0.00    -0.206 F 
ATOM     84  C   UNL A   1      40.891  22.306  26.342  1.00  0.00     0.006 A 
ENDBRANCH  56  77
BRANCH  68  85
ATOM     85  C   UNL A   1      45.019  29.943  28.347  1.00  0.00     0.057 A 
ATOM     86  C   UNL A   1      43.937  30.758  27.980  1.00  0.00     0.134 A 
ATOM     87  C   UNL A   1      46.224  30.153  27.671  1.00  0.00     0.134 A 
ATOM     88  F   UNL A   1      42.775  30.706  28.641  1.00  0.00    -0.206 F 
ATOM     89  C   UNL A   1      44.034  31.698  26.950  1.00  0.00     0.040 A 
ATOM     90  C   UNL A   1      46.346  31.113  26.663  1.00  0.00     0.040 A 
ATOM     91  F   UNL A   1      47.320  29.453  28.008  1.00  0.00    -0.206 F 
ATOM     92  C   UNL A   1      45.244  31.882  26.291  1.00  0.00     0.006 A 
ENDBRANCH  68  85
ENDBRANCH  42  43
ENDBRANCH  34  37
ENDBRANCH  32  33
ENDBRANCH  31  32
ENDBRANCH  30  31
ENDBRANCH  29  30
ENDBRANCH   1  29
TORSDOF 19
ENDMDL
MODEL 2
REMARK VINA RESULT:     -11.0      1.265      2.346
REMARK SMILES Cc1ccc(C)c(OCC(=O)N[C@@H](Cc2ccccc2)C(=O)NCCCCCCNC(=O)c2ccc(-c3c4nc(c(-c5c(F)cccc5F)c5ccc([nH]5)c(-c5c(F)cccc5F)c5nc(c(-c6c(F)cccc6F)c6ccc3[nH]6)C=C5)C=C4)cc2)c1
REMARK SMILES IDX 25 1 24 2 23 3 21 4 22 5 13 7 12 8 10 9 11 10 9 12 8 13 7 14
REMARK SMILES IDX 1 15 2 16 3 17 87 18 4 19 5 20 6 21 14 22 15 23 16 24 20 25
REMARK SMILES IDX 17 26 19 27 18 28 26 29 27 30 28 31 29 32 30 33 31 34 32 36
REMARK SMILES IDX 33 37 34 38 86 39 35 40 85 41 36 42 37 43 38 44 79 45 39 46
REMARK SMILES IDX 84 47 78 48 80 49 40 50 83 51 77 52 76 53 41 55 67 56 50 57
REMARK SMILES IDX 66 58 51 59 54 60 65 61 81 62 52 63 53 64 64 66 82 67 55 68
REMARK SMILES IDX 42 69 43 70 48 71 44 72 45 73 47 74 49 75 46 76 68 77 69 78
REMARK SMILES IDX 74 79 70 80 71 81 73 82 75 83 72 84 56 85 57 86 62 87 58 88
REMARK SMILES IDX 59 89 61 90 63 91 60 92
REMARK H PARENT 23 6 12 11 30 35 80 54 54 65
REMARK Flexibility Score: inf
ROOT
ATOM      1  C   UNL A   1      33.535  29.961  27.062  1.00  0.00     0.021 C 
ENDROOT
BRANCH   1   2
ATOM      2  C   UNL A   1      33.655  29.046  25.849  1.00  0.00     0.116 C 
BRANCH   2   3
ATOM      3  N   UNL A   1      32.441  28.879  25.073  1.00  0.00    -0.354 N 
ATOM      4  C   UNL A   1      31.884  27.726  24.584  1.00  0.00     0.242 C 
ATOM      5  O   UNL A   1      30.649  27.690  24.521  1.00  0.00    -0.273 OA
ATOM      6  H   UNL A   1      31.950  29.707  24.871  1.00  0.00     0.163 HD
BRANCH   4   7
ATOM      7  C   UNL A   1      32.708  26.477  24.177  1.00  0.00     0.175 C 
BRANCH   7   8
ATOM      8  N   UNL A   1      33.208  26.592  22.812  1.00  0.00    -0.341 N 
ATOM      9  C   UNL A   1      33.140  25.627  21.854  1.00  0.00     0.258 C 
ATOM     10  O   UNL A   1      33.075  25.985  20.678  1.00  0.00    -0.271 OA
ATOM     11  H   UNL A   1      33.632  27.444  22.562  1.00  0.00     0.164 HD
BRANCH   9  12
ATOM     12  C   UNL A   1      33.173  24.143  22.230  1.00  0.00     0.329 C 
BRANCH  12  13
ATOM     13  O   UNL A   1      34.439  23.622  22.609  1.00  0.00    -0.483 OA
BRANCH  13  14
ATOM     14  C   UNL A   1      34.482  22.512  23.411  1.00  0.00     0.123 A 
ATOM     15  C   UNL A   1      32.365  19.625  24.746  1.00  0.00     0.044 C 
ATOM     16  C   UNL A   1      33.532  20.531  24.477  1.00  0.00    -0.047 A 
ATOM     17  C   UNL A   1      34.785  20.228  25.014  1.00  0.00     0.004 A 
ATOM     18  C   UNL A   1      33.385  21.687  23.698  1.00  0.00     0.050 A 
ATOM     19  C   UNL A   1      35.875  21.061  24.767  1.00  0.00     0.007 A 
ATOM     20  C   UNL A   1      35.737  22.203  23.962  1.00  0.00    -0.009 A 
ATOM     21  C   UNL A   1      36.950  23.065  23.740  1.00  0.00     0.048 C 
ENDBRANCH  13  14
ENDBRANCH  12  13
ENDBRANCH   9  12
ENDBRANCH   7   8
BRANCH   7  22
ATOM     22  C   UNL A   1      33.737  25.973  25.205  1.00  0.00     0.070 C 
BRANCH  22  23
ATOM     23  C   UNL A   1      33.415  24.741  26.010  1.00  0.00    -0.045 A 
ATOM     24  C   UNL A   1      32.090  24.317  26.185  1.00  0.00     0.004 A 
ATOM     25  C   UNL A   1      34.442  24.021  26.637  1.00  0.00     0.004 A 
ATOM     26  C   UNL A   1      31.806  23.176  26.939  1.00  0.00     0.000 A 
ATOM     27  C   UNL A   1      34.157  22.872  27.375  1.00  0.00     0.000 A 
ATOM     28  C   UNL A   1      32.839  22.443  27.520  1.00  0.00     0.000 A 
ENDBRANCH  22  23
ENDBRANCH   7  22
ENDBRANCH   4   7
ENDBRANCH   2   3
ENDBRANCH   1   2
BRANCH   1  29
ATOM     29  C   UNL A   1      34.844  30.533  27.623  1.00  0.00     0.002 C 
BRANCH  29  30
ATOM     30  C   UNL A   1      34.974  32.049  27.825  1.00  0.00     0.002 C 
BRANCH  30  31
ATOM     31  C   UNL A   1      34.098  32.785  28.848  1.00  0.00     0.021 C 
BRANCH  31  32
ATOM     32  C   UNL A   1      34.713  33.878  29.715  1.00  0.00     0.116 C 
BRANCH  32  33
ATOM     33  N   UNL A   1      34.930  33.491  31.108  1.00  0.00    -0.352 N 
ATOM     34  C   UNL A   1      35.619  32.469  31.727  1.00  0.00     0.251 C 
ATOM     35  H   UNL A   1      34.485  34.095  31.747  1.00  0.00     0.163 HD
ATOM     36  O   UNL A   1      35.450  32.290  32.935  1.00  0.00    -0.269 OA
BRANCH  34  37
ATOM     37  C   UNL A   1      36.565  31.590  31.004  1.00  0.00     0.039 A 
ATOM     38  C   UNL A   1      36.353  30.213  30.865  1.00  0.00     0.014 A 
ATOM     39  C   UNL A   1      37.794  32.094  30.620  1.00  0.00     0.014 A 
ATOM     40  C   UNL A   1      37.446  29.399  30.533  1.00  0.00     0.010 A 
ATOM     41  C   UNL A   1      38.642  31.351  29.860  1.00  0.00     0.010 A 
ATOM     42  C   UNL A   1      38.632  30.003  30.121  1.00  0.00    -0.014 A 
BRANCH  42  43
ATOM     43  C   UNL A   1      39.923  29.351  30.019  1.00  0.00     0.031 A 
ATOM     44  C   UNL A   1      40.597  29.032  31.289  1.00  0.00     0.074 A 
ATOM     45  C   UNL A   1      40.327  28.681  28.916  1.00  0.00     0.049 A 
ATOM     46  N   UNL A   1      41.662  29.581  31.765  1.00  0.00    -0.248 NA
ATOM     47  C   UNL A   1      39.979  28.034  32.173  1.00  0.00     0.031 C 
ATOM     48  C   UNL A   1      39.591  28.387  27.681  1.00  0.00     0.029 A 
ATOM     49  N   UNL A   1      41.494  27.999  28.742  1.00  0.00    -0.354 N 
ATOM     50  C   UNL A   1      41.935  28.904  32.944  1.00  0.00     0.074 A 
ATOM     51  C   UNL A   1      40.776  28.100  33.238  1.00  0.00     0.031 C 
ATOM     52  C   UNL A   1      40.250  27.430  26.983  1.00  0.00     0.029 A 
ATOM     53  C   UNL A   1      41.517  27.158  27.643  1.00  0.00     0.049 A 
ATOM     54  H   UNL A   1      42.260  28.097  29.351  1.00  0.00     0.167 HD
ATOM     55  C   UNL A   1      43.176  28.888  33.499  1.00  0.00     0.037 A 
ATOM     56  C   UNL A   1      42.491  26.266  27.344  1.00  0.00     0.037 A 
ATOM     57  C   UNL A   1      44.082  29.781  32.826  1.00  0.00     0.049 A 
ATOM     58  C   UNL A   1      43.698  26.603  28.137  1.00  0.00     0.074 A 
ATOM     59  C   UNL A   1      44.082  31.135  32.543  1.00  0.00     0.029 A 
ATOM     60  N   UNL A   1      45.008  29.229  31.970  1.00  0.00    -0.354 N 
ATOM     61  N   UNL A   1      44.439  27.656  27.939  1.00  0.00    -0.248 NA
ATOM     62  C   UNL A   1      43.857  25.967  29.436  1.00  0.00     0.031 C 
ATOM     63  C   UNL A   1      44.621  31.240  31.226  1.00  0.00     0.029 A 
ATOM     64  C   UNL A   1      44.946  29.952  30.804  1.00  0.00     0.049 A 
ATOM     65  H   UNL A   1      45.598  28.464  32.157  1.00  0.00     0.167 HD
ATOM     66  C   UNL A   1      44.827  28.059  29.208  1.00  0.00     0.074 A 
ATOM     67  C   UNL A   1      44.539  26.920  30.074  1.00  0.00     0.031 C 
ATOM     68  C   UNL A   1      45.070  29.372  29.487  1.00  0.00     0.037 A 
BRANCH  55  69
ATOM     69  C   UNL A   1      43.646  27.852  34.469  1.00  0.00     0.057 A 
ATOM     70  C   UNL A   1      43.770  26.519  34.051  1.00  0.00     0.134 A 
ATOM     71  C   UNL A   1      43.784  28.076  35.852  1.00  0.00     0.134 A 
ATOM     72  F   UNL A   1      43.611  26.189  32.760  1.00  0.00    -0.206 F 
ATOM     73  C   UNL A   1      44.009  25.477  34.951  1.00  0.00     0.040 A 
ATOM     74  C   UNL A   1      44.082  27.052  36.753  1.00  0.00     0.040 A 
ATOM     75  F   UNL A   1      43.552  29.277  36.400  1.00  0.00    -0.206 F 
ATOM     76  C   UNL A   1      44.176  25.743  36.306  1.00  0.00     0.006 A 
ENDBRANCH  55  69
BRANCH  56  77
ATOM     77  C   UNL A   1      42.354  24.954  26.685  1.00  0.00     0.057 A 
ATOM     78  C   UNL A   1      43.050  24.643  25.511  1.00  0.00     0.134 A 
ATOM     79  C   UNL A   1      41.764  23.880  27.368  1.00  0.00     0.134 A 
ATOM     80  F   UNL A   1      43.692  25.603  24.829  1.00  0.00    -0.206 F 
ATOM     81  C   UNL A   1      43.157  23.329  25.038  1.00  0.00     0.040 A 
ATOM     82  C   UNL A   1      41.885  22.564  26.919  1.00  0.00     0.040 A 
ATOM     83  F   UNL A   1      41.133  24.070  28.537  1.00  0.00    -0.206 F 
ATOM     84  C   UNL A   1      42.577  22.282  25.748  1.00  0.00     0.006 A 
ENDBRANCH  56  77
BRANCH  68  85
ATOM     85  C   UNL A   1      45.178  30.322  28.328  1.00  0.00     0.057 A 
ATOM     86  C   UNL A   1      44.081  30.984  27.756  1.00  0.00     0.134 A 
ATOM     87  C   UNL A   1      46.446  30.681  27.859  1.00  0.00     0.134 A 
ATOM     88  F   UNL A   1      42.839  30.787  28.212  1.00  0.00    -0.206 F 
ATOM     89  C   UNL A   1      44.233  31.918  26.728  1.00  0.00     0.040 A 
ATOM     90  C   UNL A   1      46.616  31.639  26.856  1.00  0.00     0.040 A 
ATOM     91  F   UNL A   1      47.547  30.134  28.399  1.00  0.00    -0.206 F 
ATOM     92  C   UNL A   1      45.506  32.252  26.278  1.00  0.00     0.006 A 
ENDBRANCH  68  85
ENDBRANCH  42  43
ENDBRANCH  34  37
ENDBRANCH  32  33
ENDBRANCH  31  32
ENDBRANCH  30  31
ENDBRANCH  29  30
ENDBRANCH   1  29
TORSDOF 19
ENDMDL
MODEL 3
REMARK VINA RESULT:     -10.9      3.229      5.202
REMARK SMILES Cc1ccc(C)c(OCC(=O)N[C@@H](Cc2ccccc2)C(=O)NCCCCCCNC(=O)c2ccc(-c3c4nc(c(-c5c(F)cccc5F)c5ccc([nH]5)c(-c5c(F)cccc5F)c5nc(c(-c6c(F)cccc6F)c6ccc3[nH]6)C=C5)C=C4)cc2)c1
REMARK SMILES IDX 25 1 24 2 23 3 21 4 22 5 13 7 12 8 10 9 11 10 9 12 8 13 7 14
REMARK SMILES IDX 1 15 2 16 3 17 87 18 4 19 5 20 6 21 14 22 15 23 16 24 20 25
REMARK SMILES IDX 17 26 19 27 18 28 26 29 27 30 28 31 29 32 30 33 31 34 32 36
REMARK SMILES IDX 33 37 34 38 86 39 35 40 85 41 36 42 37 43 38 44 79 45 39 46
REMARK SMILES IDX 84 47 78 48 80 49 40 50 83 51 77 52 76 53 41 55 67 56 50 57
REMARK SMILES IDX 66 58 51 59 54 60 65 61 81 62 52 63 53 64 64 66 82 67 55 68
REMARK SMILES IDX 42 69 43 70 48 71 44 72 45 73 47 74 49 75 46 76 68 77 69 78
REMARK SMILES IDX 74 79 70 80 71 81 73 82 75 83 72 84 56 85 57 86 62 87 58 88
REMARK SMILES IDX 59 89 61 90 63 91 60 92
REMARK H PARENT 23 6 12 11 30 35 80 54 54 65
REMARK Flexibility Score: inf
ROOT
ATOM      1  C   UNL A   1      34.091  31.943  28.299  1.00  0.00     0.021 C 
ENDROOT
BRANCH   1   2
ATOM      2  C   UNL A   1      33.793  30.931  27.199  1.00  0.00     0.116 C 
BRANCH   2   3
ATOM      3  N   UNL A   1      32.641  30.082  27.430  1.00  0.00    -0.354 N 
ATOM      4  C   UNL A   1      31.932  29.329  26.530  1.00  0.00     0.242 C 
ATOM      5  O   UNL A   1      31.447  28.272  26.952  1.00  0.00    -0.273 OA
ATOM      6  H   UNL A   1      32.325  30.040  28.360  1.00  0.00     0.163 HD
BRANCH   4   7
ATOM      7  C   UNL A   1      31.769  29.702  25.034  1.00  0.00     0.175 C 
BRANCH   7   8
ATOM      8  N   UNL A   1      33.045  29.645  24.331  1.00  0.00    -0.341 N 
ATOM      9  C   UNL A   1      33.674  28.514  23.909  1.00  0.00     0.258 C 
ATOM     10  O   UNL A   1      34.392  28.589  22.913  1.00  0.00    -0.271 OA
ATOM     11  H   UNL A   1      33.491  30.503  24.144  1.00  0.00     0.164 HD
BRANCH   9  12
ATOM     12  C   UNL A   1      33.511  27.195  24.671  1.00  0.00     0.329 C 
BRANCH  12  13
ATOM     13  O   UNL A   1      32.568  26.278  24.138  1.00  0.00    -0.483 OA
BRANCH  13  14
ATOM     14  C   UNL A   1      33.002  25.039  23.744  1.00  0.00     0.123 A 
ATOM     15  C   UNL A   1      36.135  22.893  23.323  1.00  0.00     0.044 C 
ATOM     16  C   UNL A   1      34.699  23.330  23.337  1.00  0.00    -0.047 A 
ATOM     17  C   UNL A   1      33.693  22.425  22.989  1.00  0.00     0.004 A 
ATOM     18  C   UNL A   1      34.345  24.641  23.690  1.00  0.00     0.050 A 
ATOM     19  C   UNL A   1      32.357  22.822  23.003  1.00  0.00     0.007 A 
ATOM     20  C   UNL A   1      31.998  24.124  23.385  1.00  0.00    -0.009 A 
ATOM     21  C   UNL A   1      30.539  24.490  23.372  1.00  0.00     0.048 C 
ENDBRANCH  13  14
ENDBRANCH  12  13
ENDBRANCH   9  12
ENDBRANCH   7   8
BRANCH   7  22
ATOM     22  C   UNL A   1      30.589  29.050  24.292  1.00  0.00     0.070 C 
BRANCH  22  23
ATOM     23  C   UNL A   1      29.676  29.922  23.470  1.00  0.00    -0.045 A 
ATOM     24  C   UNL A   1      29.258  29.529  22.191  1.00  0.00     0.004 A 
ATOM     25  C   UNL A   1      29.265  31.169  23.960  1.00  0.00     0.004 A 
ATOM     26  C   UNL A   1      28.416  30.350  21.438  1.00  0.00     0.000 A 
ATOM     27  C   UNL A   1      28.411  31.981  23.212  1.00  0.00     0.000 A 
ATOM     28  C   UNL A   1      27.979  31.568  21.954  1.00  0.00     0.000 A 
ENDBRANCH  22  23
ENDBRANCH   7  22
ENDBRANCH   4   7
ENDBRANCH   2   3
ENDBRANCH   1   2
BRANCH   1  29
ATOM     29  C   UNL A   1      34.980  33.133  27.914  1.00  0.00     0.002 C 
BRANCH  29  30
ATOM     30  C   UNL A   1      34.870  34.441  28.712  1.00  0.00     0.002 C 
BRANCH  30  31
ATOM     31  C   UNL A   1      33.526  35.171  28.844  1.00  0.00     0.021 C 
BRANCH  31  32
ATOM     32  C   UNL A   1      33.384  36.306  29.851  1.00  0.00     0.116 C 
BRANCH  32  33
ATOM     33  N   UNL A   1      32.545  35.986  31.005  1.00  0.00    -0.352 N 
ATOM     34  C   UNL A   1      32.713  35.205  32.130  1.00  0.00     0.251 C 
ATOM     35  H   UNL A   1      31.664  36.425  30.972  1.00  0.00     0.163 HD
ATOM     36  O   UNL A   1      31.731  34.972  32.838  1.00  0.00    -0.269 OA
BRANCH  34  37
ATOM     37  C   UNL A   1      34.026  34.651  32.531  1.00  0.00     0.039 A 
ATOM     38  C   UNL A   1      35.046  35.450  33.061  1.00  0.00     0.014 A 
ATOM     39  C   UNL A   1      34.338  33.346  32.196  1.00  0.00     0.014 A 
ATOM     40  C   UNL A   1      36.358  34.955  33.044  1.00  0.00     0.010 A 
ATOM     41  C   UNL A   1      35.486  32.771  32.643  1.00  0.00     0.010 A 
ATOM     42  C   UNL A   1      36.566  33.614  32.730  1.00  0.00    -0.014 A 
BRANCH  42  43
ATOM     43  C   UNL A   1      37.840  33.012  32.388  1.00  0.00     0.031 A 
ATOM     44  C   UNL A   1      38.769  32.765  33.504  1.00  0.00     0.074 A 
ATOM     45  C   UNL A   1      38.046  32.321  31.244  1.00  0.00     0.049 A 
ATOM     46  N   UNL A   1      39.880  33.374  33.741  1.00  0.00    -0.248 NA
ATOM     47  C   UNL A   1      38.389  31.774  34.520  1.00  0.00     0.031 C 
ATOM     48  C   UNL A   1      37.092  31.953  30.191  1.00  0.00     0.029 A 
ATOM     49  N   UNL A   1      39.186  31.681  30.856  1.00  0.00    -0.354 N 
ATOM     50  C   UNL A   1      40.416  32.751  34.858  1.00  0.00     0.074 A 
ATOM     51  C   UNL A   1      39.379  31.911  35.401  1.00  0.00     0.031 C 
ATOM     52  C   UNL A   1      37.644  31.000  29.399  1.00  0.00     0.029 A 
ATOM     53  C   UNL A   1      39.028  30.804  29.797  1.00  0.00     0.049 A 
ATOM     54  H   UNL A   1      40.053  31.831  31.296  1.00  0.00     0.167 HD
ATOM     55  C   UNL A   1      41.742  32.805  35.151  1.00  0.00     0.037 A 
ATOM     56  C   UNL A   1      39.963  29.942  29.332  1.00  0.00     0.037 A 
ATOM     57  C   UNL A   1      42.452  33.711  34.286  1.00  0.00     0.049 A 
ATOM     58  C   UNL A   1      41.287  30.357  29.856  1.00  0.00     0.074 A 
ATOM     59  C   UNL A   1      42.331  35.052  33.973  1.00  0.00     0.029 A 
ATOM     60  N   UNL A   1      43.212  33.167  33.276  1.00  0.00    -0.354 N 
ATOM     61  N   UNL A   1      41.923  31.431  29.485  1.00  0.00    -0.248 NA
ATOM     62  C   UNL A   1      41.734  29.773  31.113  1.00  0.00     0.031 C 
ATOM     63  C   UNL A   1      42.590  35.133  32.573  1.00  0.00     0.029 A 
ATOM     64  C   UNL A   1      42.884  33.845  32.128  1.00  0.00     0.049 A 
ATOM     65  H   UNL A   1      43.864  32.434  33.361  1.00  0.00     0.167 HD
ATOM     66  C   UNL A   1      42.538  31.894  30.639  1.00  0.00     0.074 A 
ATOM     67  C   UNL A   1      42.483  30.776  31.575  1.00  0.00     0.031 C 
ATOM     68  C   UNL A   1      42.770  33.225  30.829  1.00  0.00     0.037 A 
BRANCH  55  69
ATOM     69  C   UNL A   1      42.445  31.824  36.033  1.00  0.00     0.057 A 
ATOM     70  C   UNL A   1      43.174  32.286  37.138  1.00  0.00     0.134 A 
ATOM     71  C   UNL A   1      42.603  30.460  35.722  1.00  0.00     0.134 A 
ATOM     72  F   UNL A   1      43.131  33.579  37.495  1.00  0.00    -0.206 F 
ATOM     73  C   UNL A   1      44.011  31.448  37.880  1.00  0.00     0.040 A 
ATOM     74  C   UNL A   1      43.390  29.600  36.490  1.00  0.00     0.040 A 
ATOM     75  F   UNL A   1      42.074  29.922  34.613  1.00  0.00    -0.206 F 
ATOM     76  C   UNL A   1      44.114  30.098  37.562  1.00  0.00     0.006 A 
ENDBRANCH  55  69
BRANCH  56  77
ATOM     77  C   UNL A   1      39.760  28.604  28.749  1.00  0.00     0.057 A 
ATOM     78  C   UNL A   1      40.292  28.254  27.502  1.00  0.00     0.134 A 
ATOM     79  C   UNL A   1      39.289  27.550  29.547  1.00  0.00     0.134 A 
ATOM     80  F   UNL A   1      40.815  29.194  26.701  1.00  0.00    -0.206 F 
ATOM     81  C   UNL A   1      40.354  26.924  27.069  1.00  0.00     0.040 A 
ATOM     82  C   UNL A   1      39.370  26.219  29.136  1.00  0.00     0.040 A 
ATOM     83  F   UNL A   1      38.823  27.780  30.785  1.00  0.00    -0.206 F 
ATOM     84  C   UNL A   1      39.897  25.899  27.891  1.00  0.00     0.006 A 
ENDBRANCH  56  77
BRANCH  68  85
ATOM     85  C   UNL A   1      42.599  34.137  29.647  1.00  0.00     0.057 A 
ATOM     86  C   UNL A   1      41.400  34.798  29.338  1.00  0.00     0.134 A 
ATOM     87  C   UNL A   1      43.716  34.462  28.872  1.00  0.00     0.134 A 
ATOM     88  F   UNL A   1      40.305  34.634  30.090  1.00  0.00    -0.206 F 
ATOM     89  C   UNL A   1      41.304  35.698  28.273  1.00  0.00     0.040 A 
ATOM     90  C   UNL A   1      43.643  35.386  27.825  1.00  0.00     0.040 A 
ATOM     91  F   UNL A   1      44.911  33.915  29.144  1.00  0.00    -0.206 F 
ATOM     92  C   UNL A   1      42.430  35.999  27.516  1.00  0.00     0.006 A 
ENDBRANCH  68  85
ENDBRANCH  42  43
ENDBRANCH  34  37
ENDBRANCH  32  33
ENDBRANCH  31  32
ENDBRANCH  30  31
ENDBRANCH  29  30
ENDBRANCH   1  29
TORSDOF 19
ENDMDL
