MODEL 1
REMARK VINA RESULT:     -11.4      0.000      0.000
REMARK SMILES CCOC(=O)c1ccc(-c2cc(F)cc(C(=O)NCCCCCCNC(=O)c3ccc(-c4c5nc(c(-c6c(F)cccc6F)c6ccc([nH]6)c(-c6c(F)cccc6F)c6nc(c(-c7c(F)cccc7F)c7ccc4[nH]7)C=C6)C=C5)cc3)c2)cc1
REMARK SMILES IDX 20 1 19 2 18 3 16 4 17 5 15 7 10 8 11 9 82 10 12 11 13 12
REMARK SMILES IDX 14 13 9 14 6 15 7 16 84 17 8 18 83 19 4 20 5 21 3 22 2 23
REMARK SMILES IDX 1 24 21 25 22 26 23 27 24 28 25 29 26 30 27 32 28 33 29 34
REMARK SMILES IDX 81 35 30 36 80 37 31 38 32 39 33 40 74 41 34 42 79 43 73 44
REMARK SMILES IDX 75 45 35 46 78 47 72 48 71 49 36 51 62 52 45 53 61 54 46 55
REMARK SMILES IDX 49 56 60 57 76 58 47 59 48 60 59 62 77 63 50 64 37 65 38 66
REMARK SMILES IDX 43 67 39 68 40 69 42 70 44 71 41 72 63 73 64 74 69 75 65 76
REMARK SMILES IDX 66 77 68 78 70 79 67 80 51 81 52 82 57 83 53 84 54 85 56 86
REMARK SMILES IDX 58 87 55 88
REMARK H PARENT 18 6 25 31 75 50 49 61
REMARK Flexibility Score: inf
ROOT
ATOM      1  C   UNL A   1      33.008  28.406  25.892  1.00  0.00     0.021 C 
ENDROOT
BRANCH   1   2
ATOM      2  C   UNL A   1      32.502  27.267  25.017  1.00  0.00     0.116 C 
BRANCH   2   3
ATOM      3  N   UNL A   1      32.966  27.307  23.639  1.00  0.00    -0.352 N 
ATOM      4  C   UNL A   1      33.460  26.314  22.821  1.00  0.00     0.251 C 
ATOM      5  O   UNL A   1      33.818  26.608  21.682  1.00  0.00    -0.269 OA
ATOM      6  H   UNL A   1      32.921  28.197  23.219  1.00  0.00     0.163 HD
BRANCH   4   7
ATOM      7  C   UNL A   1      33.630  24.912  23.291  1.00  0.00     0.043 A 
ATOM      8  C   UNL A   1      34.955  23.194  24.419  1.00  0.00    -0.015 A 
ATOM      9  C   UNL A   1      34.112  22.218  23.876  1.00  0.00     0.048 A 
ATOM     10  C   UNL A   1      34.627  24.542  24.197  1.00  0.00     0.022 A 
ATOM     11  C   UNL A   1      33.023  22.594  23.091  1.00  0.00     0.124 A 
ATOM     12  F   UNL A   1      32.224  21.646  22.584  1.00  0.00    -0.207 F 
ATOM     13  C   UNL A   1      32.790  23.926  22.770  1.00  0.00     0.053 A 
BRANCH   8  14
ATOM     14  C   UNL A   1      36.239  22.864  25.065  1.00  0.00    -0.018 A 
ATOM     15  C   UNL A   1      38.844  22.298  25.983  1.00  0.00     0.060 A 
ATOM     16  C   UNL A   1      38.107  21.308  25.332  1.00  0.00     0.016 A 
ATOM     17  C   UNL A   1      38.290  23.564  26.189  1.00  0.00     0.016 A 
ATOM     18  C   UNL A   1      36.811  21.589  24.887  1.00  0.00     0.009 A 
ATOM     19  C   UNL A   1      36.997  23.841  25.734  1.00  0.00     0.009 A 
BRANCH  15  20
ATOM     20  C   UNL A   1      40.232  21.997  26.394  1.00  0.00     0.338 C 
ATOM     21  O   UNL A   1      41.076  21.545  25.643  1.00  0.00    -0.246 OA
BRANCH  20  22
ATOM     22  O   UNL A   1      40.363  22.269  27.715  1.00  0.00    -0.462 OA
BRANCH  22  23
ATOM     23  C   UNL A   1      41.618  21.908  28.310  1.00  0.00     0.230 C 
ATOM     24  C   UNL A   1      42.441  23.130  28.673  1.00  0.00     0.049 C 
ENDBRANCH  22  23
ENDBRANCH  20  22
ENDBRANCH  15  20
ENDBRANCH   8  14
ENDBRANCH   4   7
ENDBRANCH   2   3
ENDBRANCH   1   2
BRANCH   1  25
ATOM     25  C   UNL A   1      31.945  29.280  26.556  1.00  0.00     0.002 C 
BRANCH  25  26
ATOM     26  C   UNL A   1      31.392  30.436  25.719  1.00  0.00     0.002 C 
BRANCH  26  27
ATOM     27  C   UNL A   1      31.301  31.797  26.413  1.00  0.00     0.021 C 
BRANCH  27  28
ATOM     28  C   UNL A   1      32.611  32.353  26.960  1.00  0.00     0.116 C 
BRANCH  28  29
ATOM     29  N   UNL A   1      32.491  33.723  27.430  1.00  0.00    -0.352 N 
ATOM     30  C   UNL A   1      33.198  34.381  28.406  1.00  0.00     0.251 C 
ATOM     31  H   UNL A   1      31.798  34.259  26.981  1.00  0.00     0.163 HD
ATOM     32  O   UNL A   1      32.847  35.500  28.768  1.00  0.00    -0.269 OA
BRANCH  30  33
ATOM     33  C   UNL A   1      34.368  33.738  29.042  1.00  0.00     0.039 A 
ATOM     34  C   UNL A   1      34.151  32.710  29.965  1.00  0.00     0.014 A 
ATOM     35  C   UNL A   1      35.672  34.152  28.753  1.00  0.00     0.014 A 
ATOM     36  C   UNL A   1      35.239  32.060  30.551  1.00  0.00     0.010 A 
ATOM     37  C   UNL A   1      36.756  33.453  29.279  1.00  0.00     0.010 A 
ATOM     38  C   UNL A   1      36.552  32.403  30.188  1.00  0.00    -0.014 A 
BRANCH  38  39
ATOM     39  C   UNL A   1      37.720  31.677  30.750  1.00  0.00     0.031 A 
ATOM     40  C   UNL A   1      38.193  31.968  32.148  1.00  0.00     0.074 A 
ATOM     41  C   UNL A   1      38.390  30.795  29.982  1.00  0.00     0.049 A 
ATOM     42  N   UNL A   1      39.225  31.482  32.790  1.00  0.00    -0.248 NA
ATOM     43  C   UNL A   1      37.418  32.954  32.917  1.00  0.00     0.031 C 
ATOM     44  C   UNL A   1      38.057  30.456  28.597  1.00  0.00     0.029 A 
ATOM     45  N   UNL A   1      39.497  30.031  30.255  1.00  0.00    -0.354 N 
ATOM     46  C   UNL A   1      39.231  32.110  34.029  1.00  0.00     0.074 A 
ATOM     47  C   UNL A   1      38.132  33.053  34.029  1.00  0.00     0.031 C 
ATOM     48  C   UNL A   1      38.926  29.536  28.149  1.00  0.00     0.029 A 
ATOM     49  C   UNL A   1      39.901  29.250  29.198  1.00  0.00     0.049 A 
ATOM     50  H   UNL A   1      39.958  30.041  31.124  1.00  0.00     0.167 HD
ATOM     51  C   UNL A   1      40.060  31.906  35.080  1.00  0.00     0.037 A 
ATOM     52  C   UNL A   1      40.945  28.407  29.084  1.00  0.00     0.037 A 
ATOM     53  C   UNL A   1      41.142  30.955  35.084  1.00  0.00     0.049 A 
ATOM     54  C   UNL A   1      41.861  28.210  30.260  1.00  0.00     0.074 A 
ATOM     55  C   UNL A   1      42.003  30.634  36.118  1.00  0.00     0.029 A 
ATOM     56  N   UNL A   1      41.513  30.177  33.997  1.00  0.00    -0.354 N 
ATOM     57  N   UNL A   1      41.813  28.760  31.449  1.00  0.00    -0.248 NA
ATOM     58  C   UNL A   1      42.976  27.269  30.079  1.00  0.00     0.031 C 
ATOM     59  C   UNL A   1      42.928  29.699  35.642  1.00  0.00     0.029 A 
ATOM     60  C   UNL A   1      42.608  29.394  34.329  1.00  0.00     0.049 A 
ATOM     61  H   UNL A   1      41.065  30.180  33.120  1.00  0.00     0.167 HD
ATOM     62  C   UNL A   1      42.868  28.212  32.166  1.00  0.00     0.074 A 
ATOM     63  C   UNL A   1      43.531  27.274  31.282  1.00  0.00     0.031 C 
ATOM     64  C   UNL A   1      43.253  28.462  33.441  1.00  0.00     0.037 A 
BRANCH  51  65
ATOM     65  C   UNL A   1      39.830  32.728  36.316  1.00  0.00     0.057 A 
ATOM     66  C   UNL A   1      38.860  32.382  37.265  1.00  0.00     0.134 A 
ATOM     67  C   UNL A   1      40.611  33.861  36.578  1.00  0.00     0.134 A 
ATOM     68  F   UNL A   1      38.070  31.314  37.073  1.00  0.00    -0.206 F 
ATOM     69  C   UNL A   1      38.655  33.147  38.415  1.00  0.00     0.040 A 
ATOM     70  C   UNL A   1      40.435  34.618  37.738  1.00  0.00     0.040 A 
ATOM     71  F   UNL A   1      41.565  34.247  35.716  1.00  0.00    -0.206 F 
ATOM     72  C   UNL A   1      39.450  34.266  38.657  1.00  0.00     0.006 A 
ENDBRANCH  51  65
BRANCH  52  73
ATOM     73  C   UNL A   1      41.170  27.668  27.815  1.00  0.00     0.057 A 
ATOM     74  C   UNL A   1      40.681  26.368  27.640  1.00  0.00     0.134 A 
ATOM     75  C   UNL A   1      41.885  28.235  26.754  1.00  0.00     0.134 A 
ATOM     76  F   UNL A   1      40.004  25.762  28.627  1.00  0.00    -0.206 F 
ATOM     77  C   UNL A   1      40.916  25.650  26.466  1.00  0.00     0.040 A 
ATOM     78  C   UNL A   1      42.103  27.539  25.564  1.00  0.00     0.040 A 
ATOM     79  F   UNL A   1      42.373  29.481  26.855  1.00  0.00    -0.206 F 
ATOM     80  C   UNL A   1      41.625  26.239  25.421  1.00  0.00     0.006 A 
ENDBRANCH  52  73
BRANCH  64  81
ATOM     81  C   UNL A   1      44.422  27.682  33.972  1.00  0.00     0.057 A 
ATOM     82  C   UNL A   1      45.733  28.174  33.911  1.00  0.00     0.134 A 
ATOM     83  C   UNL A   1      44.227  26.439  34.590  1.00  0.00     0.134 A 
ATOM     84  F   UNL A   1      45.990  29.351  33.321  1.00  0.00    -0.206 F 
ATOM     85  C   UNL A   1      46.809  27.448  34.422  1.00  0.00     0.040 A 
ATOM     86  C   UNL A   1      45.291  25.717  35.131  1.00  0.00     0.040 A 
ATOM     87  F   UNL A   1      42.997  25.914  34.691  1.00  0.00    -0.206 F 
ATOM     88  C   UNL A   1      46.589  26.218  35.041  1.00  0.00     0.006 A 
ENDBRANCH  64  81
ENDBRANCH  38  39
ENDBRANCH  30  33
ENDBRANCH  28  29
ENDBRANCH  27  28
ENDBRANCH  26  27
ENDBRANCH  25  26
ENDBRANCH   1  25
TORSDOF 17
ENDMDL
MODEL 2
REMARK VINA RESULT:     -11.4      2.442      7.982
REMARK SMILES CCOC(=O)c1ccc(-c2cc(F)cc(C(=O)NCCCCCCNC(=O)c3ccc(-c4c5nc(c(-c6c(F)cccc6F)c6ccc([nH]6)c(-c6c(F)cccc6F)c6nc(c(-c7c(F)cccc7F)c7ccc4[nH]7)C=C6)C=C5)cc3)c2)cc1
REMARK SMILES IDX 20 1 19 2 18 3 16 4 17 5 15 7 10 8 11 9 82 10 12 11 13 12
REMARK SMILES IDX 14 13 9 14 6 15 7 16 84 17 8 18 83 19 4 20 5 21 3 22 2 23
REMARK SMILES IDX 1 24 21 25 22 26 23 27 24 28 25 29 26 30 27 32 28 33 29 34
REMARK SMILES IDX 81 35 30 36 80 37 31 38 32 39 33 40 74 41 34 42 79 43 73 44
REMARK SMILES IDX 75 45 35 46 78 47 72 48 71 49 36 51 62 52 45 53 61 54 46 55
REMARK SMILES IDX 49 56 60 57 76 58 47 59 48 60 59 62 77 63 50 64 37 65 38 66
REMARK SMILES IDX 43 67 39 68 40 69 42 70 44 71 41 72 63 73 64 74 69 75 65 76
REMARK SMILES IDX 66 77 68 78 70 79 67 80 51 81 52 82 57 83 53 84 54 85 56 86
REMARK SMILES IDX 58 87 55 88
REMARK H PARENT 18 6 25 31 75 50 49 61
REMARK Flexibility Score: inf
ROOT
ATOM      1  C   UNL A   1      34.618  24.828  25.093  1.00  0.00     0.021 C 
ENDROOT
BRANCH   1   2
ATOM      2  C   UNL A   1      34.784  24.194  23.718  1.00  0.00     0.116 C 
BRANCH   2   3
ATOM      3  N   UNL A   1      34.443  22.781  23.656  1.00  0.00    -0.352 N 
ATOM      4  C   UNL A   1      33.275  22.118  23.963  1.00  0.00     0.251 C 
ATOM      5  O   UNL A   1      33.242  20.893  23.851  1.00  0.00    -0.269 OA
ATOM      6  H   UNL A   1      35.173  22.199  23.342  1.00  0.00     0.163 HD
BRANCH   4   7
ATOM      7  C   UNL A   1      32.074  22.827  24.480  1.00  0.00     0.043 A 
ATOM      8  C   UNL A   1      30.473  24.671  24.350  1.00  0.00    -0.015 A 
ATOM      9  C   UNL A   1      30.033  24.352  25.640  1.00  0.00     0.048 A 
ATOM     10  C   UNL A   1      31.421  23.825  23.752  1.00  0.00     0.022 A 
ATOM     11  C   UNL A   1      30.579  23.261  26.314  1.00  0.00     0.124 A 
ATOM     12  F   UNL A   1      30.141  22.968  27.545  1.00  0.00    -0.207 F 
ATOM     13  C   UNL A   1      31.612  22.514  25.760  1.00  0.00     0.053 A 
BRANCH   8  14
ATOM     14  C   UNL A   1      30.106  25.929  23.674  1.00  0.00    -0.018 A 
ATOM     15  C   UNL A   1      29.487  28.497  22.687  1.00  0.00     0.060 A 
ATOM     16  C   UNL A   1      28.538  27.790  23.426  1.00  0.00     0.016 A 
ATOM     17  C   UNL A   1      30.738  27.931  22.428  1.00  0.00     0.016 A 
ATOM     18  C   UNL A   1      28.844  26.512  23.905  1.00  0.00     0.009 A 
ATOM     19  C   UNL A   1      31.041  26.657  22.918  1.00  0.00     0.009 A 
BRANCH  15  20
ATOM     20  C   UNL A   1      29.164  29.868  22.239  1.00  0.00     0.338 C 
ATOM     21  O   UNL A   1      28.900  30.158  21.087  1.00  0.00    -0.246 OA
BRANCH  20  22
ATOM     22  O   UNL A   1      29.255  30.705  23.300  1.00  0.00    -0.462 OA
BRANCH  22  23
ATOM     23  C   UNL A   1      28.278  31.754  23.361  1.00  0.00     0.230 C 
ATOM     24  C   UNL A   1      28.881  33.105  23.022  1.00  0.00     0.049 C 
ENDBRANCH  22  23
ENDBRANCH  20  22
ENDBRANCH  15  20
ENDBRANCH   8  14
ENDBRANCH   4   7
ENDBRANCH   2   3
ENDBRANCH   1   2
BRANCH   1  25
ATOM     25  C   UNL A   1      34.079  26.258  25.124  1.00  0.00     0.002 C 
BRANCH  25  26
ATOM     26  C   UNL A   1      33.008  26.560  26.175  1.00  0.00     0.002 C 
BRANCH  26  27
ATOM     27  C   UNL A   1      32.244  27.876  26.010  1.00  0.00     0.021 C 
BRANCH  27  28
ATOM     28  C   UNL A   1      33.050  29.047  25.460  1.00  0.00     0.116 C 
BRANCH  28  29
ATOM     29  N   UNL A   1      32.544  30.336  25.899  1.00  0.00    -0.352 N 
ATOM     30  C   UNL A   1      33.007  31.171  26.886  1.00  0.00     0.251 C 
ATOM     31  H   UNL A   1      31.749  30.660  25.416  1.00  0.00     0.163 HD
ATOM     32  O   UNL A   1      32.351  32.155  27.215  1.00  0.00    -0.269 OA
BRANCH  30  33
ATOM     33  C   UNL A   1      34.282  30.876  27.575  1.00  0.00     0.039 A 
ATOM     34  C   UNL A   1      35.236  31.892  27.688  1.00  0.00     0.014 A 
ATOM     35  C   UNL A   1      34.553  29.605  28.091  1.00  0.00     0.014 A 
ATOM     36  C   UNL A   1      36.431  31.652  28.368  1.00  0.00     0.010 A 
ATOM     37  C   UNL A   1      35.711  29.389  28.833  1.00  0.00     0.010 A 
ATOM     38  C   UNL A   1      36.665  30.408  28.975  1.00  0.00    -0.014 A 
BRANCH  38  39
ATOM     39  C   UNL A   1      37.902  30.156  29.760  1.00  0.00     0.031 A 
ATOM     40  C   UNL A   1      38.986  29.273  29.205  1.00  0.00     0.074 A 
ATOM     41  C   UNL A   1      38.025  30.676  30.997  1.00  0.00     0.049 A 
ATOM     42  N   UNL A   1      40.107  28.889  29.761  1.00  0.00    -0.248 NA
ATOM     43  C   UNL A   1      38.771  28.732  27.854  1.00  0.00     0.031 C 
ATOM     44  C   UNL A   1      37.026  31.512  31.667  1.00  0.00     0.029 A 
ATOM     45  N   UNL A   1      39.038  30.567  31.917  1.00  0.00    -0.354 N 
ATOM     46  C   UNL A   1      40.722  28.054  28.838  1.00  0.00     0.074 A 
ATOM     47  C   UNL A   1      39.825  27.943  27.707  1.00  0.00     0.031 C 
ATOM     48  C   UNL A   1      37.486  31.860  32.879  1.00  0.00     0.029 A 
ATOM     49  C   UNL A   1      38.790  31.240  33.091  1.00  0.00     0.049 A 
ATOM     50  H   UNL A   1      39.863  30.058  31.753  1.00  0.00     0.167 HD
ATOM     51  C   UNL A   1      41.932  27.451  28.913  1.00  0.00     0.037 A 
ATOM     52  C   UNL A   1      39.527  31.337  34.214  1.00  0.00     0.037 A 
ATOM     53  C   UNL A   1      42.831  27.578  30.032  1.00  0.00     0.049 A 
ATOM     54  C   UNL A   1      40.861  30.645  34.279  1.00  0.00     0.074 A 
ATOM     55  C   UNL A   1      44.102  27.053  30.179  1.00  0.00     0.029 A 
ATOM     56  N   UNL A   1      42.548  28.275  31.197  1.00  0.00    -0.354 N 
ATOM     57  N   UNL A   1      41.460  29.915  33.370  1.00  0.00    -0.248 NA
ATOM     58  C   UNL A   1      41.624  30.796  35.526  1.00  0.00     0.031 C 
ATOM     59  C   UNL A   1      44.568  27.389  31.455  1.00  0.00     0.029 A 
ATOM     60  C   UNL A   1      43.611  28.172  32.080  1.00  0.00     0.049 A 
ATOM     61  H   UNL A   1      41.714  28.769  31.372  1.00  0.00     0.167 HD
ATOM     62  C   UNL A   1      42.680  29.545  33.922  1.00  0.00     0.074 A 
ATOM     63  C   UNL A   1      42.741  30.144  35.239  1.00  0.00     0.031 C 
ATOM     64  C   UNL A   1      43.661  28.778  33.385  1.00  0.00     0.037 A 
BRANCH  51  65
ATOM     65  C   UNL A   1      42.358  26.599  27.751  1.00  0.00     0.057 A 
ATOM     66  C   UNL A   1      42.010  25.245  27.660  1.00  0.00     0.134 A 
ATOM     67  C   UNL A   1      43.096  27.146  26.694  1.00  0.00     0.134 A 
ATOM     68  F   UNL A   1      41.313  24.654  28.643  1.00  0.00    -0.206 F 
ATOM     69  C   UNL A   1      42.404  24.460  26.575  1.00  0.00     0.040 A 
ATOM     70  C   UNL A   1      43.471  26.379  25.590  1.00  0.00     0.040 A 
ATOM     71  F   UNL A   1      43.457  28.439  26.711  1.00  0.00    -0.206 F 
ATOM     72  C   UNL A   1      43.132  25.029  25.532  1.00  0.00     0.006 A 
ENDBRANCH  51  65
BRANCH  52  73
ATOM     73  C   UNL A   1      39.031  32.136  35.363  1.00  0.00     0.057 A 
ATOM     74  C   UNL A   1      39.278  33.512  35.446  1.00  0.00     0.134 A 
ATOM     75  C   UNL A   1      38.310  31.547  36.408  1.00  0.00     0.134 A 
ATOM     76  F   UNL A   1      39.978  34.131  34.485  1.00  0.00    -0.206 F 
ATOM     77  C   UNL A   1      38.847  34.268  36.537  1.00  0.00     0.040 A 
ATOM     78  C   UNL A   1      37.849  32.296  37.492  1.00  0.00     0.040 A 
ATOM     79  F   UNL A   1      38.034  30.235  36.385  1.00  0.00    -0.206 F 
ATOM     80  C   UNL A   1      38.125  33.660  37.563  1.00  0.00     0.006 A 
ENDBRANCH  52  73
BRANCH  64  81
ATOM     81  C   UNL A   1      44.902  28.576  34.206  1.00  0.00     0.057 A 
ATOM     82  C   UNL A   1      45.981  29.468  34.154  1.00  0.00     0.134 A 
ATOM     83  C   UNL A   1      45.001  27.494  35.091  1.00  0.00     0.134 A 
ATOM     84  F   UNL A   1      45.955  30.517  33.318  1.00  0.00    -0.206 F 
ATOM     85  C   UNL A   1      47.122  29.279  34.934  1.00  0.00     0.040 A 
ATOM     86  C   UNL A   1      46.125  27.310  35.898  1.00  0.00     0.040 A 
ATOM     87  F   UNL A   1      44.000  26.607  35.198  1.00  0.00    -0.206 F 
ATOM     88  C   UNL A   1      47.194  28.200  35.815  1.00  0.00     0.006 A 
ENDBRANCH  64  81
ENDBRANCH  38  39
ENDBRANCH  30  33
ENDBRANCH  28  29
ENDBRANCH  27  28
ENDBRANCH  26  27
ENDBRANCH  25  26
ENDBRANCH   1  25
TORSDOF 17
ENDMDL
MODEL 3
REMARK VINA RESULT:     -11.2      0.767      6.277
REMARK SMILES CCOC(=O)c1ccc(-c2cc(F)cc(C(=O)NCCCCCCNC(=O)c3ccc(-c4c5nc(c(-c6c(F)cccc6F)c6ccc([nH]6)c(-c6c(F)cccc6F)c6nc(c(-c7c(F)cccc7F)c7ccc4[nH]7)C=C6)C=C5)cc3)c2)cc1
REMARK SMILES IDX 20 1 19 2 18 3 16 4 17 5 15 7 10 8 11 9 82 10 12 11 13 12
REMARK SMILES IDX 14 13 9 14 6 15 7 16 84 17 8 18 83 19 4 20 5 21 3 22 2 23
REMARK SMILES IDX 1 24 21 25 22 26 23 27 24 28 25 29 26 30 27 32 28 33 29 34
REMARK SMILES IDX 81 35 30 36 80 37 31 38 32 39 33 40 74 41 34 42 79 43 73 44
REMARK SMILES IDX 75 45 35 46 78 47 72 48 71 49 36 51 62 52 45 53 61 54 46 55
REMARK SMILES IDX 49 56 60 57 76 58 47 59 48 60 59 62 77 63 50 64 37 65 38 66
REMARK SMILES IDX 43 67 39 68 40 69 42 70 44 71 41 72 63 73 64 74 69 75 65 76
REMARK SMILES IDX 66 77 68 78 70 79 67 80 51 81 52 82 57 83 53 84 54 85 56 86
REMARK SMILES IDX 58 87 55 88
REMARK H PARENT 18 6 25 31 75 50 49 61
REMARK Flexibility Score: inf
ROOT
ATOM      1  C   UNL A   1      32.882  28.986  24.646  1.00  0.00     0.021 C 
ENDROOT
BRANCH   1   2
ATOM      2  C   UNL A   1      31.948  28.052  23.888  1.00  0.00     0.116 C 
BRANCH   2   3
ATOM      3  N   UNL A   1      32.499  27.512  22.655  1.00  0.00    -0.352 N 
ATOM      4  C   UNL A   1      33.047  26.280  22.372  1.00  0.00     0.251 C 
ATOM      5  O   UNL A   1      33.475  26.068  21.239  1.00  0.00    -0.269 OA
ATOM      6  H   UNL A   1      32.477  28.134  21.892  1.00  0.00     0.163 HD
BRANCH   4   7
ATOM      7  C   UNL A   1      33.190  25.221  23.407  1.00  0.00     0.043 A 
ATOM      8  C   UNL A   1      34.589  23.682  24.695  1.00  0.00    -0.015 A 
ATOM      9  C   UNL A   1      33.434  23.001  25.095  1.00  0.00     0.048 A 
ATOM     10  C   UNL A   1      34.430  24.854  23.937  1.00  0.00     0.022 A 
ATOM     11  C   UNL A   1      32.180  23.454  24.689  1.00  0.00     0.124 A 
ATOM     12  F   UNL A   1      31.085  22.792  25.086  1.00  0.00    -0.207 F 
ATOM     13  C   UNL A   1      32.048  24.538  23.828  1.00  0.00     0.053 A 
BRANCH   8  14
ATOM     14  C   UNL A   1      35.943  23.136  24.899  1.00  0.00    -0.018 A 
ATOM     15  C   UNL A   1      38.412  21.965  25.595  1.00  0.00     0.060 A 
ATOM     16  C   UNL A   1      38.078  23.227  26.089  1.00  0.00     0.016 A 
ATOM     17  C   UNL A   1      37.530  21.286  24.750  1.00  0.00     0.016 A 
ATOM     18  C   UNL A   1      36.857  23.809  25.733  1.00  0.00     0.009 A 
ATOM     19  C   UNL A   1      36.307  21.871  24.405  1.00  0.00     0.009 A 
BRANCH  15  20
ATOM     20  C   UNL A   1      39.680  21.343  26.030  1.00  0.00     0.338 C 
ATOM     21  O   UNL A   1      39.809  20.154  26.251  1.00  0.00    -0.246 OA
BRANCH  20  22
ATOM     22  O   UNL A   1      40.615  22.314  26.170  1.00  0.00    -0.462 OA
BRANCH  22  23
ATOM     23  C   UNL A   1      41.850  21.916  26.782  1.00  0.00     0.230 C 
ATOM     24  C   UNL A   1      41.955  22.415  28.212  1.00  0.00     0.049 C 
ENDBRANCH  22  23
ENDBRANCH  20  22
ENDBRANCH  15  20
ENDBRANCH   8  14
ENDBRANCH   4   7
ENDBRANCH   2   3
ENDBRANCH   1   2
BRANCH   1  25
ATOM     25  C   UNL A   1      32.263  29.790  25.789  1.00  0.00     0.002 C 
BRANCH  25  26
ATOM     26  C   UNL A   1      31.099  30.713  25.421  1.00  0.00     0.002 C 
BRANCH  26  27
ATOM     27  C   UNL A   1      31.050  32.065  26.136  1.00  0.00     0.021 C 
BRANCH  27  28
ATOM     28  C   UNL A   1      32.316  32.468  26.884  1.00  0.00     0.116 C 
BRANCH  28  29
ATOM     29  N   UNL A   1      32.271  33.835  27.374  1.00  0.00    -0.352 N 
ATOM     30  C   UNL A   1      33.052  34.456  28.318  1.00  0.00     0.251 C 
ATOM     31  H   UNL A   1      31.577  34.402  26.967  1.00  0.00     0.163 HD
ATOM     32  O   UNL A   1      32.761  35.582  28.710  1.00  0.00    -0.269 OA
BRANCH  30  33
ATOM     33  C   UNL A   1      34.228  33.762  28.887  1.00  0.00     0.039 A 
ATOM     34  C   UNL A   1      35.491  34.341  28.729  1.00  0.00     0.014 A 
ATOM     35  C   UNL A   1      34.099  32.539  29.553  1.00  0.00     0.014 A 
ATOM     36  C   UNL A   1      36.613  33.727  29.290  1.00  0.00     0.010 A 
ATOM     37  C   UNL A   1      35.206  31.968  30.177  1.00  0.00     0.010 A 
ATOM     38  C   UNL A   1      36.475  32.552  30.047  1.00  0.00    -0.014 A 
BRANCH  38  39
ATOM     39  C   UNL A   1      37.648  31.921  30.707  1.00  0.00     0.031 A 
ATOM     40  C   UNL A   1      38.448  30.869  29.990  1.00  0.00     0.074 A 
ATOM     41  C   UNL A   1      37.959  32.256  31.975  1.00  0.00     0.049 A 
ATOM     42  N   UNL A   1      39.464  30.165  30.420  1.00  0.00    -0.248 NA
ATOM     43  C   UNL A   1      38.036  30.550  28.614  1.00  0.00     0.031 C 
ATOM     44  C   UNL A   1      37.236  33.230  32.795  1.00  0.00     0.029 A 
ATOM     45  N   UNL A   1      38.958  31.803  32.801  1.00  0.00    -0.354 N 
ATOM     46  C   UNL A   1      39.803  29.312  29.377  1.00  0.00     0.074 A 
ATOM     47  C   UNL A   1      38.851  29.549  28.313  1.00  0.00     0.031 C 
ATOM     48  C   UNL A   1      37.829  33.320  33.996  1.00  0.00     0.029 A 
ATOM     49  C   UNL A   1      38.946  32.381  34.048  1.00  0.00     0.049 A 
ATOM     50  H   UNL A   1      39.621  31.130  32.526  1.00  0.00     0.167 HD
ATOM     51  C   UNL A   1      40.827  28.430  29.302  1.00  0.00     0.037 A 
ATOM     52  C   UNL A   1      39.740  32.171  35.116  1.00  0.00     0.037 A 
ATOM     53  C   UNL A   1      41.784  28.209  30.356  1.00  0.00     0.049 A 
ATOM     54  C   UNL A   1      40.860  31.173  35.013  1.00  0.00     0.074 A 
ATOM     55  C   UNL A   1      42.890  27.378  30.355  1.00  0.00     0.029 A 
ATOM     56  N   UNL A   1      41.743  28.821  31.600  1.00  0.00    -0.354 N 
ATOM     57  N   UNL A   1      41.211  30.424  33.996  1.00  0.00    -0.248 NA
ATOM     58  C   UNL A   1      41.699  30.995  36.207  1.00  0.00     0.031 C 
ATOM     59  C   UNL A   1      43.489  27.447  31.618  1.00  0.00     0.029 A 
ATOM     60  C   UNL A   1      42.790  28.365  32.385  1.00  0.00     0.049 A 
ATOM     61  H   UNL A   1      41.069  29.480  31.884  1.00  0.00     0.167 HD
ATOM     62  C   UNL A   1      42.326  29.710  34.415  1.00  0.00     0.074 A 
ATOM     63  C   UNL A   1      42.602  30.127  35.774  1.00  0.00     0.031 C 
ATOM     64  C   UNL A   1      43.056  28.792  33.735  1.00  0.00     0.037 A 
BRANCH  51  65
ATOM     65  C   UNL A   1      40.967  27.634  28.036  1.00  0.00     0.057 A 
ATOM     66  C   UNL A   1      41.762  28.073  26.969  1.00  0.00     0.134 A 
ATOM     67  C   UNL A   1      40.325  26.396  27.893  1.00  0.00     0.134 A 
ATOM     68  F   UNL A   1      42.397  29.254  27.035  1.00  0.00    -0.206 F 
ATOM     69  C   UNL A   1      41.892  27.326  25.797  1.00  0.00     0.040 A 
ATOM     70  C   UNL A   1      40.471  25.627  26.738  1.00  0.00     0.040 A 
ATOM     71  F   UNL A   1      39.554  25.910  28.878  1.00  0.00    -0.206 F 
ATOM     72  C   UNL A   1      41.250  26.094  25.682  1.00  0.00     0.006 A 
ENDBRANCH  51  65
BRANCH  52  73
ATOM     73  C   UNL A   1      39.517  32.935  36.370  1.00  0.00     0.057 A 
ATOM     74  C   UNL A   1      40.188  34.140  36.610  1.00  0.00     0.134 A 
ATOM     75  C   UNL A   1      38.642  32.476  37.361  1.00  0.00     0.134 A 
ATOM     76  F   UNL A   1      41.053  34.623  35.707  1.00  0.00    -0.206 F 
ATOM     77  C   UNL A   1      40.014  34.850  37.799  1.00  0.00     0.040 A 
ATOM     78  C   UNL A   1      38.438  33.190  38.544  1.00  0.00     0.040 A 
ATOM     79  F   UNL A   1      37.963  31.332  37.190  1.00  0.00    -0.206 F 
ATOM     80  C   UNL A   1      39.132  34.377  38.769  1.00  0.00     0.006 A 
ENDBRANCH  52  73
BRANCH  64  81
ATOM     81  C   UNL A   1      44.247  28.205  34.435  1.00  0.00     0.057 A 
ATOM     82  C   UNL A   1      44.166  27.010  35.162  1.00  0.00     0.134 A 
ATOM     83  C   UNL A   1      45.501  28.823  34.347  1.00  0.00     0.134 A 
ATOM     84  F   UNL A   1      42.992  26.374  35.296  1.00  0.00    -0.206 F 
ATOM     85  C   UNL A   1      45.284  26.464  35.796  1.00  0.00     0.040 A 
ATOM     86  C   UNL A   1      46.632  28.272  34.951  1.00  0.00     0.040 A 
ATOM     87  F   UNL A   1      45.652  29.965  33.658  1.00  0.00    -0.206 F 
ATOM     88  C   UNL A   1      46.524  27.093  35.685  1.00  0.00     0.006 A 
ENDBRANCH  64  81
ENDBRANCH  38  39
ENDBRANCH  30  33
ENDBRANCH  28  29
ENDBRANCH  27  28
ENDBRANCH  26  27
ENDBRANCH  25  26
ENDBRANCH   1  25
TORSDOF 17
ENDMDL
