MODEL 1
REMARK VINA RESULT:     -11.2      0.000      0.000
REMARK SMILES Cc1cc(C)nc(N2CCCC[C@H]2C(=O)NCCCCCCNC(=O)c2ccc(-c3c4nc(c(-c5c(F)cccc5F)c5ccc([nH]5)c(-c5c(F)cccc5F)c5nc(c(-c6c(F)cccc6F)c6ccc3[nH]6)C=C5)C=C4)cc2)n1
REMARK SMILES IDX 20 1 19 2 18 3 17 4 16 5 14 6 15 7 13 9 8 10 9 11 10 12
REMARK SMILES IDX 12 13 11 14 7 15 1 16 2 17 3 18 80 19 4 20 5 21 6 22 21 23
REMARK SMILES IDX 22 24 23 25 24 26 25 28 26 29 27 30 79 31 28 32 78 33 29 34
REMARK SMILES IDX 30 35 31 36 72 37 32 38 77 39 71 40 73 41 33 42 76 43 70 44
REMARK SMILES IDX 69 45 34 47 60 48 43 49 59 50 44 51 47 52 58 53 74 54 45 55
REMARK SMILES IDX 46 56 57 58 75 59 48 60 35 61 36 62 41 63 37 64 38 65 40 66
REMARK SMILES IDX 42 67 39 68 61 69 62 70 67 71 63 72 64 73 66 74 68 75 65 76
REMARK SMILES IDX 49 77 50 78 55 79 51 80 52 81 54 82 56 83 53 84
REMARK H PARENT 16 8 23 27 73 46 47 57
REMARK Flexibility Score: inf
ROOT
ATOM      1  C   UNL A   1      34.525  33.829  28.952  1.00  0.00     0.002 C 
ENDROOT
BRANCH   1   2
ATOM      2  C   UNL A   1      34.390  32.302  28.929  1.00  0.00     0.002 C 
BRANCH   2   3
ATOM      3  C   UNL A   1      35.251  31.534  27.918  1.00  0.00     0.021 C 
BRANCH   3   4
ATOM      4  C   UNL A   1      34.799  30.115  27.584  1.00  0.00     0.116 C 
BRANCH   4   5
ATOM      5  N   UNL A   1      33.375  29.904  27.713  1.00  0.00    -0.354 N 
ATOM      6  C   UNL A   1      32.630  28.842  27.278  1.00  0.00     0.242 C 
ATOM      7  O   UNL A   1      31.464  28.800  27.689  1.00  0.00    -0.273 OA
ATOM      8  H   UNL A   1      32.877  30.618  28.172  1.00  0.00     0.163 HD
BRANCH   6   9
ATOM      9  C   UNL A   1      33.211  27.781  26.293  1.00  0.00     0.174 C 
ATOM     10  N   UNL A   1      32.197  26.848  25.803  1.00  0.00    -0.329 N 
ATOM     11  C   UNL A   1      31.142  27.315  24.934  1.00  0.00     0.120 C 
ATOM     12  C   UNL A   1      31.747  27.993  23.706  1.00  0.00     0.022 C 
ATOM     13  C   UNL A   1      33.840  28.474  25.063  1.00  0.00     0.035 C 
ATOM     14  C   UNL A   1      32.805  29.032  24.075  1.00  0.00     0.004 C 
BRANCH  10  15
ATOM     15  C   UNL A   1      32.221  25.537  26.184  1.00  0.00     0.226 A 
ATOM     16  C   UNL A   1      34.802  22.966  26.433  1.00  0.00     0.067 C 
ATOM     17  C   UNL A   1      33.459  23.616  26.501  1.00  0.00     0.043 A 
ATOM     18  C   UNL A   1      32.327  22.879  26.742  1.00  0.00     0.047 A 
ATOM     19  N   UNL A   1      33.413  24.934  26.234  1.00  0.00    -0.218 NA
ATOM     20  C   UNL A   1      31.140  23.579  26.737  1.00  0.00     0.043 A 
ATOM     21  C   UNL A   1      29.866  22.852  27.048  1.00  0.00     0.067 C 
ATOM     22  N   UNL A   1      31.070  24.898  26.442  1.00  0.00    -0.218 NA
ENDBRANCH  10  15
ENDBRANCH   6   9
ENDBRANCH   4   5
ENDBRANCH   3   4
ENDBRANCH   2   3
ENDBRANCH   1   2
BRANCH   1  23
ATOM     23  C   UNL A   1      33.231  34.643  28.948  1.00  0.00     0.021 C 
BRANCH  23  24
ATOM     24  C   UNL A   1      33.305  36.073  29.467  1.00  0.00     0.116 C 
BRANCH  24  25
ATOM     25  N   UNL A   1      32.478  36.297  30.637  1.00  0.00    -0.352 N 
ATOM     26  C   UNL A   1      32.606  35.791  31.909  1.00  0.00     0.251 C 
ATOM     27  H   UNL A   1      31.712  36.901  30.501  1.00  0.00     0.163 HD
ATOM     28  O   UNL A   1      31.716  35.977  32.733  1.00  0.00    -0.269 OA
BRANCH  26  29
ATOM     29  C   UNL A   1      33.803  35.004  32.299  1.00  0.00     0.039 A 
ATOM     30  C   UNL A   1      35.062  35.609  32.216  1.00  0.00     0.014 A 
ATOM     31  C   UNL A   1      33.705  33.666  32.691  1.00  0.00     0.014 A 
ATOM     32  C   UNL A   1      36.212  34.891  32.561  1.00  0.00     0.010 A 
ATOM     33  C   UNL A   1      34.843  32.971  33.100  1.00  0.00     0.010 A 
ATOM     34  C   UNL A   1      36.111  33.569  33.022  1.00  0.00    -0.014 A 
BRANCH  34  35
ATOM     35  C   UNL A   1      37.319  32.775  33.377  1.00  0.00     0.031 A 
ATOM     36  C   UNL A   1      38.055  33.063  34.659  1.00  0.00     0.074 A 
ATOM     37  C   UNL A   1      37.795  31.843  32.531  1.00  0.00     0.049 A 
ATOM     38  N   UNL A   1      39.183  32.564  35.098  1.00  0.00    -0.248 NA
ATOM     39  C   UNL A   1      37.454  34.068  35.549  1.00  0.00     0.031 C 
ATOM     40  C   UNL A   1      37.198  31.482  31.244  1.00  0.00     0.029 A 
ATOM     41  N   UNL A   1      38.904  31.038  32.620  1.00  0.00    -0.354 N 
ATOM     42  C   UNL A   1      39.437  33.211  36.302  1.00  0.00     0.074 A 
ATOM     43  C   UNL A   1      38.373  34.171  36.498  1.00  0.00     0.031 C 
ATOM     44  C   UNL A   1      37.944  30.525  30.667  1.00  0.00     0.029 A 
ATOM     45  C   UNL A   1      39.088  30.228  31.525  1.00  0.00     0.049 A 
ATOM     46  H   UNL A   1      39.511  31.041  33.396  1.00  0.00     0.167 HD
ATOM     47  C   UNL A   1      40.451  33.010  37.177  1.00  0.00     0.037 A 
ATOM     48  C   UNL A   1      40.072  29.355  31.239  1.00  0.00     0.037 A 
ATOM     49  C   UNL A   1      41.494  32.034  37.001  1.00  0.00     0.049 A 
ATOM     50  C   UNL A   1      41.189  29.143  32.224  1.00  0.00     0.074 A 
ATOM     51  C   UNL A   1      42.536  31.720  37.856  1.00  0.00     0.029 A 
ATOM     52  N   UNL A   1      41.624  31.211  35.893  1.00  0.00    -0.354 N 
ATOM     53  N   UNL A   1      41.392  29.729  33.379  1.00  0.00    -0.248 NA
ATOM     54  C   UNL A   1      42.209  28.146  31.869  1.00  0.00     0.031 C 
ATOM     55  C   UNL A   1      43.319  30.732  37.248  1.00  0.00     0.029 A 
ATOM     56  C   UNL A   1      42.739  30.400  36.035  1.00  0.00     0.049 A 
ATOM     57  H   UNL A   1      41.015  31.204  35.120  1.00  0.00     0.167 HD
ATOM     58  C   UNL A   1      42.543  29.153  33.902  1.00  0.00     0.074 A 
ATOM     59  C   UNL A   1      42.991  28.168  32.940  1.00  0.00     0.031 C 
ATOM     60  C   UNL A   1      43.168  29.416  35.074  1.00  0.00     0.037 A 
BRANCH  47  61
ATOM     61  C   UNL A   1      40.477  33.871  38.407  1.00  0.00     0.057 A 
ATOM     62  C   UNL A   1      39.773  33.523  39.569  1.00  0.00     0.134 A 
ATOM     63  C   UNL A   1      41.217  35.060  38.434  1.00  0.00     0.134 A 
ATOM     64  F   UNL A   1      39.034  32.404  39.606  1.00  0.00    -0.206 F 
ATOM     65  C   UNL A   1      39.775  34.343  40.698  1.00  0.00     0.040 A 
ATOM     66  C   UNL A   1      41.250  35.873  39.568  1.00  0.00     0.040 A 
ATOM     67  F   UNL A   1      41.921  35.448  37.360  1.00  0.00    -0.206 F 
ATOM     68  C   UNL A   1      40.519  35.521  40.701  1.00  0.00     0.006 A 
ENDBRANCH  47  61
BRANCH  48  69
ATOM     69  C   UNL A   1      40.032  28.598  29.963  1.00  0.00     0.057 A 
ATOM     70  C   UNL A   1      40.706  29.060  28.827  1.00  0.00     0.134 A 
ATOM     71  C   UNL A   1      39.334  27.389  29.853  1.00  0.00     0.134 A 
ATOM     72  F   UNL A   1      41.375  30.221  28.865  1.00  0.00    -0.206 F 
ATOM     73  C   UNL A   1      40.681  28.352  27.625  1.00  0.00     0.040 A 
ATOM     74  C   UNL A   1      39.318  26.660  28.664  1.00  0.00     0.040 A 
ATOM     75  F   UNL A   1      38.674  26.890  30.909  1.00  0.00    -0.206 F 
ATOM     76  C   UNL A   1      39.991  27.144  27.542  1.00  0.00     0.006 A 
ENDBRANCH  48  69
BRANCH  60  77
ATOM     77  C   UNL A   1      44.385  28.603  35.407  1.00  0.00     0.057 A 
ATOM     78  C   UNL A   1      45.673  29.017  35.047  1.00  0.00     0.134 A 
ATOM     79  C   UNL A   1      44.269  27.419  36.147  1.00  0.00     0.134 A 
ATOM     80  F   UNL A   1      45.851  30.136  34.327  1.00  0.00    -0.206 F 
ATOM     81  C   UNL A   1      46.802  28.276  35.399  1.00  0.00     0.040 A 
ATOM     82  C   UNL A   1      45.390  26.682  36.525  1.00  0.00     0.040 A 
ATOM     83  F   UNL A   1      43.064  26.973  36.531  1.00  0.00    -0.206 F 
ATOM     84  C   UNL A   1      46.662  27.108  36.148  1.00  0.00     0.006 A 
ENDBRANCH  60  77
ENDBRANCH  34  35
ENDBRANCH  26  29
ENDBRANCH  24  25
ENDBRANCH  23  24
ENDBRANCH   1  23
TORSDOF 14
ENDMDL
MODEL 2
REMARK VINA RESULT:     -10.9      6.009     10.541
REMARK SMILES Cc1cc(C)nc(N2CCCC[C@H]2C(=O)NCCCCCCNC(=O)c2ccc(-c3c4nc(c(-c5c(F)cccc5F)c5ccc([nH]5)c(-c5c(F)cccc5F)c5nc(c(-c6c(F)cccc6F)c6ccc3[nH]6)C=C5)C=C4)cc2)n1
REMARK SMILES IDX 20 1 19 2 18 3 17 4 16 5 14 6 15 7 13 9 8 10 9 11 10 12
REMARK SMILES IDX 12 13 11 14 7 15 1 16 2 17 3 18 80 19 4 20 5 21 6 22 21 23
REMARK SMILES IDX 22 24 23 25 24 26 25 28 26 29 27 30 79 31 28 32 78 33 29 34
REMARK SMILES IDX 30 35 31 36 72 37 32 38 77 39 71 40 73 41 33 42 76 43 70 44
REMARK SMILES IDX 69 45 34 47 60 48 43 49 59 50 44 51 47 52 58 53 74 54 45 55
REMARK SMILES IDX 46 56 57 58 75 59 48 60 35 61 36 62 41 63 37 64 38 65 40 66
REMARK SMILES IDX 42 67 39 68 61 69 62 70 67 71 63 72 64 73 66 74 68 75 65 76
REMARK SMILES IDX 49 77 50 78 55 79 51 80 52 81 54 82 56 83 53 84
REMARK H PARENT 16 8 23 27 73 46 47 57
REMARK Flexibility Score: inf
ROOT
ATOM      1  C   UNL A   1      36.372  19.619  24.965  1.00  0.00     0.002 C 
ENDROOT
BRANCH   1   2
ATOM      2  C   UNL A   1      35.402  20.805  25.027  1.00  0.00     0.002 C 
BRANCH   2   3
ATOM      3  C   UNL A   1      35.659  21.871  26.100  1.00  0.00     0.021 C 
BRANCH   3   4
ATOM      4  C   UNL A   1      35.873  23.297  25.599  1.00  0.00     0.116 C 
BRANCH   4   5
ATOM      5  N   UNL A   1      35.476  23.504  24.225  1.00  0.00    -0.354 N 
ATOM      6  C   UNL A   1      34.400  24.203  23.748  1.00  0.00     0.242 C 
ATOM      7  O   UNL A   1      34.391  24.407  22.528  1.00  0.00    -0.273 OA
ATOM      8  H   UNL A   1      36.054  23.090  23.545  1.00  0.00     0.163 HD
BRANCH   6   9
ATOM      9  C   UNL A   1      33.242  24.668  24.685  1.00  0.00     0.174 C 
ATOM     10  N   UNL A   1      32.269  25.519  24.002  1.00  0.00    -0.329 N 
ATOM     11  C   UNL A   1      31.427  24.969  22.966  1.00  0.00     0.120 C 
ATOM     12  C   UNL A   1      30.656  23.768  23.510  1.00  0.00     0.022 C 
ATOM     13  C   UNL A   1      32.480  23.447  25.249  1.00  0.00     0.035 C 
ATOM     14  C   UNL A   1      31.564  22.766  24.221  1.00  0.00     0.004 C 
BRANCH  10  15
ATOM     15  C   UNL A   1      32.167  26.844  24.317  1.00  0.00     0.226 A 
ATOM     16  C   UNL A   1      33.783  29.058  26.729  1.00  0.00     0.067 C 
ATOM     17  C   UNL A   1      32.877  28.601  25.634  1.00  0.00     0.043 A 
ATOM     18  C   UNL A   1      31.897  29.421  25.137  1.00  0.00     0.047 A 
ATOM     19  N   UNL A   1      33.023  27.327  25.224  1.00  0.00    -0.218 NA
ATOM     20  C   UNL A   1      31.092  28.876  24.159  1.00  0.00     0.043 A 
ATOM     21  C   UNL A   1      30.034  29.730  23.528  1.00  0.00     0.067 C 
ATOM     22  N   UNL A   1      31.203  27.588  23.755  1.00  0.00    -0.218 NA
ENDBRANCH  10  15
ENDBRANCH   6   9
ENDBRANCH   4   5
ENDBRANCH   3   4
ENDBRANCH   2   3
ENDBRANCH   1   2
BRANCH   1  23
ATOM     23  C   UNL A   1      37.830  19.930  24.623  1.00  0.00     0.021 C 
BRANCH  23  24
ATOM     24  C   UNL A   1      38.795  20.115  25.787  1.00  0.00     0.116 C 
BRANCH  24  25
ATOM     25  N   UNL A   1      39.867  19.138  25.798  1.00  0.00    -0.352 N 
ATOM     26  C   UNL A   1      41.219  19.324  25.967  1.00  0.00     0.251 C 
ATOM     27  H   UNL A   1      39.585  18.204  25.664  1.00  0.00     0.163 HD
ATOM     28  O   UNL A   1      41.991  18.385  25.793  1.00  0.00    -0.269 OA
BRANCH  26  29
ATOM     29  C   UNL A   1      41.764  20.653  26.340  1.00  0.00     0.039 A 
ATOM     30  C   UNL A   1      41.931  20.954  27.696  1.00  0.00     0.014 A 
ATOM     31  C   UNL A   1      42.061  21.621  25.376  1.00  0.00     0.014 A 
ATOM     32  C   UNL A   1      42.429  22.203  28.083  1.00  0.00     0.010 A 
ATOM     33  C   UNL A   1      42.621  22.840  25.758  1.00  0.00     0.010 A 
ATOM     34  C   UNL A   1      42.794  23.153  27.116  1.00  0.00    -0.014 A 
BRANCH  34  35
ATOM     35  C   UNL A   1      43.306  24.496  27.500  1.00  0.00     0.031 A 
ATOM     36  C   UNL A   1      42.342  25.574  27.916  1.00  0.00     0.074 A 
ATOM     37  C   UNL A   1      44.621  24.773  27.418  1.00  0.00     0.049 A 
ATOM     38  N   UNL A   1      42.571  26.836  28.182  1.00  0.00    -0.248 NA
ATOM     39  C   UNL A   1      40.927  25.186  28.019  1.00  0.00     0.031 C 
ATOM     40  C   UNL A   1      45.661  23.832  27.002  1.00  0.00     0.029 A 
ATOM     41  N   UNL A   1      45.305  25.938  27.665  1.00  0.00    -0.354 N 
ATOM     42  C   UNL A   1      41.329  27.395  28.459  1.00  0.00     0.074 A 
ATOM     43  C   UNL A   1      40.347  26.348  28.281  1.00  0.00     0.031 C 
ATOM     44  C   UNL A   1      46.852  24.454  27.028  1.00  0.00     0.029 A 
ATOM     45  C   UNL A   1      46.655  25.845  27.429  1.00  0.00     0.049 A 
ATOM     46  H   UNL A   1      44.869  26.762  27.981  1.00  0.00     0.167 HD
ATOM     47  C   UNL A   1      41.033  28.658  28.848  1.00  0.00     0.037 A 
ATOM     48  C   UNL A   1      47.624  26.777  27.514  1.00  0.00     0.037 A 
ATOM     49  C   UNL A   1      42.011  29.693  29.057  1.00  0.00     0.049 A 
ATOM     50  C   UNL A   1      47.277  28.174  27.950  1.00  0.00     0.074 A 
ATOM     51  C   UNL A   1      41.815  30.990  29.500  1.00  0.00     0.029 A 
ATOM     52  N   UNL A   1      43.372  29.547  28.839  1.00  0.00    -0.354 N 
ATOM     53  N   UNL A   1      46.105  28.675  28.252  1.00  0.00    -0.248 NA
ATOM     54  C   UNL A   1      48.388  29.131  28.062  1.00  0.00     0.031 C 
ATOM     55  C   UNL A   1      43.053  31.640  29.515  1.00  0.00     0.029 A 
ATOM     56  C   UNL A   1      44.026  30.735  29.123  1.00  0.00     0.049 A 
ATOM     57  H   UNL A   1      43.809  28.722  28.528  1.00  0.00     0.167 HD
ATOM     58  C   UNL A   1      46.338  29.995  28.619  1.00  0.00     0.074 A 
ATOM     59  C   UNL A   1      47.764  30.215  28.505  1.00  0.00     0.031 C 
ATOM     60  C   UNL A   1      45.449  30.937  29.015  1.00  0.00     0.037 A 
BRANCH  47  61
ATOM     61  C   UNL A   1      39.584  28.985  29.071  1.00  0.00     0.057 A 
ATOM     62  C   UNL A   1      38.995  28.905  30.341  1.00  0.00     0.134 A 
ATOM     63  C   UNL A   1      38.770  29.392  28.006  1.00  0.00     0.134 A 
ATOM     64  F   UNL A   1      39.716  28.510  31.401  1.00  0.00    -0.206 F 
ATOM     65  C   UNL A   1      37.640  29.180  30.536  1.00  0.00     0.040 A 
ATOM     66  C   UNL A   1      37.422  29.698  28.195  1.00  0.00     0.040 A 
ATOM     67  F   UNL A   1      39.272  29.498  26.767  1.00  0.00    -0.206 F 
ATOM     68  C   UNL A   1      36.850  29.582  29.461  1.00  0.00     0.006 A 
ENDBRANCH  47  61
BRANCH  48  69
ATOM     69  C   UNL A   1      49.026  26.408  27.195  1.00  0.00     0.057 A 
ATOM     70  C   UNL A   1      49.521  26.509  25.890  1.00  0.00     0.134 A 
ATOM     71  C   UNL A   1      49.908  25.961  28.187  1.00  0.00     0.134 A 
ATOM     72  F   UNL A   1      48.719  26.911  24.894  1.00  0.00    -0.206 F 
ATOM     73  C   UNL A   1      50.839  26.171  25.580  1.00  0.00     0.040 A 
ATOM     74  C   UNL A   1      51.234  25.641  27.896  1.00  0.00     0.040 A 
ATOM     75  F   UNL A   1      49.495  25.850  29.458  1.00  0.00    -0.206 F 
ATOM     76  C   UNL A   1      51.702  25.742  26.587  1.00  0.00     0.006 A 
ENDBRANCH  48  69
BRANCH  60  77
ATOM     77  C   UNL A   1      45.991  32.284  29.394  1.00  0.00     0.057 A 
ATOM     78  C   UNL A   1      46.076  33.334  28.472  1.00  0.00     0.134 A 
ATOM     79  C   UNL A   1      46.380  32.549  30.714  1.00  0.00     0.134 A 
ATOM     80  F   UNL A   1      45.730  33.143  27.189  1.00  0.00    -0.206 F 
ATOM     81  C   UNL A   1      46.541  34.596  28.845  1.00  0.00     0.040 A 
ATOM     82  C   UNL A   1      46.824  33.811  31.105  1.00  0.00     0.040 A 
ATOM     83  F   UNL A   1      46.315  31.588  31.648  1.00  0.00    -0.206 F 
ATOM     84  C   UNL A   1      46.909  34.839  30.168  1.00  0.00     0.006 A 
ENDBRANCH  60  77
ENDBRANCH  34  35
ENDBRANCH  26  29
ENDBRANCH  24  25
ENDBRANCH  23  24
ENDBRANCH   1  23
TORSDOF 14
ENDMDL
MODEL 3
REMARK VINA RESULT:     -10.9      1.894      6.789
REMARK SMILES Cc1cc(C)nc(N2CCCC[C@H]2C(=O)NCCCCCCNC(=O)c2ccc(-c3c4nc(c(-c5c(F)cccc5F)c5ccc([nH]5)c(-c5c(F)cccc5F)c5nc(c(-c6c(F)cccc6F)c6ccc3[nH]6)C=C5)C=C4)cc2)n1
REMARK SMILES IDX 20 1 19 2 18 3 17 4 16 5 14 6 15 7 13 9 8 10 9 11 10 12
REMARK SMILES IDX 12 13 11 14 7 15 1 16 2 17 3 18 80 19 4 20 5 21 6 22 21 23
REMARK SMILES IDX 22 24 23 25 24 26 25 28 26 29 27 30 79 31 28 32 78 33 29 34
REMARK SMILES IDX 30 35 31 36 72 37 32 38 77 39 71 40 73 41 33 42 76 43 70 44
REMARK SMILES IDX 69 45 34 47 60 48 43 49 59 50 44 51 47 52 58 53 74 54 45 55
REMARK SMILES IDX 46 56 57 58 75 59 48 60 35 61 36 62 41 63 37 64 38 65 40 66
REMARK SMILES IDX 42 67 39 68 61 69 62 70 67 71 63 72 64 73 66 74 68 75 65 76
REMARK SMILES IDX 49 77 50 78 55 79 51 80 52 81 54 82 56 83 53 84
REMARK H PARENT 16 8 23 27 73 46 47 57
REMARK Flexibility Score: inf
ROOT
ATOM      1  C   UNL A   1      31.396  30.840  25.936  1.00  0.00     0.002 C 
ENDROOT
BRANCH   1   2
ATOM      2  C   UNL A   1      32.169  29.799  26.752  1.00  0.00     0.002 C 
BRANCH   2   3
ATOM      3  C   UNL A   1      33.462  29.243  26.141  1.00  0.00     0.021 C 
BRANCH   3   4
ATOM      4  C   UNL A   1      33.740  27.761  26.379  1.00  0.00     0.116 C 
BRANCH   4   5
ATOM      5  N   UNL A   1      32.568  26.990  26.727  1.00  0.00    -0.354 N 
ATOM      6  C   UNL A   1      32.163  25.785  26.222  1.00  0.00     0.242 C 
ATOM      7  O   UNL A   1      31.236  25.234  26.828  1.00  0.00    -0.273 OA
ATOM      8  H   UNL A   1      31.987  27.384  27.417  1.00  0.00     0.163 HD
BRANCH   6   9
ATOM      9  C   UNL A   1      32.804  25.175  24.938  1.00  0.00     0.174 C 
ATOM     10  N   UNL A   1      32.592  23.733  24.828  1.00  0.00    -0.329 N 
ATOM     11  C   UNL A   1      31.263  23.211  24.608  1.00  0.00     0.120 C 
ATOM     12  C   UNL A   1      30.663  23.841  23.353  1.00  0.00     0.022 C 
ATOM     13  C   UNL A   1      32.208  25.832  23.672  1.00  0.00     0.035 C 
ATOM     14  C   UNL A   1      30.780  25.364  23.351  1.00  0.00     0.004 C 
BRANCH  10  15
ATOM     15  C   UNL A   1      33.639  22.867  24.961  1.00  0.00     0.226 A 
ATOM     16  C   UNL A   1      37.244  23.224  25.420  1.00  0.00     0.067 C 
ATOM     17  C   UNL A   1      35.910  22.575  25.245  1.00  0.00     0.043 A 
ATOM     18  C   UNL A   1      35.801  21.222  25.044  1.00  0.00     0.047 A 
ATOM     19  N   UNL A   1      34.842  23.392  25.216  1.00  0.00    -0.218 NA
ATOM     20  C   UNL A   1      34.524  20.742  24.849  1.00  0.00     0.043 A 
ATOM     21  C   UNL A   1      34.319  19.267  24.678  1.00  0.00     0.067 C 
ATOM     22  N   UNL A   1      33.440  21.552  24.787  1.00  0.00    -0.218 NA
ENDBRANCH  10  15
ENDBRANCH   6   9
ENDBRANCH   4   5
ENDBRANCH   3   4
ENDBRANCH   2   3
ENDBRANCH   1   2
BRANCH   1  23
ATOM     23  C   UNL A   1      31.275  32.243  26.532  1.00  0.00     0.021 C 
BRANCH  23  24
ATOM     24  C   UNL A   1      32.511  32.823  27.206  1.00  0.00     0.116 C 
BRANCH  24  25
ATOM     25  N   UNL A   1      32.327  34.192  27.651  1.00  0.00    -0.352 N 
ATOM     26  C   UNL A   1      33.013  34.900  28.609  1.00  0.00     0.251 C 
ATOM     27  H   UNL A   1      31.604  34.686  27.200  1.00  0.00     0.163 HD
ATOM     28  O   UNL A   1      32.611  36.007  28.955  1.00  0.00    -0.269 OA
BRANCH  26  29
ATOM     29  C   UNL A   1      34.228  34.336  29.249  1.00  0.00     0.039 A 
ATOM     30  C   UNL A   1      35.458  34.480  28.598  1.00  0.00     0.014 A 
ATOM     31  C   UNL A   1      34.162  33.625  30.450  1.00  0.00     0.014 A 
ATOM     32  C   UNL A   1      36.621  33.948  29.166  1.00  0.00     0.010 A 
ATOM     33  C   UNL A   1      35.330  33.154  31.050  1.00  0.00     0.010 A 
ATOM     34  C   UNL A   1      36.570  33.293  30.406  1.00  0.00    -0.014 A 
BRANCH  34  35
ATOM     35  C   UNL A   1      37.787  32.700  31.024  1.00  0.00     0.031 A 
ATOM     36  C   UNL A   1      38.420  31.480  30.409  1.00  0.00     0.074 A 
ATOM     37  C   UNL A   1      38.291  33.209  32.163  1.00  0.00     0.049 A 
ATOM     38  N   UNL A   1      39.412  30.749  30.849  1.00  0.00    -0.248 NA
ATOM     39  C   UNL A   1      37.837  31.005  29.145  1.00  0.00     0.031 C 
ATOM     40  C   UNL A   1      37.761  34.369  32.881  1.00  0.00     0.029 A 
ATOM     41  N   UNL A   1      39.356  32.802  32.929  1.00  0.00    -0.354 N 
ATOM     42  C   UNL A   1      39.556  29.716  29.930  1.00  0.00     0.074 A 
ATOM     43  C   UNL A   1      38.519  29.888  28.937  1.00  0.00     0.031 C 
ATOM     44  C   UNL A   1      38.505  34.584  33.978  1.00  0.00     0.029 A 
ATOM     45  C   UNL A   1      39.542  33.559  34.060  1.00  0.00     0.049 A 
ATOM     46  H   UNL A   1      39.931  32.040  32.690  1.00  0.00     0.167 HD
ATOM     47  C   UNL A   1      40.481  28.726  29.901  1.00  0.00     0.037 A 
ATOM     48  C   UNL A   1      40.439  33.435  35.058  1.00  0.00     0.037 A 
ATOM     49  C   UNL A   1      41.534  28.571  30.869  1.00  0.00     0.049 A 
ATOM     50  C   UNL A   1      41.460  32.332  35.007  1.00  0.00     0.074 A 
ATOM     51  C   UNL A   1      42.550  27.631  30.898  1.00  0.00     0.029 A 
ATOM     52  N   UNL A   1      41.707  29.380  31.982  1.00  0.00    -0.354 N 
ATOM     53  N   UNL A   1      41.612  31.390  34.108  1.00  0.00    -0.248 NA
ATOM     54  C   UNL A   1      42.436  32.278  36.105  1.00  0.00     0.031 C 
ATOM     55  C   UNL A   1      43.316  27.849  32.047  1.00  0.00     0.029 A 
ATOM     56  C   UNL A   1      42.804  28.951  32.712  1.00  0.00     0.049 A 
ATOM     57  H   UNL A   1      41.136  30.145  32.218  1.00  0.00     0.167 HD
ATOM     58  C   UNL A   1      42.716  30.650  34.515  1.00  0.00     0.074 A 
ATOM     59  C   UNL A   1      43.198  31.255  35.738  1.00  0.00     0.031 C 
ATOM     60  C   UNL A   1      43.279  29.569  33.924  1.00  0.00     0.037 A 
BRANCH  47  61
ATOM     61  C   UNL A   1      40.388  27.733  28.778  1.00  0.00     0.057 A 
ATOM     62  C   UNL A   1      41.094  27.903  27.579  1.00  0.00     0.134 A 
ATOM     63  C   UNL A   1      39.588  26.590  28.899  1.00  0.00     0.134 A 
ATOM     64  F   UNL A   1      41.868  28.983  27.394  1.00  0.00    -0.206 F 
ATOM     65  C   UNL A   1      40.979  26.992  26.528  1.00  0.00     0.040 A 
ATOM     66  C   UNL A   1      39.488  25.657  27.865  1.00  0.00     0.040 A 
ATOM     67  F   UNL A   1      38.892  26.361  30.023  1.00  0.00    -0.206 F 
ATOM     68  C   UNL A   1      40.176  25.863  26.671  1.00  0.00     0.006 A 
ENDBRANCH  47  61
BRANCH  48  69
ATOM     69  C   UNL A   1      40.421  34.401  36.184  1.00  0.00     0.057 A 
ATOM     70  C   UNL A   1      39.731  34.118  37.368  1.00  0.00     0.134 A 
ATOM     71  C   UNL A   1      41.106  35.621  36.111  1.00  0.00     0.134 A 
ATOM     72  F   UNL A   1      39.041  32.975  37.489  1.00  0.00    -0.206 F 
ATOM     73  C   UNL A   1      39.713  35.016  38.436  1.00  0.00     0.040 A 
ATOM     74  C   UNL A   1      41.115  36.519  37.179  1.00  0.00     0.040 A 
ATOM     75  F   UNL A   1      41.792  35.946  35.006  1.00  0.00    -0.206 F 
ATOM     76  C   UNL A   1      40.413  36.218  38.346  1.00  0.00     0.006 A 
ENDBRANCH  48  69
BRANCH  60  77
ATOM     77  C   UNL A   1      44.504  28.988  34.568  1.00  0.00     0.057 A 
ATOM     78  C   UNL A   1      45.792  29.425  34.236  1.00  0.00     0.134 A 
ATOM     79  C   UNL A   1      44.387  28.020  35.574  1.00  0.00     0.134 A 
ATOM     80  F   UNL A   1      45.973  30.341  33.272  1.00  0.00    -0.206 F 
ATOM     81  C   UNL A   1      46.923  28.909  34.872  1.00  0.00     0.040 A 
ATOM     82  C   UNL A   1      45.507  27.515  36.233  1.00  0.00     0.040 A 
ATOM     83  F   UNL A   1      43.181  27.567  35.945  1.00  0.00    -0.206 F 
ATOM     84  C   UNL A   1      46.781  27.957  35.880  1.00  0.00     0.006 A 
ENDBRANCH  60  77
ENDBRANCH  34  35
ENDBRANCH  26  29
ENDBRANCH  24  25
ENDBRANCH  23  24
ENDBRANCH   1  23
TORSDOF 14
ENDMDL
