MODEL 1
REMARK VINA RESULT:     -11.9      0.000      0.000
REMARK SMILES COc1cc(/C=C2\SC(=S)N(CC(=O)NCCCCCCNC(=O)c3ccc(-c4c5nc(c(-c6c(F)cccc6F)c6ccc([nH]6)c(-c6c(F)cccc6F)c6nc(c(-c7c(F)cccc7F)c7ccc4[nH]7)C=C6)C=C5)cc3)C2=O)cc2c1OCO2
REMARK SMILES IDX 18 1 17 2 16 3 15 4 13 5 14 6 12 8 11 9 6 10 7 11 8 12 79 13
REMARK SMILES IDX 9 14 80 15 10 16 5 17 3 18 4 19 83 20 82 21 84 22 81 23
REMARK SMILES IDX 86 24 85 25 2 26 1 27 19 28 20 29 21 30 22 31 23 32 24 34
REMARK SMILES IDX 25 35 26 36 78 37 27 38 77 39 28 40 29 41 30 42 71 43 31 44
REMARK SMILES IDX 76 45 70 46 72 47 32 48 75 49 69 50 68 51 33 53 59 54 42 55
REMARK SMILES IDX 58 56 43 57 46 58 57 59 73 60 44 61 45 62 56 64 74 65 47 66
REMARK SMILES IDX 34 67 35 68 40 69 36 70 37 71 39 72 41 73 38 74 60 75 61 76
REMARK SMILES IDX 66 77 62 78 63 79 65 80 67 81 64 82 48 83 49 84 54 85 50 86
REMARK SMILES IDX 51 87 53 88 55 89 52 90
REMARK H PARENT 15 7 22 33 72 52 46 63
REMARK Flexibility Score: inf
ROOT
ATOM      1  C   UNL A   1      32.489  29.486  26.775  1.00  0.00     0.002 C 
ENDROOT
BRANCH   1   2
ATOM      2  C   UNL A   1      31.762  28.228  27.268  1.00  0.00     0.021 C 
BRANCH   2   3
ATOM      3  C   UNL A   1      31.712  27.096  26.243  1.00  0.00     0.116 C 
BRANCH   3   4
ATOM      4  N   UNL A   1      31.223  25.864  26.822  1.00  0.00    -0.355 N 
ATOM      5  C   UNL A   1      31.457  24.566  26.486  1.00  0.00     0.240 C 
ATOM      6  O   UNL A   1      31.104  23.710  27.303  1.00  0.00    -0.273 OA
ATOM      7  H   UNL A   1      30.618  25.986  27.589  1.00  0.00     0.163 HD
BRANCH   5   8
ATOM      8  C   UNL A   1      32.297  24.169  25.265  1.00  0.00     0.227 C 
BRANCH   8   9
ATOM      9  N   UNL A   1      33.526  23.431  25.552  1.00  0.00    -0.283 N 
ATOM     10  C   UNL A   1      37.107  23.710  25.994  1.00  0.00     0.029 C 
ATOM     11  C   UNL A   1      35.853  23.247  25.877  1.00  0.00     0.081 C 
ATOM     12  S   UNL A   1      35.306  21.623  25.973  1.00  0.00    -0.054 SA
ATOM     13  C   UNL A   1      34.701  24.158  25.642  1.00  0.00     0.266 C 
ATOM     14  C   UNL A   1      33.651  22.058  25.576  1.00  0.00     0.148 C 
ATOM     15  O   UNL A   1      34.807  25.368  25.533  1.00  0.00    -0.268 OA
ATOM     16  S   UNL A   1      32.487  20.898  25.282  1.00  0.00    -0.052 S 
BRANCH  10  17
ATOM     17  C   UNL A   1      38.308  22.901  26.236  1.00  0.00    -0.017 A 
ATOM     18  C   UNL A   1      40.485  22.689  27.334  1.00  0.00     0.165 A 
ATOM     19  C   UNL A   1      39.319  23.419  27.072  1.00  0.00     0.058 A 
ATOM     20  C   UNL A   1      40.594  21.425  26.784  1.00  0.00     0.207 A 
ATOM     21  C   UNL A   1      39.613  20.927  25.957  1.00  0.00     0.170 A 
ATOM     22  O   UNL A   1      41.595  20.521  26.974  1.00  0.00    -0.450 OA
ATOM     23  C   UNL A   1      38.478  21.645  25.643  1.00  0.00     0.059 A 
ATOM     24  O   UNL A   1      39.883  19.666  25.518  1.00  0.00    -0.453 OA
ATOM     25  C   UNL A   1      41.101  19.388  26.235  1.00  0.00     0.468 C 
BRANCH  18  26
ATOM     26  O   UNL A   1      41.387  23.278  28.173  1.00  0.00    -0.493 OA
ATOM     27  C   UNL A   1      42.606  23.649  27.533  1.00  0.00     0.278 C 
ENDBRANCH  18  26
ENDBRANCH  10  17
ENDBRANCH   8   9
ENDBRANCH   5   8
ENDBRANCH   3   4
ENDBRANCH   2   3
ENDBRANCH   1   2
BRANCH   1  28
ATOM     28  C   UNL A   1      31.638  30.457  25.946  1.00  0.00     0.002 C 
BRANCH  28  29
ATOM     29  C   UNL A   1      31.414  31.834  26.575  1.00  0.00     0.021 C 
BRANCH  29  30
ATOM     30  C   UNL A   1      32.670  32.492  27.140  1.00  0.00     0.116 C 
BRANCH  30  31
ATOM     31  N   UNL A   1      32.442  33.878  27.520  1.00  0.00    -0.352 N 
ATOM     32  C   UNL A   1      33.054  34.627  28.494  1.00  0.00     0.251 C 
ATOM     33  H   UNL A   1      31.748  34.347  27.002  1.00  0.00     0.163 HD
ATOM     34  O   UNL A   1      32.608  35.730  28.795  1.00  0.00    -0.269 OA
BRANCH  32  35
ATOM     35  C   UNL A   1      34.240  34.096  29.200  1.00  0.00     0.039 A 
ATOM     36  C   UNL A   1      34.050  33.241  30.289  1.00  0.00     0.014 A 
ATOM     37  C   UNL A   1      35.532  34.450  28.803  1.00  0.00     0.014 A 
ATOM     38  C   UNL A   1      35.156  32.693  30.942  1.00  0.00     0.010 A 
ATOM     39  C   UNL A   1      36.632  33.853  29.411  1.00  0.00     0.010 A 
ATOM     40  C   UNL A   1      36.457  32.970  30.488  1.00  0.00    -0.014 A 
BRANCH  40  41
ATOM     41  C   UNL A   1      37.645  32.350  31.129  1.00  0.00     0.031 A 
ATOM     42  C   UNL A   1      38.468  31.343  30.377  1.00  0.00     0.074 A 
ATOM     43  C   UNL A   1      37.944  32.648  32.408  1.00  0.00     0.049 A 
ATOM     44  N   UNL A   1      39.481  30.625  30.794  1.00  0.00    -0.248 NA
ATOM     45  C   UNL A   1      38.089  31.089  28.978  1.00  0.00     0.031 C 
ATOM     46  C   UNL A   1      37.200  33.578  33.259  1.00  0.00     0.029 A 
ATOM     47  N   UNL A   1      38.948  32.186  33.223  1.00  0.00    -0.354 N 
ATOM     48  C   UNL A   1      39.854  29.835  29.714  1.00  0.00     0.074 A 
ATOM     49  C   UNL A   1      38.926  30.120  28.641  1.00  0.00     0.031 C 
ATOM     50  C   UNL A   1      37.776  33.624  34.471  1.00  0.00     0.029 A 
ATOM     51  C   UNL A   1      38.907  32.702  34.496  1.00  0.00     0.049 A 
ATOM     52  H   UNL A   1      39.632  31.544  32.923  1.00  0.00     0.167 HD
ATOM     53  C   UNL A   1      40.892  28.972  29.615  1.00  0.00     0.037 A 
ATOM     54  C   UNL A   1      39.685  32.449  35.565  1.00  0.00     0.037 A 
ATOM     55  C   UNL A   1      41.825  28.699  30.677  1.00  0.00     0.049 A 
ATOM     56  C   UNL A   1      40.823  31.475  35.433  1.00  0.00     0.074 A 
ATOM     57  C   UNL A   1      42.925  27.859  30.666  1.00  0.00     0.029 A 
ATOM     58  N   UNL A   1      41.768  29.267  31.941  1.00  0.00    -0.354 N 
ATOM     59  N   UNL A   1      41.192  30.771  34.390  1.00  0.00    -0.248 NA
ATOM     60  C   UNL A   1      41.659  31.266  36.624  1.00  0.00     0.031 C 
ATOM     61  C   UNL A   1      43.516  27.895  31.933  1.00  0.00     0.029 A 
ATOM     62  C   UNL A   1      42.809  28.789  32.720  1.00  0.00     0.049 A 
ATOM     63  H   UNL A   1      41.089  29.914  32.240  1.00  0.00     0.167 HD
ATOM     64  C   UNL A   1      42.317  30.060  34.790  1.00  0.00     0.074 A 
ATOM     65  C   UNL A   1      42.579  30.429  36.165  1.00  0.00     0.031 C 
ATOM     66  C   UNL A   1      43.064  29.179  34.082  1.00  0.00     0.037 A 
BRANCH  53  67
ATOM     67  C   UNL A   1      41.084  28.269  28.303  1.00  0.00     0.057 A 
ATOM     68  C   UNL A   1      40.391  27.091  27.995  1.00  0.00     0.134 A 
ATOM     69  C   UNL A   1      41.934  28.793  27.321  1.00  0.00     0.134 A 
ATOM     70  F   UNL A   1      39.570  26.529  28.897  1.00  0.00    -0.206 F 
ATOM     71  C   UNL A   1      40.554  26.447  26.767  1.00  0.00     0.040 A 
ATOM     72  C   UNL A   1      42.085  28.173  26.080  1.00  0.00     0.040 A 
ATOM     73  F   UNL A   1      42.622  29.922  27.548  1.00  0.00    -0.206 F 
ATOM     74  C   UNL A   1      41.398  26.993  25.803  1.00  0.00     0.006 A 
ENDBRANCH  53  67
BRANCH  54  75
ATOM     75  C   UNL A   1      39.422  33.132  36.857  1.00  0.00     0.057 A 
ATOM     76  C   UNL A   1      38.502  32.615  37.776  1.00  0.00     0.134 A 
ATOM     77  C   UNL A   1      40.063  34.331  37.191  1.00  0.00     0.134 A 
ATOM     78  F   UNL A   1      37.842  31.480  37.504  1.00  0.00    -0.206 F 
ATOM     79  C   UNL A   1      38.208  33.278  38.969  1.00  0.00     0.040 A 
ATOM     80  C   UNL A   1      39.799  34.992  38.392  1.00  0.00     0.040 A 
ATOM     81  F   UNL A   1      40.962  34.875  36.357  1.00  0.00    -0.206 F 
ATOM     82  C   UNL A   1      38.860  34.469  39.281  1.00  0.00     0.006 A 
ENDBRANCH  54  75
BRANCH  66  83
ATOM     83  C   UNL A   1      44.259  28.586  34.769  1.00  0.00     0.057 A 
ATOM     84  C   UNL A   1      45.512  29.212  34.744  1.00  0.00     0.134 A 
ATOM     85  C   UNL A   1      44.144  27.395  35.496  1.00  0.00     0.134 A 
ATOM     86  F   UNL A   1      45.691  30.349  34.054  1.00  0.00    -0.206 F 
ATOM     87  C   UNL A   1      46.614  28.662  35.400  1.00  0.00     0.040 A 
ATOM     88  C   UNL A   1      45.232  26.849  36.177  1.00  0.00     0.040 A 
ATOM     89  F   UNL A   1      42.969  26.751  35.567  1.00  0.00    -0.206 F 
ATOM     90  C   UNL A   1      46.473  27.480  36.125  1.00  0.00     0.006 A 
ENDBRANCH  66  83
ENDBRANCH  40  41
ENDBRANCH  32  35
ENDBRANCH  30  31
ENDBRANCH  29  30
ENDBRANCH  28  29
ENDBRANCH   1  28
TORSDOF 16
ENDMDL
MODEL 2
REMARK VINA RESULT:     -11.8      0.526      6.002
REMARK SMILES COc1cc(/C=C2\SC(=S)N(CC(=O)NCCCCCCNC(=O)c3ccc(-c4c5nc(c(-c6c(F)cccc6F)c6ccc([nH]6)c(-c6c(F)cccc6F)c6nc(c(-c7c(F)cccc7F)c7ccc4[nH]7)C=C6)C=C5)cc3)C2=O)cc2c1OCO2
REMARK SMILES IDX 18 1 17 2 16 3 15 4 13 5 14 6 12 8 11 9 6 10 7 11 8 12 79 13
REMARK SMILES IDX 9 14 80 15 10 16 5 17 3 18 4 19 83 20 82 21 84 22 81 23
REMARK SMILES IDX 86 24 85 25 2 26 1 27 19 28 20 29 21 30 22 31 23 32 24 34
REMARK SMILES IDX 25 35 26 36 78 37 27 38 77 39 28 40 29 41 30 42 71 43 31 44
REMARK SMILES IDX 76 45 70 46 72 47 32 48 75 49 69 50 68 51 33 53 59 54 42 55
REMARK SMILES IDX 58 56 43 57 46 58 57 59 73 60 44 61 45 62 56 64 74 65 47 66
REMARK SMILES IDX 34 67 35 68 40 69 36 70 37 71 39 72 41 73 38 74 60 75 61 76
REMARK SMILES IDX 66 77 62 78 63 79 65 80 67 81 64 82 48 83 49 84 54 85 50 86
REMARK SMILES IDX 51 87 53 88 55 89 52 90
REMARK H PARENT 15 7 22 33 72 52 46 63
REMARK Flexibility Score: inf
ROOT
ATOM      1  C   UNL A   1      32.323  29.495  27.029  1.00  0.00     0.002 C 
ENDROOT
BRANCH   1   2
ATOM      2  C   UNL A   1      31.437  28.264  27.260  1.00  0.00     0.021 C 
BRANCH   2   3
ATOM      3  C   UNL A   1      31.752  27.088  26.338  1.00  0.00     0.116 C 
BRANCH   3   4
ATOM      4  N   UNL A   1      31.222  25.843  26.849  1.00  0.00    -0.355 N 
ATOM      5  C   UNL A   1      31.439  24.556  26.464  1.00  0.00     0.240 C 
ATOM      6  O   UNL A   1      31.046  23.673  27.234  1.00  0.00    -0.273 OA
ATOM      7  H   UNL A   1      30.598  25.945  27.604  1.00  0.00     0.163 HD
BRANCH   5   8
ATOM      8  C   UNL A   1      32.307  24.194  25.252  1.00  0.00     0.227 C 
BRANCH   8   9
ATOM      9  N   UNL A   1      33.529  23.448  25.545  1.00  0.00    -0.283 N 
ATOM     10  C   UNL A   1      37.113  23.701  25.980  1.00  0.00     0.029 C 
ATOM     11  C   UNL A   1      35.855  23.248  25.869  1.00  0.00     0.081 C 
ATOM     12  S   UNL A   1      35.294  21.629  25.981  1.00  0.00    -0.054 SA
ATOM     13  C   UNL A   1      34.711  24.166  25.627  1.00  0.00     0.266 C 
ATOM     14  C   UNL A   1      33.643  22.074  25.581  1.00  0.00     0.148 C 
ATOM     15  O   UNL A   1      34.827  25.373  25.506  1.00  0.00    -0.268 OA
ATOM     16  S   UNL A   1      32.469  20.921  25.300  1.00  0.00    -0.052 S 
BRANCH  10  17
ATOM     17  C   UNL A   1      38.308  22.885  26.229  1.00  0.00    -0.017 A 
ATOM     18  C   UNL A   1      40.466  22.649  27.359  1.00  0.00     0.165 A 
ATOM     19  C   UNL A   1      39.307  23.386  27.089  1.00  0.00     0.058 A 
ATOM     20  C   UNL A   1      40.580  21.393  26.791  1.00  0.00     0.207 A 
ATOM     21  C   UNL A   1      39.611  20.910  25.941  1.00  0.00     0.170 A 
ATOM     22  O   UNL A   1      41.575  20.483  26.983  1.00  0.00    -0.450 OA
ATOM     23  C   UNL A   1      38.483  21.637  25.620  1.00  0.00     0.059 A 
ATOM     24  O   UNL A   1      39.884  19.656  25.486  1.00  0.00    -0.453 OA
ATOM     25  C   UNL A   1      41.089  19.363  26.218  1.00  0.00     0.468 C 
BRANCH  18  26
ATOM     26  O   UNL A   1      41.356  23.221  28.221  1.00  0.00    -0.493 OA
ATOM     27  C   UNL A   1      42.683  23.298  27.706  1.00  0.00     0.278 C 
ENDBRANCH  18  26
ENDBRANCH  10  17
ENDBRANCH   8   9
ENDBRANCH   5   8
ENDBRANCH   3   4
ENDBRANCH   2   3
ENDBRANCH   1   2
BRANCH   1  28
ATOM     28  C   UNL A   1      31.699  30.604  26.172  1.00  0.00     0.002 C 
BRANCH  28  29
ATOM     29  C   UNL A   1      31.521  31.953  26.873  1.00  0.00     0.021 C 
BRANCH  29  30
ATOM     30  C   UNL A   1      32.776  32.819  26.926  1.00  0.00     0.116 C 
BRANCH  30  31
ATOM     31  N   UNL A   1      32.532  34.104  27.562  1.00  0.00    -0.352 N 
ATOM     32  C   UNL A   1      33.114  34.649  28.680  1.00  0.00     0.251 C 
ATOM     33  H   UNL A   1      31.850  34.666  27.128  1.00  0.00     0.163 HD
ATOM     34  O   UNL A   1      32.656  35.672  29.178  1.00  0.00    -0.269 OA
BRANCH  32  35
ATOM     35  C   UNL A   1      34.283  33.989  29.301  1.00  0.00     0.039 A 
ATOM     36  C   UNL A   1      34.067  33.030  30.295  1.00  0.00     0.014 A 
ATOM     37  C   UNL A   1      35.585  34.323  28.919  1.00  0.00     0.014 A 
ATOM     38  C   UNL A   1      35.155  32.363  30.863  1.00  0.00     0.010 A 
ATOM     39  C   UNL A   1      36.664  33.612  29.437  1.00  0.00     0.010 A 
ATOM     40  C   UNL A   1      36.461  32.626  30.416  1.00  0.00    -0.014 A 
BRANCH  40  41
ATOM     41  C   UNL A   1      37.626  31.885  30.963  1.00  0.00     0.031 A 
ATOM     42  C   UNL A   1      38.073  32.122  32.378  1.00  0.00     0.074 A 
ATOM     43  C   UNL A   1      38.319  31.048  30.166  1.00  0.00     0.049 A 
ATOM     44  N   UNL A   1      39.119  31.645  33.006  1.00  0.00    -0.248 NA
ATOM     45  C   UNL A   1      37.250  33.033  33.189  1.00  0.00     0.031 C 
ATOM     46  C   UNL A   1      38.011  30.764  28.763  1.00  0.00     0.029 A 
ATOM     47  N   UNL A   1      39.437  30.292  30.420  1.00  0.00    -0.354 N 
ATOM     48  C   UNL A   1      39.081  32.201  34.278  1.00  0.00     0.074 A 
ATOM     49  C   UNL A   1      37.943  33.094  34.316  1.00  0.00     0.031 C 
ATOM     50  C   UNL A   1      38.912  29.893  28.282  1.00  0.00     0.029 A 
ATOM     51  C   UNL A   1      39.881  29.583  29.330  1.00  0.00     0.049 A 
ATOM     52  H   UNL A   1      39.879  30.264  31.299  1.00  0.00     0.167 HD
ATOM     53  C   UNL A   1      39.904  31.969  35.328  1.00  0.00     0.037 A 
ATOM     54  C   UNL A   1      40.955  28.784  29.189  1.00  0.00     0.037 A 
ATOM     55  C   UNL A   1      41.028  31.070  35.296  1.00  0.00     0.049 A 
ATOM     56  C   UNL A   1      41.862  28.554  30.366  1.00  0.00     0.074 A 
ATOM     57  C   UNL A   1      41.906  30.749  36.316  1.00  0.00     0.029 A 
ATOM     58  N   UNL A   1      41.425  30.346  34.182  1.00  0.00    -0.354 N 
ATOM     59  N   UNL A   1      41.785  29.050  31.577  1.00  0.00    -0.248 NA
ATOM     60  C   UNL A   1      42.998  27.645  30.161  1.00  0.00     0.031 C 
ATOM     61  C   UNL A   1      42.854  29.853  35.811  1.00  0.00     0.029 A 
ATOM     62  C   UNL A   1      42.541  29.584  34.489  1.00  0.00     0.049 A 
ATOM     63  H   UNL A   1      40.980  30.369  33.304  1.00  0.00     0.167 HD
ATOM     64  C   UNL A   1      42.844  28.494  32.284  1.00  0.00     0.074 A 
ATOM     65  C   UNL A   1      43.538  27.610  31.371  1.00  0.00     0.031 C 
ATOM     66  C   UNL A   1      43.209  28.698  33.572  1.00  0.00     0.037 A 
BRANCH  53  67
ATOM     67  C   UNL A   1      39.607  32.689  36.611  1.00  0.00     0.057 A 
ATOM     68  C   UNL A   1      40.306  33.846  36.980  1.00  0.00     0.134 A 
ATOM     69  C   UNL A   1      38.588  32.251  37.465  1.00  0.00     0.134 A 
ATOM     70  F   UNL A   1      41.303  34.313  36.212  1.00  0.00    -0.206 F 
ATOM     71  C   UNL A   1      40.017  34.529  38.163  1.00  0.00     0.040 A 
ATOM     72  C   UNL A   1      38.271  32.939  38.638  1.00  0.00     0.040 A 
ATOM     73  F   UNL A   1      37.874  31.155  37.169  1.00  0.00    -0.206 F 
ATOM     74  C   UNL A   1      38.992  34.078  38.992  1.00  0.00     0.006 A 
ENDBRANCH  53  67
BRANCH  54  75
ATOM     75  C   UNL A   1      41.236  28.135  27.882  1.00  0.00     0.057 A 
ATOM     76  C   UNL A   1      40.680  26.892  27.557  1.00  0.00     0.134 A 
ATOM     77  C   UNL A   1      42.086  28.728  26.941  1.00  0.00     0.134 A 
ATOM     78  F   UNL A   1      39.874  26.266  28.425  1.00  0.00    -0.206 F 
ATOM     79  C   UNL A   1      40.981  26.249  26.355  1.00  0.00     0.040 A 
ATOM     80  C   UNL A   1      42.374  28.109  25.724  1.00  0.00     0.040 A 
ATOM     81  F   UNL A   1      42.643  29.922  27.189  1.00  0.00    -0.206 F 
ATOM     82  C   UNL A   1      41.829  26.859  25.433  1.00  0.00     0.006 A 
ENDBRANCH  54  75
BRANCH  66  83
ATOM     83  C   UNL A   1      44.387  27.921  34.083  1.00  0.00     0.057 A 
ATOM     84  C   UNL A   1      45.688  28.438  34.043  1.00  0.00     0.134 A 
ATOM     85  C   UNL A   1      44.209  26.656  34.658  1.00  0.00     0.134 A 
ATOM     86  F   UNL A   1      45.926  29.639  33.494  1.00  0.00    -0.206 F 
ATOM     87  C   UNL A   1      46.774  27.714  34.537  1.00  0.00     0.040 A 
ATOM     88  C   UNL A   1      45.284  25.934  35.177  1.00  0.00     0.040 A 
ATOM     89  F   UNL A   1      42.987  26.107  34.734  1.00  0.00    -0.206 F 
ATOM     90  C   UNL A   1      46.572  26.461  35.112  1.00  0.00     0.006 A 
ENDBRANCH  66  83
ENDBRANCH  40  41
ENDBRANCH  32  35
ENDBRANCH  30  31
ENDBRANCH  29  30
ENDBRANCH  28  29
ENDBRANCH   1  28
TORSDOF 16
ENDMDL
MODEL 3
REMARK VINA RESULT:     -11.7      2.864      7.486
REMARK SMILES COc1cc(/C=C2\SC(=S)N(CC(=O)NCCCCCCNC(=O)c3ccc(-c4c5nc(c(-c6c(F)cccc6F)c6ccc([nH]6)c(-c6c(F)cccc6F)c6nc(c(-c7c(F)cccc7F)c7ccc4[nH]7)C=C6)C=C5)cc3)C2=O)cc2c1OCO2
REMARK SMILES IDX 18 1 17 2 16 3 15 4 13 5 14 6 12 8 11 9 6 10 7 11 8 12 79 13
REMARK SMILES IDX 9 14 80 15 10 16 5 17 3 18 4 19 83 20 82 21 84 22 81 23
REMARK SMILES IDX 86 24 85 25 2 26 1 27 19 28 20 29 21 30 22 31 23 32 24 34
REMARK SMILES IDX 25 35 26 36 78 37 27 38 77 39 28 40 29 41 30 42 71 43 31 44
REMARK SMILES IDX 76 45 70 46 72 47 32 48 75 49 69 50 68 51 33 53 59 54 42 55
REMARK SMILES IDX 58 56 43 57 46 58 57 59 73 60 44 61 45 62 56 64 74 65 47 66
REMARK SMILES IDX 34 67 35 68 40 69 36 70 37 71 39 72 41 73 38 74 60 75 61 76
REMARK SMILES IDX 66 77 62 78 63 79 65 80 67 81 64 82 48 83 49 84 54 85 50 86
REMARK SMILES IDX 51 87 53 88 55 89 52 90
REMARK H PARENT 15 7 22 33 72 52 46 63
REMARK Flexibility Score: inf
ROOT
ATOM      1  C   UNL A   1      35.116  33.350  27.968  1.00  0.00     0.002 C 
ENDROOT
BRANCH   1   2
ATOM      2  C   UNL A   1      35.910  32.046  28.127  1.00  0.00     0.021 C 
BRANCH   2   3
ATOM      3  C   UNL A   1      35.198  30.814  27.573  1.00  0.00     0.116 C 
BRANCH   3   4
ATOM      4  N   UNL A   1      33.759  30.938  27.658  1.00  0.00    -0.355 N 
ATOM      5  C   UNL A   1      32.780  30.573  26.785  1.00  0.00     0.240 C 
ATOM      6  O   UNL A   1      31.623  30.574  27.218  1.00  0.00    -0.273 OA
ATOM      7  H   UNL A   1      33.434  31.356  28.487  1.00  0.00     0.163 HD
BRANCH   5   8
ATOM      8  C   UNL A   1      33.085  29.989  25.400  1.00  0.00     0.227 C 
BRANCH   8   9
ATOM      9  N   UNL A   1      32.708  28.591  25.202  1.00  0.00    -0.283 N 
ATOM     10  C   UNL A   1      33.381  25.179  26.202  1.00  0.00     0.029 C 
ATOM     11  C   UNL A   1      32.896  26.276  25.601  1.00  0.00     0.081 C 
ATOM     12  S   UNL A   1      31.711  26.374  24.363  1.00  0.00    -0.054 SA
ATOM     13  C   UNL A   1      33.355  27.640  25.973  1.00  0.00     0.266 C 
ATOM     14  C   UNL A   1      31.888  28.114  24.201  1.00  0.00     0.148 C 
ATOM     15  O   UNL A   1      34.196  27.860  26.828  1.00  0.00    -0.268 OA
ATOM     16  S   UNL A   1      31.136  28.960  22.975  1.00  0.00    -0.052 S 
BRANCH  10  17
ATOM     17  C   UNL A   1      32.990  23.793  25.919  1.00  0.00    -0.017 A 
ATOM     18  C   UNL A   1      31.233  22.089  25.911  1.00  0.00     0.165 A 
ATOM     19  C   UNL A   1      31.658  23.399  26.163  1.00  0.00     0.058 A 
ATOM     20  C   UNL A   1      32.149  21.204  25.372  1.00  0.00     0.207 A 
ATOM     21  C   UNL A   1      33.452  21.585  25.148  1.00  0.00     0.170 A 
ATOM     22  O   UNL A   1      31.929  19.919  24.979  1.00  0.00    -0.450 OA
ATOM     23  C   UNL A   1      33.909  22.856  25.433  1.00  0.00     0.059 A 
ATOM     24  O   UNL A   1      34.208  20.591  24.605  1.00  0.00    -0.453 OA
ATOM     25  C   UNL A   1      33.212  19.566  24.426  1.00  0.00     0.468 C 
BRANCH  18  26
ATOM     26  O   UNL A   1      29.918  21.823  26.164  1.00  0.00    -0.493 OA
ATOM     27  C   UNL A   1      29.377  22.584  27.242  1.00  0.00     0.278 C 
ENDBRANCH  18  26
ENDBRANCH  10  17
ENDBRANCH   8   9
ENDBRANCH   5   8
ENDBRANCH   3   4
ENDBRANCH   2   3
ENDBRANCH   1   2
BRANCH   1  28
ATOM     28  C   UNL A   1      34.502  33.909  29.258  1.00  0.00     0.002 C 
BRANCH  28  29
ATOM     29  C   UNL A   1      33.222  34.727  29.075  1.00  0.00     0.021 C 
BRANCH  29  30
ATOM     30  C   UNL A   1      33.285  36.147  29.631  1.00  0.00     0.116 C 
BRANCH  30  31
ATOM     31  N   UNL A   1      32.360  36.347  30.736  1.00  0.00    -0.352 N 
ATOM     32  C   UNL A   1      32.399  35.837  32.009  1.00  0.00     0.251 C 
ATOM     33  H   UNL A   1      31.594  36.935  30.542  1.00  0.00     0.163 HD
ATOM     34  O   UNL A   1      31.436  35.969  32.758  1.00  0.00    -0.269 OA
BRANCH  32  35
ATOM     35  C   UNL A   1      33.597  35.105  32.477  1.00  0.00     0.039 A 
ATOM     36  C   UNL A   1      33.458  33.777  32.887  1.00  0.00     0.014 A 
ATOM     37  C   UNL A   1      34.847  35.728  32.525  1.00  0.00     0.014 A 
ATOM     38  C   UNL A   1      34.583  33.054  33.289  1.00  0.00     0.010 A 
ATOM     39  C   UNL A   1      35.977  34.988  32.863  1.00  0.00     0.010 A 
ATOM     40  C   UNL A   1      35.857  33.644  33.250  1.00  0.00    -0.014 A 
BRANCH  40  41
ATOM     41  C   UNL A   1      37.074  32.875  33.616  1.00  0.00     0.031 A 
ATOM     42  C   UNL A   1      37.811  33.189  34.888  1.00  0.00     0.074 A 
ATOM     43  C   UNL A   1      37.551  31.939  32.773  1.00  0.00     0.049 A 
ATOM     44  N   UNL A   1      38.939  32.697  35.334  1.00  0.00    -0.248 NA
ATOM     45  C   UNL A   1      37.213  34.209  35.765  1.00  0.00     0.031 C 
ATOM     46  C   UNL A   1      36.951  31.570  31.489  1.00  0.00     0.029 A 
ATOM     47  N   UNL A   1      38.661  31.136  32.863  1.00  0.00    -0.354 N 
ATOM     48  C   UNL A   1      39.187  33.349  36.535  1.00  0.00     0.074 A 
ATOM     49  C   UNL A   1      38.123  34.311  36.722  1.00  0.00     0.031 C 
ATOM     50  C   UNL A   1      37.694  30.610  30.916  1.00  0.00     0.029 A 
ATOM     51  C   UNL A   1      38.841  30.320  31.772  1.00  0.00     0.049 A 
ATOM     52  H   UNL A   1      39.271  31.146  33.636  1.00  0.00     0.167 HD
ATOM     53  C   UNL A   1      40.195  33.146  37.416  1.00  0.00     0.037 A 
ATOM     54  C   UNL A   1      39.826  29.447  31.489  1.00  0.00     0.037 A 
ATOM     55  C   UNL A   1      41.246  32.178  37.238  1.00  0.00     0.049 A 
ATOM     56  C   UNL A   1      40.942  29.250  32.478  1.00  0.00     0.074 A 
ATOM     57  C   UNL A   1      42.298  31.880  38.087  1.00  0.00     0.029 A 
ATOM     58  N   UNL A   1      41.374  31.348  36.135  1.00  0.00    -0.354 N 
ATOM     59  N   UNL A   1      41.136  29.840  33.632  1.00  0.00    -0.248 NA
ATOM     60  C   UNL A   1      41.970  28.259  32.130  1.00  0.00     0.031 C 
ATOM     61  C   UNL A   1      43.081  30.891  37.482  1.00  0.00     0.029 A 
ATOM     62  C   UNL A   1      42.493  30.544  36.278  1.00  0.00     0.049 A 
ATOM     63  H   UNL A   1      40.761  31.333  35.364  1.00  0.00     0.167 HD
ATOM     64  C   UNL A   1      42.290  29.274  34.159  1.00  0.00     0.074 A 
ATOM     65  C   UNL A   1      42.742  28.281  33.206  1.00  0.00     0.031 C 
ATOM     66  C   UNL A   1      42.919  29.551  35.326  1.00  0.00     0.037 A 
BRANCH  53  67
ATOM     67  C   UNL A   1      40.199  33.977  38.665  1.00  0.00     0.057 A 
ATOM     68  C   UNL A   1      40.877  35.202  38.727  1.00  0.00     0.134 A 
ATOM     69  C   UNL A   1      39.486  33.576  39.802  1.00  0.00     0.134 A 
ATOM     70  F   UNL A   1      41.589  35.639  37.677  1.00  0.00    -0.206 F 
ATOM     71  C   UNL A   1      40.865  35.986  39.882  1.00  0.00     0.040 A 
ATOM     72  C   UNL A   1      39.444  34.364  40.954  1.00  0.00     0.040 A 
ATOM     73  F   UNL A   1      38.809  32.418  39.808  1.00  0.00    -0.206 F 
ATOM     74  C   UNL A   1      40.140  35.570  40.997  1.00  0.00     0.006 A 
ENDBRANCH  53  67
BRANCH  54  75
ATOM     75  C   UNL A   1      39.804  28.685  30.214  1.00  0.00     0.057 A 
ATOM     76  C   UNL A   1      40.408  29.190  29.057  1.00  0.00     0.134 A 
ATOM     77  C   UNL A   1      39.155  27.448  30.116  1.00  0.00     0.134 A 
ATOM     78  F   UNL A   1      41.027  30.379  29.084  1.00  0.00    -0.206 F 
ATOM     79  C   UNL A   1      40.345  28.507  27.842  1.00  0.00     0.040 A 
ATOM     80  C   UNL A   1      39.108  26.741  28.914  1.00  0.00     0.040 A 
ATOM     81  F   UNL A   1      38.564  26.905  31.191  1.00  0.00    -0.206 F 
ATOM     82  C   UNL A   1      39.696  27.276  27.768  1.00  0.00     0.006 A 
ENDBRANCH  54  75
BRANCH  66  83
ATOM     83  C   UNL A   1      44.139  28.742  35.657  1.00  0.00     0.057 A 
ATOM     84  C   UNL A   1      44.059  27.546  36.380  1.00  0.00     0.134 A 
ATOM     85  C   UNL A   1      45.404  29.147  35.210  1.00  0.00     0.134 A 
ATOM     86  F   UNL A   1      42.879  27.110  36.847  1.00  0.00    -0.206 F 
ATOM     87  C   UNL A   1      45.198  26.792  36.668  1.00  0.00     0.040 A 
ATOM     88  C   UNL A   1      46.545  28.389  35.470  1.00  0.00     0.040 A 
ATOM     89  F   UNL A   1      45.547  30.279  34.505  1.00  0.00    -0.206 F 
ATOM     90  C   UNL A   1      46.445  27.210  36.206  1.00  0.00     0.006 A 
ENDBRANCH  66  83
ENDBRANCH  40  41
ENDBRANCH  32  35
ENDBRANCH  30  31
ENDBRANCH  29  30
ENDBRANCH  28  29
ENDBRANCH   1  28
TORSDOF 16
ENDMDL
