MODEL 1
REMARK VINA RESULT:     -11.9      0.000      0.000
REMARK SMILES Cc1cc(C)cc(OCC(=O)Nc2ccc(O)cc2C(=O)NCCCCCCNC(=O)c2ccc(-c3c4nc(c(-c5c(F)cccc5F)c5ccc([nH]5)c(-c5c(F)cccc5F)c5nc(c(-c6c(F)cccc6F)c6ccc3[nH]6)C=C5)C=C4)cc2)c1
REMARK SMILES IDX 24 1 23 2 22 3 20 4 21 5 19 7 13 8 14 9 15 10 18 11 16 12
REMARK SMILES IDX 12 13 10 14 11 15 9 17 8 18 7 19 1 20 2 21 3 22 86 23 4 24
REMARK SMILES IDX 5 25 6 26 17 27 25 29 26 30 27 31 28 32 29 33 30 34 31 36
REMARK SMILES IDX 32 37 33 38 85 39 34 40 84 41 35 42 36 43 37 44 78 45 38 46
REMARK SMILES IDX 83 47 77 48 79 49 39 50 82 51 76 52 75 53 40 55 66 56 49 57
REMARK SMILES IDX 65 58 50 59 53 60 64 61 80 62 51 63 52 64 63 66 81 67 54 68
REMARK SMILES IDX 41 69 42 70 47 71 43 72 44 73 46 74 48 75 45 76 67 77 68 78
REMARK SMILES IDX 73 79 69 80 70 81 72 82 74 83 71 84 55 85 56 86 61 87 57 88
REMARK SMILES IDX 58 89 60 90 62 91 59 92
REMARK H PARENT 22 6 12 16 17 28 29 35 79 54 53 65
REMARK Flexibility Score: inf
ROOT
ATOM      1  C   UNL A   1      34.850  22.243  26.680  1.00  0.00     0.021 C 
ENDROOT
BRANCH   1   2
ATOM      2  C   UNL A   1      33.625  21.510  27.205  1.00  0.00     0.116 C 
BRANCH   2   3
ATOM      3  N   UNL A   1      33.083  20.445  26.400  1.00  0.00    -0.352 N 
ATOM      4  C   UNL A   1      32.519  20.462  25.141  1.00  0.00     0.253 C 
ATOM      5  O   UNL A   1      32.234  19.364  24.655  1.00  0.00    -0.269 OA
ATOM      6  H   UNL A   1      33.122  19.555  26.819  1.00  0.00     0.163 HD
BRANCH   4   7
ATOM      7  C   UNL A   1      32.168  21.693  24.351  1.00  0.00     0.067 A 
ATOM      8  C   UNL A   1      31.136  22.623  24.591  1.00  0.00     0.054 A 
ATOM      9  C   UNL A   1      30.973  23.733  23.743  1.00  0.00     0.031 A 
ATOM     10  C   UNL A   1      31.818  23.944  22.657  1.00  0.00     0.048 A 
ATOM     11  C   UNL A   1      33.011  21.930  23.244  1.00  0.00     0.062 A 
ATOM     12  C   UNL A   1      32.835  23.038  22.419  1.00  0.00     0.116 A 
BRANCH   8  13
ATOM     13  N   UNL A   1      30.328  22.568  25.731  1.00  0.00    -0.322 N 
ATOM     14  C   UNL A   1      30.350  23.411  26.814  1.00  0.00     0.262 C 
ATOM     15  O   UNL A   1      29.421  23.321  27.625  1.00  0.00    -0.271 OA
ATOM     16  H   UNL A   1      29.666  21.840  25.760  1.00  0.00     0.170 HD
BRANCH  14  17
ATOM     17  C   UNL A   1      31.384  24.566  26.919  1.00  0.00     0.329 C 
BRANCH  17  18
ATOM     18  O   UNL A   1      30.949  25.919  26.886  1.00  0.00    -0.484 OA
BRANCH  18  19
ATOM     19  C   UNL A   1      31.886  26.787  26.397  1.00  0.00     0.120 A 
ATOM     20  C   UNL A   1      34.438  29.326  27.570  1.00  0.00     0.044 C 
ATOM     21  C   UNL A   1      33.646  28.420  26.676  1.00  0.00    -0.047 A 
ATOM     22  C   UNL A   1      34.029  28.207  25.346  1.00  0.00     0.007 A 
ATOM     23  C   UNL A   1      32.528  27.749  27.174  1.00  0.00     0.049 A 
ATOM     24  C   UNL A   1      33.320  27.317  24.526  1.00  0.00    -0.047 A 
ATOM     25  C   UNL A   1      33.735  27.106  23.103  1.00  0.00     0.044 C 
ATOM     26  C   UNL A   1      32.237  26.615  25.061  1.00  0.00     0.049 A 
ENDBRANCH  18  19
ENDBRANCH  17  18
ENDBRANCH  14  17
ENDBRANCH   8  13
BRANCH  12  27
ATOM     27  O   UNL A   1      33.705  23.213  21.384  1.00  0.00    -0.508 OA
ATOM     28  H   UNL A   1      33.389  23.499  20.550  1.00  0.00     0.293 HD
ENDBRANCH  12  27
ENDBRANCH   4   7
ENDBRANCH   2   3
ENDBRANCH   1   2
BRANCH   1  29
ATOM     29  C   UNL A   1      34.645  23.659  26.141  1.00  0.00     0.002 C 
BRANCH  29  30
ATOM     30  C   UNL A   1      35.544  24.135  24.994  1.00  0.00     0.002 C 
BRANCH  30  31
ATOM     31  C   UNL A   1      37.002  23.671  24.983  1.00  0.00     0.021 C 
BRANCH  31  32
ATOM     32  C   UNL A   1      37.873  24.097  26.159  1.00  0.00     0.116 C 
BRANCH  32  33
ATOM     33  N   UNL A   1      39.272  23.739  26.000  1.00  0.00    -0.352 N 
ATOM     34  C   UNL A   1      40.397  24.321  26.525  1.00  0.00     0.251 C 
ATOM     35  H   UNL A   1      39.437  22.957  25.425  1.00  0.00     0.163 HD
ATOM     36  O   UNL A   1      41.509  23.929  26.168  1.00  0.00    -0.269 OA
BRANCH  34  37
ATOM     37  C   UNL A   1      40.297  25.433  27.498  1.00  0.00     0.039 A 
ATOM     38  C   UNL A   1      39.377  25.324  28.546  1.00  0.00     0.014 A 
ATOM     39  C   UNL A   1      41.075  26.587  27.375  1.00  0.00     0.014 A 
ATOM     40  C   UNL A   1      39.279  26.343  29.497  1.00  0.00     0.010 A 
ATOM     41  C   UNL A   1      41.033  27.566  28.367  1.00  0.00     0.010 A 
ATOM     42  C   UNL A   1      40.130  27.458  29.435  1.00  0.00    -0.014 A 
BRANCH  42  43
ATOM     43  C   UNL A   1      40.082  28.517  30.476  1.00  0.00     0.031 A 
ATOM     44  C   UNL A   1      39.097  29.647  30.373  1.00  0.00     0.074 A 
ATOM     45  C   UNL A   1      40.962  28.486  31.496  1.00  0.00     0.049 A 
ATOM     46  N   UNL A   1      38.919  30.668  31.175  1.00  0.00    -0.248 NA
ATOM     47  C   UNL A   1      38.210  29.644  29.201  1.00  0.00     0.031 C 
ATOM     48  C   UNL A   1      41.994  27.467  31.692  1.00  0.00     0.029 A 
ATOM     49  N   UNL A   1      41.126  29.335  32.562  1.00  0.00    -0.354 N 
ATOM     50  C   UNL A   1      37.910  31.429  30.599  1.00  0.00     0.074 A 
ATOM     51  C   UNL A   1      37.562  30.788  29.349  1.00  0.00     0.031 C 
ATOM     52  C   UNL A   1      42.656  27.725  32.830  1.00  0.00     0.029 A 
ATOM     53  C   UNL A   1      42.123  28.947  33.424  1.00  0.00     0.049 A 
ATOM     54  H   UNL A   1      40.582  30.144  32.696  1.00  0.00     0.167 HD
ATOM     55  C   UNL A   1      37.308  32.545  31.078  1.00  0.00     0.037 A 
ATOM     56  C   UNL A   1      42.556  29.511  34.568  1.00  0.00     0.037 A 
ATOM     57  C   UNL A   1      37.654  33.179  32.325  1.00  0.00     0.049 A 
ATOM     58  C   UNL A   1      41.901  30.771  35.063  1.00  0.00     0.074 A 
ATOM     59  C   UNL A   1      37.072  34.283  32.924  1.00  0.00     0.029 A 
ATOM     60  N   UNL A   1      38.684  32.769  33.159  1.00  0.00    -0.354 N 
ATOM     61  N   UNL A   1      40.900  31.442  34.546  1.00  0.00    -0.248 NA
ATOM     62  C   UNL A   1      42.435  31.348  36.303  1.00  0.00     0.031 C 
ATOM     63  C   UNL A   1      37.786  34.573  34.092  1.00  0.00     0.029 A 
ATOM     64  C   UNL A   1      38.775  33.617  34.252  1.00  0.00     0.049 A 
ATOM     65  H   UNL A   1      39.265  31.990  32.998  1.00  0.00     0.167 HD
ATOM     66  C   UNL A   1      40.663  32.501  35.412  1.00  0.00     0.074 A 
ATOM     67  C   UNL A   1      41.620  32.377  36.493  1.00  0.00     0.031 C 
ATOM     68  C   UNL A   1      39.734  33.485  35.322  1.00  0.00     0.037 A 
BRANCH  55  69
ATOM     69  C   UNL A   1      36.219  33.149  30.235  1.00  0.00     0.057 A 
ATOM     70  C   UNL A   1      34.860  32.926  30.504  1.00  0.00     0.134 A 
ATOM     71  C   UNL A   1      36.530  33.957  29.133  1.00  0.00     0.134 A 
ATOM     72  F   UNL A   1      34.491  32.154  31.538  1.00  0.00    -0.206 F 
ATOM     73  C   UNL A   1      33.856  33.440  29.682  1.00  0.00     0.040 A 
ATOM     74  C   UNL A   1      35.532  34.506  28.325  1.00  0.00     0.040 A 
ATOM     75  F   UNL A   1      37.806  34.225  28.821  1.00  0.00    -0.206 F 
ATOM     76  C   UNL A   1      34.191  34.235  28.589  1.00  0.00     0.006 A 
ENDBRANCH  55  69
BRANCH  56  77
ATOM     77  C   UNL A   1      43.635  28.857  35.350  1.00  0.00     0.057 A 
ATOM     78  C   UNL A   1      44.977  29.187  35.131  1.00  0.00     0.134 A 
ATOM     79  C   UNL A   1      43.356  27.908  36.341  1.00  0.00     0.134 A 
ATOM     80  F   UNL A   1      45.307  30.077  34.183  1.00  0.00    -0.206 F 
ATOM     81  C   UNL A   1      46.005  28.590  35.861  1.00  0.00     0.040 A 
ATOM     82  C   UNL A   1      44.373  27.321  37.095  1.00  0.00     0.040 A 
ATOM     83  F   UNL A   1      42.089  27.554  36.604  1.00  0.00    -0.206 F 
ATOM     84  C   UNL A   1      45.704  27.658  36.853  1.00  0.00     0.006 A 
ENDBRANCH  56  77
BRANCH  68  85
ATOM     85  C   UNL A   1      39.685  34.488  36.439  1.00  0.00     0.057 A 
ATOM     86  C   UNL A   1      38.943  34.264  37.606  1.00  0.00     0.134 A 
ATOM     87  C   UNL A   1      40.419  35.678  36.360  1.00  0.00     0.134 A 
ATOM     88  F   UNL A   1      38.206  33.150  37.741  1.00  0.00    -0.206 F 
ATOM     89  C   UNL A   1      38.914  35.200  38.643  1.00  0.00     0.040 A 
ATOM     90  C   UNL A   1      40.421  36.607  37.402  1.00  0.00     0.040 A 
ATOM     91  F   UNL A   1      41.157  35.953  35.274  1.00  0.00    -0.206 F 
ATOM     92  C   UNL A   1      39.661  36.372  38.545  1.00  0.00     0.006 A 
ENDBRANCH  68  85
ENDBRANCH  42  43
ENDBRANCH  34  37
ENDBRANCH  32  33
ENDBRANCH  31  32
ENDBRANCH  30  31
ENDBRANCH  29  30
ENDBRANCH   1  29
TORSDOF 18
ENDMDL
MODEL 2
REMARK VINA RESULT:     -11.7      3.930      7.756
REMARK SMILES Cc1cc(C)cc(OCC(=O)Nc2ccc(O)cc2C(=O)NCCCCCCNC(=O)c2ccc(-c3c4nc(c(-c5c(F)cccc5F)c5ccc([nH]5)c(-c5c(F)cccc5F)c5nc(c(-c6c(F)cccc6F)c6ccc3[nH]6)C=C5)C=C4)cc2)c1
REMARK SMILES IDX 24 1 23 2 22 3 20 4 21 5 19 7 13 8 14 9 15 10 18 11 16 12
REMARK SMILES IDX 12 13 10 14 11 15 9 17 8 18 7 19 1 20 2 21 3 22 86 23 4 24
REMARK SMILES IDX 5 25 6 26 17 27 25 29 26 30 27 31 28 32 29 33 30 34 31 36
REMARK SMILES IDX 32 37 33 38 85 39 34 40 84 41 35 42 36 43 37 44 78 45 38 46
REMARK SMILES IDX 83 47 77 48 79 49 39 50 82 51 76 52 75 53 40 55 66 56 49 57
REMARK SMILES IDX 65 58 50 59 53 60 64 61 80 62 51 63 52 64 63 66 81 67 54 68
REMARK SMILES IDX 41 69 42 70 47 71 43 72 44 73 46 74 48 75 45 76 67 77 68 78
REMARK SMILES IDX 73 79 69 80 70 81 72 82 74 83 71 84 55 85 56 86 61 87 57 88
REMARK SMILES IDX 58 89 60 90 62 91 59 92
REMARK H PARENT 22 6 12 16 17 28 29 35 79 54 53 65
REMARK Flexibility Score: inf
ROOT
ATOM      1  C   UNL A   1      36.234  23.388  25.950  1.00  0.00     0.021 C 
ENDROOT
BRANCH   1   2
ATOM      2  C   UNL A   1      35.246  23.572  24.808  1.00  0.00     0.116 C 
BRANCH   2   3
ATOM      3  N   UNL A   1      34.351  22.482  24.513  1.00  0.00    -0.352 N 
ATOM      4  C   UNL A   1      33.162  22.454  23.814  1.00  0.00     0.253 C 
ATOM      5  O   UNL A   1      32.661  21.341  23.631  1.00  0.00    -0.269 OA
ATOM      6  H   UNL A   1      34.636  21.611  24.870  1.00  0.00     0.163 HD
BRANCH   4   7
ATOM      7  C   UNL A   1      32.403  23.656  23.320  1.00  0.00     0.067 A 
ATOM      8  C   UNL A   1      31.186  24.181  23.800  1.00  0.00     0.054 A 
ATOM      9  C   UNL A   1      30.635  25.335  23.215  1.00  0.00     0.031 A 
ATOM     10  C   UNL A   1      31.268  25.985  22.160  1.00  0.00     0.048 A 
ATOM     11  C   UNL A   1      33.027  24.333  22.250  1.00  0.00     0.062 A 
ATOM     12  C   UNL A   1      32.465  25.478  21.688  1.00  0.00     0.116 A 
BRANCH   8  13
ATOM     13  N   UNL A   1      30.550  23.678  24.939  1.00  0.00    -0.322 N 
ATOM     14  C   UNL A   1      30.757  24.047  26.246  1.00  0.00     0.262 C 
ATOM     15  O   UNL A   1      29.952  23.634  27.088  1.00  0.00    -0.271 OA
ATOM     16  H   UNL A   1      29.876  22.978  24.787  1.00  0.00     0.170 HD
BRANCH  14  17
ATOM     17  C   UNL A   1      31.832  25.101  26.627  1.00  0.00     0.329 C 
BRANCH  17  18
ATOM     18  O   UNL A   1      31.440  26.377  27.117  1.00  0.00    -0.484 OA
BRANCH  18  19
ATOM     19  C   UNL A   1      32.063  27.422  26.493  1.00  0.00     0.120 A 
ATOM     20  C   UNL A   1      34.073  28.216  23.383  1.00  0.00     0.044 C 
ATOM     21  C   UNL A   1      33.304  28.391  24.659  1.00  0.00    -0.047 A 
ATOM     22  C   UNL A   1      32.941  29.665  25.111  1.00  0.00     0.007 A 
ATOM     23  C   UNL A   1      32.912  27.273  25.398  1.00  0.00     0.049 A 
ATOM     24  C   UNL A   1      32.175  29.825  26.274  1.00  0.00    -0.047 A 
ATOM     25  C   UNL A   1      31.802  31.195  26.751  1.00  0.00     0.044 C 
ATOM     26  C   UNL A   1      31.746  28.691  26.968  1.00  0.00     0.049 A 
ENDBRANCH  18  19
ENDBRANCH  17  18
ENDBRANCH  14  17
ENDBRANCH   8  13
BRANCH  12  27
ATOM     27  O   UNL A   1      33.138  26.091  20.674  1.00  0.00    -0.508 OA
ATOM     28  H   UNL A   1      32.723  26.771  20.180  1.00  0.00     0.293 HD
ENDBRANCH  12  27
ENDBRANCH   4   7
ENDBRANCH   2   3
ENDBRANCH   1   2
BRANCH   1  29
ATOM     29  C   UNL A   1      37.477  22.540  25.673  1.00  0.00     0.002 C 
BRANCH  29  30
ATOM     30  C   UNL A   1      37.421  21.527  24.524  1.00  0.00     0.002 C 
BRANCH  30  31
ATOM     31  C   UNL A   1      38.069  20.158  24.740  1.00  0.00     0.021 C 
BRANCH  31  32
ATOM     32  C   UNL A   1      38.880  19.968  26.016  1.00  0.00     0.116 C 
BRANCH  32  33
ATOM     33  N   UNL A   1      40.089  19.187  25.820  1.00  0.00    -0.352 N 
ATOM     34  C   UNL A   1      41.403  19.536  25.993  1.00  0.00     0.251 C 
ATOM     35  H   UNL A   1      39.940  18.262  25.514  1.00  0.00     0.163 HD
ATOM     36  O   UNL A   1      42.292  18.751  25.657  1.00  0.00    -0.269 OA
BRANCH  34  37
ATOM     37  C   UNL A   1      41.774  20.854  26.557  1.00  0.00     0.039 A 
ATOM     38  C   UNL A   1      42.101  21.890  25.676  1.00  0.00     0.014 A 
ATOM     39  C   UNL A   1      41.832  21.071  27.937  1.00  0.00     0.014 A 
ATOM     40  C   UNL A   1      42.427  23.154  26.177  1.00  0.00     0.010 A 
ATOM     41  C   UNL A   1      42.081  22.351  28.431  1.00  0.00     0.010 A 
ATOM     42  C   UNL A   1      42.387  23.404  27.557  1.00  0.00    -0.014 A 
BRANCH  42  43
ATOM     43  C   UNL A   1      42.667  24.760  28.098  1.00  0.00     0.031 A 
ATOM     44  C   UNL A   1      44.064  25.152  28.493  1.00  0.00     0.074 A 
ATOM     45  C   UNL A   1      41.652  25.627  28.278  1.00  0.00     0.049 A 
ATOM     46  N   UNL A   1      44.497  26.281  28.997  1.00  0.00    -0.248 NA
ATOM     47  C   UNL A   1      45.108  24.131  28.323  1.00  0.00     0.031 C 
ATOM     48  C   UNL A   1      40.246  25.357  27.973  1.00  0.00     0.029 A 
ATOM     49  N   UNL A   1      41.648  26.912  28.760  1.00  0.00    -0.354 N 
ATOM     50  C   UNL A   1      45.857  26.102  29.211  1.00  0.00     0.074 A 
ATOM     51  C   UNL A   1      46.164  24.736  28.845  1.00  0.00     0.031 C 
ATOM     52  C   UNL A   1      39.522  26.456  28.234  1.00  0.00     0.029 A 
ATOM     53  C   UNL A   1      40.403  27.493  28.761  1.00  0.00     0.049 A 
ATOM     54  H   UNL A   1      42.459  27.372  29.075  1.00  0.00     0.167 HD
ATOM     55  C   UNL A   1      46.776  26.999  29.647  1.00  0.00     0.037 A 
ATOM     56  C   UNL A   1      40.016  28.726  29.140  1.00  0.00     0.037 A 
ATOM     57  C   UNL A   1      46.468  28.360  30.008  1.00  0.00     0.049 A 
ATOM     58  C   UNL A   1      41.043  29.694  29.658  1.00  0.00     0.074 A 
ATOM     59  C   UNL A   1      47.331  29.363  30.413  1.00  0.00     0.029 A 
ATOM     60  N   UNL A   1      45.192  28.904  30.017  1.00  0.00    -0.354 N 
ATOM     61  N   UNL A   1      42.339  29.536  29.789  1.00  0.00    -0.248 NA
ATOM     62  C   UNL A   1      40.553  31.014  30.078  1.00  0.00     0.031 C 
ATOM     63  C   UNL A   1      46.571  30.497  30.720  1.00  0.00     0.029 A 
ATOM     64  C   UNL A   1      45.241  30.220  30.450  1.00  0.00     0.049 A 
ATOM     65  H   UNL A   1      44.372  28.427  29.753  1.00  0.00     0.167 HD
ATOM     66  C   UNL A   1      42.823  30.744  30.274  1.00  0.00     0.074 A 
ATOM     67  C   UNL A   1      41.681  31.628  30.406  1.00  0.00     0.031 C 
ATOM     68  C   UNL A   1      44.098  31.090  30.580  1.00  0.00     0.037 A 
BRANCH  55  69
ATOM     69  C   UNL A   1      48.196  26.521  29.764  1.00  0.00     0.057 A 
ATOM     70  C   UNL A   1      48.682  25.914  30.931  1.00  0.00     0.134 A 
ATOM     71  C   UNL A   1      49.095  26.676  28.700  1.00  0.00     0.134 A 
ATOM     72  F   UNL A   1      47.878  25.743  31.992  1.00  0.00    -0.206 F 
ATOM     73  C   UNL A   1      50.018  25.527  31.055  1.00  0.00     0.040 A 
ATOM     74  C   UNL A   1      50.425  26.261  28.800  1.00  0.00     0.040 A 
ATOM     75  F   UNL A   1      48.699  27.237  27.548  1.00  0.00    -0.206 F 
ATOM     76  C   UNL A   1      50.893  25.699  29.986  1.00  0.00     0.006 A 
ENDBRANCH  55  69
BRANCH  56  77
ATOM     77  C   UNL A   1      38.595  29.130  28.995  1.00  0.00     0.057 A 
ATOM     78  C   UNL A   1      38.097  29.560  27.759  1.00  0.00     0.134 A 
ATOM     79  C   UNL A   1      37.701  29.083  30.071  1.00  0.00     0.134 A 
ATOM     80  F   UNL A   1      38.911  29.644  26.696  1.00  0.00    -0.206 F 
ATOM     81  C   UNL A   1      36.764  29.937  27.599  1.00  0.00     0.040 A 
ATOM     82  C   UNL A   1      36.358  29.434  29.919  1.00  0.00     0.040 A 
ATOM     83  F   UNL A   1      38.114  28.673  31.279  1.00  0.00    -0.206 F 
ATOM     84  C   UNL A   1      35.887  29.868  28.681  1.00  0.00     0.006 A 
ENDBRANCH  56  77
BRANCH  68  85
ATOM     85  C   UNL A   1      44.332  32.496  31.055  1.00  0.00     0.057 A 
ATOM     86  C   UNL A   1      44.336  32.829  32.416  1.00  0.00     0.134 A 
ATOM     87  C   UNL A   1      44.594  33.523  30.139  1.00  0.00     0.134 A 
ATOM     88  F   UNL A   1      44.079  31.896  33.346  1.00  0.00    -0.206 F 
ATOM     89  C   UNL A   1      44.566  34.138  32.846  1.00  0.00     0.040 A 
ATOM     90  C   UNL A   1      44.854  34.829  30.559  1.00  0.00     0.040 A 
ATOM     91  F   UNL A   1      44.613  33.272  28.821  1.00  0.00    -0.206 F 
ATOM     92  C   UNL A   1      44.834  35.140  31.915  1.00  0.00     0.006 A 
ENDBRANCH  68  85
ENDBRANCH  42  43
ENDBRANCH  34  37
ENDBRANCH  32  33
ENDBRANCH  31  32
ENDBRANCH  30  31
ENDBRANCH  29  30
ENDBRANCH   1  29
TORSDOF 18
ENDMDL
MODEL 3
REMARK VINA RESULT:     -11.7      3.928      8.525
REMARK SMILES Cc1cc(C)cc(OCC(=O)Nc2ccc(O)cc2C(=O)NCCCCCCNC(=O)c2ccc(-c3c4nc(c(-c5c(F)cccc5F)c5ccc([nH]5)c(-c5c(F)cccc5F)c5nc(c(-c6c(F)cccc6F)c6ccc3[nH]6)C=C5)C=C4)cc2)c1
REMARK SMILES IDX 24 1 23 2 22 3 20 4 21 5 19 7 13 8 14 9 15 10 18 11 16 12
REMARK SMILES IDX 12 13 10 14 11 15 9 17 8 18 7 19 1 20 2 21 3 22 86 23 4 24
REMARK SMILES IDX 5 25 6 26 17 27 25 29 26 30 27 31 28 32 29 33 30 34 31 36
REMARK SMILES IDX 32 37 33 38 85 39 34 40 84 41 35 42 36 43 37 44 78 45 38 46
REMARK SMILES IDX 83 47 77 48 79 49 39 50 82 51 76 52 75 53 40 55 66 56 49 57
REMARK SMILES IDX 65 58 50 59 53 60 64 61 80 62 51 63 52 64 63 66 81 67 54 68
REMARK SMILES IDX 41 69 42 70 47 71 43 72 44 73 46 74 48 75 45 76 67 77 68 78
REMARK SMILES IDX 73 79 69 80 70 81 72 82 74 83 71 84 55 85 56 86 61 87 57 88
REMARK SMILES IDX 58 89 60 90 62 91 59 92
REMARK H PARENT 22 6 12 16 17 28 29 35 79 54 53 65
REMARK Flexibility Score: inf
ROOT
ATOM      1  C   UNL A   1      32.946  26.694  22.195  1.00  0.00     0.021 C 
ENDROOT
BRANCH   1   2
ATOM      2  C   UNL A   1      31.644  26.013  22.590  1.00  0.00     0.116 C 
BRANCH   2   3
ATOM      3  N   UNL A   1      31.547  24.588  22.400  1.00  0.00    -0.352 N 
ATOM      4  C   UNL A   1      32.317  23.556  22.896  1.00  0.00     0.253 C 
ATOM      5  O   UNL A   1      31.927  22.413  22.643  1.00  0.00    -0.269 OA
ATOM      6  H   UNL A   1      30.807  24.303  21.819  1.00  0.00     0.163 HD
BRANCH   4   7
ATOM      7  C   UNL A   1      33.608  23.708  23.654  1.00  0.00     0.067 A 
ATOM      8  C   UNL A   1      33.798  24.135  24.984  1.00  0.00     0.054 A 
ATOM      9  C   UNL A   1      35.093  24.196  25.528  1.00  0.00     0.031 A 
ATOM     10  C   UNL A   1      36.211  23.840  24.779  1.00  0.00     0.048 A 
ATOM     11  C   UNL A   1      34.757  23.352  22.915  1.00  0.00     0.062 A 
ATOM     12  C   UNL A   1      36.031  23.416  23.475  1.00  0.00     0.116 A 
BRANCH   8  13
ATOM     13  N   UNL A   1      32.730  24.380  25.851  1.00  0.00    -0.322 N 
ATOM     14  C   UNL A   1      32.090  23.481  26.668  1.00  0.00     0.262 C 
ATOM     15  O   UNL A   1      31.306  23.933  27.510  1.00  0.00    -0.271 OA
ATOM     16  H   UNL A   1      32.398  25.306  25.881  1.00  0.00     0.170 HD
BRANCH  14  17
ATOM     17  C   UNL A   1      32.478  21.977  26.675  1.00  0.00     0.329 C 
BRANCH  17  18
ATOM     18  O   UNL A   1      32.118  21.141  25.582  1.00  0.00    -0.484 OA
BRANCH  18  19
ATOM     19  C   UNL A   1      33.046  20.178  25.296  1.00  0.00     0.120 A 
ATOM     20  C   UNL A   1      33.332  16.740  23.734  1.00  0.00     0.044 C 
ATOM     21  C   UNL A   1      33.708  18.054  24.352  1.00  0.00    -0.047 A 
ATOM     22  C   UNL A   1      35.044  18.473  24.393  1.00  0.00     0.007 A 
ATOM     23  C   UNL A   1      32.719  18.893  24.868  1.00  0.00     0.049 A 
ATOM     24  C   UNL A   1      35.389  19.725  24.921  1.00  0.00    -0.047 A 
ATOM     25  C   UNL A   1      36.823  20.156  24.967  1.00  0.00     0.044 C 
ATOM     26  C   UNL A   1      34.378  20.572  25.382  1.00  0.00     0.049 A 
ENDBRANCH  18  19
ENDBRANCH  17  18
ENDBRANCH  14  17
ENDBRANCH   8  13
BRANCH  12  27
ATOM     27  O   UNL A   1      37.090  23.032  22.708  1.00  0.00    -0.508 OA
ATOM     28  H   UNL A   1      37.917  22.851  23.108  1.00  0.00     0.293 HD
ENDBRANCH  12  27
ENDBRANCH   4   7
ENDBRANCH   2   3
ENDBRANCH   1   2
BRANCH   1  29
ATOM     29  C   UNL A   1      33.358  27.935  22.988  1.00  0.00     0.002 C 
BRANCH  29  30
ATOM     30  C   UNL A   1      33.928  27.738  24.397  1.00  0.00     0.002 C 
BRANCH  30  31
ATOM     31  C   UNL A   1      33.085  28.204  25.587  1.00  0.00     0.021 C 
BRANCH  31  32
ATOM     32  C   UNL A   1      33.810  28.406  26.912  1.00  0.00     0.116 C 
BRANCH  32  33
ATOM     33  N   UNL A   1      33.696  29.759  27.431  1.00  0.00    -0.352 N 
ATOM     34  C   UNL A   1      34.604  30.518  28.122  1.00  0.00     0.251 C 
ATOM     35  H   UNL A   1      32.830  30.197  27.260  1.00  0.00     0.163 HD
ATOM     36  O   UNL A   1      34.263  31.612  28.577  1.00  0.00    -0.269 OA
BRANCH  34  37
ATOM     37  C   UNL A   1      35.985  30.036  28.351  1.00  0.00     0.039 A 
ATOM     38  C   UNL A   1      36.926  30.192  27.328  1.00  0.00     0.014 A 
ATOM     39  C   UNL A   1      36.354  29.408  29.544  1.00  0.00     0.014 A 
ATOM     40  C   UNL A   1      38.245  29.773  27.525  1.00  0.00     0.010 A 
ATOM     41  C   UNL A   1      37.686  29.063  29.768  1.00  0.00     0.010 A 
ATOM     42  C   UNL A   1      38.644  29.235  28.758  1.00  0.00    -0.014 A 
BRANCH  42  43
ATOM     43  C   UNL A   1      40.058  28.847  29.003  1.00  0.00     0.031 A 
ATOM     44  C   UNL A   1      41.000  29.788  29.701  1.00  0.00     0.074 A 
ATOM     45  C   UNL A   1      40.508  27.659  28.555  1.00  0.00     0.049 A 
ATOM     46  N   UNL A   1      42.268  29.631  29.987  1.00  0.00    -0.248 NA
ATOM     47  C   UNL A   1      40.450  31.090  30.108  1.00  0.00     0.031 C 
ATOM     48  C   UNL A   1      39.709  26.671  27.829  1.00  0.00     0.029 A 
ATOM     49  N   UNL A   1      41.750  27.081  28.646  1.00  0.00    -0.354 N 
ATOM     50  C   UNL A   1      42.667  30.813  30.599  1.00  0.00     0.074 A 
ATOM     51  C   UNL A   1      41.525  31.701  30.580  1.00  0.00     0.031 C 
ATOM     52  C   UNL A   1      40.466  25.592  27.578  1.00  0.00     0.029 A 
ATOM     53  C   UNL A   1      41.813  25.827  28.089  1.00  0.00     0.049 A 
ATOM     54  H   UNL A   1      42.521  27.523  29.069  1.00  0.00     0.167 HD
ATOM     55  C   UNL A   1      43.866  31.124  31.149  1.00  0.00     0.037 A 
ATOM     56  C   UNL A   1      42.840  24.961  28.004  1.00  0.00     0.037 A 
ATOM     57  C   UNL A   1      45.001  30.236  31.169  1.00  0.00     0.049 A 
ATOM     58  C   UNL A   1      44.174  25.339  28.586  1.00  0.00     0.074 A 
ATOM     59  C   UNL A   1      46.244  30.435  31.744  1.00  0.00     0.029 A 
ATOM     60  N   UNL A   1      45.032  28.982  30.575  1.00  0.00    -0.354 N 
ATOM     61  N   UNL A   1      44.519  26.432  29.224  1.00  0.00    -0.248 NA
ATOM     62  C   UNL A   1      45.260  24.360  28.439  1.00  0.00     0.031 C 
ATOM     63  C   UNL A   1      47.044  29.325  31.451  1.00  0.00     0.029 A 
ATOM     64  C   UNL A   1      46.283  28.409  30.743  1.00  0.00     0.049 A 
ATOM     65  H   UNL A   1      44.277  28.561  30.103  1.00  0.00     0.167 HD
ATOM     66  C   UNL A   1      45.850  26.260  29.582  1.00  0.00     0.074 A 
ATOM     67  C   UNL A   1      46.246  24.953  29.098  1.00  0.00     0.031 C 
ATOM     68  C   UNL A   1      46.668  27.107  30.254  1.00  0.00     0.037 A 
BRANCH  55  69
ATOM     69  C   UNL A   1      44.002  32.489  31.763  1.00  0.00     0.057 A 
ATOM     70  C   UNL A   1      43.682  32.734  33.107  1.00  0.00     0.134 A 
ATOM     71  C   UNL A   1      44.451  33.576  31.002  1.00  0.00     0.134 A 
ATOM     72  F   UNL A   1      43.237  31.740  33.891  1.00  0.00    -0.206 F 
ATOM     73  C   UNL A   1      43.753  34.016  33.655  1.00  0.00     0.040 A 
ATOM     74  C   UNL A   1      44.560  34.857  31.550  1.00  0.00     0.040 A 
ATOM     75  F   UNL A   1      44.787  33.416  29.714  1.00  0.00    -0.206 F 
ATOM     76  C   UNL A   1      44.195  35.082  32.876  1.00  0.00     0.006 A 
ENDBRANCH  55  69
BRANCH  56  77
ATOM     77  C   UNL A   1      42.632  23.627  27.384  1.00  0.00     0.057 A 
ATOM     78  C   UNL A   1      42.272  22.524  28.167  1.00  0.00     0.134 A 
ATOM     79  C   UNL A   1      42.768  23.425  26.006  1.00  0.00     0.134 A 
ATOM     80  F   UNL A   1      42.144  22.653  29.497  1.00  0.00    -0.206 F 
ATOM     81  C   UNL A   1      42.064  21.265  27.604  1.00  0.00     0.040 A 
ATOM     82  C   UNL A   1      42.539  22.175  25.427  1.00  0.00     0.040 A 
ATOM     83  F   UNL A   1      43.104  24.443  25.201  1.00  0.00    -0.206 F 
ATOM     84  C   UNL A   1      42.190  21.089  26.228  1.00  0.00     0.006 A 
ENDBRANCH  56  77
BRANCH  68  85
ATOM     85  C   UNL A   1      48.065  26.634  30.536  1.00  0.00     0.057 A 
ATOM     86  C   UNL A   1      48.381  25.889  31.680  1.00  0.00     0.134 A 
ATOM     87  C   UNL A   1      49.102  26.897  29.632  1.00  0.00     0.134 A 
ATOM     88  F   UNL A   1      47.437  25.612  32.594  1.00  0.00    -0.206 F 
ATOM     89  C   UNL A   1      49.682  25.445  31.926  1.00  0.00     0.040 A 
ATOM     90  C   UNL A   1      50.400  26.434  29.853  1.00  0.00     0.040 A 
ATOM     91  F   UNL A   1      48.868  27.599  28.513  1.00  0.00    -0.206 F 
ATOM     92  C   UNL A   1      50.694  25.711  31.006  1.00  0.00     0.006 A 
ENDBRANCH  68  85
ENDBRANCH  42  43
ENDBRANCH  34  37
ENDBRANCH  32  33
ENDBRANCH  31  32
ENDBRANCH  30  31
ENDBRANCH  29  30
ENDBRANCH   1  29
TORSDOF 18
ENDMDL
