MODEL 1
REMARK VINA RESULT:     -11.5      0.000      0.000
REMARK SMILES CC[C@H]1CC[C@](C(=O)NCCCCCCNC(=O)c2ccc(-c3c4nc(c(-c5c(F)cccc5F)c5ccc([nH]5)c(-c5c(F)cccc5F)c5nc(c(-c6c(F)cccc6F)c6ccc3[nH]6)C=C5)C=C4)cc2)([C@H]2CCC[C@@H](S(C)(=O)=O)C2)CC1
REMARK SMILES IDX 12 1 11 2 10 3 9 4 7 5 8 6 6 8 3 9 84 10 4 11 83 12 5 13
REMARK SMILES IDX 2 14 1 15 73 16 74 17 82 18 75 19 77 20 76 21 78 22 79 23
REMARK SMILES IDX 80 24 81 25 13 26 14 27 15 28 16 29 17 30 18 32 19 33 20 34
REMARK SMILES IDX 72 35 21 36 71 37 22 38 23 39 24 40 65 41 25 42 70 43 64 44
REMARK SMILES IDX 66 45 26 46 69 47 63 48 62 49 27 51 53 52 36 53 52 54 37 55
REMARK SMILES IDX 40 56 51 57 67 58 38 59 39 60 50 62 68 63 41 64 28 65 29 66
REMARK SMILES IDX 34 67 30 68 31 69 33 70 35 71 32 72 54 73 55 74 60 75 56 76
REMARK SMILES IDX 57 77 59 78 61 79 58 80 42 81 43 82 48 83 44 84 45 85 47 86
REMARK SMILES IDX 49 87 46 88
REMARK H PARENT 9 7 16 31 66 50 40 61
REMARK Flexibility Score: inf
ROOT
ATOM      1  C   UNL A   1      36.306  21.824  24.678  1.00  0.00     0.002 C 
ENDROOT
BRANCH   1   2
ATOM      2  C   UNL A   1      35.960  22.674  25.900  1.00  0.00     0.021 C 
BRANCH   2   3
ATOM      3  C   UNL A   1      34.509  22.540  26.324  1.00  0.00     0.116 C 
BRANCH   3   4
ATOM      4  N   UNL A   1      33.995  23.710  26.982  1.00  0.00    -0.356 N 
ATOM      5  C   UNL A   1      32.722  24.100  26.697  1.00  0.00     0.226 C 
ATOM      6  O   UNL A   1      31.796  23.560  27.303  1.00  0.00    -0.274 OA
ATOM      7  H   UNL A   1      34.549  24.215  27.620  1.00  0.00     0.163 HD
BRANCH   5   8
ATOM      8  C   UNL A   1      32.485  25.165  25.609  1.00  0.00     0.052 C 
ATOM      9  C   UNL A   1      32.208  23.488  23.026  1.00  0.00    -0.011 C 
ATOM     10  C   UNL A   1      31.170  23.490  24.158  1.00  0.00     0.005 C 
ATOM     11  C   UNL A   1      33.543  24.161  23.389  1.00  0.00     0.005 C 
ATOM     12  C   UNL A   1      31.122  24.799  24.953  1.00  0.00     0.017 C 
ATOM     13  C   UNL A   1      33.515  25.259  24.450  1.00  0.00     0.017 C 
BRANCH   9  14
ATOM     14  C   UNL A   1      32.509  22.072  22.460  1.00  0.00    -0.000 C 
ATOM     15  C   UNL A   1      32.468  20.934  23.466  1.00  0.00     0.004 C 
ENDBRANCH   9  14
BRANCH   8  16
ATOM     16  C   UNL A   1      32.397  26.610  26.298  1.00  0.00     0.006 C 
ATOM     17  C   UNL A   1      33.674  27.470  26.365  1.00  0.00     0.005 C 
ATOM     18  C   UNL A   1      31.196  27.519  25.936  1.00  0.00     0.024 C 
ATOM     19  C   UNL A   1      33.903  28.445  25.210  1.00  0.00     0.002 C 
ATOM     20  C   UNL A   1      31.342  28.498  24.767  1.00  0.00     0.108 C 
ATOM     21  C   UNL A   1      32.681  29.235  24.746  1.00  0.00     0.020 C 
BRANCH  20  22
ATOM     22  S   UNL A   1      30.818  27.830  23.171  1.00  0.00     0.150 S 
ATOM     23  C   UNL A   1      30.337  29.258  22.234  1.00  0.00     0.158 C 
ATOM     24  O   UNL A   1      31.953  27.240  22.478  1.00  0.00    -0.229 OA
ATOM     25  O   UNL A   1      29.599  27.073  23.352  1.00  0.00    -0.229 OA
ENDBRANCH  20  22
ENDBRANCH   8  16
ENDBRANCH   5   8
ENDBRANCH   3   4
ENDBRANCH   2   3
ENDBRANCH   1   2
BRANCH   1  26
ATOM     26  C   UNL A   1      36.231  20.305  24.893  1.00  0.00     0.002 C 
BRANCH  26  27
ATOM     27  C   UNL A   1      37.564  19.558  24.788  1.00  0.00     0.021 C 
BRANCH  27  28
ATOM     28  C   UNL A   1      38.712  20.206  25.551  1.00  0.00     0.116 C 
BRANCH  28  29
ATOM     29  N   UNL A   1      39.828  19.290  25.722  1.00  0.00    -0.352 N 
ATOM     30  C   UNL A   1      41.127  19.550  26.065  1.00  0.00     0.251 C 
ATOM     31  H   UNL A   1      39.617  18.341  25.568  1.00  0.00     0.163 HD
ATOM     32  O   UNL A   1      41.988  18.688  25.925  1.00  0.00    -0.269 OA
BRANCH  30  33
ATOM     33  C   UNL A   1      41.493  20.875  26.605  1.00  0.00     0.039 A 
ATOM     34  C   UNL A   1      42.026  21.832  25.739  1.00  0.00     0.014 A 
ATOM     35  C   UNL A   1      41.341  21.159  27.965  1.00  0.00     0.014 A 
ATOM     36  C   UNL A   1      42.365  23.093  26.231  1.00  0.00     0.010 A 
ATOM     37  C   UNL A   1      41.607  22.440  28.438  1.00  0.00     0.010 A 
ATOM     38  C   UNL A   1      42.134  23.414  27.579  1.00  0.00    -0.014 A 
BRANCH  38  39
ATOM     39  C   UNL A   1      42.447  24.765  28.107  1.00  0.00     0.031 A 
ATOM     40  C   UNL A   1      43.845  25.096  28.549  1.00  0.00     0.074 A 
ATOM     41  C   UNL A   1      41.460  25.671  28.237  1.00  0.00     0.049 A 
ATOM     42  N   UNL A   1      44.302  26.198  29.086  1.00  0.00    -0.248 NA
ATOM     43  C   UNL A   1      44.859  24.040  28.392  1.00  0.00     0.031 C 
ATOM     44  C   UNL A   1      40.057  25.451  27.883  1.00  0.00     0.029 A 
ATOM     45  N   UNL A   1      41.486  26.959  28.710  1.00  0.00    -0.354 N 
ATOM     46  C   UNL A   1      45.648  25.965  29.340  1.00  0.00     0.074 A 
ATOM     47  C   UNL A   1      45.921  24.598  28.952  1.00  0.00     0.031 C 
ATOM     48  C   UNL A   1      39.361  26.573  28.129  1.00  0.00     0.029 A 
ATOM     49  C   UNL A   1      40.258  27.575  28.694  1.00  0.00     0.049 A 
ATOM     50  H   UNL A   1      42.306  27.399  29.030  1.00  0.00     0.167 HD
ATOM     51  C   UNL A   1      46.577  26.820  29.830  1.00  0.00     0.037 A 
ATOM     52  C   UNL A   1      39.897  28.807  29.099  1.00  0.00     0.037 A 
ATOM     53  C   UNL A   1      46.303  28.185  30.197  1.00  0.00     0.049 A 
ATOM     54  C   UNL A   1      40.944  29.731  29.655  1.00  0.00     0.074 A 
ATOM     55  C   UNL A   1      47.185  29.150  30.649  1.00  0.00     0.029 A 
ATOM     56  N   UNL A   1      45.048  28.776  30.158  1.00  0.00    -0.354 N 
ATOM     57  N   UNL A   1      42.227  29.521  29.824  1.00  0.00    -0.248 NA
ATOM     58  C   UNL A   1      40.494  31.067  30.072  1.00  0.00     0.031 C 
ATOM     59  C   UNL A   1      46.457  30.308  30.935  1.00  0.00     0.029 A 
ATOM     60  C   UNL A   1      45.129  30.085  30.605  1.00  0.00     0.049 A 
ATOM     61  H   UNL A   1      44.223  28.331  29.858  1.00  0.00     0.167 HD
ATOM     62  C   UNL A   1      42.743  30.705  30.336  1.00  0.00     0.074 A 
ATOM     63  C   UNL A   1      41.635  31.633  30.435  1.00  0.00     0.031 C 
ATOM     64  C   UNL A   1      44.018  30.998  30.692  1.00  0.00     0.037 A 
BRANCH  51  65
ATOM     65  C   UNL A   1      47.977  26.302  29.999  1.00  0.00     0.057 A 
ATOM     66  C   UNL A   1      48.426  25.760  31.211  1.00  0.00     0.134 A 
ATOM     67  C   UNL A   1      48.877  26.314  28.926  1.00  0.00     0.134 A 
ATOM     68  F   UNL A   1      47.619  25.728  32.283  1.00  0.00    -0.206 F 
ATOM     69  C   UNL A   1      49.727  25.275  31.358  1.00  0.00     0.040 A 
ATOM     70  C   UNL A   1      50.171  25.804  29.052  1.00  0.00     0.040 A 
ATOM     71  F   UNL A   1      48.513  26.811  27.735  1.00  0.00    -0.206 F 
ATOM     72  C   UNL A   1      50.601  25.289  30.273  1.00  0.00     0.006 A 
ENDBRANCH  51  65
BRANCH  52  73
ATOM     73  C   UNL A   1      38.483  29.245  28.977  1.00  0.00     0.057 A 
ATOM     74  C   UNL A   1      37.615  29.200  30.074  1.00  0.00     0.134 A 
ATOM     75  C   UNL A   1      37.963  29.712  27.764  1.00  0.00     0.134 A 
ATOM     76  F   UNL A   1      38.048  28.746  31.260  1.00  0.00    -0.206 F 
ATOM     77  C   UNL A   1      36.276  29.578  29.965  1.00  0.00     0.040 A 
ATOM     78  C   UNL A   1      36.634  30.120  27.646  1.00  0.00     0.040 A 
ATOM     79  F   UNL A   1      38.745  29.789  26.677  1.00  0.00    -0.206 F 
ATOM     80  C   UNL A   1      35.784  30.045  28.747  1.00  0.00     0.006 A 
ENDBRANCH  52  73
BRANCH  64  81
ATOM     81  C   UNL A   1      44.292  32.390  31.184  1.00  0.00     0.057 A 
ATOM     82  C   UNL A   1      44.605  33.438  30.310  1.00  0.00     0.134 A 
ATOM     83  C   UNL A   1      44.203  32.691  32.550  1.00  0.00     0.134 A 
ATOM     84  F   UNL A   1      44.719  33.215  28.992  1.00  0.00    -0.206 F 
ATOM     85  C   UNL A   1      44.844  34.731  30.778  1.00  0.00     0.040 A 
ATOM     86  C   UNL A   1      44.408  33.986  33.026  1.00  0.00     0.040 A 
ATOM     87  F   UNL A   1      43.897  31.735  33.440  1.00  0.00    -0.206 F 
ATOM     88  C   UNL A   1      44.738  35.009  32.141  1.00  0.00     0.006 A 
ENDBRANCH  64  81
ENDBRANCH  38  39
ENDBRANCH  30  33
ENDBRANCH  28  29
ENDBRANCH  27  28
ENDBRANCH  26  27
ENDBRANCH   1  26
TORSDOF 16
ENDMDL
MODEL 2
REMARK VINA RESULT:     -11.3      0.446      6.006
REMARK SMILES CC[C@H]1CC[C@](C(=O)NCCCCCCNC(=O)c2ccc(-c3c4nc(c(-c5c(F)cccc5F)c5ccc([nH]5)c(-c5c(F)cccc5F)c5nc(c(-c6c(F)cccc6F)c6ccc3[nH]6)C=C5)C=C4)cc2)([C@H]2CCC[C@@H](S(C)(=O)=O)C2)CC1
REMARK SMILES IDX 12 1 11 2 10 3 9 4 7 5 8 6 6 8 3 9 84 10 4 11 83 12 5 13
REMARK SMILES IDX 2 14 1 15 73 16 74 17 82 18 75 19 77 20 76 21 78 22 79 23
REMARK SMILES IDX 80 24 81 25 13 26 14 27 15 28 16 29 17 30 18 32 19 33 20 34
REMARK SMILES IDX 72 35 21 36 71 37 22 38 23 39 24 40 65 41 25 42 70 43 64 44
REMARK SMILES IDX 66 45 26 46 69 47 63 48 62 49 27 51 53 52 36 53 52 54 37 55
REMARK SMILES IDX 40 56 51 57 67 58 38 59 39 60 50 62 68 63 41 64 28 65 29 66
REMARK SMILES IDX 34 67 30 68 31 69 33 70 35 71 32 72 54 73 55 74 60 75 56 76
REMARK SMILES IDX 57 77 59 78 61 79 58 80 42 81 43 82 48 83 44 84 45 85 47 86
REMARK SMILES IDX 49 87 46 88
REMARK H PARENT 9 7 16 31 66 50 40 61
REMARK Flexibility Score: inf
ROOT
ATOM      1  C   UNL A   1      36.067  21.750  25.798  1.00  0.00     0.002 C 
ENDROOT
BRANCH   1   2
ATOM      2  C   UNL A   1      34.970  21.803  26.860  1.00  0.00     0.021 C 
BRANCH   2   3
ATOM      3  C   UNL A   1      33.693  22.456  26.362  1.00  0.00     0.116 C 
BRANCH   3   4
ATOM      4  N   UNL A   1      33.394  23.699  27.018  1.00  0.00    -0.356 N 
ATOM      5  C   UNL A   1      32.222  24.321  26.712  1.00  0.00     0.226 C 
ATOM      6  O   UNL A   1      31.200  23.961  27.296  1.00  0.00    -0.274 OA
ATOM      7  H   UNL A   1      34.020  24.090  27.671  1.00  0.00     0.163 HD
BRANCH   5   8
ATOM      8  C   UNL A   1      32.209  25.416  25.628  1.00  0.00     0.052 C 
ATOM      9  C   UNL A   1      32.430  23.807  22.996  1.00  0.00    -0.011 C 
ATOM     10  C   UNL A   1      31.191  23.794  23.903  1.00  0.00     0.005 C 
ATOM     11  C   UNL A   1      33.674  24.455  23.631  1.00  0.00     0.005 C 
ATOM     12  C   UNL A   1      30.998  25.084  24.709  1.00  0.00     0.017 C 
ATOM     13  C   UNL A   1      33.447  25.526  24.696  1.00  0.00     0.017 C 
BRANCH   9  14
ATOM     14  C   UNL A   1      32.826  22.403  22.462  1.00  0.00    -0.000 C 
ATOM     15  C   UNL A   1      32.292  21.219  23.250  1.00  0.00     0.004 C 
ENDBRANCH   9  14
BRANCH   8  16
ATOM     16  C   UNL A   1      31.998  26.844  26.325  1.00  0.00     0.006 C 
ATOM     17  C   UNL A   1      33.246  27.651  26.736  1.00  0.00     0.005 C 
ATOM     18  C   UNL A   1      30.954  27.809  25.710  1.00  0.00     0.024 C 
ATOM     19  C   UNL A   1      33.784  28.647  25.710  1.00  0.00     0.002 C 
ATOM     20  C   UNL A   1      31.417  28.813  24.650  1.00  0.00     0.108 C 
ATOM     21  C   UNL A   1      32.742  29.496  24.986  1.00  0.00     0.020 C 
BRANCH  20  22
ATOM     22  S   UNL A   1      31.283  28.209  22.951  1.00  0.00     0.150 S 
ATOM     23  C   UNL A   1      30.582  29.570  22.055  1.00  0.00     0.158 C 
ATOM     24  O   UNL A   1      32.609  27.983  22.395  1.00  0.00    -0.229 OA
ATOM     25  O   UNL A   1      30.282  27.167  22.895  1.00  0.00    -0.229 OA
ENDBRANCH  20  22
ENDBRANCH   8  16
ENDBRANCH   5   8
ENDBRANCH   3   4
ENDBRANCH   2   3
ENDBRANCH   1   2
BRANCH   1  26
ATOM     26  C   UNL A   1      36.057  20.501  24.905  1.00  0.00     0.002 C 
BRANCH  26  27
ATOM     27  C   UNL A   1      37.426  19.875  24.630  1.00  0.00     0.021 C 
BRANCH  27  28
ATOM     28  C   UNL A   1      38.549  20.398  25.518  1.00  0.00     0.116 C 
BRANCH  28  29
ATOM     29  N   UNL A   1      39.600  19.410  25.693  1.00  0.00    -0.352 N 
ATOM     30  C   UNL A   1      40.909  19.582  26.053  1.00  0.00     0.251 C 
ATOM     31  H   UNL A   1      39.331  18.478  25.526  1.00  0.00     0.163 HD
ATOM     32  O   UNL A   1      41.715  18.667  25.914  1.00  0.00    -0.269 OA
BRANCH  30  33
ATOM     33  C   UNL A   1      41.354  20.875  26.611  1.00  0.00     0.039 A 
ATOM     34  C   UNL A   1      41.904  21.827  25.751  1.00  0.00     0.014 A 
ATOM     35  C   UNL A   1      41.257  21.132  27.982  1.00  0.00     0.014 A 
ATOM     36  C   UNL A   1      42.317  23.059  26.260  1.00  0.00     0.010 A 
ATOM     37  C   UNL A   1      41.597  22.387  28.475  1.00  0.00     0.010 A 
ATOM     38  C   UNL A   1      42.142  23.357  27.622  1.00  0.00    -0.014 A 
BRANCH  38  39
ATOM     39  C   UNL A   1      42.535  24.679  28.171  1.00  0.00     0.031 A 
ATOM     40  C   UNL A   1      41.501  25.754  28.359  1.00  0.00     0.074 A 
ATOM     41  C   UNL A   1      43.830  24.924  28.447  1.00  0.00     0.049 A 
ATOM     42  N   UNL A   1      41.658  26.986  28.773  1.00  0.00    -0.248 NA
ATOM     43  C   UNL A   1      40.113  25.409  28.013  1.00  0.00     0.031 C 
ATOM     44  C   UNL A   1      44.929  23.974  28.264  1.00  0.00     0.029 A 
ATOM     45  N   UNL A   1      44.441  26.051  28.933  1.00  0.00    -0.354 N 
ATOM     46  C   UNL A   1      40.395  27.563  28.726  1.00  0.00     0.074 A 
ATOM     47  C   UNL A   1      39.494  26.566  28.190  1.00  0.00     0.031 C 
ATOM     48  C   UNL A   1      46.076  24.550  28.656  1.00  0.00     0.029 A 
ATOM     49  C   UNL A   1      45.802  25.919  29.078  1.00  0.00     0.049 A 
ATOM     50  H   UNL A   1      43.953  26.876  29.158  1.00  0.00     0.167 HD
ATOM     51  C   UNL A   1      40.017  28.804  29.115  1.00  0.00     0.037 A 
ATOM     52  C   UNL A   1      46.723  26.807  29.496  1.00  0.00     0.037 A 
ATOM     53  C   UNL A   1      40.916  29.785  29.665  1.00  0.00     0.049 A 
ATOM     54  C   UNL A   1      46.280  28.183  29.907  1.00  0.00     0.074 A 
ATOM     55  C   UNL A   1      40.623  31.050  30.143  1.00  0.00     0.029 A 
ATOM     56  N   UNL A   1      42.285  29.611  29.805  1.00  0.00    -0.354 N 
ATOM     57  N   UNL A   1      45.072  28.693  29.924  1.00  0.00    -0.248 NA
ATOM     58  C   UNL A   1      47.328  29.107  30.364  1.00  0.00     0.031 C 
ATOM     59  C   UNL A   1      41.821  31.662  30.523  1.00  0.00     0.029 A 
ATOM     60  C   UNL A   1      42.855  30.757  30.336  1.00  0.00     0.049 A 
ATOM     61  H   UNL A   1      42.778  28.795  29.562  1.00  0.00     0.167 HD
ATOM     62  C   UNL A   1      45.209  29.982  30.420  1.00  0.00     0.074 A 
ATOM     63  C   UNL A   1      46.617  30.171  30.707  1.00  0.00     0.031 C 
ATOM     64  C   UNL A   1      44.257  30.927  30.622  1.00  0.00     0.037 A 
BRANCH  51  65
ATOM     65  C   UNL A   1      38.568  29.170  28.959  1.00  0.00     0.057 A 
ATOM     66  C   UNL A   1      37.673  29.129  30.036  1.00  0.00     0.134 A 
ATOM     67  C   UNL A   1      38.070  29.602  27.723  1.00  0.00     0.134 A 
ATOM     68  F   UNL A   1      38.081  28.715  31.245  1.00  0.00    -0.206 F 
ATOM     69  C   UNL A   1      36.329  29.477  29.884  1.00  0.00     0.040 A 
ATOM     70  C   UNL A   1      36.736  29.981  27.565  1.00  0.00     0.040 A 
ATOM     71  F   UNL A   1      38.872  29.673  26.650  1.00  0.00    -0.206 F 
ATOM     72  C   UNL A   1      35.860  29.913  28.647  1.00  0.00     0.006 A 
ENDBRANCH  51  65
BRANCH  52  73
ATOM     73  C   UNL A   1      48.155  26.417  29.564  1.00  0.00     0.057 A 
ATOM     74  C   UNL A   1      48.696  25.851  30.724  1.00  0.00     0.134 A 
ATOM     75  C   UNL A   1      49.017  26.606  28.477  1.00  0.00     0.134 A 
ATOM     76  F   UNL A   1      47.925  25.660  31.805  1.00  0.00    -0.206 F 
ATOM     77  C   UNL A   1      50.047  25.510  30.811  1.00  0.00     0.040 A 
ATOM     78  C   UNL A   1      50.364  26.244  28.540  1.00  0.00     0.040 A 
ATOM     79  F   UNL A   1      48.559  27.135  27.332  1.00  0.00    -0.206 F 
ATOM     80  C   UNL A   1      50.884  25.703  29.713  1.00  0.00     0.006 A 
ENDBRANCH  52  73
BRANCH  64  81
ATOM     81  C   UNL A   1      44.698  32.233  31.214  1.00  0.00     0.057 A 
ATOM     82  C   UNL A   1      45.072  33.322  30.417  1.00  0.00     0.134 A 
ATOM     83  C   UNL A   1      44.711  32.415  32.604  1.00  0.00     0.134 A 
ATOM     84  F   UNL A   1      45.094  33.211  29.079  1.00  0.00    -0.206 F 
ATOM     85  C   UNL A   1      45.467  34.536  30.979  1.00  0.00     0.040 A 
ATOM     86  C   UNL A   1      45.074  33.634  33.177  1.00  0.00     0.040 A 
ATOM     87  F   UNL A   1      44.355  31.416  33.426  1.00  0.00    -0.206 F 
ATOM     88  C   UNL A   1      45.461  34.697  32.365  1.00  0.00     0.006 A 
ENDBRANCH  64  81
ENDBRANCH  38  39
ENDBRANCH  30  33
ENDBRANCH  28  29
ENDBRANCH  27  28
ENDBRANCH  26  27
ENDBRANCH   1  26
TORSDOF 16
ENDMDL
MODEL 3
REMARK VINA RESULT:     -11.2      3.353      8.638
REMARK SMILES CC[C@H]1CC[C@](C(=O)NCCCCCCNC(=O)c2ccc(-c3c4nc(c(-c5c(F)cccc5F)c5ccc([nH]5)c(-c5c(F)cccc5F)c5nc(c(-c6c(F)cccc6F)c6ccc3[nH]6)C=C5)C=C4)cc2)([C@H]2CCC[C@@H](S(C)(=O)=O)C2)CC1
REMARK SMILES IDX 12 1 11 2 10 3 9 4 7 5 8 6 6 8 3 9 84 10 4 11 83 12 5 13
REMARK SMILES IDX 2 14 1 15 73 16 74 17 82 18 75 19 77 20 76 21 78 22 79 23
REMARK SMILES IDX 80 24 81 25 13 26 14 27 15 28 16 29 17 30 18 32 19 33 20 34
REMARK SMILES IDX 72 35 21 36 71 37 22 38 23 39 24 40 65 41 25 42 70 43 64 44
REMARK SMILES IDX 66 45 26 46 69 47 63 48 62 49 27 51 53 52 36 53 52 54 37 55
REMARK SMILES IDX 40 56 51 57 67 58 38 59 39 60 50 62 68 63 41 64 28 65 29 66
REMARK SMILES IDX 34 67 30 68 31 69 33 70 35 71 32 72 54 73 55 74 60 75 56 76
REMARK SMILES IDX 57 77 59 78 61 79 58 80 42 81 43 82 48 83 44 84 45 85 47 86
REMARK SMILES IDX 49 87 46 88
REMARK H PARENT 9 7 16 31 66 50 40 61
REMARK Flexibility Score: inf
ROOT
ATOM      1  C   UNL A   1      31.902  29.510  25.774  1.00  0.00     0.002 C 
ENDROOT
BRANCH   1   2
ATOM      2  C   UNL A   1      33.191  29.355  24.968  1.00  0.00     0.021 C 
BRANCH   2   3
ATOM      3  C   UNL A   1      33.010  28.514  23.717  1.00  0.00     0.116 C 
BRANCH   3   4
ATOM      4  N   UNL A   1      34.070  27.565  23.508  1.00  0.00    -0.356 N 
ATOM      5  C   UNL A   1      33.765  26.386  22.899  1.00  0.00     0.226 C 
ATOM      6  O   UNL A   1      33.726  26.357  21.669  1.00  0.00    -0.274 OA
ATOM      7  H   UNL A   1      34.989  27.762  23.799  1.00  0.00     0.163 HD
BRANCH   5   8
ATOM      8  C   UNL A   1      33.445  25.150  23.763  1.00  0.00     0.052 C 
ATOM      9  C   UNL A   1      30.394  25.372  24.210  1.00  0.00    -0.011 C 
ATOM     10  C   UNL A   1      31.036  25.051  22.853  1.00  0.00     0.005 C 
ATOM     11  C   UNL A   1      31.384  25.860  25.281  1.00  0.00     0.005 C 
ATOM     12  C   UNL A   1      32.389  24.338  22.959  1.00  0.00     0.017 C 
ATOM     13  C   UNL A   1      32.834  25.389  25.170  1.00  0.00     0.017 C 
BRANCH   9  14
ATOM     14  C   UNL A   1      29.225  26.392  24.120  1.00  0.00    -0.000 C 
ATOM     15  C   UNL A   1      29.496  27.640  23.299  1.00  0.00     0.004 C 
ENDBRANCH   9  14
BRANCH   8  16
ATOM     16  C   UNL A   1      34.780  24.283  23.955  1.00  0.00     0.006 C 
ATOM     17  C   UNL A   1      35.501  24.338  25.316  1.00  0.00     0.005 C 
ATOM     18  C   UNL A   1      34.780  22.821  23.443  1.00  0.00     0.024 C 
ATOM     19  C   UNL A   1      35.108  23.276  26.342  1.00  0.00     0.002 C 
ATOM     20  C   UNL A   1      34.364  21.706  24.408  1.00  0.00     0.108 C 
ATOM     21  C   UNL A   1      34.955  21.853  25.809  1.00  0.00     0.020 C 
BRANCH  20  22
ATOM     22  S   UNL A   1      32.600  21.310  24.365  1.00  0.00     0.150 S 
ATOM     23  C   UNL A   1      32.514  19.629  24.923  1.00  0.00     0.158 C 
ATOM     24  O   UNL A   1      31.884  22.112  25.345  1.00  0.00    -0.229 OA
ATOM     25  O   UNL A   1      32.156  21.271  22.989  1.00  0.00    -0.229 OA
ENDBRANCH  20  22
ENDBRANCH   8  16
ENDBRANCH   5   8
ENDBRANCH   3   4
ENDBRANCH   2   3
ENDBRANCH   1   2
BRANCH   1  26
ATOM     26  C   UNL A   1      31.113  30.801  25.508  1.00  0.00     0.002 C 
BRANCH  26  27
ATOM     27  C   UNL A   1      31.116  31.822  26.649  1.00  0.00     0.021 C 
BRANCH  27  28
ATOM     28  C   UNL A   1      32.483  32.421  26.957  1.00  0.00     0.116 C 
BRANCH  28  29
ATOM     29  N   UNL A   1      32.375  33.786  27.442  1.00  0.00    -0.352 N 
ATOM     30  C   UNL A   1      33.104  34.433  28.403  1.00  0.00     0.251 C 
ATOM     31  H   UNL A   1      31.671  34.327  27.016  1.00  0.00     0.163 HD
ATOM     32  O   UNL A   1      32.718  35.505  28.856  1.00  0.00    -0.269 OA
BRANCH  30  33
ATOM     33  C   UNL A   1      34.361  33.835  28.896  1.00  0.00     0.039 A 
ATOM     34  C   UNL A   1      34.311  32.961  29.983  1.00  0.00     0.014 A 
ATOM     35  C   UNL A   1      35.586  34.163  28.308  1.00  0.00     0.014 A 
ATOM     36  C   UNL A   1      35.489  32.378  30.453  1.00  0.00     0.010 A 
ATOM     37  C   UNL A   1      36.748  33.523  28.728  1.00  0.00     0.010 A 
ATOM     38  C   UNL A   1      36.712  32.635  29.812  1.00  0.00    -0.014 A 
BRANCH  38  39
ATOM     39  C   UNL A   1      37.966  31.989  30.272  1.00  0.00     0.031 A 
ATOM     40  C   UNL A   1      38.807  32.643  31.333  1.00  0.00     0.074 A 
ATOM     41  C   UNL A   1      38.372  30.842  29.693  1.00  0.00     0.049 A 
ATOM     42  N   UNL A   1      39.957  32.261  31.826  1.00  0.00    -0.248 NA
ATOM     43  C   UNL A   1      38.300  33.905  31.897  1.00  0.00     0.031 C 
ATOM     44  C   UNL A   1      37.663  30.137  28.624  1.00  0.00     0.029 A 
ATOM     45  N   UNL A   1      39.484  30.072  29.920  1.00  0.00    -0.354 N 
ATOM     46  C   UNL A   1      40.316  33.239  32.746  1.00  0.00     0.074 A 
ATOM     47  C   UNL A   1      39.291  34.259  32.701  1.00  0.00     0.031 C 
ATOM     48  C   UNL A   1      38.346  29.026  28.303  1.00  0.00     0.029 A 
ATOM     49  C   UNL A   1      39.557  28.961  29.114  1.00  0.00     0.049 A 
ATOM     50  H   UNL A   1      40.165  30.294  30.595  1.00  0.00     0.167 HD
ATOM     51  C   UNL A   1      41.392  33.272  33.569  1.00  0.00     0.037 A 
ATOM     52  C   UNL A   1      40.500  28.005  29.034  1.00  0.00     0.037 A 
ATOM     53  C   UNL A   1      42.399  32.245  33.621  1.00  0.00     0.049 A 
ATOM     54  C   UNL A   1      41.692  28.073  29.947  1.00  0.00     0.074 A 
ATOM     55  C   UNL A   1      43.496  32.155  34.459  1.00  0.00     0.029 A 
ATOM     56  N   UNL A   1      42.433  31.130  32.796  1.00  0.00    -0.354 N 
ATOM     57  N   UNL A   1      41.984  28.966  30.861  1.00  0.00    -0.248 NA
ATOM     58  C   UNL A   1      42.684  26.996  29.822  1.00  0.00     0.031 C 
ATOM     59  C   UNL A   1      44.224  31.016  34.106  1.00  0.00     0.029 A 
ATOM     60  C   UNL A   1      43.549  30.362  33.086  1.00  0.00     0.049 A 
ATOM     61  H   UNL A   1      41.764  30.917  32.106  1.00  0.00     0.167 HD
ATOM     62  C   UNL A   1      43.173  28.545  31.441  1.00  0.00     0.074 A 
ATOM     63  C   UNL A   1      43.541  27.307  30.784  1.00  0.00     0.031 C 
ATOM     64  C   UNL A   1      43.897  29.129  32.428  1.00  0.00     0.037 A 
BRANCH  51  65
ATOM     65  C   UNL A   1      41.533  34.459  34.479  1.00  0.00     0.057 A 
ATOM     66  C   UNL A   1      42.156  35.643  34.062  1.00  0.00     0.134 A 
ATOM     67  C   UNL A   1      41.009  34.429  35.778  1.00  0.00     0.134 A 
ATOM     68  F   UNL A   1      42.689  35.735  32.834  1.00  0.00    -0.206 F 
ATOM     69  C   UNL A   1      42.278  36.744  34.912  1.00  0.00     0.040 A 
ATOM     70  C   UNL A   1      41.098  35.534  36.627  1.00  0.00     0.040 A 
ATOM     71  F   UNL A   1      40.394  33.331  36.241  1.00  0.00    -0.206 F 
ATOM     72  C   UNL A   1      41.740  36.694  36.196  1.00  0.00     0.006 A 
ENDBRANCH  51  65
BRANCH  52  73
ATOM     73  C   UNL A   1      40.348  26.889  28.065  1.00  0.00     0.057 A 
ATOM     74  C   UNL A   1      39.603  25.749  28.386  1.00  0.00     0.134 A 
ATOM     75  C   UNL A   1      40.946  26.932  26.800  1.00  0.00     0.134 A 
ATOM     76  F   UNL A   1      39.018  25.641  29.588  1.00  0.00    -0.206 F 
ATOM     77  C   UNL A   1      39.478  24.681  27.496  1.00  0.00     0.040 A 
ATOM     78  C   UNL A   1      40.808  25.884  25.889  1.00  0.00     0.040 A 
ATOM     79  F   UNL A   1      41.666  28.001  26.426  1.00  0.00    -0.206 F 
ATOM     80  C   UNL A   1      40.079  24.749  26.241  1.00  0.00     0.006 A 
ENDBRANCH  52  73
BRANCH  64  81
ATOM     81  C   UNL A   1      45.137  28.416  32.885  1.00  0.00     0.057 A 
ATOM     82  C   UNL A   1      46.389  28.660  32.306  1.00  0.00     0.134 A 
ATOM     83  C   UNL A   1      45.082  27.502  33.945  1.00  0.00     0.134 A 
ATOM     84  F   UNL A   1      46.510  29.515  31.278  1.00  0.00    -0.206 F 
ATOM     85  C   UNL A   1      47.537  28.002  32.749  1.00  0.00     0.040 A 
ATOM     86  C   UNL A   1      46.227  26.862  34.417  1.00  0.00     0.040 A 
ATOM     87  F   UNL A   1      43.916  27.230  34.550  1.00  0.00    -0.206 F 
ATOM     88  C   UNL A   1      47.459  27.105  33.814  1.00  0.00     0.006 A 
ENDBRANCH  64  81
ENDBRANCH  38  39
ENDBRANCH  30  33
ENDBRANCH  28  29
ENDBRANCH  27  28
ENDBRANCH  26  27
ENDBRANCH   1  26
TORSDOF 16
ENDMDL
