MODEL 1
REMARK VINA RESULT:     -10.0      0.000      0.000
REMARK SMILES CCN(CCC(=O)NCCCCCCNC(=O)c1ccc(-c2c3nc(c(-c4c(F)cccc4F)c4ccc([nH]4)c(-c4c(F)cccc4F)c4nc(c(-c5c(F)cccc5F)c5ccc2[nH]5)C=C4)C=C3)cc1)C(=O)[C@@H]1C=C[C@@H]([NH3+])C1
REMARK SMILES IDX 10 1 9 2 8 3 6 4 7 5 5 7 4 8 3 9 2 10 1 11 72 12 73 13 74 14
REMARK SMILES IDX 75 15 79 16 76 17 77 18 78 19 11 23 12 24 13 25 14 26 15 27
REMARK SMILES IDX 16 28 17 30 18 31 19 32 71 33 20 34 70 35 21 36 22 37 23 38
REMARK SMILES IDX 64 39 24 40 69 41 63 42 65 43 25 44 68 45 62 46 61 47 26 49
REMARK SMILES IDX 52 50 35 51 51 52 36 53 39 54 50 55 66 56 37 57 38 58 49 60
REMARK SMILES IDX 67 61 40 62 27 63 28 64 33 65 29 66 30 67 32 68 34 69 31 70
REMARK SMILES IDX 53 71 54 72 59 73 55 74 56 75 58 76 60 77 57 78 41 79 42 80
REMARK SMILES IDX 47 81 43 82 44 83 46 84 48 85 45 86
REMARK H PARENT 8 6 78 20 78 21 78 22 15 29 65 48 39 59
REMARK Flexibility Score: inf
ROOT
ATOM      1  C   UNL A   1      34.868  31.289  28.013  1.00  0.00     0.021 C 
ENDROOT
BRANCH   1   2
ATOM      2  C   UNL A   1      33.956  30.612  26.990  1.00  0.00     0.116 C 
BRANCH   2   3
ATOM      3  N   UNL A   1      32.907  29.818  27.613  1.00  0.00    -0.356 N 
ATOM      4  C   UNL A   1      32.263  28.697  27.184  1.00  0.00     0.221 C 
ATOM      5  O   UNL A   1      31.327  28.259  27.859  1.00  0.00    -0.275 OA
ATOM      6  H   UNL A   1      32.614  30.146  28.493  1.00  0.00     0.163 HD
BRANCH   4   7
ATOM      7  C   UNL A   1      32.670  28.000  25.911  1.00  0.00     0.121 C 
BRANCH   7   8
ATOM      8  C   UNL A   1      32.109  28.702  24.671  1.00  0.00     0.129 C 
BRANCH   8   9
ATOM      9  N   UNL A   1      30.883  28.090  24.126  1.00  0.00    -0.342 N 
BRANCH   9  10
ATOM     10  C   UNL A   1      30.608  26.734  24.653  1.00  0.00     0.116 C 
ATOM     11  C   UNL A   1      29.615  25.825  23.949  1.00  0.00     0.027 C 
ENDBRANCH   9  10
BRANCH   9  12
ATOM     12  C   UNL A   1      30.105  28.655  23.102  1.00  0.00     0.229 C 
ATOM     13  O   UNL A   1      30.438  28.562  21.915  1.00  0.00    -0.274 OA
BRANCH  12  14
ATOM     14  C   UNL A   1      28.848  29.493  23.458  1.00  0.00     0.107 C 
ATOM     15  C   UNL A   1      27.850  29.600  22.332  1.00  0.00    -0.012 C 
ATOM     16  C   UNL A   1      29.216  30.969  23.644  1.00  0.00     0.087 C 
ATOM     17  C   UNL A   1      27.901  30.792  21.719  1.00  0.00     0.033 C 
ATOM     18  C   UNL A   1      28.992  31.636  22.283  1.00  0.00     0.205 C 
BRANCH  18  19
ATOM     19  N   UNL A   1      28.655  33.037  22.434  1.00  0.00    -0.352 N 
ATOM     20  H   UNL A   1      29.479  33.608  22.246  1.00  0.00     0.345 HD
ATOM     21  H   UNL A   1      28.332  33.208  23.386  1.00  0.00     0.345 HD
ATOM     22  H   UNL A   1      27.915  33.281  21.776  1.00  0.00     0.345 HD
ENDBRANCH  18  19
ENDBRANCH  12  14
ENDBRANCH   9  12
ENDBRANCH   8   9
ENDBRANCH   7   8
ENDBRANCH   4   7
ENDBRANCH   2   3
ENDBRANCH   1   2
BRANCH   1  23
ATOM     23  C   UNL A   1      34.144  32.126  29.073  1.00  0.00     0.002 C 
BRANCH  23  24
ATOM     24  C   UNL A   1      34.489  33.614  29.065  1.00  0.00     0.002 C 
BRANCH  24  25
ATOM     25  C   UNL A   1      33.286  34.557  29.012  1.00  0.00     0.021 C 
BRANCH  25  26
ATOM     26  C   UNL A   1      33.551  35.958  29.556  1.00  0.00     0.116 C 
BRANCH  26  27
ATOM     27  N   UNL A   1      32.603  36.331  30.597  1.00  0.00    -0.352 N 
ATOM     28  C   UNL A   1      32.557  35.911  31.905  1.00  0.00     0.251 C 
ATOM     29  H   UNL A   1      31.902  36.968  30.328  1.00  0.00     0.163 HD
ATOM     30  O   UNL A   1      31.587  36.145  32.618  1.00  0.00    -0.269 OA
BRANCH  28  31
ATOM     31  C   UNL A   1      33.701  35.146  32.436  1.00  0.00     0.039 A 
ATOM     32  C   UNL A   1      33.516  33.825  32.846  1.00  0.00     0.014 A 
ATOM     33  C   UNL A   1      34.969  35.732  32.459  1.00  0.00     0.014 A 
ATOM     34  C   UNL A   1      34.626  33.060  33.214  1.00  0.00     0.010 A 
ATOM     35  C   UNL A   1      36.077  34.946  32.745  1.00  0.00     0.010 A 
ATOM     36  C   UNL A   1      35.918  33.604  33.129  1.00  0.00    -0.014 A 
BRANCH  36  37
ATOM     37  C   UNL A   1      37.125  32.809  33.465  1.00  0.00     0.031 A 
ATOM     38  C   UNL A   1      37.867  33.102  34.740  1.00  0.00     0.074 A 
ATOM     39  C   UNL A   1      37.603  31.899  32.595  1.00  0.00     0.049 A 
ATOM     40  N   UNL A   1      39.014  32.632  35.159  1.00  0.00    -0.248 NA
ATOM     41  C   UNL A   1      37.254  34.086  35.649  1.00  0.00     0.031 C 
ATOM     42  C   UNL A   1      37.000  31.556  31.305  1.00  0.00     0.029 A 
ATOM     43  N   UNL A   1      38.723  31.107  32.656  1.00  0.00    -0.354 N 
ATOM     44  C   UNL A   1      39.271  33.283  36.359  1.00  0.00     0.074 A 
ATOM     45  C   UNL A   1      38.190  34.217  36.577  1.00  0.00     0.031 C 
ATOM     46  C   UNL A   1      37.747  30.613  30.706  1.00  0.00     0.029 A 
ATOM     47  C   UNL A   1      38.902  30.313  31.548  1.00  0.00     0.049 A 
ATOM     48  H   UNL A   1      39.340  31.107  33.423  1.00  0.00     0.167 HD
ATOM     49  C   UNL A   1      40.302  33.100  37.216  1.00  0.00     0.037 A 
ATOM     50  C   UNL A   1      39.891  29.452  31.243  1.00  0.00     0.037 A 
ATOM     51  C   UNL A   1      41.351  32.137  37.018  1.00  0.00     0.049 A 
ATOM     52  C   UNL A   1      41.019  29.257  32.220  1.00  0.00     0.074 A 
ATOM     53  C   UNL A   1      42.408  31.830  37.855  1.00  0.00     0.029 A 
ATOM     54  N   UNL A   1      41.468  31.318  35.905  1.00  0.00    -0.354 N 
ATOM     55  N   UNL A   1      41.220  29.836  33.380  1.00  0.00    -0.248 NA
ATOM     56  C   UNL A   1      42.057  28.282  31.852  1.00  0.00     0.031 C 
ATOM     57  C   UNL A   1      43.185  30.849  37.234  1.00  0.00     0.029 A 
ATOM     58  C   UNL A   1      42.585  30.512  36.031  1.00  0.00     0.049 A 
ATOM     59  H   UNL A   1      40.848  31.310  35.141  1.00  0.00     0.167 HD
ATOM     60  C   UNL A   1      42.377  29.269  33.895  1.00  0.00     0.074 A 
ATOM     61  C   UNL A   1      42.835  28.297  32.925  1.00  0.00     0.031 C 
ATOM     62  C   UNL A   1      43.005  29.527  35.068  1.00  0.00     0.037 A 
BRANCH  49  63
ATOM     63  C   UNL A   1      40.339  33.952  38.450  1.00  0.00     0.057 A 
ATOM     64  C   UNL A   1      39.649  33.592  39.616  1.00  0.00     0.134 A 
ATOM     65  C   UNL A   1      41.101  35.125  38.487  1.00  0.00     0.134 A 
ATOM     66  F   UNL A   1      38.889  32.487  39.643  1.00  0.00    -0.206 F 
ATOM     67  C   UNL A   1      39.696  34.383  40.765  1.00  0.00     0.040 A 
ATOM     68  C   UNL A   1      41.180  35.909  39.639  1.00  0.00     0.040 A 
ATOM     69  F   UNL A   1      41.791  35.524  37.407  1.00  0.00    -0.206 F 
ATOM     70  C   UNL A   1      40.470  35.542  40.781  1.00  0.00     0.006 A 
ENDBRANCH  49  63
BRANCH  50  71
ATOM     71  C   UNL A   1      39.858  28.688  29.969  1.00  0.00     0.057 A 
ATOM     72  C   UNL A   1      39.197  27.458  29.883  1.00  0.00     0.134 A 
ATOM     73  C   UNL A   1      40.506  29.152  28.818  1.00  0.00     0.134 A 
ATOM     74  F   UNL A   1      38.573  26.952  30.957  1.00  0.00    -0.206 F 
ATOM     75  C   UNL A   1      39.205  26.701  28.710  1.00  0.00     0.040 A 
ATOM     76  C   UNL A   1      40.500  28.418  27.630  1.00  0.00     0.040 A 
ATOM     77  F   UNL A   1      41.151  30.327  28.829  1.00  0.00    -0.206 F 
ATOM     78  C   UNL A   1      39.856  27.184  27.577  1.00  0.00     0.006 A 
ENDBRANCH  50  71
BRANCH  62  79
ATOM     79  C   UNL A   1      44.215  28.707  35.402  1.00  0.00     0.057 A 
ATOM     80  C   UNL A   1      44.121  27.492  36.091  1.00  0.00     0.134 A 
ATOM     81  C   UNL A   1      45.484  29.111  34.967  1.00  0.00     0.134 A 
ATOM     82  F   UNL A   1      42.936  27.056  36.544  1.00  0.00    -0.206 F 
ATOM     83  C   UNL A   1      45.251  26.714  36.349  1.00  0.00     0.040 A 
ATOM     84  C   UNL A   1      46.616  28.330  35.196  1.00  0.00     0.040 A 
ATOM     85  F   UNL A   1      45.639  30.261  34.293  1.00  0.00    -0.206 F 
ATOM     86  C   UNL A   1      46.501  27.129  35.893  1.00  0.00     0.006 A 
ENDBRANCH  62  79
ENDBRANCH  36  37
ENDBRANCH  28  31
ENDBRANCH  26  27
ENDBRANCH  25  26
ENDBRANCH  24  25
ENDBRANCH  23  24
ENDBRANCH   1  23
TORSDOF 19
ENDMDL
MODEL 2
REMARK VINA RESULT:     -10.0      3.789      8.670
REMARK SMILES CCN(CCC(=O)NCCCCCCNC(=O)c1ccc(-c2c3nc(c(-c4c(F)cccc4F)c4ccc([nH]4)c(-c4c(F)cccc4F)c4nc(c(-c5c(F)cccc5F)c5ccc2[nH]5)C=C4)C=C3)cc1)C(=O)[C@@H]1C=C[C@@H]([NH3+])C1
REMARK SMILES IDX 10 1 9 2 8 3 6 4 7 5 5 7 4 8 3 9 2 10 1 11 72 12 73 13 74 14
REMARK SMILES IDX 75 15 79 16 76 17 77 18 78 19 11 23 12 24 13 25 14 26 15 27
REMARK SMILES IDX 16 28 17 30 18 31 19 32 71 33 20 34 70 35 21 36 22 37 23 38
REMARK SMILES IDX 64 39 24 40 69 41 63 42 65 43 25 44 68 45 62 46 61 47 26 49
REMARK SMILES IDX 52 50 35 51 51 52 36 53 39 54 50 55 66 56 37 57 38 58 49 60
REMARK SMILES IDX 67 61 40 62 27 63 28 64 33 65 29 66 30 67 32 68 34 69 31 70
REMARK SMILES IDX 53 71 54 72 59 73 55 74 56 75 58 76 60 77 57 78 41 79 42 80
REMARK SMILES IDX 47 81 43 82 44 83 46 84 48 85 45 86
REMARK H PARENT 8 6 78 20 78 21 78 22 15 29 65 48 39 59
REMARK Flexibility Score: inf
ROOT
ATOM      1  C   UNL A   1      33.569  20.364  25.365  1.00  0.00     0.021 C 
ENDROOT
BRANCH   1   2
ATOM      2  C   UNL A   1      32.243  21.094  25.148  1.00  0.00     0.116 C 
BRANCH   2   3
ATOM      3  N   UNL A   1      31.891  21.959  26.264  1.00  0.00    -0.356 N 
ATOM      4  C   UNL A   1      31.676  23.303  26.316  1.00  0.00     0.221 C 
ATOM      5  O   UNL A   1      31.482  23.828  27.416  1.00  0.00    -0.275 OA
ATOM      6  H   UNL A   1      31.790  21.495  27.126  1.00  0.00     0.163 HD
BRANCH   4   7
ATOM      7  C   UNL A   1      31.678  24.145  25.065  1.00  0.00     0.121 C 
BRANCH   7   8
ATOM      8  C   UNL A   1      33.083  24.643  24.715  1.00  0.00     0.129 C 
BRANCH   8   9
ATOM      9  N   UNL A   1      33.115  25.952  24.038  1.00  0.00    -0.342 N 
BRANCH   9  10
ATOM     10  C   UNL A   1      32.966  25.867  22.566  1.00  0.00     0.116 C 
ATOM     11  C   UNL A   1      31.664  26.284  21.902  1.00  0.00     0.027 C 
ENDBRANCH   9  10
BRANCH   9  12
ATOM     12  C   UNL A   1      33.395  27.169  24.681  1.00  0.00     0.229 C 
ATOM     13  O   UNL A   1      33.687  28.184  24.038  1.00  0.00    -0.274 OA
BRANCH  12  14
ATOM     14  C   UNL A   1      33.431  27.235  26.231  1.00  0.00     0.107 C 
ATOM     15  C   UNL A   1      32.088  27.518  26.858  1.00  0.00    -0.012 C 
ATOM     16  C   UNL A   1      34.220  28.461  26.703  1.00  0.00     0.087 C 
ATOM     17  C   UNL A   1      31.976  28.790  27.269  1.00  0.00     0.033 C 
ATOM     18  C   UNL A   1      33.190  29.575  26.908  1.00  0.00     0.205 C 
BRANCH  18  19
ATOM     19  N   UNL A   1      33.626  30.513  27.924  1.00  0.00    -0.352 N 
ATOM     20  H   UNL A   1      33.495  31.466  27.586  1.00  0.00     0.345 HD
ATOM     21  H   UNL A   1      34.613  30.356  28.130  1.00  0.00     0.345 HD
ATOM     22  H   UNL A   1      33.076  30.375  28.772  1.00  0.00     0.345 HD
ENDBRANCH  18  19
ENDBRANCH  12  14
ENDBRANCH   9  12
ENDBRANCH   8   9
ENDBRANCH   7   8
ENDBRANCH   4   7
ENDBRANCH   2   3
ENDBRANCH   1   2
BRANCH   1  23
ATOM     23  C   UNL A   1      34.817  21.151  24.949  1.00  0.00     0.002 C 
BRANCH  23  24
ATOM     24  C   UNL A   1      35.643  21.708  26.107  1.00  0.00     0.002 C 
BRANCH  24  25
ATOM     25  C   UNL A   1      35.914  23.212  26.044  1.00  0.00     0.021 C 
BRANCH  25  26
ATOM     26  C   UNL A   1      37.163  23.602  25.258  1.00  0.00     0.116 C 
BRANCH  26  27
ATOM     27  N   UNL A   1      38.286  22.718  25.541  1.00  0.00    -0.352 N 
ATOM     28  C   UNL A   1      39.472  23.014  26.171  1.00  0.00     0.251 C 
ATOM     29  H   UNL A   1      38.184  21.787  25.240  1.00  0.00     0.163 HD
ATOM     30  O   UNL A   1      40.414  22.230  26.162  1.00  0.00    -0.269 OA
BRANCH  28  31
ATOM     31  C   UNL A   1      39.598  24.318  26.849  1.00  0.00     0.039 A 
ATOM     32  C   UNL A   1      39.076  24.480  28.134  1.00  0.00     0.014 A 
ATOM     33  C   UNL A   1      40.297  25.354  26.225  1.00  0.00     0.014 A 
ATOM     34  C   UNL A   1      39.322  25.667  28.828  1.00  0.00     0.010 A 
ATOM     35  C   UNL A   1      40.609  26.498  26.947  1.00  0.00     0.010 A 
ATOM     36  C   UNL A   1      40.122  26.668  28.254  1.00  0.00    -0.014 A 
BRANCH  36  37
ATOM     37  C   UNL A   1      40.445  27.923  28.978  1.00  0.00     0.031 A 
ATOM     38  C   UNL A   1      41.777  28.055  29.665  1.00  0.00     0.074 A 
ATOM     39  C   UNL A   1      39.521  28.896  29.095  1.00  0.00     0.049 A 
ATOM     40  N   UNL A   1      42.208  28.996  30.464  1.00  0.00    -0.248 NA
ATOM     41  C   UNL A   1      42.739  26.960  29.453  1.00  0.00     0.031 C 
ATOM     42  C   UNL A   1      38.177  28.869  28.514  1.00  0.00     0.029 A 
ATOM     43  N   UNL A   1      39.566  30.095  29.764  1.00  0.00    -0.354 N 
ATOM     44  C   UNL A   1      43.473  28.592  30.872  1.00  0.00     0.074 A 
ATOM     45  C   UNL A   1      43.720  27.299  30.275  1.00  0.00     0.031 C 
ATOM     46  C   UNL A   1      37.533  30.003  28.837  1.00  0.00     0.029 A 
ATOM     47  C   UNL A   1      38.401  30.820  29.681  1.00  0.00     0.049 A 
ATOM     48  H   UNL A   1      40.360  30.406  30.257  1.00  0.00     0.167 HD
ATOM     49  C   UNL A   1      44.360  29.252  31.653  1.00  0.00     0.037 A 
ATOM     50  C   UNL A   1      38.069  32.002  30.233  1.00  0.00     0.037 A 
ATOM     51  C   UNL A   1      44.128  30.558  32.207  1.00  0.00     0.049 A 
ATOM     52  C   UNL A   1      39.079  32.722  31.086  1.00  0.00     0.074 A 
ATOM     53  C   UNL A   1      44.986  31.339  32.960  1.00  0.00     0.029 A 
ATOM     54  N   UNL A   1      42.953  31.279  32.057  1.00  0.00    -0.354 N 
ATOM     55  N   UNL A   1      40.295  32.355  31.416  1.00  0.00    -0.248 NA
ATOM     56  C   UNL A   1      38.677  34.023  31.640  1.00  0.00     0.031 C 
ATOM     57  C   UNL A   1      44.318  32.519  33.297  1.00  0.00     0.029 A 
ATOM     58  C   UNL A   1      43.060  32.493  32.713  1.00  0.00     0.049 A 
ATOM     59  H   UNL A   1      42.162  30.973  31.559  1.00  0.00     0.167 HD
ATOM     60  C   UNL A   1      40.813  33.395  32.176  1.00  0.00     0.074 A 
ATOM     61  C   UNL A   1      39.783  34.408  32.258  1.00  0.00     0.031 C 
ATOM     62  C   UNL A   1      42.034  33.502  32.754  1.00  0.00     0.037 A 
BRANCH  49  63
ATOM     63  C   UNL A   1      45.666  28.574  31.944  1.00  0.00     0.057 A 
ATOM     64  C   UNL A   1      46.787  28.748  31.121  1.00  0.00     0.134 A 
ATOM     65  C   UNL A   1      45.817  27.770  33.079  1.00  0.00     0.134 A 
ATOM     66  F   UNL A   1      46.706  29.496  30.010  1.00  0.00    -0.206 F 
ATOM     67  C   UNL A   1      48.003  28.124  31.403  1.00  0.00     0.040 A 
ATOM     68  C   UNL A   1      47.036  27.164  33.388  1.00  0.00     0.040 A 
ATOM     69  F   UNL A   1      44.785  27.567  33.913  1.00  0.00    -0.206 F 
ATOM     70  C   UNL A   1      48.132  27.335  32.545  1.00  0.00     0.006 A 
ENDBRANCH  49  63
BRANCH  50  71
ATOM     71  C   UNL A   1      36.731  32.599  29.986  1.00  0.00     0.057 A 
ATOM     72  C   UNL A   1      36.525  33.496  28.931  1.00  0.00     0.134 A 
ATOM     73  C   UNL A   1      35.636  32.313  30.810  1.00  0.00     0.134 A 
ATOM     74  F   UNL A   1      37.540  33.824  28.118  1.00  0.00    -0.206 F 
ATOM     75  C   UNL A   1      35.290  34.109  28.720  1.00  0.00     0.040 A 
ATOM     76  C   UNL A   1      34.386  32.899  30.594  1.00  0.00     0.040 A 
ATOM     77  F   UNL A   1      35.762  31.456  31.833  1.00  0.00    -0.206 F 
ATOM     78  C   UNL A   1      34.214  33.808  29.552  1.00  0.00     0.006 A 
ENDBRANCH  50  71
BRANCH  62  79
ATOM     79  C   UNL A   1      42.353  34.780  33.470  1.00  0.00     0.057 A 
ATOM     80  C   UNL A   1      42.128  34.939  34.842  1.00  0.00     0.134 A 
ATOM     81  C   UNL A   1      42.956  35.843  32.783  1.00  0.00     0.134 A 
ATOM     82  F   UNL A   1      41.544  33.964  35.554  1.00  0.00    -0.206 F 
ATOM     83  C   UNL A   1      42.479  36.117  35.504  1.00  0.00     0.040 A 
ATOM     84  C   UNL A   1      43.334  37.014  33.439  1.00  0.00     0.040 A 
ATOM     85  F   UNL A   1      43.207  35.749  31.468  1.00  0.00    -0.206 F 
ATOM     86  C   UNL A   1      43.092  37.155  34.803  1.00  0.00     0.006 A 
ENDBRANCH  62  79
ENDBRANCH  36  37
ENDBRANCH  28  31
ENDBRANCH  26  27
ENDBRANCH  25  26
ENDBRANCH  24  25
ENDBRANCH  23  24
ENDBRANCH   1  23
TORSDOF 19
ENDMDL
MODEL 3
REMARK VINA RESULT:      -9.9      1.755      2.691
REMARK SMILES CCN(CCC(=O)NCCCCCCNC(=O)c1ccc(-c2c3nc(c(-c4c(F)cccc4F)c4ccc([nH]4)c(-c4c(F)cccc4F)c4nc(c(-c5c(F)cccc5F)c5ccc2[nH]5)C=C4)C=C3)cc1)C(=O)[C@@H]1C=C[C@@H]([NH3+])C1
REMARK SMILES IDX 10 1 9 2 8 3 6 4 7 5 5 7 4 8 3 9 2 10 1 11 72 12 73 13 74 14
REMARK SMILES IDX 75 15 79 16 76 17 77 18 78 19 11 23 12 24 13 25 14 26 15 27
REMARK SMILES IDX 16 28 17 30 18 31 19 32 71 33 20 34 70 35 21 36 22 37 23 38
REMARK SMILES IDX 64 39 24 40 69 41 63 42 65 43 25 44 68 45 62 46 61 47 26 49
REMARK SMILES IDX 52 50 35 51 51 52 36 53 39 54 50 55 66 56 37 57 38 58 49 60
REMARK SMILES IDX 67 61 40 62 27 63 28 64 33 65 29 66 30 67 32 68 34 69 31 70
REMARK SMILES IDX 53 71 54 72 59 73 55 74 56 75 58 76 60 77 57 78 41 79 42 80
REMARK SMILES IDX 47 81 43 82 44 83 46 84 48 85 45 86
REMARK H PARENT 8 6 78 20 78 21 78 22 15 29 65 48 39 59
REMARK Flexibility Score: inf
ROOT
ATOM      1  C   UNL A   1      32.870  28.495  27.204  1.00  0.00     0.021 C 
ENDROOT
BRANCH   1   2
ATOM      2  C   UNL A   1      31.471  27.888  27.303  1.00  0.00     0.116 C 
BRANCH   2   3
ATOM      3  N   UNL A   1      31.431  26.498  26.874  1.00  0.00    -0.356 N 
ATOM      4  C   UNL A   1      30.804  25.908  25.818  1.00  0.00     0.221 C 
ATOM      5  O   UNL A   1      30.841  24.679  25.721  1.00  0.00    -0.275 OA
ATOM      6  H   UNL A   1      31.944  25.880  27.442  1.00  0.00     0.163 HD
BRANCH   4   7
ATOM      7  C   UNL A   1      30.070  26.728  24.787  1.00  0.00     0.121 C 
BRANCH   7   8
ATOM      8  C   UNL A   1      30.935  27.000  23.553  1.00  0.00     0.129 C 
BRANCH   8   9
ATOM      9  N   UNL A   1      31.057  28.426  23.195  1.00  0.00    -0.342 N 
BRANCH   9  10
ATOM     10  C   UNL A   1      32.359  29.026  23.568  1.00  0.00     0.116 C 
ATOM     11  C   UNL A   1      33.656  28.309  23.234  1.00  0.00     0.027 C 
ENDBRANCH   9  10
BRANCH   9  12
ATOM     12  C   UNL A   1      30.009  29.203  22.675  1.00  0.00     0.229 C 
ATOM     13  O   UNL A   1      29.828  29.304  21.456  1.00  0.00    -0.274 OA
BRANCH  12  14
ATOM     14  C   UNL A   1      29.109  30.029  23.632  1.00  0.00     0.107 C 
ATOM     15  C   UNL A   1      27.733  30.310  23.079  1.00  0.00    -0.012 C 
ATOM     16  C   UNL A   1      29.644  31.458  23.780  1.00  0.00     0.087 C 
ATOM     17  C   UNL A   1      27.613  31.568  22.628  1.00  0.00     0.033 C 
ATOM     18  C   UNL A   1      28.908  32.298  22.733  1.00  0.00     0.205 C 
BRANCH  18  19
ATOM     19  N   UNL A   1      28.790  33.679  23.155  1.00  0.00    -0.352 N 
ATOM     20  H   UNL A   1      29.636  33.956  23.653  1.00  0.00     0.345 HD
ATOM     21  H   UNL A   1      27.983  33.778  23.772  1.00  0.00     0.345 HD
ATOM     22  H   UNL A   1      28.666  34.275  22.337  1.00  0.00     0.345 HD
ENDBRANCH  18  19
ENDBRANCH  12  14
ENDBRANCH   9  12
ENDBRANCH   8   9
ENDBRANCH   7   8
ENDBRANCH   4   7
ENDBRANCH   2   3
ENDBRANCH   1   2
BRANCH   1  23
ATOM     23  C   UNL A   1      32.911  30.027  27.177  1.00  0.00     0.002 C 
BRANCH  23  24
ATOM     24  C   UNL A   1      31.618  30.698  26.717  1.00  0.00     0.002 C 
BRANCH  24  25
ATOM     25  C   UNL A   1      31.578  32.217  26.894  1.00  0.00     0.021 C 
BRANCH  25  26
ATOM     26  C   UNL A   1      32.911  32.847  27.284  1.00  0.00     0.116 C 
BRANCH  26  27
ATOM     27  N   UNL A   1      32.758  34.231  27.715  1.00  0.00    -0.352 N 
ATOM     28  C   UNL A   1      33.364  34.872  28.769  1.00  0.00     0.251 C 
ATOM     29  H   UNL A   1      32.140  34.779  27.180  1.00  0.00     0.163 HD
ATOM     30  O   UNL A   1      32.993  35.979  29.143  1.00  0.00    -0.269 OA
BRANCH  28  31
ATOM     31  C   UNL A   1      34.470  34.187  29.464  1.00  0.00     0.039 A 
ATOM     32  C   UNL A   1      34.185  33.198  30.407  1.00  0.00     0.014 A 
ATOM     33  C   UNL A   1      35.791  34.489  29.122  1.00  0.00     0.014 A 
ATOM     34  C   UNL A   1      35.230  32.454  30.957  1.00  0.00     0.010 A 
ATOM     35  C   UNL A   1      36.819  33.694  29.608  1.00  0.00     0.010 A 
ATOM     36  C   UNL A   1      36.551  32.670  30.533  1.00  0.00    -0.014 A 
BRANCH  36  37
ATOM     37  C   UNL A   1      37.684  31.869  31.059  1.00  0.00     0.031 A 
ATOM     38  C   UNL A   1      38.247  32.192  32.415  1.00  0.00     0.074 A 
ATOM     39  C   UNL A   1      38.261  30.923  30.292  1.00  0.00     0.049 A 
ATOM     40  N   UNL A   1      39.314  31.718  33.005  1.00  0.00    -0.248 NA
ATOM     41  C   UNL A   1      37.533  33.215  33.198  1.00  0.00     0.031 C 
ATOM     42  C   UNL A   1      37.836  30.546  28.941  1.00  0.00     0.029 A 
ATOM     43  N   UNL A   1      39.344  30.115  30.533  1.00  0.00    -0.354 N 
ATOM     44  C   UNL A   1      39.415  32.405  34.208  1.00  0.00     0.074 A 
ATOM     45  C   UNL A   1      38.333  33.362  34.244  1.00  0.00     0.031 C 
ATOM     46  C   UNL A   1      38.640  29.573  28.482  1.00  0.00     0.029 A 
ATOM     47  C   UNL A   1      39.660  29.283  29.486  1.00  0.00     0.049 A 
ATOM     48  H   UNL A   1      39.849  30.132  31.379  1.00  0.00     0.167 HD
ATOM     49  C   UNL A   1      40.313  32.233  35.206  1.00  0.00     0.037 A 
ATOM     50  C   UNL A   1      40.665  28.397  29.348  1.00  0.00     0.037 A 
ATOM     51  C   UNL A   1      41.360  31.249  35.186  1.00  0.00     0.049 A 
ATOM     52  C   UNL A   1      41.642  28.217  30.479  1.00  0.00     0.074 A 
ATOM     53  C   UNL A   1      42.284  30.953  36.172  1.00  0.00     0.029 A 
ATOM     54  N   UNL A   1      41.614  30.391  34.127  1.00  0.00    -0.354 N 
ATOM     55  N   UNL A   1      41.691  28.831  31.637  1.00  0.00    -0.248 NA
ATOM     56  C   UNL A   1      42.701  27.214  30.290  1.00  0.00     0.031 C 
ATOM     57  C   UNL A   1      43.120  29.940  35.696  1.00  0.00     0.029 A 
ATOM     58  C   UNL A   1      42.687  29.573  34.431  1.00  0.00     0.049 A 
ATOM     59  H   UNL A   1      41.106  30.368  33.284  1.00  0.00     0.167 HD
ATOM     60  C   UNL A   1      42.753  28.263  32.326  1.00  0.00     0.074 A 
ATOM     61  C   UNL A   1      43.322  27.253  31.460  1.00  0.00     0.031 C 
ATOM     62  C   UNL A   1      43.217  28.550  33.567  1.00  0.00     0.037 A 
BRANCH  49  63
ATOM     63  C   UNL A   1      40.195  33.125  36.407  1.00  0.00     0.057 A 
ATOM     64  C   UNL A   1      39.302  32.844  37.449  1.00  0.00     0.134 A 
ATOM     65  C   UNL A   1      41.007  34.257  36.540  1.00  0.00     0.134 A 
ATOM     66  F   UNL A   1      38.485  31.782  37.377  1.00  0.00    -0.206 F 
ATOM     67  C   UNL A   1      39.203  33.671  38.569  1.00  0.00     0.040 A 
ATOM     68  C   UNL A   1      40.940  35.075  37.668  1.00  0.00     0.040 A 
ATOM     69  F   UNL A   1      41.889  34.581  35.581  1.00  0.00    -0.206 F 
ATOM     70  C   UNL A   1      40.031  34.787  38.685  1.00  0.00     0.006 A 
ENDBRANCH  49  63
BRANCH  50  71
ATOM     71  C   UNL A   1      40.794  27.592  28.106  1.00  0.00     0.057 A 
ATOM     72  C   UNL A   1      40.215  26.322  28.007  1.00  0.00     0.134 A 
ATOM     73  C   UNL A   1      41.520  28.057  27.003  1.00  0.00     0.134 A 
ATOM     74  F   UNL A   1      39.523  25.814  29.037  1.00  0.00    -0.206 F 
ATOM     75  C   UNL A   1      40.375  25.530  26.869  1.00  0.00     0.040 A 
ATOM     76  C   UNL A   1      41.666  27.286  25.847  1.00  0.00     0.040 A 
ATOM     77  F   UNL A   1      42.093  29.268  27.029  1.00  0.00    -0.206 F 
ATOM     78  C   UNL A   1      41.101  26.014  25.783  1.00  0.00     0.006 A 
ENDBRANCH  50  71
BRANCH  62  79
ATOM     79  C   UNL A   1      44.351  27.723  34.092  1.00  0.00     0.057 A 
ATOM     80  C   UNL A   1      45.679  28.166  34.041  1.00  0.00     0.134 A 
ATOM     81  C   UNL A   1      44.100  26.495  34.718  1.00  0.00     0.134 A 
ATOM     82  F   UNL A   1      45.987  29.327  33.445  1.00  0.00    -0.206 F 
ATOM     83  C   UNL A   1      46.718  27.408  34.582  1.00  0.00     0.040 A 
ATOM     84  C   UNL A   1      45.127  25.742  35.284  1.00  0.00     0.040 A 
ATOM     85  F   UNL A   1      42.848  26.021  34.808  1.00  0.00    -0.206 F 
ATOM     86  C   UNL A   1      46.442  26.196  35.213  1.00  0.00     0.006 A 
ENDBRANCH  62  79
ENDBRANCH  36  37
ENDBRANCH  28  31
ENDBRANCH  26  27
ENDBRANCH  25  26
ENDBRANCH  24  25
ENDBRANCH  23  24
ENDBRANCH   1  23
TORSDOF 19
ENDMDL
