MODEL 1
REMARK VINA RESULT:     -13.4      0.000      0.000
REMARK SMILES Cc1cc(/C=C2/C(=O)NC(=S)[NH+]=C2NCCCCCCNC(=O)c2ccc(-c3c4nc(c(-c5c(F)cccc5F)c5ccc([nH]5)c(-c5c(F)cccc5F)c5nc(c(-c6c(F)cccc6F)c6ccc3[nH]6)C=C5)C=C4)cc2)c(C)n1-c1cccc(C(=O)[O-])c1
REMARK SMILES IDX 17 1 16 2 15 3 14 4 5 5 6 6 7 7 13 8 8 9 9 10 12 11 10 12
REMARK SMILES IDX 11 16 4 17 1 18 2 19 3 20 80 21 78 22 79 23 81 24 82 25
REMARK SMILES IDX 89 26 83 27 85 28 84 29 86 30 87 31 88 32 18 33 19 34 20 35
REMARK SMILES IDX 21 36 22 37 23 39 24 40 25 41 77 42 26 43 76 44 27 45 28 46
REMARK SMILES IDX 29 47 70 48 30 49 75 50 69 51 71 52 31 53 74 54 68 55 67 56
REMARK SMILES IDX 32 58 58 59 41 60 57 61 42 62 45 63 56 64 72 65 43 66 44 67
REMARK SMILES IDX 55 69 73 70 46 71 33 72 34 73 39 74 35 75 36 76 38 77 40 78
REMARK SMILES IDX 37 79 59 80 60 81 65 82 61 83 62 84 64 85 66 86 63 87 47 88
REMARK SMILES IDX 48 89 53 90 49 91 50 92 52 93 54 94 51 95
REMARK H PARENT 9 13 12 14 14 15 21 38 71 57 45 68
REMARK Flexibility Score: inf
ROOT
ATOM      1  C   UNL A   1      42.468  37.663  26.976  1.00  0.00     0.003 C 
ENDROOT
BRANCH   1   2
ATOM      2  C   UNL A   1      43.599  38.737  26.931  1.00  0.00     0.037 C 
BRANCH   2   3
ATOM      3  C   UNL A   1      43.520  40.160  26.362  1.00  0.00     0.194 C 
BRANCH   3   4
ATOM      4  N   UNL A   1      43.114  41.241  27.229  1.00  0.00    -0.305 N 
ATOM      5  C   UNL A   1      46.266  41.782  27.737  1.00  0.00     0.032 C 
ATOM      6  C   UNL A   1      45.273  41.528  28.614  1.00  0.00     0.128 C 
ATOM      7  C   UNL A   1      45.737  41.258  29.999  1.00  0.00     0.319 C 
ATOM      8  C   UNL A   1      43.780  41.505  28.417  1.00  0.00     0.234 C 
ATOM      9  O   UNL A   1      46.869  40.885  30.289  1.00  0.00    -0.250 OA
ATOM     10  N   UNL A   1      44.789  41.475  30.951  1.00  0.00    -0.229 N 
ATOM     11  N   UNL A   1      42.985  41.693  29.439  1.00  0.00    -0.236 N 
ATOM     12  C   UNL A   1      43.480  41.793  30.712  1.00  0.00     0.295 C 
ATOM     13  H   UNL A   1      45.069  41.397  31.890  1.00  0.00     0.268 HD
ATOM     14  H   UNL A   1      42.014  41.762  29.290  1.00  0.00     0.268 HD
ATOM     15  H   UNL A   1      42.349  41.803  26.972  1.00  0.00     0.256 HD
ATOM     16  S   UNL A   1      42.538  42.191  32.043  1.00  0.00    -0.005 S 
BRANCH   5  17
ATOM     17  C   UNL A   1      46.221  42.021  26.333  1.00  0.00    -0.003 A 
ATOM     18  C   UNL A   1      46.967  41.119  22.835  1.00  0.00     0.065 C 
ATOM     19  C   UNL A   1      46.449  41.589  24.139  1.00  0.00     0.020 A 
ATOM     20  C   UNL A   1      46.848  41.180  25.390  1.00  0.00     0.031 A 
ATOM     21  N   UNL A   1      45.522  42.597  24.311  1.00  0.00    -0.318 N 
ATOM     22  C   UNL A   1      45.620  43.055  25.631  1.00  0.00     0.027 A 
ATOM     23  C   UNL A   1      45.022  44.325  26.149  1.00  0.00     0.065 C 
BRANCH  21  24
ATOM     24  C   UNL A   1      44.578  43.032  23.353  1.00  0.00     0.046 A 
ATOM     25  C   UNL A   1      42.870  42.519  23.586  1.00  0.00     0.026 A 
ATOM     26  C   UNL A   1      45.085  43.829  21.791  1.00  0.00     0.036 A 
ATOM     27  C   UNL A   1      41.694  42.778  22.278  1.00  0.00     0.003 A 
ATOM     28  C   UNL A   1      43.847  44.075  20.473  1.00  0.00    -0.001 A 
ATOM     29  C   UNL A   1      42.155  43.548  20.729  1.00  0.00     0.010 A 
BRANCH  28  30
ATOM     30  C   UNL A   1      44.088  44.733  19.189  1.00  0.00     0.072 C 
ATOM     31  O   UNL A   1      44.143  45.938  19.030  1.00  0.00    -0.545 OA
ATOM     32  O   UNL A   1      44.335  43.856  18.212  1.00  0.00    -0.545 OA
ENDBRANCH  28  30
ENDBRANCH  21  24
ENDBRANCH   5  17
ENDBRANCH   3   4
ENDBRANCH   2   3
ENDBRANCH   1   2
BRANCH   1  33
ATOM     33  C   UNL A   1      42.422  35.940  26.468  1.00  0.00     0.002 C 
BRANCH  33  34
ATOM     34  C   UNL A   1      43.542  34.652  25.121  1.00  0.00     0.021 C 
BRANCH  34  35
ATOM     35  C   UNL A   1      45.333  34.403  24.789  1.00  0.00     0.116 C 
BRANCH  35  36
ATOM     36  N   UNL A   1      46.376  35.292  25.283  1.00  0.00    -0.352 N 
ATOM     37  C   UNL A   1      46.593  35.804  26.585  1.00  0.00     0.251 C 
ATOM     38  H   UNL A   1      47.032  35.581  24.608  1.00  0.00     0.163 HD
ATOM     39  O   UNL A   1      47.458  36.681  26.677  1.00  0.00    -0.269 OA
BRANCH  37  40
ATOM     40  C   UNL A   1      45.841  35.417  27.890  1.00  0.00     0.039 A 
ATOM     41  C   UNL A   1      45.249  34.167  28.036  1.00  0.00     0.014 A 
ATOM     42  C   UNL A   1      45.332  36.365  28.815  1.00  0.00     0.014 A 
ATOM     43  C   UNL A   1      44.292  33.872  29.109  1.00  0.00     0.010 A 
ATOM     44  C   UNL A   1      44.300  36.077  29.869  1.00  0.00     0.010 A 
ATOM     45  C   UNL A   1      43.725  34.801  30.077  1.00  0.00    -0.014 A 
BRANCH  45  46
ATOM     46  C   UNL A   1      42.198  34.398  30.742  1.00  0.00     0.031 A 
ATOM     47  C   UNL A   1      42.673  33.640  31.931  1.00  0.00     0.074 A 
ATOM     48  C   UNL A   1      40.779  34.328  30.602  1.00  0.00     0.049 A 
ATOM     49  N   UNL A   1      43.465  32.626  31.718  1.00  0.00    -0.248 NA
ATOM     50  C   UNL A   1      42.707  34.166  33.294  1.00  0.00     0.031 C 
ATOM     51  C   UNL A   1      39.940  34.657  29.426  1.00  0.00     0.029 A 
ATOM     52  N   UNL A   1      39.690  33.920  31.501  1.00  0.00    -0.354 N 
ATOM     53  C   UNL A   1      43.845  32.169  32.948  1.00  0.00     0.074 A 
ATOM     54  C   UNL A   1      43.566  33.293  33.837  1.00  0.00     0.031 C 
ATOM     55  C   UNL A   1      38.593  34.618  29.693  1.00  0.00     0.029 A 
ATOM     56  C   UNL A   1      38.309  34.196  31.070  1.00  0.00     0.049 A 
ATOM     57  H   UNL A   1      39.878  33.478  32.361  1.00  0.00     0.167 HD
ATOM     58  C   UNL A   1      43.586  30.842  33.134  1.00  0.00     0.037 A 
ATOM     59  C   UNL A   1      37.046  34.016  31.692  1.00  0.00     0.037 A 
ATOM     60  C   UNL A   1      42.363  30.646  33.862  1.00  0.00     0.049 A 
ATOM     61  C   UNL A   1      37.227  32.877  32.593  1.00  0.00     0.074 A 
ATOM     62  C   UNL A   1      41.802  31.296  34.944  1.00  0.00     0.029 A 
ATOM     63  N   UNL A   1      41.332  30.021  33.200  1.00  0.00    -0.354 N 
ATOM     64  N   UNL A   1      37.226  31.662  32.142  1.00  0.00    -0.248 NA
ATOM     65  C   UNL A   1      37.268  33.015  34.043  1.00  0.00     0.031 C 
ATOM     66  C   UNL A   1      40.463  31.508  34.562  1.00  0.00     0.029 A 
ATOM     67  C   UNL A   1      40.141  30.606  33.558  1.00  0.00     0.049 A 
ATOM     68  H   UNL A   1      41.431  29.273  32.567  1.00  0.00     0.167 HD
ATOM     69  C   UNL A   1      37.838  30.983  33.140  1.00  0.00     0.074 A 
ATOM     70  C   UNL A   1      37.580  31.754  34.346  1.00  0.00     0.031 C 
ATOM     71  C   UNL A   1      38.969  30.340  32.766  1.00  0.00     0.037 A 
BRANCH  58  72
ATOM     72  C   UNL A   1      44.029  30.000  31.961  1.00  0.00     0.057 A 
ATOM     73  C   UNL A   1      45.252  29.334  32.026  1.00  0.00     0.134 A 
ATOM     74  C   UNL A   1      43.362  29.985  30.715  1.00  0.00     0.134 A 
ATOM     75  F   UNL A   1      45.921  29.263  33.186  1.00  0.00    -0.206 F 
ATOM     76  C   UNL A   1      45.820  28.739  30.894  1.00  0.00     0.040 A 
ATOM     77  C   UNL A   1      43.946  29.451  29.567  1.00  0.00     0.040 A 
ATOM     78  F   UNL A   1      42.134  30.512  30.581  1.00  0.00    -0.206 F 
ATOM     79  C   UNL A   1      45.187  28.831  29.654  1.00  0.00     0.006 A 
ENDBRANCH  58  72
BRANCH  59  80
ATOM     80  C   UNL A   1      35.471  34.318  31.702  1.00  0.00     0.057 A 
ATOM     81  C   UNL A   1      34.861  35.210  32.672  1.00  0.00     0.134 A 
ATOM     82  C   UNL A   1      34.642  34.139  30.588  1.00  0.00     0.134 A 
ATOM     83  F   UNL A   1      35.445  35.489  33.847  1.00  0.00    -0.206 F 
ATOM     84  C   UNL A   1      33.654  35.928  32.491  1.00  0.00     0.040 A 
ATOM     85  C   UNL A   1      33.398  34.832  30.411  1.00  0.00     0.040 A 
ATOM     86  F   UNL A   1      35.031  33.345  29.584  1.00  0.00    -0.206 F 
ATOM     87  C   UNL A   1      32.921  35.759  31.338  1.00  0.00     0.006 A 
ENDBRANCH  59  80
BRANCH  71  88
ATOM     88  C   UNL A   1      38.931  29.552  31.468  1.00  0.00     0.057 A 
ATOM     89  C   UNL A   1      38.990  30.055  30.147  1.00  0.00     0.134 A 
ATOM     90  C   UNL A   1      38.756  28.166  31.572  1.00  0.00     0.134 A 
ATOM     91  F   UNL A   1      39.257  31.338  29.869  1.00  0.00    -0.206 F 
ATOM     92  C   UNL A   1      38.804  29.234  29.025  1.00  0.00     0.040 A 
ATOM     93  C   UNL A   1      38.630  27.331  30.459  1.00  0.00     0.040 A 
ATOM     94  F   UNL A   1      38.720  27.583  32.780  1.00  0.00    -0.206 F 
ATOM     95  C   UNL A   1      38.627  27.867  29.178  1.00  0.00     0.006 A 
ENDBRANCH  71  88
ENDBRANCH  45  46
ENDBRANCH  37  40
ENDBRANCH  35  36
ENDBRANCH  34  35
ENDBRANCH  33  34
ENDBRANCH   1  33
TORSDOF 15
ENDMDL
MODEL 2
REMARK VINA RESULT:     -13.2      8.155     15.049
REMARK SMILES Cc1cc(/C=C2/C(=O)NC(=S)[NH+]=C2NCCCCCCNC(=O)c2ccc(-c3c4nc(c(-c5c(F)cccc5F)c5ccc([nH]5)c(-c5c(F)cccc5F)c5nc(c(-c6c(F)cccc6F)c6ccc3[nH]6)C=C5)C=C4)cc2)c(C)n1-c1cccc(C(=O)[O-])c1
REMARK SMILES IDX 17 1 16 2 15 3 14 4 5 5 6 6 7 7 13 8 8 9 9 10 12 11 10 12
REMARK SMILES IDX 11 16 4 17 1 18 2 19 3 20 80 21 78 22 79 23 81 24 82 25
REMARK SMILES IDX 89 26 83 27 85 28 84 29 86 30 87 31 88 32 18 33 19 34 20 35
REMARK SMILES IDX 21 36 22 37 23 39 24 40 25 41 77 42 26 43 76 44 27 45 28 46
REMARK SMILES IDX 29 47 70 48 30 49 75 50 69 51 71 52 31 53 74 54 68 55 67 56
REMARK SMILES IDX 32 58 58 59 41 60 57 61 42 62 45 63 56 64 72 65 43 66 44 67
REMARK SMILES IDX 55 69 73 70 46 71 33 72 34 73 39 74 35 75 36 76 38 77 40 78
REMARK SMILES IDX 37 79 59 80 60 81 65 82 61 83 62 84 64 85 66 86 63 87 47 88
REMARK SMILES IDX 48 89 53 90 49 91 50 92 52 93 54 94 51 95
REMARK H PARENT 9 13 12 14 14 15 21 38 71 57 45 68
REMARK Flexibility Score: inf
ROOT
ATOM      1  C   UNL A   1      37.432  22.820  24.704  1.00  0.00     0.003 C 
ENDROOT
BRANCH   1   2
ATOM      2  C   UNL A   1      36.376  22.819  23.555  1.00  0.00     0.037 C 
BRANCH   2   3
ATOM      3  C   UNL A   1      34.915  23.286  23.621  1.00  0.00     0.194 C 
BRANCH   3   4
ATOM      4  N   UNL A   1      34.402  23.812  24.864  1.00  0.00    -0.305 N 
ATOM      5  C   UNL A   1      31.557  24.127  23.350  1.00  0.00     0.032 C 
ATOM      6  C   UNL A   1      32.311  25.046  23.988  1.00  0.00     0.128 C 
ATOM      7  C   UNL A   1      31.862  26.448  23.790  1.00  0.00     0.319 C 
ATOM      8  C   UNL A   1      33.507  24.872  24.886  1.00  0.00     0.234 C 
ATOM      9  O   UNL A   1      31.168  26.825  22.852  1.00  0.00    -0.250 OA
ATOM     10  N   UNL A   1      32.278  27.303  24.763  1.00  0.00    -0.229 N 
ATOM     11  N   UNL A   1      33.811  25.803  25.755  1.00  0.00    -0.236 N 
ATOM     12  C   UNL A   1      33.132  26.992  25.785  1.00  0.00     0.295 C 
ATOM     13  H   UNL A   1      31.936  28.225  24.727  1.00  0.00     0.268 HD
ATOM     14  H   UNL A   1      34.541  25.646  26.396  1.00  0.00     0.268 HD
ATOM     15  H   UNL A   1      34.692  23.410  25.713  1.00  0.00     0.256 HD
ATOM     16  S   UNL A   1      33.362  28.159  26.968  1.00  0.00    -0.005 S 
BRANCH   5  17
ATOM     17  C   UNL A   1      31.707  22.713  23.253  1.00  0.00    -0.003 A 
ATOM     18  C   UNL A   1      32.160  19.595  21.335  1.00  0.00     0.065 C 
ATOM     19  C   UNL A   1      32.120  20.724  22.291  1.00  0.00     0.020 A 
ATOM     20  C   UNL A   1      31.791  22.032  22.021  1.00  0.00     0.031 A 
ATOM     21  N   UNL A   1      32.328  20.624  23.652  1.00  0.00    -0.318 N 
ATOM     22  C   UNL A   1      31.779  21.760  24.259  1.00  0.00     0.027 A 
ATOM     23  C   UNL A   1      31.516  21.913  25.723  1.00  0.00     0.065 C 
BRANCH  21  24
ATOM     24  C   UNL A   1      33.046  19.601  24.311  1.00  0.00     0.046 A 
ATOM     25  C   UNL A   1      34.827  19.801  24.451  1.00  0.00     0.026 A 
ATOM     26  C   UNL A   1      32.271  18.006  24.749  1.00  0.00     0.036 A 
ATOM     27  C   UNL A   1      35.820  18.431  24.999  1.00  0.00     0.003 A 
ATOM     28  C   UNL A   1      33.326  16.625  25.306  1.00  0.00    -0.001 A 
ATOM     29  C   UNL A   1      35.098  16.851  25.429  1.00  0.00     0.010 A 
BRANCH  28  30
ATOM     30  C   UNL A   1      32.853  15.308  25.730  1.00  0.00     0.072 C 
ATOM     31  O   UNL A   1      31.782  15.099  26.267  1.00  0.00    -0.545 OA
ATOM     32  O   UNL A   1      33.695  14.333  25.378  1.00  0.00    -0.545 OA
ENDBRANCH  28  30
ENDBRANCH  21  24
ENDBRANCH   5  17
ENDBRANCH   3   4
ENDBRANCH   2   3
ENDBRANCH   1   2
BRANCH   1  33
ATOM     33  C   UNL A   1      38.459  21.518  25.398  1.00  0.00     0.002 C 
BRANCH  33  34
ATOM     34  C   UNL A   1      40.099  21.376  26.818  1.00  0.00     0.021 C 
BRANCH  34  35
ATOM     35  C   UNL A   1      41.905  21.074  26.654  1.00  0.00     0.116 C 
BRANCH  35  36
ATOM     36  N   UNL A   1      42.666  21.367  25.447  1.00  0.00    -0.352 N 
ATOM     37  C   UNL A   1      43.233  22.584  25.003  1.00  0.00     0.251 C 
ATOM     38  H   UNL A   1      42.807  20.598  24.847  1.00  0.00     0.163 HD
ATOM     39  O   UNL A   1      43.675  22.579  23.848  1.00  0.00    -0.269 OA
BRANCH  37  40
ATOM     40  C   UNL A   1      43.323  23.925  25.784  1.00  0.00     0.039 A 
ATOM     41  C   UNL A   1      42.814  24.044  27.072  1.00  0.00     0.014 A 
ATOM     42  C   UNL A   1      43.512  25.188  25.162  1.00  0.00     0.014 A 
ATOM     43  C   UNL A   1      42.612  25.345  27.721  1.00  0.00     0.010 A 
ATOM     44  C   UNL A   1      43.238  26.518  25.805  1.00  0.00     0.010 A 
ATOM     45  C   UNL A   1      42.776  26.668  27.134  1.00  0.00    -0.014 A 
BRANCH  45  46
ATOM     46  C   UNL A   1      41.866  27.945  27.825  1.00  0.00     0.031 A 
ATOM     47  C   UNL A   1      42.950  28.961  27.910  1.00  0.00     0.074 A 
ATOM     48  C   UNL A   1      40.668  28.396  28.456  1.00  0.00     0.049 A 
ATOM     49  N   UNL A   1      44.027  28.634  28.568  1.00  0.00    -0.248 NA
ATOM     50  C   UNL A   1      43.114  30.081  26.986  1.00  0.00     0.031 C 
ATOM     51  C   UNL A   1      39.482  27.612  28.873  1.00  0.00     0.029 A 
ATOM     52  N   UNL A   1      40.194  29.710  28.912  1.00  0.00    -0.354 N 
ATOM     53  C   UNL A   1      44.903  29.672  28.413  1.00  0.00     0.074 A 
ATOM     54  C   UNL A   1      44.394  30.384  27.245  1.00  0.00     0.031 C 
ATOM     55  C   UNL A   1      38.443  28.395  29.315  1.00  0.00     0.029 A 
ATOM     56  C   UNL A   1      38.784  29.822  29.326  1.00  0.00     0.049 A 
ATOM     57  H   UNL A   1      40.797  30.488  28.938  1.00  0.00     0.167 HD
ATOM     58  C   UNL A   1      45.355  30.178  29.597  1.00  0.00     0.037 A 
ATOM     59  C   UNL A   1      37.981  30.917  29.741  1.00  0.00     0.037 A 
ATOM     60  C   UNL A   1      44.621  31.355  29.976  1.00  0.00     0.049 A 
ATOM     61  C   UNL A   1      38.915  31.858  30.360  1.00  0.00     0.074 A 
ATOM     62  C   UNL A   1      44.150  32.436  29.258  1.00  0.00     0.029 A 
ATOM     63  N   UNL A   1      43.861  31.279  31.120  1.00  0.00    -0.354 N 
ATOM     64  N   UNL A   1      39.353  31.668  31.565  1.00  0.00    -0.248 NA
ATOM     65  C   UNL A   1      39.290  33.123  29.741  1.00  0.00     0.031 C 
ATOM     66  C   UNL A   1      42.820  32.586  29.696  1.00  0.00     0.029 A 
ATOM     67  C   UNL A   1      42.688  31.971  30.933  1.00  0.00     0.049 A 
ATOM     68  H   UNL A   1      44.116  30.803  31.943  1.00  0.00     0.167 HD
ATOM     69  C   UNL A   1      40.462  32.444  31.596  1.00  0.00     0.074 A 
ATOM     70  C   UNL A   1      40.224  33.495  30.619  1.00  0.00     0.031 C 
ATOM     71  C   UNL A   1      41.607  31.771  31.860  1.00  0.00     0.037 A 
BRANCH  58  72
ATOM     72  C   UNL A   1      45.790  29.095  30.556  1.00  0.00     0.057 A 
ATOM     73  C   UNL A   1      47.149  28.811  30.687  1.00  0.00     0.134 A 
ATOM     74  C   UNL A   1      44.891  28.218  31.204  1.00  0.00     0.134 A 
ATOM     75  F   UNL A   1      48.065  29.624  30.142  1.00  0.00    -0.206 F 
ATOM     76  C   UNL A   1      47.594  27.674  31.371  1.00  0.00     0.040 A 
ATOM     77  C   UNL A   1      45.319  27.050  31.834  1.00  0.00     0.040 A 
ATOM     78  F   UNL A   1      43.571  28.467  31.219  1.00  0.00    -0.206 F 
ATOM     79  C   UNL A   1      46.678  26.770  31.912  1.00  0.00     0.006 A 
ENDBRANCH  58  72
BRANCH  59  80
ATOM     80  C   UNL A   1      36.520  31.498  30.057  1.00  0.00     0.057 A 
ATOM     81  C   UNL A   1      35.946  31.463  31.390  1.00  0.00     0.134 A 
ATOM     82  C   UNL A   1      35.874  32.444  29.251  1.00  0.00     0.134 A 
ATOM     83  F   UNL A   1      36.365  30.595  32.321  1.00  0.00    -0.206 F 
ATOM     84  C   UNL A   1      34.955  32.345  31.887  1.00  0.00     0.040 A 
ATOM     85  C   UNL A   1      34.843  33.318  29.734  1.00  0.00     0.040 A 
ATOM     86  F   UNL A   1      36.262  32.621  27.983  1.00  0.00    -0.206 F 
ATOM     87  C   UNL A   1      34.410  33.302  31.060  1.00  0.00     0.006 A 
ENDBRANCH  59  80
BRANCH  71  88
ATOM     88  C   UNL A   1      41.579  30.757  32.991  1.00  0.00     0.057 A 
ATOM     89  C   UNL A   1      41.151  29.410  32.937  1.00  0.00     0.134 A 
ATOM     90  C   UNL A   1      41.962  31.212  34.260  1.00  0.00     0.134 A 
ATOM     91  F   UNL A   1      40.849  28.789  31.789  1.00  0.00    -0.206 F 
ATOM     92  C   UNL A   1      41.041  28.613  34.086  1.00  0.00     0.040 A 
ATOM     93  C   UNL A   1      41.914  30.407  35.401  1.00  0.00     0.040 A 
ATOM     94  F   UNL A   1      42.416  32.465  34.415  1.00  0.00    -0.206 F 
ATOM     95  C   UNL A   1      41.426  29.109  35.322  1.00  0.00     0.006 A 
ENDBRANCH  71  88
ENDBRANCH  45  46
ENDBRANCH  37  40
ENDBRANCH  35  36
ENDBRANCH  34  35
ENDBRANCH  33  34
ENDBRANCH   1  33
TORSDOF 15
ENDMDL
MODEL 3
REMARK VINA RESULT:     -12.9      6.985     12.114
REMARK SMILES Cc1cc(/C=C2/C(=O)NC(=S)[NH+]=C2NCCCCCCNC(=O)c2ccc(-c3c4nc(c(-c5c(F)cccc5F)c5ccc([nH]5)c(-c5c(F)cccc5F)c5nc(c(-c6c(F)cccc6F)c6ccc3[nH]6)C=C5)C=C4)cc2)c(C)n1-c1cccc(C(=O)[O-])c1
REMARK SMILES IDX 17 1 16 2 15 3 14 4 5 5 6 6 7 7 13 8 8 9 9 10 12 11 10 12
REMARK SMILES IDX 11 16 4 17 1 18 2 19 3 20 80 21 78 22 79 23 81 24 82 25
REMARK SMILES IDX 89 26 83 27 85 28 84 29 86 30 87 31 88 32 18 33 19 34 20 35
REMARK SMILES IDX 21 36 22 37 23 39 24 40 25 41 77 42 26 43 76 44 27 45 28 46
REMARK SMILES IDX 29 47 70 48 30 49 75 50 69 51 71 52 31 53 74 54 68 55 67 56
REMARK SMILES IDX 32 58 58 59 41 60 57 61 42 62 45 63 56 64 72 65 43 66 44 67
REMARK SMILES IDX 55 69 73 70 46 71 33 72 34 73 39 74 35 75 36 76 38 77 40 78
REMARK SMILES IDX 37 79 59 80 60 81 65 82 61 83 62 84 64 85 66 86 63 87 47 88
REMARK SMILES IDX 48 89 53 90 49 91 50 92 52 93 54 94 51 95
REMARK H PARENT 9 13 12 14 14 15 21 38 71 57 45 68
REMARK Flexibility Score: inf
ROOT
ATOM      1  C   UNL A   1      46.620  29.437  27.959  1.00  0.00     0.003 C 
ENDROOT
BRANCH   1   2
ATOM      2  C   UNL A   1      46.705  28.801  26.536  1.00  0.00     0.037 C 
BRANCH   2   3
ATOM      3  C   UNL A   1      45.862  27.652  25.969  1.00  0.00     0.194 C 
BRANCH   3   4
ATOM      4  N   UNL A   1      46.150  27.159  24.643  1.00  0.00    -0.305 N 
ATOM      5  C   UNL A   1      48.472  25.362  26.009  1.00  0.00     0.032 C 
ATOM      6  C   UNL A   1      48.545  26.272  25.015  1.00  0.00     0.128 C 
ATOM      7  C   UNL A   1      49.931  26.648  24.633  1.00  0.00     0.319 C 
ATOM      8  C   UNL A   1      47.453  26.937  24.221  1.00  0.00     0.234 C 
ATOM      9  O   UNL A   1      50.910  26.509  25.359  1.00  0.00    -0.250 OA
ATOM     10  N   UNL A   1      50.037  27.159  23.377  1.00  0.00    -0.229 N 
ATOM     11  N   UNL A   1      47.714  27.421  23.032  1.00  0.00    -0.236 N 
ATOM     12  C   UNL A   1      48.992  27.440  22.540  1.00  0.00     0.295 C 
ATOM     13  H   UNL A   1      50.944  27.342  23.041  1.00  0.00     0.268 HD
ATOM     14  H   UNL A   1      46.978  27.777  22.483  1.00  0.00     0.268 HD
ATOM     15  H   UNL A   1      45.407  26.975  24.025  1.00  0.00     0.256 HD
ATOM     16  S   UNL A   1      49.372  27.896  20.971  1.00  0.00    -0.005 S 
BRANCH   5  17
ATOM     17  C   UNL A   1      47.340  24.811  26.676  1.00  0.00    -0.003 A 
ATOM     18  C   UNL A   1      45.112  24.465  29.595  1.00  0.00     0.065 C 
ATOM     19  C   UNL A   1      45.787  24.562  28.282  1.00  0.00     0.020 A 
ATOM     20  C   UNL A   1      47.027  25.097  28.021  1.00  0.00     0.031 A 
ATOM     21  N   UNL A   1      45.305  24.043  27.098  1.00  0.00    -0.318 N 
ATOM     22  C   UNL A   1      46.379  23.928  26.206  1.00  0.00     0.027 A 
ATOM     23  C   UNL A   1      46.363  23.141  24.934  1.00  0.00     0.065 C 
BRANCH  21  24
ATOM     24  C   UNL A   1      43.952  23.759  26.804  1.00  0.00     0.046 A 
ATOM     25  C   UNL A   1      42.839  25.157  26.608  1.00  0.00     0.026 A 
ATOM     26  C   UNL A   1      43.279  22.064  26.900  1.00  0.00     0.036 A 
ATOM     27  C   UNL A   1      41.085  24.873  26.530  1.00  0.00     0.003 A 
ATOM     28  C   UNL A   1      41.472  21.817  26.817  1.00  0.00    -0.001 A 
ATOM     29  C   UNL A   1      40.387  23.228  26.630  1.00  0.00     0.010 A 
BRANCH  28  30
ATOM     30  C   UNL A   1      40.787  20.525  26.839  1.00  0.00     0.072 C 
ATOM     31  O   UNL A   1      40.373  19.946  25.852  1.00  0.00    -0.545 OA
ATOM     32  O   UNL A   1      40.744  19.998  28.065  1.00  0.00    -0.545 OA
ENDBRANCH  28  30
ENDBRANCH  21  24
ENDBRANCH   5  17
ENDBRANCH   3   4
ENDBRANCH   2   3
ENDBRANCH   1   2
BRANCH   1  33
ATOM     33  C   UNL A   1      46.768  28.730  29.605  1.00  0.00     0.002 C 
BRANCH  33  34
ATOM     34  C   UNL A   1      48.211  27.517  30.688  1.00  0.00     0.021 C 
BRANCH  34  35
ATOM     35  C   UNL A   1      48.279  25.745  31.173  1.00  0.00     0.116 C 
BRANCH  35  36
ATOM     36  N   UNL A   1      48.071  25.272  32.535  1.00  0.00    -0.352 N 
ATOM     37  C   UNL A   1      46.968  25.456  33.402  1.00  0.00     0.251 C 
ATOM     38  H   UNL A   1      48.812  24.744  32.910  1.00  0.00     0.163 HD
ATOM     39  O   UNL A   1      47.139  25.091  34.570  1.00  0.00    -0.269 OA
BRANCH  37  40
ATOM     40  C   UNL A   1      45.593  26.097  33.060  1.00  0.00     0.039 A 
ATOM     41  C   UNL A   1      45.512  27.357  32.478  1.00  0.00     0.014 A 
ATOM     42  C   UNL A   1      44.369  25.702  33.660  1.00  0.00     0.014 A 
ATOM     43  C   UNL A   1      44.255  28.113  32.414  1.00  0.00     0.010 A 
ATOM     44  C   UNL A   1      43.101  26.509  33.654  1.00  0.00     0.010 A 
ATOM     45  C   UNL A   1      42.975  27.767  33.018  1.00  0.00    -0.014 A 
BRANCH  45  46
ATOM     46  C   UNL A   1      41.909  29.059  33.378  1.00  0.00     0.031 A 
ATOM     47  C   UNL A   1      40.796  28.682  32.466  1.00  0.00     0.074 A 
ATOM     48  C   UNL A   1      41.682  30.327  33.993  1.00  0.00     0.049 A 
ATOM     49  N   UNL A   1      41.081  28.540  31.201  1.00  0.00    -0.248 NA
ATOM     50  C   UNL A   1      39.556  28.037  32.889  1.00  0.00     0.031 C 
ATOM     51  C   UNL A   1      42.642  31.205  34.702  1.00  0.00     0.029 A 
ATOM     52  N   UNL A   1      40.499  31.187  34.137  1.00  0.00    -0.354 N 
ATOM     53  C   UNL A   1      39.940  28.093  30.596  1.00  0.00     0.074 A 
ATOM     54  C   UNL A   1      39.146  27.566  31.703  1.00  0.00     0.031 C 
ATOM     55  C   UNL A   1      42.045  32.286  35.304  1.00  0.00     0.029 A 
ATOM     56  C   UNL A   1      40.602  32.344  35.045  1.00  0.00     0.049 A 
ATOM     57  H   UNL A   1      39.668  30.997  33.645  1.00  0.00     0.167 HD
ATOM     58  C   UNL A   1      39.542  28.873  29.549  1.00  0.00     0.037 A 
ATOM     59  C   UNL A   1      39.668  33.322  35.476  1.00  0.00     0.037 A 
ATOM     60  C   UNL A   1      38.515  29.796  29.946  1.00  0.00     0.049 A 
ATOM     61  C   UNL A   1      38.715  33.447  34.373  1.00  0.00     0.074 A 
ATOM     62  C   UNL A   1      37.410  29.673  30.767  1.00  0.00     0.029 A 
ATOM     63  N   UNL A   1      38.823  31.136  29.899  1.00  0.00    -0.354 N 
ATOM     64  N   UNL A   1      39.007  34.133  33.312  1.00  0.00    -0.248 NA
ATOM     65  C   UNL A   1      37.347  32.951  34.450  1.00  0.00     0.031 C 
ATOM     66  C   UNL A   1      37.469  30.809  31.596  1.00  0.00     0.029 A 
ATOM     67  C   UNL A   1      38.250  31.773  30.973  1.00  0.00     0.049 A 
ATOM     68  H   UNL A   1      39.368  31.571  29.204  1.00  0.00     0.167 HD
ATOM     69  C   UNL A   1      38.121  33.657  32.407  1.00  0.00     0.074 A 
ATOM     70  C   UNL A   1      36.987  33.187  33.187  1.00  0.00     0.031 C 
ATOM     71  C   UNL A   1      38.688  33.101  31.310  1.00  0.00     0.037 A 
BRANCH  58  72
ATOM     72  C   UNL A   1      40.683  29.210  28.619  1.00  0.00     0.057 A 
ATOM     73  C   UNL A   1      40.794  28.529  27.407  1.00  0.00     0.134 A 
ATOM     74  C   UNL A   1      41.760  30.052  28.976  1.00  0.00     0.134 A 
ATOM     75  F   UNL A   1      39.792  27.749  26.976  1.00  0.00    -0.206 F 
ATOM     76  C   UNL A   1      41.947  28.625  26.619  1.00  0.00     0.040 A 
ATOM     77  C   UNL A   1      42.937  30.107  28.232  1.00  0.00     0.040 A 
ATOM     78  F   UNL A   1      41.699  30.825  30.073  1.00  0.00    -0.206 F 
ATOM     79  C   UNL A   1      43.036  29.383  27.050  1.00  0.00     0.006 A 
ENDBRANCH  58  72
BRANCH  59  80
ATOM     80  C   UNL A   1      39.301  34.508  36.491  1.00  0.00     0.057 A 
ATOM     81  C   UNL A   1      38.682  34.258  37.780  1.00  0.00     0.134 A 
ATOM     82  C   UNL A   1      39.906  35.771  36.455  1.00  0.00     0.134 A 
ATOM     83  F   UNL A   1      37.993  33.136  38.033  1.00  0.00    -0.206 F 
ATOM     84  C   UNL A   1      38.772  35.098  38.917  1.00  0.00     0.040 A 
ATOM     85  C   UNL A   1      39.970  36.646  37.590  1.00  0.00     0.040 A 
ATOM     86  F   UNL A   1      40.528  36.185  35.345  1.00  0.00    -0.206 F 
ATOM     87  C   UNL A   1      39.444  36.297  38.834  1.00  0.00     0.006 A 
ENDBRANCH  59  80
BRANCH  71  88
ATOM     88  C   UNL A   1      39.836  33.853  30.657  1.00  0.00     0.057 A 
ATOM     89  C   UNL A   1      41.192  33.881  31.058  1.00  0.00     0.134 A 
ATOM     90  C   UNL A   1      39.519  34.668  29.563  1.00  0.00     0.134 A 
ATOM     91  F   UNL A   1      41.684  33.086  32.018  1.00  0.00    -0.206 F 
ATOM     92  C   UNL A   1      42.133  34.728  30.454  1.00  0.00     0.040 A 
ATOM     93  C   UNL A   1      40.462  35.470  28.915  1.00  0.00     0.040 A 
ATOM     94  F   UNL A   1      38.266  34.688  29.082  1.00  0.00    -0.206 F 
ATOM     95  C   UNL A   1      41.770  35.523  29.376  1.00  0.00     0.006 A 
ENDBRANCH  71  88
ENDBRANCH  45  46
ENDBRANCH  37  40
ENDBRANCH  35  36
ENDBRANCH  34  35
ENDBRANCH  33  34
ENDBRANCH   1  33
TORSDOF 15
ENDMDL
