MODEL 1
REMARK VINA RESULT:     -12.5      0.000      0.000
REMARK SMILES Cc1cccc(OCC(=O)Nc2cc(C(=O)NCCCCCCNC(=O)c3ccc(-c4c5nc(c(-c6c(F)cccc6F)c6ccc([nH]6)c(-c6c(F)cccc6F)c6nc(c(-c7c(F)cccc7F)c7ccc4[nH]7)C=C6)C=C5)cc3)c(Cl)cc2Cl)c1
REMARK SMILES IDX 19 1 18 2 17 3 15 4 16 5 14 7 12 8 13 9 84 10 83 11 85 12
REMARK SMILES IDX 81 13 82 14 11 15 9 16 10 17 8 19 7 20 6 21 1 22 2 23 3 24
REMARK SMILES IDX 86 25 4 26 5 27 20 28 21 29 22 30 23 31 24 32 25 33 26 35
REMARK SMILES IDX 27 36 28 37 80 38 29 39 79 40 30 41 31 42 32 43 73 44 33 45
REMARK SMILES IDX 78 46 72 47 74 48 34 49 77 50 71 51 70 52 35 54 61 55 44 56
REMARK SMILES IDX 60 57 45 58 48 59 59 60 75 61 46 62 47 63 58 65 76 66 49 67
REMARK SMILES IDX 36 68 37 69 42 70 38 71 39 72 41 73 43 74 40 75 62 76 63 77
REMARK SMILES IDX 68 78 64 79 65 80 67 81 69 82 66 83 50 84 51 85 56 86 52 87
REMARK SMILES IDX 53 88 55 89 57 90 54 91
REMARK H PARENT 17 6 11 18 24 34 74 53 48 64
REMARK Flexibility Score: inf
ROOT
ATOM      1  C   UNL A   1      34.821  29.572  27.626  1.00  0.00     0.021 C 
ENDROOT
BRANCH   1   2
ATOM      2  C   UNL A   1      33.660  29.498  26.630  1.00  0.00     0.116 C 
BRANCH   2   3
ATOM      3  N   UNL A   1      34.009  29.196  25.262  1.00  0.00    -0.352 N 
ATOM      4  C   UNL A   1      33.678  28.101  24.489  1.00  0.00     0.252 C 
ATOM      5  O   UNL A   1      33.918  28.156  23.285  1.00  0.00    -0.269 OA
ATOM      6  H   UNL A   1      34.568  29.871  24.814  1.00  0.00     0.163 HD
BRANCH   4   7
ATOM      7  C   UNL A   1      33.048  26.862  25.047  1.00  0.00     0.060 A 
ATOM      8  C   UNL A   1      33.227  24.662  26.125  1.00  0.00     0.061 A 
ATOM      9  C   UNL A   1      33.829  25.813  25.594  1.00  0.00     0.043 A 
ATOM     10  C   UNL A   1      31.817  24.612  26.174  1.00  0.00     0.066 A 
ATOM     11  C   UNL A   1      31.034  25.656  25.691  1.00  0.00     0.044 A 
ATOM     12  Cl  UNL A   1      30.991  23.246  26.855  1.00  0.00    -0.082 Cl
ATOM     13  C   UNL A   1      31.644  26.770  25.111  1.00  0.00     0.055 A 
ATOM     14  Cl  UNL A   1      30.571  27.957  24.450  1.00  0.00    -0.083 Cl
BRANCH   8  15
ATOM     15  N   UNL A   1      33.904  23.508  26.578  1.00  0.00    -0.322 N 
ATOM     16  C   UNL A   1      34.130  22.245  26.134  1.00  0.00     0.262 C 
ATOM     17  O   UNL A   1      34.726  21.480  26.905  1.00  0.00    -0.271 OA
ATOM     18  H   UNL A   1      34.328  23.663  27.453  1.00  0.00     0.170 HD
BRANCH  16  19
ATOM     19  C   UNL A   1      33.769  21.770  24.730  1.00  0.00     0.329 C 
BRANCH  19  20
ATOM     20  O   UNL A   1      32.675  20.883  24.592  1.00  0.00    -0.484 OA
BRANCH  20  21
ATOM     21  C   UNL A   1      32.953  19.606  24.194  1.00  0.00     0.120 A 
ATOM     22  C   UNL A   1      34.832  16.393  24.964  1.00  0.00     0.044 C 
ATOM     23  C   UNL A   1      33.915  17.392  24.323  1.00  0.00    -0.047 A 
ATOM     24  C   UNL A   1      33.272  17.043  23.128  1.00  0.00     0.003 A 
ATOM     25  C   UNL A   1      33.750  18.682  24.858  1.00  0.00     0.049 A 
ATOM     26  C   UNL A   1      32.525  17.982  22.437  1.00  0.00     0.004 A 
ATOM     27  C   UNL A   1      32.393  19.253  22.972  1.00  0.00     0.046 A 
ENDBRANCH  20  21
ENDBRANCH  19  20
ENDBRANCH  16  19
ENDBRANCH   8  15
ENDBRANCH   4   7
ENDBRANCH   2   3
ENDBRANCH   1   2
BRANCH   1  28
ATOM     28  C   UNL A   1      35.787  30.777  27.668  1.00  0.00     0.002 C 
BRANCH  28  29
ATOM     29  C   UNL A   1      35.311  32.223  27.873  1.00  0.00     0.002 C 
BRANCH  29  30
ATOM     30  C   UNL A   1      34.807  32.666  29.252  1.00  0.00     0.021 C 
BRANCH  30  31
ATOM     31  C   UNL A   1      34.697  34.172  29.524  1.00  0.00     0.116 C 
BRANCH  31  32
ATOM     32  N   UNL A   1      33.654  34.556  30.479  1.00  0.00    -0.352 N 
ATOM     33  C   UNL A   1      33.668  34.539  31.874  1.00  0.00     0.251 C 
ATOM     34  H   UNL A   1      32.814  34.875  30.074  1.00  0.00     0.163 HD
ATOM     35  O   UNL A   1      32.726  34.953  32.509  1.00  0.00    -0.269 OA
BRANCH  33  36
ATOM     36  C   UNL A   1      34.911  34.124  32.578  1.00  0.00     0.039 A 
ATOM     37  C   UNL A   1      36.038  34.951  32.472  1.00  0.00     0.014 A 
ATOM     38  C   UNL A   1      35.026  32.864  33.146  1.00  0.00     0.014 A 
ATOM     39  C   UNL A   1      37.308  34.400  32.638  1.00  0.00     0.010 A 
ATOM     40  C   UNL A   1      36.282  32.299  33.238  1.00  0.00     0.010 A 
ATOM     41  C   UNL A   1      37.414  33.033  32.878  1.00  0.00    -0.014 A 
BRANCH  41  42
ATOM     42  C   UNL A   1      38.602  32.249  32.546  1.00  0.00     0.031 A 
ATOM     43  C   UNL A   1      38.526  31.013  31.747  1.00  0.00     0.074 A 
ATOM     44  C   UNL A   1      39.813  32.750  32.882  1.00  0.00     0.049 A 
ATOM     45  N   UNL A   1      39.441  30.103  31.729  1.00  0.00    -0.248 NA
ATOM     46  C   UNL A   1      37.372  30.684  30.926  1.00  0.00     0.031 C 
ATOM     47  C   UNL A   1      41.125  32.328  32.397  1.00  0.00     0.029 A 
ATOM     48  N   UNL A   1      40.099  33.631  33.934  1.00  0.00    -0.354 N 
ATOM     49  C   UNL A   1      39.144  29.219  30.716  1.00  0.00     0.074 A 
ATOM     50  C   UNL A   1      37.806  29.582  30.306  1.00  0.00     0.031 C 
ATOM     51  C   UNL A   1      42.055  32.697  33.292  1.00  0.00     0.029 A 
ATOM     52  C   UNL A   1      41.350  33.229  34.444  1.00  0.00     0.049 A 
ATOM     53  H   UNL A   1      39.540  34.377  34.251  1.00  0.00     0.167 HD
ATOM     54  C   UNL A   1      40.120  28.375  30.263  1.00  0.00     0.037 A 
ATOM     55  C   UNL A   1      41.483  32.766  35.721  1.00  0.00     0.037 A 
ATOM     56  C   UNL A   1      41.336  28.491  31.073  1.00  0.00     0.049 A 
ATOM     57  C   UNL A   1      42.070  31.380  35.818  1.00  0.00     0.074 A 
ATOM     58  C   UNL A   1      42.537  29.154  30.878  1.00  0.00     0.029 A 
ATOM     59  N   UNL A   1      41.321  28.093  32.406  1.00  0.00    -0.354 N 
ATOM     60  N   UNL A   1      42.074  30.516  34.841  1.00  0.00    -0.248 NA
ATOM     61  C   UNL A   1      42.672  30.847  37.037  1.00  0.00     0.031 C 
ATOM     62  C   UNL A   1      43.234  29.180  32.111  1.00  0.00     0.029 A 
ATOM     63  C   UNL A   1      42.461  28.524  33.055  1.00  0.00     0.049 A 
ATOM     64  H   UNL A   1      40.597  27.575  32.828  1.00  0.00     0.167 HD
ATOM     65  C   UNL A   1      42.620  29.334  35.277  1.00  0.00     0.074 A 
ATOM     66  C   UNL A   1      43.009  29.606  36.647  1.00  0.00     0.031 C 
ATOM     67  C   UNL A   1      42.680  28.234  34.467  1.00  0.00     0.037 A 
BRANCH  54  68
ATOM     68  C   UNL A   1      40.096  27.659  28.921  1.00  0.00     0.057 A 
ATOM     69  C   UNL A   1      39.490  26.389  28.789  1.00  0.00     0.134 A 
ATOM     70  C   UNL A   1      40.699  28.116  27.737  1.00  0.00     0.134 A 
ATOM     71  F   UNL A   1      38.756  25.849  29.770  1.00  0.00    -0.206 F 
ATOM     72  C   UNL A   1      39.596  25.598  27.634  1.00  0.00     0.040 A 
ATOM     73  C   UNL A   1      40.855  27.320  26.590  1.00  0.00     0.040 A 
ATOM     74  F   UNL A   1      41.107  29.381  27.595  1.00  0.00    -0.206 F 
ATOM     75  C   UNL A   1      40.318  26.046  26.542  1.00  0.00     0.006 A 
ENDBRANCH  54  68
BRANCH  55  76
ATOM     76  C   UNL A   1      40.474  33.318  36.662  1.00  0.00     0.057 A 
ATOM     77  C   UNL A   1      39.310  32.573  36.923  1.00  0.00     0.134 A 
ATOM     78  C   UNL A   1      40.788  34.345  37.557  1.00  0.00     0.134 A 
ATOM     79  F   UNL A   1      38.956  31.568  36.106  1.00  0.00    -0.206 F 
ATOM     80  C   UNL A   1      38.553  32.769  38.080  1.00  0.00     0.040 A 
ATOM     81  C   UNL A   1      40.027  34.560  38.712  1.00  0.00     0.040 A 
ATOM     82  F   UNL A   1      41.897  35.080  37.392  1.00  0.00    -0.206 F 
ATOM     83  C   UNL A   1      38.929  33.747  38.994  1.00  0.00     0.006 A 
ENDBRANCH  55  76
BRANCH  67  84
ATOM     84  C   UNL A   1      43.030  26.818  34.877  1.00  0.00     0.057 A 
ATOM     85  C   UNL A   1      42.096  25.803  35.135  1.00  0.00     0.134 A 
ATOM     86  C   UNL A   1      44.380  26.388  34.893  1.00  0.00     0.134 A 
ATOM     87  F   UNL A   1      40.778  26.012  35.035  1.00  0.00    -0.206 F 
ATOM     88  C   UNL A   1      42.473  24.487  35.451  1.00  0.00     0.040 A 
ATOM     89  C   UNL A   1      44.764  25.068  35.150  1.00  0.00     0.040 A 
ATOM     90  F   UNL A   1      45.393  27.228  34.632  1.00  0.00    -0.206 F 
ATOM     91  C   UNL A   1      43.808  24.112  35.449  1.00  0.00     0.006 A 
ENDBRANCH  67  84
ENDBRANCH  41  42
ENDBRANCH  33  36
ENDBRANCH  31  32
ENDBRANCH  30  31
ENDBRANCH  29  30
ENDBRANCH  28  29
ENDBRANCH   1  28
TORSDOF 17
ENDMDL
MODEL 2
REMARK VINA RESULT:     -12.4      2.533      3.564
REMARK SMILES Cc1cccc(OCC(=O)Nc2cc(C(=O)NCCCCCCNC(=O)c3ccc(-c4c5nc(c(-c6c(F)cccc6F)c6ccc([nH]6)c(-c6c(F)cccc6F)c6nc(c(-c7c(F)cccc7F)c7ccc4[nH]7)C=C6)C=C5)cc3)c(Cl)cc2Cl)c1
REMARK SMILES IDX 19 1 18 2 17 3 15 4 16 5 14 7 12 8 13 9 84 10 83 11 85 12
REMARK SMILES IDX 81 13 82 14 11 15 9 16 10 17 8 19 7 20 6 21 1 22 2 23 3 24
REMARK SMILES IDX 86 25 4 26 5 27 20 28 21 29 22 30 23 31 24 32 25 33 26 35
REMARK SMILES IDX 27 36 28 37 80 38 29 39 79 40 30 41 31 42 32 43 73 44 33 45
REMARK SMILES IDX 78 46 72 47 74 48 34 49 77 50 71 51 70 52 35 54 61 55 44 56
REMARK SMILES IDX 60 57 45 58 48 59 59 60 75 61 46 62 47 63 58 65 76 66 49 67
REMARK SMILES IDX 36 68 37 69 42 70 38 71 39 72 41 73 43 74 40 75 62 76 63 77
REMARK SMILES IDX 68 78 64 79 65 80 67 81 69 82 66 83 50 84 51 85 56 86 52 87
REMARK SMILES IDX 53 88 55 89 57 90 54 91
REMARK H PARENT 17 6 11 18 24 34 74 53 48 64
REMARK Flexibility Score: inf
ROOT
ATOM      1  C   UNL A   1      31.745  29.669  25.065  1.00  0.00     0.021 C 
ENDROOT
BRANCH   1   2
ATOM      2  C   UNL A   1      30.458  30.382  24.639  1.00  0.00     0.116 C 
BRANCH   2   3
ATOM      3  N   UNL A   1      30.192  30.425  23.221  1.00  0.00    -0.352 N 
ATOM      4  C   UNL A   1      29.928  29.394  22.342  1.00  0.00     0.252 C 
ATOM      5  O   UNL A   1      29.528  29.688  21.217  1.00  0.00    -0.269 OA
ATOM      6  H   UNL A   1      30.201  31.325  22.820  1.00  0.00     0.163 HD
BRANCH   4   7
ATOM      7  C   UNL A   1      30.105  27.949  22.694  1.00  0.00     0.060 A 
ATOM      8  C   UNL A   1      31.474  25.911  22.769  1.00  0.00     0.061 A 
ATOM      9  C   UNL A   1      31.314  27.262  22.423  1.00  0.00     0.043 A 
ATOM     10  C   UNL A   1      30.424  25.276  23.467  1.00  0.00     0.066 A 
ATOM     11  C   UNL A   1      29.250  25.950  23.789  1.00  0.00     0.044 A 
ATOM     12  Cl  UNL A   1      30.555  23.620  23.972  1.00  0.00    -0.082 Cl
ATOM     13  C   UNL A   1      29.080  27.277  23.388  1.00  0.00     0.055 A 
ATOM     14  Cl  UNL A   1      27.541  27.981  23.751  1.00  0.00    -0.083 Cl
BRANCH   8  15
ATOM     15  N   UNL A   1      32.579  25.097  22.437  1.00  0.00    -0.322 N 
ATOM     16  C   UNL A   1      33.684  24.611  23.060  1.00  0.00     0.262 C 
ATOM     17  O   UNL A   1      34.486  23.977  22.360  1.00  0.00    -0.271 OA
ATOM     18  H   UNL A   1      32.537  24.802  21.499  1.00  0.00     0.170 HD
BRANCH  16  19
ATOM     19  C   UNL A   1      33.923  24.733  24.561  1.00  0.00     0.329 C 
BRANCH  19  20
ATOM     20  O   UNL A   1      34.175  23.546  25.290  1.00  0.00    -0.484 OA
BRANCH  20  21
ATOM     21  C   UNL A   1      35.480  23.169  25.436  1.00  0.00     0.120 A 
ATOM     22  C   UNL A   1      38.976  24.219  26.492  1.00  0.00     0.044 C 
ATOM     23  C   UNL A   1      37.810  23.392  26.041  1.00  0.00    -0.047 A 
ATOM     24  C   UNL A   1      38.037  22.064  25.658  1.00  0.00     0.003 A 
ATOM     25  C   UNL A   1      36.521  23.944  25.931  1.00  0.00     0.049 A 
ATOM     26  C   UNL A   1      37.013  21.310  25.110  1.00  0.00     0.004 A 
ATOM     27  C   UNL A   1      35.756  21.880  24.992  1.00  0.00     0.046 A 
ENDBRANCH  20  21
ENDBRANCH  19  20
ENDBRANCH  16  19
ENDBRANCH   8  15
ENDBRANCH   4   7
ENDBRANCH   2   3
ENDBRANCH   1   2
BRANCH   1  28
ATOM     28  C   UNL A   1      31.774  28.668  26.242  1.00  0.00     0.002 C 
BRANCH  28  29
ATOM     29  C   UNL A   1      32.767  28.779  27.408  1.00  0.00     0.002 C 
BRANCH  29  30
ATOM     30  C   UNL A   1      34.269  28.883  27.116  1.00  0.00     0.021 C 
BRANCH  30  31
ATOM     31  C   UNL A   1      34.964  30.222  27.399  1.00  0.00     0.116 C 
BRANCH  31  32
ATOM     32  N   UNL A   1      34.062  31.356  27.616  1.00  0.00    -0.352 N 
ATOM     33  C   UNL A   1      34.217  32.479  28.428  1.00  0.00     0.251 C 
ATOM     34  H   UNL A   1      33.216  31.319  27.111  1.00  0.00     0.163 HD
ATOM     35  O   UNL A   1      33.384  33.357  28.439  1.00  0.00    -0.269 OA
BRANCH  33  36
ATOM     36  C   UNL A   1      35.484  32.650  29.188  1.00  0.00     0.039 A 
ATOM     37  C   UNL A   1      36.518  33.386  28.592  1.00  0.00     0.014 A 
ATOM     38  C   UNL A   1      35.721  31.937  30.353  1.00  0.00     0.014 A 
ATOM     39  C   UNL A   1      37.836  33.148  28.980  1.00  0.00     0.010 A 
ATOM     40  C   UNL A   1      37.028  31.646  30.688  1.00  0.00     0.010 A 
ATOM     41  C   UNL A   1      38.082  32.163  29.931  1.00  0.00    -0.014 A 
BRANCH  41  42
ATOM     42  C   UNL A   1      39.353  31.449  30.038  1.00  0.00     0.031 A 
ATOM     43  C   UNL A   1      39.582  30.155  29.370  1.00  0.00     0.074 A 
ATOM     44  C   UNL A   1      40.382  32.064  30.666  1.00  0.00     0.049 A 
ATOM     45  N   UNL A   1      40.505  29.318  29.707  1.00  0.00    -0.248 NA
ATOM     46  C   UNL A   1      38.744  29.679  28.281  1.00  0.00     0.031 C 
ATOM     47  C   UNL A   1      41.798  31.707  30.630  1.00  0.00     0.029 A 
ATOM     48  N   UNL A   1      40.296  33.039  31.669  1.00  0.00    -0.354 N 
ATOM     49  C   UNL A   1      40.569  28.341  28.739  1.00  0.00     0.074 A 
ATOM     50  C   UNL A   1      39.398  28.571  27.921  1.00  0.00     0.031 C 
ATOM     51  C   UNL A   1      42.399  32.210  31.720  1.00  0.00     0.029 A 
ATOM     52  C   UNL A   1      41.355  32.771  32.559  1.00  0.00     0.049 A 
ATOM     53  H   UNL A   1      39.631  33.763  31.737  1.00  0.00     0.167 HD
ATOM     54  C   UNL A   1      41.677  27.543  28.673  1.00  0.00     0.037 A 
ATOM     55  C   UNL A   1      41.123  32.416  33.856  1.00  0.00     0.037 A 
ATOM     56  C   UNL A   1      42.587  27.810  29.790  1.00  0.00     0.049 A 
ATOM     57  C   UNL A   1      41.723  31.089  34.250  1.00  0.00     0.074 A 
ATOM     58  C   UNL A   1      43.757  28.545  29.895  1.00  0.00     0.029 A 
ATOM     59  N   UNL A   1      42.195  27.511  31.090  1.00  0.00    -0.354 N 
ATOM     60  N   UNL A   1      42.062  30.159  33.402  1.00  0.00    -0.248 NA
ATOM     61  C   UNL A   1      41.959  30.696  35.636  1.00  0.00     0.031 C 
ATOM     62  C   UNL A   1      44.051  28.715  31.271  1.00  0.00     0.029 A 
ATOM     63  C   UNL A   1      43.066  28.075  32.002  1.00  0.00     0.049 A 
ATOM     64  H   UNL A   1      41.405  26.973  31.328  1.00  0.00     0.167 HD
ATOM     65  C   UNL A   1      42.512  29.056  34.087  1.00  0.00     0.074 A 
ATOM     66  C   UNL A   1      42.459  29.457  35.480  1.00  0.00     0.031 C 
ATOM     67  C   UNL A   1      42.867  27.908  33.437  1.00  0.00     0.037 A 
BRANCH  54  68
ATOM     68  C   UNL A   1      42.091  26.729  27.455  1.00  0.00     0.057 A 
ATOM     69  C   UNL A   1      42.317  25.337  27.557  1.00  0.00     0.134 A 
ATOM     70  C   UNL A   1      42.351  27.245  26.175  1.00  0.00     0.134 A 
ATOM     71  F   UNL A   1      41.999  24.647  28.660  1.00  0.00    -0.206 F 
ATOM     72  C   UNL A   1      42.876  24.568  26.525  1.00  0.00     0.040 A 
ATOM     73  C   UNL A   1      42.955  26.501  25.148  1.00  0.00     0.040 A 
ATOM     74  F   UNL A   1      41.971  28.476  25.819  1.00  0.00    -0.206 F 
ATOM     75  C   UNL A   1      43.238  25.158  25.328  1.00  0.00     0.006 A 
ENDBRANCH  54  68
BRANCH  55  76
ATOM     76  C   UNL A   1      39.853  32.958  34.404  1.00  0.00     0.057 A 
ATOM     77  C   UNL A   1      38.703  32.148  34.380  1.00  0.00     0.134 A 
ATOM     78  C   UNL A   1      39.833  34.070  35.251  1.00  0.00     0.134 A 
ATOM     79  F   UNL A   1      38.661  31.061  33.594  1.00  0.00    -0.206 F 
ATOM     80  C   UNL A   1      37.626  32.372  35.241  1.00  0.00     0.040 A 
ATOM     81  C   UNL A   1      38.751  34.312  36.107  1.00  0.00     0.040 A 
ATOM     82  F   UNL A   1      40.902  34.873  35.350  1.00  0.00    -0.206 F 
ATOM     83  C   UNL A   1      37.662  33.442  36.129  1.00  0.00     0.006 A 
ENDBRANCH  55  76
BRANCH  67  84
ATOM     84  C   UNL A   1      43.148  26.555  34.062  1.00  0.00     0.057 A 
ATOM     85  C   UNL A   1      44.411  25.946  34.124  1.00  0.00     0.134 A 
ATOM     86  C   UNL A   1      42.131  25.865  34.765  1.00  0.00     0.134 A 
ATOM     87  F   UNL A   1      45.504  26.532  33.620  1.00  0.00    -0.206 F 
ATOM     88  C   UNL A   1      44.631  24.720  34.771  1.00  0.00     0.040 A 
ATOM     89  C   UNL A   1      42.351  24.671  35.460  1.00  0.00     0.040 A 
ATOM     90  F   UNL A   1      40.875  26.332  34.831  1.00  0.00    -0.206 F 
ATOM     91  C   UNL A   1      43.603  24.083  35.451  1.00  0.00     0.006 A 
ENDBRANCH  67  84
ENDBRANCH  41  42
ENDBRANCH  33  36
ENDBRANCH  31  32
ENDBRANCH  30  31
ENDBRANCH  29  30
ENDBRANCH  28  29
ENDBRANCH   1  28
TORSDOF 17
ENDMDL
MODEL 3
REMARK VINA RESULT:     -12.3      2.957      4.831
REMARK SMILES Cc1cccc(OCC(=O)Nc2cc(C(=O)NCCCCCCNC(=O)c3ccc(-c4c5nc(c(-c6c(F)cccc6F)c6ccc([nH]6)c(-c6c(F)cccc6F)c6nc(c(-c7c(F)cccc7F)c7ccc4[nH]7)C=C6)C=C5)cc3)c(Cl)cc2Cl)c1
REMARK SMILES IDX 19 1 18 2 17 3 15 4 16 5 14 7 12 8 13 9 84 10 83 11 85 12
REMARK SMILES IDX 81 13 82 14 11 15 9 16 10 17 8 19 7 20 6 21 1 22 2 23 3 24
REMARK SMILES IDX 86 25 4 26 5 27 20 28 21 29 22 30 23 31 24 32 25 33 26 35
REMARK SMILES IDX 27 36 28 37 80 38 29 39 79 40 30 41 31 42 32 43 73 44 33 45
REMARK SMILES IDX 78 46 72 47 74 48 34 49 77 50 71 51 70 52 35 54 61 55 44 56
REMARK SMILES IDX 60 57 45 58 48 59 59 60 75 61 46 62 47 63 58 65 76 66 49 67
REMARK SMILES IDX 36 68 37 69 42 70 38 71 39 72 41 73 43 74 40 75 62 76 63 77
REMARK SMILES IDX 68 78 64 79 65 80 67 81 69 82 66 83 50 84 51 85 56 86 52 87
REMARK SMILES IDX 53 88 55 89 57 90 54 91
REMARK H PARENT 17 6 11 18 24 34 74 53 48 64
REMARK Flexibility Score: inf
ROOT
ATOM      1  C   UNL A   1      32.510  28.161  24.954  1.00  0.00     0.021 C 
ENDROOT
BRANCH   1   2
ATOM      2  C   UNL A   1      31.120  27.559  25.187  1.00  0.00     0.116 C 
BRANCH   2   3
ATOM      3  N   UNL A   1      30.686  26.568  24.233  1.00  0.00    -0.352 N 
ATOM      4  C   UNL A   1      30.916  25.206  24.209  1.00  0.00     0.252 C 
ATOM      5  O   UNL A   1      30.273  24.530  23.408  1.00  0.00    -0.269 OA
ATOM      6  H   UNL A   1      30.144  26.914  23.487  1.00  0.00     0.163 HD
BRANCH   4   7
ATOM      7  C   UNL A   1      31.904  24.525  25.104  1.00  0.00     0.060 A 
ATOM      8  C   UNL A   1      34.218  24.048  25.776  1.00  0.00     0.061 A 
ATOM      9  C   UNL A   1      33.301  24.681  24.924  1.00  0.00     0.043 A 
ATOM     10  C   UNL A   1      33.710  23.314  26.871  1.00  0.00     0.066 A 
ATOM     11  C   UNL A   1      32.342  23.194  27.095  1.00  0.00     0.044 A 
ATOM     12  Cl  UNL A   1      34.773  22.536  28.000  1.00  0.00    -0.082 Cl
ATOM     13  C   UNL A   1      31.438  23.780  26.206  1.00  0.00     0.055 A 
ATOM     14  Cl  UNL A   1      29.764  23.478  26.525  1.00  0.00    -0.083 Cl
BRANCH   8  15
ATOM     15  N   UNL A   1      35.621  24.030  25.617  1.00  0.00    -0.322 N 
ATOM     16  C   UNL A   1      36.564  23.162  25.169  1.00  0.00     0.262 C 
ATOM     17  O   UNL A   1      37.747  23.515  25.281  1.00  0.00    -0.271 OA
ATOM     18  H   UNL A   1      36.025  24.880  25.908  1.00  0.00     0.170 HD
BRANCH  16  19
ATOM     19  C   UNL A   1      36.232  21.846  24.474  1.00  0.00     0.329 C 
BRANCH  19  20
ATOM     20  O   UNL A   1      35.810  20.760  25.278  1.00  0.00    -0.484 OA
BRANCH  20  21
ATOM     21  C   UNL A   1      34.791  19.987  24.797  1.00  0.00     0.120 A 
ATOM     22  C   UNL A   1      33.670  16.495  23.798  1.00  0.00     0.044 C 
ATOM     23  C   UNL A   1      33.662  17.961  24.111  1.00  0.00    -0.047 A 
ATOM     24  C   UNL A   1      32.500  18.698  23.847  1.00  0.00     0.003 A 
ATOM     25  C   UNL A   1      34.813  18.613  24.592  1.00  0.00     0.049 A 
ATOM     26  C   UNL A   1      32.497  20.075  23.995  1.00  0.00     0.004 A 
ATOM     27  C   UNL A   1      33.647  20.698  24.451  1.00  0.00     0.046 A 
ENDBRANCH  20  21
ENDBRANCH  19  20
ENDBRANCH  16  19
ENDBRANCH   8  15
ENDBRANCH   4   7
ENDBRANCH   2   3
ENDBRANCH   1   2
BRANCH   1  28
ATOM     28  C   UNL A   1      32.930  29.513  25.573  1.00  0.00     0.002 C 
BRANCH  28  29
ATOM     29  C   UNL A   1      33.783  29.620  26.845  1.00  0.00     0.002 C 
BRANCH  29  30
ATOM     30  C   UNL A   1      33.824  30.943  27.620  1.00  0.00     0.021 C 
BRANCH  30  31
ATOM     31  C   UNL A   1      35.148  31.719  27.644  1.00  0.00     0.116 C 
BRANCH  31  32
ATOM     32  N   UNL A   1      35.620  32.100  28.977  1.00  0.00    -0.352 N 
ATOM     33  C   UNL A   1      36.503  31.444  29.834  1.00  0.00     0.251 C 
ATOM     34  H   UNL A   1      35.260  32.950  29.320  1.00  0.00     0.163 HD
ATOM     35  O   UNL A   1      36.831  31.941  30.888  1.00  0.00    -0.269 OA
BRANCH  33  36
ATOM     36  C   UNL A   1      37.142  30.179  29.382  1.00  0.00     0.039 A 
ATOM     37  C   UNL A   1      37.175  29.100  30.276  1.00  0.00     0.014 A 
ATOM     38  C   UNL A   1      37.866  30.126  28.201  1.00  0.00     0.014 A 
ATOM     39  C   UNL A   1      38.167  28.129  30.136  1.00  0.00     0.010 A 
ATOM     40  C   UNL A   1      38.893  29.208  28.103  1.00  0.00     0.010 A 
ATOM     41  C   UNL A   1      39.110  28.281  29.125  1.00  0.00    -0.014 A 
BRANCH  41  42
ATOM     42  C   UNL A   1      40.449  27.697  29.180  1.00  0.00     0.031 A 
ATOM     43  C   UNL A   1      40.726  26.328  28.708  1.00  0.00     0.074 A 
ATOM     44  C   UNL A   1      41.477  28.489  29.563  1.00  0.00     0.049 A 
ATOM     45  N   UNL A   1      41.759  25.637  29.054  1.00  0.00    -0.248 NA
ATOM     46  C   UNL A   1      39.820  25.608  27.828  1.00  0.00     0.031 C 
ATOM     47  C   UNL A   1      42.908  28.242  29.402  1.00  0.00     0.029 A 
ATOM     48  N   UNL A   1      41.410  29.614  30.397  1.00  0.00    -0.354 N 
ATOM     49  C   UNL A   1      41.808  24.515  28.256  1.00  0.00     0.074 A 
ATOM     50  C   UNL A   1      40.535  24.508  27.571  1.00  0.00     0.031 C 
ATOM     51  C   UNL A   1      43.577  28.972  30.309  1.00  0.00     0.029 A 
ATOM     52  C   UNL A   1      42.586  29.587  31.174  1.00  0.00     0.049 A 
ATOM     53  H   UNL A   1      40.690  30.284  30.432  1.00  0.00     0.167 HD
ATOM     54  C   UNL A   1      42.974  23.806  28.178  1.00  0.00     0.037 A 
ATOM     55  C   UNL A   1      42.540  29.444  32.530  1.00  0.00     0.037 A 
ATOM     56  C   UNL A   1      43.976  24.332  29.110  1.00  0.00     0.049 A 
ATOM     57  C   UNL A   1      43.309  28.256  33.053  1.00  0.00     0.074 A 
ATOM     58  C   UNL A   1      45.071  25.163  28.942  1.00  0.00     0.029 A 
ATOM     59  N   UNL A   1      43.765  24.233  30.481  1.00  0.00    -0.354 N 
ATOM     60  N   UNL A   1      43.638  27.222  32.330  1.00  0.00    -0.248 NA
ATOM     61  C   UNL A   1      43.739  28.128  34.442  1.00  0.00     0.031 C 
ATOM     62  C   UNL A   1      45.503  25.590  30.222  1.00  0.00     0.029 A 
ATOM     63  C   UNL A   1      44.675  25.012  31.169  1.00  0.00     0.049 A 
ATOM     64  H   UNL A   1      43.064  23.685  30.903  1.00  0.00     0.167 HD
ATOM     65  C   UNL A   1      44.270  26.294  33.121  1.00  0.00     0.074 A 
ATOM     66  C   UNL A   1      44.337  26.924  34.425  1.00  0.00     0.031 C 
ATOM     67  C   UNL A   1      44.659  25.081  32.625  1.00  0.00     0.037 A 
BRANCH  54  68
ATOM     68  C   UNL A   1      43.324  22.828  27.065  1.00  0.00     0.057 A 
ATOM     69  C   UNL A   1      42.648  21.593  26.948  1.00  0.00     0.134 A 
ATOM     70  C   UNL A   1      44.350  22.997  26.120  1.00  0.00     0.134 A 
ATOM     71  F   UNL A   1      41.561  21.309  27.676  1.00  0.00    -0.206 F 
ATOM     72  C   UNL A   1      43.047  20.575  26.068  1.00  0.00     0.040 A 
ATOM     73  C   UNL A   1      44.790  21.973  25.265  1.00  0.00     0.040 A 
ATOM     74  F   UNL A   1      44.934  24.181  25.916  1.00  0.00    -0.206 F 
ATOM     75  C   UNL A   1      44.149  20.746  25.250  1.00  0.00     0.006 A 
ENDBRANCH  54  68
BRANCH  55  76
ATOM     76  C   UNL A   1      41.293  29.973  33.142  1.00  0.00     0.057 A 
ATOM     77  C   UNL A   1      41.198  31.351  33.406  1.00  0.00     0.134 A 
ATOM     78  C   UNL A   1      40.102  29.241  33.132  1.00  0.00     0.134 A 
ATOM     79  F   UNL A   1      42.304  32.112  33.422  1.00  0.00    -0.206 F 
ATOM     80  C   UNL A   1      39.965  31.992  33.545  1.00  0.00     0.040 A 
ATOM     81  C   UNL A   1      38.861  29.872  33.287  1.00  0.00     0.040 A 
ATOM     82  F   UNL A   1      40.108  27.929  32.860  1.00  0.00    -0.206 F 
ATOM     83  C   UNL A   1      38.789  31.253  33.456  1.00  0.00     0.006 A 
ENDBRANCH  55  76
BRANCH  67  84
ATOM     84  C   UNL A   1      45.142  23.883  33.420  1.00  0.00     0.057 A 
ATOM     85  C   UNL A   1      46.443  23.722  33.919  1.00  0.00     0.134 A 
ATOM     86  C   UNL A   1      44.229  22.881  33.832  1.00  0.00     0.134 A 
ATOM     87  F   UNL A   1      47.393  24.645  33.728  1.00  0.00    -0.206 F 
ATOM     88  C   UNL A   1      46.824  22.622  34.705  1.00  0.00     0.040 A 
ATOM     89  C   UNL A   1      44.584  21.811  34.660  1.00  0.00     0.040 A 
ATOM     90  F   UNL A   1      42.938  22.907  33.468  1.00  0.00    -0.206 F 
ATOM     91  C   UNL A   1      45.893  21.668  35.087  1.00  0.00     0.006 A 
ENDBRANCH  67  84
ENDBRANCH  41  42
ENDBRANCH  33  36
ENDBRANCH  31  32
ENDBRANCH  30  31
ENDBRANCH  29  30
ENDBRANCH  28  29
ENDBRANCH   1  28
TORSDOF 17
ENDMDL
