MODEL 1
REMARK VINA RESULT:     -12.2      0.000      0.000
REMARK SMILES Cc1ccc2c(c1)C=C(C(=O)NCCCCCCNC(=O)c1ccc(-c3c4nc(c(-c5c(F)cccc5F)c5ccc([nH]5)c(-c5c(F)cccc5F)c5nc(c(-c6c(F)cccc6F)c6ccc3[nH]6)C=C5)C=C4)cc1)[C@@H](C(F)(F)F)O2
REMARK SMILES IDX 16 1 15 2 14 3 13 4 12 5 10 6 11 7 9 9 1 10 2 11 3 12 7 13
REMARK SMILES IDX 4 14 6 15 5 16 8 17 81 18 76 19 77 20 78 21 79 22 80 23
REMARK SMILES IDX 17 24 18 25 19 26 20 27 21 29 22 30 23 31 75 32 24 33 74 34
REMARK SMILES IDX 25 35 26 36 27 37 68 38 28 39 73 40 67 41 69 42 29 43 72 44
REMARK SMILES IDX 66 45 65 46 30 48 56 49 39 50 55 51 40 52 43 53 54 54 70 55
REMARK SMILES IDX 41 56 42 57 53 59 71 60 44 61 31 62 32 63 37 64 33 65 34 66
REMARK SMILES IDX 36 67 38 68 35 69 57 70 58 71 63 72 59 73 60 74 62 75 64 76
REMARK SMILES IDX 61 77 45 78 46 79 51 80 47 81 48 82 50 83 52 84 49 85
REMARK H PARENT 12 8 19 28 69 47 43 58
REMARK Flexibility Score: inf
ROOT
ATOM      1  C   UNL A   1      31.692  30.470  26.104  1.00  0.00     0.002 C 
ENDROOT
BRANCH   1   2
ATOM      2  C   UNL A   1      32.756  29.671  26.869  1.00  0.00     0.002 C 
BRANCH   2   3
ATOM      3  C   UNL A   1      33.810  28.969  26.006  1.00  0.00     0.021 C 
BRANCH   3   4
ATOM      4  C   UNL A   1      33.809  27.446  26.124  1.00  0.00     0.116 C 
BRANCH   4   5
ATOM      5  N   UNL A   1      33.841  26.802  24.823  1.00  0.00    -0.352 N 
ATOM      6  C   UNL A   1      32.981  26.580  23.803  1.00  0.00     0.251 C 
ATOM      7  O   UNL A   1      33.469  25.991  22.833  1.00  0.00    -0.270 OA
ATOM      8  H   UNL A   1      34.730  26.424  24.632  1.00  0.00     0.163 HD
BRANCH   6   9
ATOM      9  C   UNL A   1      31.541  26.982  23.771  1.00  0.00     0.067 C 
ATOM     10  C   UNL A   1      28.016  31.938  22.600  1.00  0.00     0.044 C 
ATOM     11  C   UNL A   1      28.319  30.509  22.940  1.00  0.00    -0.050 A 
ATOM     12  C   UNL A   1      27.278  29.591  23.125  1.00  0.00     0.007 A 
ATOM     13  C   UNL A   1      29.647  30.062  23.010  1.00  0.00     0.015 A 
ATOM     14  C   UNL A   1      27.560  28.256  23.408  1.00  0.00     0.047 A 
ATOM     15  C   UNL A   1      29.932  28.723  23.296  1.00  0.00     0.017 A 
ATOM     16  C   UNL A   1      28.882  27.830  23.504  1.00  0.00     0.128 A 
ATOM     17  C   UNL A   1      31.304  28.235  23.339  1.00  0.00     0.025 C 
ATOM     18  O   UNL A   1      29.077  26.505  23.757  1.00  0.00    -0.475 OA
ATOM     19  C   UNL A   1      30.398  26.110  24.217  1.00  0.00     0.314 C 
BRANCH  19  20
ATOM     20  C   UNL A   1      30.356  25.918  25.742  1.00  0.00     0.429 C 
ATOM     21  F   UNL A   1      30.653  27.081  26.375  1.00  0.00    -0.167 F 
ATOM     22  F   UNL A   1      29.132  25.550  26.189  1.00  0.00    -0.167 F 
ATOM     23  F   UNL A   1      31.231  24.984  26.176  1.00  0.00    -0.167 F 
ENDBRANCH  19  20
ENDBRANCH   6   9
ENDBRANCH   4   5
ENDBRANCH   3   4
ENDBRANCH   2   3
ENDBRANCH   1   2
BRANCH   1  24
ATOM     24  C   UNL A   1      31.452  31.900  26.592  1.00  0.00     0.021 C 
BRANCH  24  25
ATOM     25  C   UNL A   1      32.654  32.568  27.251  1.00  0.00     0.116 C 
BRANCH  25  26
ATOM     26  N   UNL A   1      32.412  33.963  27.578  1.00  0.00    -0.352 N 
ATOM     27  C   UNL A   1      33.043  34.758  28.505  1.00  0.00     0.251 C 
ATOM     28  H   UNL A   1      31.695  34.401  27.064  1.00  0.00     0.163 HD
ATOM     29  O   UNL A   1      32.615  35.881  28.754  1.00  0.00    -0.269 OA
BRANCH  27  30
ATOM     30  C   UNL A   1      34.222  34.239  29.230  1.00  0.00     0.039 A 
ATOM     31  C   UNL A   1      35.513  34.478  28.754  1.00  0.00     0.014 A 
ATOM     32  C   UNL A   1      34.028  33.477  30.386  1.00  0.00     0.014 A 
ATOM     33  C   UNL A   1      36.593  33.824  29.338  1.00  0.00     0.010 A 
ATOM     34  C   UNL A   1      35.125  32.885  31.018  1.00  0.00     0.010 A 
ATOM     35  C   UNL A   1      36.411  33.014  30.469  1.00  0.00    -0.014 A 
BRANCH  35  36
ATOM     36  C   UNL A   1      37.572  32.294  31.050  1.00  0.00     0.031 A 
ATOM     37  C   UNL A   1      38.056  32.614  32.440  1.00  0.00     0.074 A 
ATOM     38  C   UNL A   1      38.160  31.309  30.344  1.00  0.00     0.049 A 
ATOM     39  N   UNL A   1      39.051  32.088  33.110  1.00  0.00    -0.248 NA
ATOM     40  C   UNL A   1      37.333  33.666  33.171  1.00  0.00     0.031 C 
ATOM     41  C   UNL A   1      37.774  30.893  28.994  1.00  0.00     0.029 A 
ATOM     42  N   UNL A   1      39.191  30.466  30.671  1.00  0.00    -0.354 N 
ATOM     43  C   UNL A   1      39.082  32.752  34.331  1.00  0.00     0.074 A 
ATOM     44  C   UNL A   1      38.027  33.743  34.297  1.00  0.00     0.031 C 
ATOM     45  C   UNL A   1      38.528  29.846  28.625  1.00  0.00     0.029 A 
ATOM     46  C   UNL A   1      39.487  29.556  29.686  1.00  0.00     0.049 A 
ATOM     47  H   UNL A   1      39.673  30.509  31.527  1.00  0.00     0.167 HD
ATOM     48  C   UNL A   1      39.907  32.549  35.387  1.00  0.00     0.037 A 
ATOM     49  C   UNL A   1      40.437  28.604  29.635  1.00  0.00     0.037 A 
ATOM     50  C   UNL A   1      40.946  31.554  35.428  1.00  0.00     0.049 A 
ATOM     51  C   UNL A   1      41.371  28.437  30.798  1.00  0.00     0.074 A 
ATOM     52  C   UNL A   1      41.821  31.259  36.458  1.00  0.00     0.029 A 
ATOM     53  N   UNL A   1      41.248  30.688  34.388  1.00  0.00    -0.354 N 
ATOM     54  N   UNL A   1      41.383  29.070  31.946  1.00  0.00    -0.248 NA
ATOM     55  C   UNL A   1      42.431  27.430  30.653  1.00  0.00     0.031 C 
ATOM     56  C   UNL A   1      42.678  30.239  36.029  1.00  0.00     0.029 A 
ATOM     57  C   UNL A   1      42.311  29.872  34.745  1.00  0.00     0.049 A 
ATOM     58  H   UNL A   1      40.779  30.657  33.523  1.00  0.00     0.167 HD
ATOM     59  C   UNL A   1      42.440  28.528  32.665  1.00  0.00     0.074 A 
ATOM     60  C   UNL A   1      43.030  27.500  31.832  1.00  0.00     0.031 C 
ATOM     61  C   UNL A   1      42.886  28.856  33.902  1.00  0.00     0.037 A 
BRANCH  48  62
ATOM     62  C   UNL A   1      39.726  33.436  36.585  1.00  0.00     0.057 A 
ATOM     63  C   UNL A   1      38.832  33.088  37.604  1.00  0.00     0.134 A 
ATOM     64  C   UNL A   1      40.414  34.649  36.717  1.00  0.00     0.134 A 
ATOM     65  F   UNL A   1      38.136  31.943  37.537  1.00  0.00    -0.206 F 
ATOM     66  C   UNL A   1      38.628  33.913  38.711  1.00  0.00     0.040 A 
ATOM     67  C   UNL A   1      40.237  35.473  37.831  1.00  0.00     0.040 A 
ATOM     68  F   UNL A   1      41.297  35.036  35.783  1.00  0.00    -0.206 F 
ATOM     69  C   UNL A   1      39.336  35.107  38.830  1.00  0.00     0.006 A 
ENDBRANCH  48  62
BRANCH  49  70
ATOM     70  C   UNL A   1      40.565  27.744  28.432  1.00  0.00     0.057 A 
ATOM     71  C   UNL A   1      39.918  26.506  28.350  1.00  0.00     0.134 A 
ATOM     72  C   UNL A   1      41.326  28.151  27.331  1.00  0.00     0.134 A 
ATOM     73  F   UNL A   1      39.177  26.059  29.374  1.00  0.00    -0.206 F 
ATOM     74  C   UNL A   1      40.030  25.697  27.218  1.00  0.00     0.040 A 
ATOM     75  C   UNL A   1      41.426  27.365  26.183  1.00  0.00     0.040 A 
ATOM     76  F   UNL A   1      41.952  29.337  27.344  1.00  0.00    -0.206 F 
ATOM     77  C   UNL A   1      40.779  26.131  26.126  1.00  0.00     0.006 A 
ENDBRANCH  49  70
BRANCH  61  78
ATOM     78  C   UNL A   1      44.053  28.076  34.428  1.00  0.00     0.057 A 
ATOM     79  C   UNL A   1      43.857  26.874  35.119  1.00  0.00     0.134 A 
ATOM     80  C   UNL A   1      45.371  28.519  34.258  1.00  0.00     0.134 A 
ATOM     81  F   UNL A   1      42.619  26.397  35.320  1.00  0.00    -0.206 F 
ATOM     82  C   UNL A   1      44.931  26.137  35.619  1.00  0.00     0.040 A 
ATOM     83  C   UNL A   1      46.455  27.779  34.733  1.00  0.00     0.040 A 
ATOM     84  F   UNL A   1      45.626  29.654  33.589  1.00  0.00    -0.206 F 
ATOM     85  C   UNL A   1      46.236  26.587  35.419  1.00  0.00     0.006 A 
ENDBRANCH  61  78
ENDBRANCH  35  36
ENDBRANCH  27  30
ENDBRANCH  25  26
ENDBRANCH  24  25
ENDBRANCH   1  24
TORSDOF 14
ENDMDL
MODEL 2
REMARK VINA RESULT:     -12.1      5.772     10.544
REMARK SMILES Cc1ccc2c(c1)C=C(C(=O)NCCCCCCNC(=O)c1ccc(-c3c4nc(c(-c5c(F)cccc5F)c5ccc([nH]5)c(-c5c(F)cccc5F)c5nc(c(-c6c(F)cccc6F)c6ccc3[nH]6)C=C5)C=C4)cc1)[C@@H](C(F)(F)F)O2
REMARK SMILES IDX 16 1 15 2 14 3 13 4 12 5 10 6 11 7 9 9 1 10 2 11 3 12 7 13
REMARK SMILES IDX 4 14 6 15 5 16 8 17 81 18 76 19 77 20 78 21 79 22 80 23
REMARK SMILES IDX 17 24 18 25 19 26 20 27 21 29 22 30 23 31 75 32 24 33 74 34
REMARK SMILES IDX 25 35 26 36 27 37 68 38 28 39 73 40 67 41 69 42 29 43 72 44
REMARK SMILES IDX 66 45 65 46 30 48 56 49 39 50 55 51 40 52 43 53 54 54 70 55
REMARK SMILES IDX 41 56 42 57 53 59 71 60 44 61 31 62 32 63 37 64 33 65 34 66
REMARK SMILES IDX 36 67 38 68 35 69 57 70 58 71 63 72 59 73 60 74 62 75 64 76
REMARK SMILES IDX 61 77 45 78 46 79 51 80 47 81 48 82 50 83 52 84 49 85
REMARK H PARENT 12 8 19 28 69 47 43 58
REMARK Flexibility Score: inf
ROOT
ATOM      1  C   UNL A   1      36.780  20.948  24.772  1.00  0.00     0.002 C 
ENDROOT
BRANCH   1   2
ATOM      2  C   UNL A   1      37.292  22.356  25.103  1.00  0.00     0.002 C 
BRANCH   2   3
ATOM      3  C   UNL A   1      36.454  23.150  26.110  1.00  0.00     0.021 C 
BRANCH   3   4
ATOM      4  C   UNL A   1      35.531  24.191  25.480  1.00  0.00     0.116 C 
BRANCH   4   5
ATOM      5  N   UNL A   1      34.191  24.134  26.036  1.00  0.00    -0.352 N 
ATOM      6  C   UNL A   1      33.078  23.384  25.870  1.00  0.00     0.251 C 
ATOM      7  O   UNL A   1      32.136  23.683  26.612  1.00  0.00    -0.270 OA
ATOM      8  H   UNL A   1      34.055  24.831  26.718  1.00  0.00     0.163 HD
BRANCH   6   9
ATOM      9  C   UNL A   1      32.917  22.264  24.893  1.00  0.00     0.067 C 
ATOM     10  C   UNL A   1      34.113  16.210  24.363  1.00  0.00     0.044 C 
ATOM     11  C   UNL A   1      33.581  17.552  23.958  1.00  0.00    -0.050 A 
ATOM     12  C   UNL A   1      32.887  17.702  22.751  1.00  0.00     0.007 A 
ATOM     13  C   UNL A   1      33.713  18.656  24.813  1.00  0.00     0.015 A 
ATOM     14  C   UNL A   1      32.364  18.942  22.390  1.00  0.00     0.047 A 
ATOM     15  C   UNL A   1      33.191  19.903  24.452  1.00  0.00     0.017 A 
ATOM     16  C   UNL A   1      32.527  20.038  23.234  1.00  0.00     0.128 A 
ATOM     17  C   UNL A   1      33.290  21.051  25.342  1.00  0.00     0.025 C 
ATOM     18  O   UNL A   1      31.965  21.209  22.824  1.00  0.00    -0.475 OA
ATOM     19  C   UNL A   1      32.419  22.423  23.482  1.00  0.00     0.314 C 
BRANCH  19  20
ATOM     20  C   UNL A   1      33.435  23.132  22.569  1.00  0.00     0.429 C 
ATOM     21  F   UNL A   1      34.683  22.639  22.776  1.00  0.00    -0.167 F 
ATOM     22  F   UNL A   1      33.173  22.948  21.253  1.00  0.00    -0.167 F 
ATOM     23  F   UNL A   1      33.486  24.466  22.779  1.00  0.00    -0.167 F 
ENDBRANCH  19  20
ENDBRANCH   6   9
ENDBRANCH   4   5
ENDBRANCH   3   4
ENDBRANCH   2   3
ENDBRANCH   1   2
BRANCH   1  24
ATOM     24  C   UNL A   1      37.773  19.806  24.997  1.00  0.00     0.021 C 
BRANCH  24  25
ATOM     25  C   UNL A   1      39.041  20.192  25.751  1.00  0.00     0.116 C 
BRANCH  25  26
ATOM     26  N   UNL A   1      40.028  19.126  25.772  1.00  0.00    -0.352 N 
ATOM     27  C   UNL A   1      41.384  19.205  25.986  1.00  0.00     0.251 C 
ATOM     28  H   UNL A   1      39.678  18.220  25.611  1.00  0.00     0.163 HD
ATOM     29  O   UNL A   1      42.096  18.218  25.827  1.00  0.00    -0.269 OA
BRANCH  27  30
ATOM     30  C   UNL A   1      41.988  20.497  26.374  1.00  0.00     0.039 A 
ATOM     31  C   UNL A   1      42.119  20.847  27.719  1.00  0.00     0.014 A 
ATOM     32  C   UNL A   1      42.401  21.382  25.373  1.00  0.00     0.014 A 
ATOM     33  C   UNL A   1      42.510  22.138  28.060  1.00  0.00     0.010 A 
ATOM     34  C   UNL A   1      42.868  22.651  25.721  1.00  0.00     0.010 A 
ATOM     35  C   UNL A   1      42.880  23.057  27.066  1.00  0.00    -0.014 A 
BRANCH  35  36
ATOM     36  C   UNL A   1      43.253  24.442  27.450  1.00  0.00     0.031 A 
ATOM     37  C   UNL A   1      44.686  24.899  27.371  1.00  0.00     0.074 A 
ATOM     38  C   UNL A   1      42.291  25.308  27.820  1.00  0.00     0.049 A 
ATOM     39  N   UNL A   1      45.197  26.069  27.663  1.00  0.00    -0.248 NA
ATOM     40  C   UNL A   1      45.676  23.913  26.909  1.00  0.00     0.031 C 
ATOM     41  C   UNL A   1      40.865  24.991  27.922  1.00  0.00     0.029 A 
ATOM     42  N   UNL A   1      42.363  26.634  28.159  1.00  0.00    -0.354 N 
ATOM     43  C   UNL A   1      46.564  25.956  27.436  1.00  0.00     0.074 A 
ATOM     44  C   UNL A   1      46.808  24.593  27.012  1.00  0.00     0.031 C 
ATOM     45  C   UNL A   1      40.191  26.103  28.254  1.00  0.00     0.029 A 
ATOM     46  C   UNL A   1      41.141  27.193  28.446  1.00  0.00     0.049 A 
ATOM     47  H   UNL A   1      43.207  27.138  28.195  1.00  0.00     0.167 HD
ATOM     48  C   UNL A   1      47.526  26.902  27.558  1.00  0.00     0.037 A 
ATOM     49  C   UNL A   1      40.823  28.440  28.838  1.00  0.00     0.037 A 
ATOM     50  C   UNL A   1      47.282  28.262  27.964  1.00  0.00     0.049 A 
ATOM     51  C   UNL A   1      41.916  29.454  29.016  1.00  0.00     0.074 A 
ATOM     52  C   UNL A   1      48.188  29.300  28.100  1.00  0.00     0.029 A 
ATOM     53  N   UNL A   1      46.037  28.773  28.298  1.00  0.00    -0.354 N 
ATOM     54  N   UNL A   1      43.202  29.332  28.792  1.00  0.00    -0.248 NA
ATOM     55  C   UNL A   1      41.513  30.776  29.515  1.00  0.00     0.031 C 
ATOM     56  C   UNL A   1      47.497  30.429  28.553  1.00  0.00     0.029 A 
ATOM     57  C   UNL A   1      46.155  30.107  28.660  1.00  0.00     0.049 A 
ATOM     58  H   UNL A   1      45.195  28.265  28.282  1.00  0.00     0.167 HD
ATOM     59  C   UNL A   1      43.759  30.564  29.107  1.00  0.00     0.074 A 
ATOM     60  C   UNL A   1      42.668  31.425  29.517  1.00  0.00     0.031 C 
ATOM     61  C   UNL A   1      45.059  30.947  29.067  1.00  0.00     0.037 A 
BRANCH  48  62
ATOM     62  C   UNL A   1      48.940  26.493  27.263  1.00  0.00     0.057 A 
ATOM     63  C   UNL A   1      49.454  26.583  25.963  1.00  0.00     0.134 A 
ATOM     64  C   UNL A   1      49.785  25.981  28.256  1.00  0.00     0.134 A 
ATOM     65  F   UNL A   1      48.695  27.059  24.964  1.00  0.00    -0.206 F 
ATOM     66  C   UNL A   1      50.756  26.180  25.662  1.00  0.00     0.040 A 
ATOM     67  C   UNL A   1      51.096  25.595  27.973  1.00  0.00     0.040 A 
ATOM     68  F   UNL A   1      49.360  25.880  29.525  1.00  0.00    -0.206 F 
ATOM     69  C   UNL A   1      51.583  25.690  26.670  1.00  0.00     0.006 A 
ENDBRANCH  48  62
BRANCH  49  70
ATOM     70  C   UNL A   1      39.408  28.799  29.105  1.00  0.00     0.057 A 
ATOM     71  C   UNL A   1      38.839  28.625  30.371  1.00  0.00     0.134 A 
ATOM     72  C   UNL A   1      38.598  29.339  28.100  1.00  0.00     0.134 A 
ATOM     73  F   UNL A   1      39.563  28.109  31.375  1.00  0.00    -0.206 F 
ATOM     74  C   UNL A   1      37.511  28.967  30.628  1.00  0.00     0.040 A 
ATOM     75  C   UNL A   1      37.277  29.711  28.349  1.00  0.00     0.040 A 
ATOM     76  F   UNL A   1      39.094  29.548  26.872  1.00  0.00    -0.206 F 
ATOM     77  C   UNL A   1      36.728  29.521  29.617  1.00  0.00     0.006 A 
ENDBRANCH  49  70
BRANCH  61  78
ATOM     78  C   UNL A   1      45.357  32.363  29.455  1.00  0.00     0.057 A 
ATOM     79  C   UNL A   1      45.668  32.690  30.781  1.00  0.00     0.134 A 
ATOM     80  C   UNL A   1      45.330  33.406  28.520  1.00  0.00     0.134 A 
ATOM     81  F   UNL A   1      45.707  31.739  31.727  1.00  0.00    -0.206 F 
ATOM     82  C   UNL A   1      45.945  34.003  31.163  1.00  0.00     0.040 A 
ATOM     83  C   UNL A   1      45.627  34.719  28.885  1.00  0.00     0.040 A 
ATOM     84  F   UNL A   1      45.056  33.154  27.231  1.00  0.00    -0.206 F 
ATOM     85  C   UNL A   1      45.932  35.021  30.211  1.00  0.00     0.006 A 
ENDBRANCH  61  78
ENDBRANCH  35  36
ENDBRANCH  27  30
ENDBRANCH  25  26
ENDBRANCH  24  25
ENDBRANCH   1  24
TORSDOF 14
ENDMDL
MODEL 3
REMARK VINA RESULT:     -12.0      5.820      9.940
REMARK SMILES Cc1ccc2c(c1)C=C(C(=O)NCCCCCCNC(=O)c1ccc(-c3c4nc(c(-c5c(F)cccc5F)c5ccc([nH]5)c(-c5c(F)cccc5F)c5nc(c(-c6c(F)cccc6F)c6ccc3[nH]6)C=C5)C=C4)cc1)[C@@H](C(F)(F)F)O2
REMARK SMILES IDX 16 1 15 2 14 3 13 4 12 5 10 6 11 7 9 9 1 10 2 11 3 12 7 13
REMARK SMILES IDX 4 14 6 15 5 16 8 17 81 18 76 19 77 20 78 21 79 22 80 23
REMARK SMILES IDX 17 24 18 25 19 26 20 27 21 29 22 30 23 31 75 32 24 33 74 34
REMARK SMILES IDX 25 35 26 36 27 37 68 38 28 39 73 40 67 41 69 42 29 43 72 44
REMARK SMILES IDX 66 45 65 46 30 48 56 49 39 50 55 51 40 52 43 53 54 54 70 55
REMARK SMILES IDX 41 56 42 57 53 59 71 60 44 61 31 62 32 63 37 64 33 65 34 66
REMARK SMILES IDX 36 67 38 68 35 69 57 70 58 71 63 72 59 73 60 74 62 75 64 76
REMARK SMILES IDX 61 77 45 78 46 79 51 80 47 81 48 82 50 83 52 84 49 85
REMARK H PARENT 12 8 19 28 69 47 43 58
REMARK Flexibility Score: inf
ROOT
ATOM      1  C   UNL A   1      36.840  21.137  24.651  1.00  0.00     0.002 C 
ENDROOT
BRANCH   1   2
ATOM      2  C   UNL A   1      37.281  22.509  25.178  1.00  0.00     0.002 C 
BRANCH   2   3
ATOM      3  C   UNL A   1      36.300  23.205  26.127  1.00  0.00     0.021 C 
BRANCH   3   4
ATOM      4  C   UNL A   1      35.397  24.237  25.455  1.00  0.00     0.116 C 
BRANCH   4   5
ATOM      5  N   UNL A   1      34.041  24.190  25.972  1.00  0.00    -0.352 N 
ATOM      6  C   UNL A   1      32.934  23.435  25.789  1.00  0.00     0.251 C 
ATOM      7  O   UNL A   1      31.970  23.748  26.496  1.00  0.00    -0.270 OA
ATOM      8  H   UNL A   1      33.885  24.901  26.635  1.00  0.00     0.163 HD
BRANCH   6   9
ATOM      9  C   UNL A   1      32.803  22.295  24.830  1.00  0.00     0.067 C 
ATOM     10  C   UNL A   1      34.140  16.262  24.409  1.00  0.00     0.044 C 
ATOM     11  C   UNL A   1      33.579  17.585  23.978  1.00  0.00    -0.050 A 
ATOM     12  C   UNL A   1      32.888  17.699  22.766  1.00  0.00     0.007 A 
ATOM     13  C   UNL A   1      33.682  18.706  24.815  1.00  0.00     0.015 A 
ATOM     14  C   UNL A   1      32.338  18.920  22.382  1.00  0.00     0.047 A 
ATOM     15  C   UNL A   1      33.134  19.934  24.430  1.00  0.00     0.017 A 
ATOM     16  C   UNL A   1      32.472  20.033  23.207  1.00  0.00     0.128 A 
ATOM     17  C   UNL A   1      33.202  21.099  25.301  1.00  0.00     0.025 C 
ATOM     18  O   UNL A   1      31.885  21.184  22.775  1.00  0.00    -0.475 OA
ATOM     19  C   UNL A   1      32.309  22.419  23.414  1.00  0.00     0.314 C 
BRANCH  19  20
ATOM     20  C   UNL A   1      33.312  23.135  22.494  1.00  0.00     0.429 C 
ATOM     21  F   UNL A   1      34.576  22.716  22.754  1.00  0.00    -0.167 F 
ATOM     22  F   UNL A   1      33.093  22.879  21.182  1.00  0.00    -0.167 F 
ATOM     23  F   UNL A   1      33.291  24.478  22.642  1.00  0.00    -0.167 F 
ENDBRANCH  19  20
ENDBRANCH   6   9
ENDBRANCH   4   5
ENDBRANCH   3   4
ENDBRANCH   2   3
ENDBRANCH   1   2
BRANCH   1  24
ATOM     24  C   UNL A   1      37.753  19.961  25.004  1.00  0.00     0.021 C 
BRANCH  24  25
ATOM     25  C   UNL A   1      39.031  20.336  25.746  1.00  0.00     0.116 C 
BRANCH  25  26
ATOM     26  N   UNL A   1      39.953  19.220  25.876  1.00  0.00    -0.352 N 
ATOM     27  C   UNL A   1      41.305  19.237  26.122  1.00  0.00     0.251 C 
ATOM     28  H   UNL A   1      39.553  18.326  25.775  1.00  0.00     0.163 HD
ATOM     29  O   UNL A   1      41.961  18.202  26.060  1.00  0.00    -0.269 OA
BRANCH  27  30
ATOM     30  C   UNL A   1      41.975  20.519  26.428  1.00  0.00     0.039 A 
ATOM     31  C   UNL A   1      42.183  20.916  27.751  1.00  0.00     0.014 A 
ATOM     32  C   UNL A   1      42.372  21.347  25.374  1.00  0.00     0.014 A 
ATOM     33  C   UNL A   1      42.639  22.203  28.020  1.00  0.00     0.010 A 
ATOM     34  C   UNL A   1      42.903  22.610  25.648  1.00  0.00     0.010 A 
ATOM     35  C   UNL A   1      42.994  23.067  26.972  1.00  0.00    -0.014 A 
BRANCH  35  36
ATOM     36  C   UNL A   1      43.438  24.450  27.282  1.00  0.00     0.031 A 
ATOM     37  C   UNL A   1      42.451  25.483  27.757  1.00  0.00     0.074 A 
ATOM     38  C   UNL A   1      44.745  24.761  27.187  1.00  0.00     0.049 A 
ATOM     39  N   UNL A   1      42.657  26.737  28.076  1.00  0.00    -0.248 NA
ATOM     40  C   UNL A   1      41.049  25.056  27.886  1.00  0.00     0.031 C 
ATOM     41  C   UNL A   1      45.801  23.845  26.753  1.00  0.00     0.029 A 
ATOM     42  N   UNL A   1      45.409  25.928  27.467  1.00  0.00    -0.354 N 
ATOM     43  C   UNL A   1      41.414  27.251  28.426  1.00  0.00     0.074 A 
ATOM     44  C   UNL A   1      40.453  26.182  28.252  1.00  0.00     0.031 C 
ATOM     45  C   UNL A   1      46.986  24.469  26.840  1.00  0.00     0.029 A 
ATOM     46  C   UNL A   1      46.767  25.844  27.276  1.00  0.00     0.049 A 
ATOM     47  H   UNL A   1      44.958  26.746  27.775  1.00  0.00     0.167 HD
ATOM     48  C   UNL A   1      41.102  28.495  28.865  1.00  0.00     0.037 A 
ATOM     49  C   UNL A   1      47.727  26.775  27.420  1.00  0.00     0.037 A 
ATOM     50  C   UNL A   1      42.059  29.553  29.055  1.00  0.00     0.049 A 
ATOM     51  C   UNL A   1      47.346  28.160  27.856  1.00  0.00     0.074 A 
ATOM     52  C   UNL A   1      41.844  30.842  29.513  1.00  0.00     0.029 A 
ATOM     53  N   UNL A   1      43.417  29.443  28.798  1.00  0.00    -0.354 N 
ATOM     54  N   UNL A   1      46.166  28.627  28.189  1.00  0.00    -0.248 NA
ATOM     55  C   UNL A   1      48.428  29.151  27.924  1.00  0.00     0.031 C 
ATOM     56  C   UNL A   1      43.066  31.524  29.497  1.00  0.00     0.029 A 
ATOM     57  C   UNL A   1      44.049  30.647  29.068  1.00  0.00     0.049 A 
ATOM     58  H   UNL A   1      43.867  28.631  28.471  1.00  0.00     0.167 HD
ATOM     59  C   UNL A   1      46.368  29.960  28.521  1.00  0.00     0.074 A 
ATOM     60  C   UNL A   1      47.785  30.220  28.370  1.00  0.00     0.031 C 
ATOM     61  C   UNL A   1      45.460  30.888  28.910  1.00  0.00     0.037 A 
BRANCH  48  62
ATOM     62  C   UNL A   1      39.657  28.783  29.156  1.00  0.00     0.057 A 
ATOM     63  C   UNL A   1      38.810  29.270  28.154  1.00  0.00     0.134 A 
ATOM     64  C   UNL A   1      39.111  28.607  30.434  1.00  0.00     0.134 A 
ATOM     65  F   UNL A   1      39.270  29.468  26.909  1.00  0.00    -0.206 F 
ATOM     66  C   UNL A   1      37.471  29.572  28.412  1.00  0.00     0.040 A 
ATOM     67  C   UNL A   1      37.769  28.883  30.699  1.00  0.00     0.040 A 
ATOM     68  F   UNL A   1      39.866  28.129  31.437  1.00  0.00    -0.206 F 
ATOM     69  C   UNL A   1      36.946  29.373  29.686  1.00  0.00     0.006 A 
ENDBRANCH  48  62
BRANCH  49  70
ATOM     70  C   UNL A   1      49.142  26.436  27.132  1.00  0.00     0.057 A 
ATOM     71  C   UNL A   1      49.659  26.504  25.833  1.00  0.00     0.134 A 
ATOM     72  C   UNL A   1      50.016  26.051  28.155  1.00  0.00     0.134 A 
ATOM     73  F   UNL A   1      48.871  26.862  24.809  1.00  0.00    -0.206 F 
ATOM     74  C   UNL A   1      50.991  26.192  25.559  1.00  0.00     0.040 A 
ATOM     75  C   UNL A   1      51.356  25.763  27.901  1.00  0.00     0.040 A 
ATOM     76  F   UNL A   1      49.583  25.988  29.423  1.00  0.00    -0.206 F 
ATOM     77  C   UNL A   1      51.846  25.829  26.597  1.00  0.00     0.006 A 
ENDBRANCH  49  70
BRANCH  61  78
ATOM     78  C   UNL A   1      45.984  32.258  29.218  1.00  0.00     0.057 A 
ATOM     79  C   UNL A   1      46.437  32.577  30.504  1.00  0.00     0.134 A 
ATOM     80  C   UNL A   1      46.033  33.264  28.245  1.00  0.00     0.134 A 
ATOM     81  F   UNL A   1      46.412  31.660  31.483  1.00  0.00    -0.206 F 
ATOM     82  C   UNL A   1      46.924  33.848  30.811  1.00  0.00     0.040 A 
ATOM     83  C   UNL A   1      46.540  34.532  28.533  1.00  0.00     0.040 A 
ATOM     84  F   UNL A   1      45.630  33.015  26.990  1.00  0.00    -0.206 F 
ATOM     85  C   UNL A   1      46.983  34.828  29.821  1.00  0.00     0.006 A 
ENDBRANCH  61  78
ENDBRANCH  35  36
ENDBRANCH  27  30
ENDBRANCH  25  26
ENDBRANCH  24  25
ENDBRANCH   1  24
TORSDOF 14
ENDMDL
