MODEL 1
REMARK VINA RESULT:     -12.6      0.000      0.000
REMARK SMILES COc1ccc2c(CC(=O)NCCCCCCNC(=O)c3ccc(-c4c5nc(c(-c6c(F)cccc6F)c6ccc([nH]6)c(-c6c(F)cccc6F)c6nc(c(-c7c(F)cccc7F)c7ccc4[nH]7)C=C6)C=C5)cc3)c(C(=O)c3cc(C)ccn3)[nH]c2c1
REMARK SMILES IDX 14 1 13 2 12 3 11 4 9 5 10 6 8 8 7 9 3 10 4 11 87 12 5 13
REMARK SMILES IDX 86 14 6 15 85 16 75 17 2 19 1 20 76 21 77 22 78 23 79 24
REMARK SMILES IDX 84 25 80 26 83 27 81 28 82 29 15 30 16 31 17 32 18 33 19 34
REMARK SMILES IDX 20 36 21 37 22 38 74 39 23 40 73 41 24 42 25 43 26 44 67 45
REMARK SMILES IDX 27 46 72 47 66 48 68 49 28 50 71 51 65 52 64 53 29 55 55 56
REMARK SMILES IDX 38 57 54 58 39 59 42 60 53 61 69 62 40 63 41 64 52 66 70 67
REMARK SMILES IDX 43 68 30 69 31 70 36 71 32 72 33 73 35 74 37 75 34 76 56 77
REMARK SMILES IDX 57 78 62 79 58 80 59 81 61 82 63 83 60 84 44 85 45 86 50 87
REMARK SMILES IDX 46 88 47 89 49 90 51 91 48 92
REMARK H PARENT 11 7 85 18 18 35 68 54 42 65
REMARK Flexibility Score: inf
ROOT
ATOM      1  C   UNL A   1      32.388  29.884  26.851  1.00  0.00     0.002 C 
ENDROOT
BRANCH   1   2
ATOM      2  C   UNL A   1      31.765  28.551  27.291  1.00  0.00     0.021 C 
BRANCH   2   3
ATOM      3  C   UNL A   1      31.882  27.430  26.261  1.00  0.00     0.116 C 
BRANCH   3   4
ATOM      4  N   UNL A   1      31.353  26.177  26.754  1.00  0.00    -0.356 N 
ATOM      5  C   UNL A   1      31.795  24.900  26.562  1.00  0.00     0.224 C 
ATOM      6  O   UNL A   1      31.265  24.022  27.249  1.00  0.00    -0.275 OA
ATOM      7  H   UNL A   1      30.548  26.258  27.313  1.00  0.00     0.163 HD
BRANCH   5   8
ATOM      8  C   UNL A   1      32.988  24.589  25.666  1.00  0.00     0.138 C 
BRANCH   8   9
ATOM      9  C   UNL A   1      32.696  23.774  24.433  1.00  0.00    -0.002 A 
ATOM     10  C   UNL A   1      32.288  19.643  23.660  1.00  0.00     0.120 A 
ATOM     11  C   UNL A   1      32.498  19.982  24.994  1.00  0.00     0.047 A 
ATOM     12  C   UNL A   1      32.243  20.636  22.674  1.00  0.00     0.073 A 
ATOM     13  C   UNL A   1      32.637  21.324  25.374  1.00  0.00     0.014 A 
ATOM     14  C   UNL A   1      32.370  21.971  23.075  1.00  0.00     0.050 A 
ATOM     15  C   UNL A   1      32.571  22.342  24.399  1.00  0.00     0.004 A 
ATOM     16  N   UNL A   1      32.335  23.127  22.334  1.00  0.00    -0.351 N 
ATOM     17  C   UNL A   1      32.432  24.241  23.144  1.00  0.00     0.093 A 
ATOM     18  H   UNL A   1      32.253  23.157  21.354  1.00  0.00     0.167 HD
BRANCH  10  19
ATOM     19  O   UNL A   1      32.150  18.361  23.195  1.00  0.00    -0.497 OA
ATOM     20  C   UNL A   1      33.355  17.602  23.136  1.00  0.00     0.278 C 
ENDBRANCH  10  19
BRANCH  17  21
ATOM     21  C   UNL A   1      32.299  25.622  22.691  1.00  0.00     0.227 C 
ATOM     22  O   UNL A   1      33.197  26.231  22.112  1.00  0.00    -0.285 OA
BRANCH  21  23
ATOM     23  C   UNL A   1      31.047  26.368  22.990  1.00  0.00     0.113 A 
ATOM     24  C   UNL A   1      30.919  27.696  22.591  1.00  0.00     0.036 A 
ATOM     25  N   UNL A   1      30.076  25.674  23.634  1.00  0.00    -0.253 NA
ATOM     26  C   UNL A   1      29.721  28.358  22.867  1.00  0.00    -0.047 A 
ATOM     27  C   UNL A   1      28.917  26.326  23.857  1.00  0.00     0.112 A 
ATOM     28  C   UNL A   1      29.508  29.787  22.468  1.00  0.00     0.044 C 
ATOM     29  C   UNL A   1      28.697  27.649  23.502  1.00  0.00     0.023 A 
ENDBRANCH  21  23
ENDBRANCH  17  21
ENDBRANCH   8   9
ENDBRANCH   5   8
ENDBRANCH   3   4
ENDBRANCH   2   3
ENDBRANCH   1   2
BRANCH   1  30
ATOM     30  C   UNL A   1      31.490  30.787  25.998  1.00  0.00     0.002 C 
BRANCH  30  31
ATOM     31  C   UNL A   1      31.320  32.221  26.509  1.00  0.00     0.021 C 
BRANCH  31  32
ATOM     32  C   UNL A   1      32.527  32.791  27.249  1.00  0.00     0.116 C 
BRANCH  32  33
ATOM     33  N   UNL A   1      32.339  34.184  27.624  1.00  0.00    -0.352 N 
ATOM     34  C   UNL A   1      32.979  34.925  28.587  1.00  0.00     0.251 C 
ATOM     35  H   UNL A   1      31.651  34.667  27.113  1.00  0.00     0.163 HD
ATOM     36  O   UNL A   1      32.568  36.046  28.874  1.00  0.00    -0.269 OA
BRANCH  34  37
ATOM     37  C   UNL A   1      34.152  34.373  29.299  1.00  0.00     0.039 A 
ATOM     38  C   UNL A   1      33.955  33.740  30.530  1.00  0.00     0.014 A 
ATOM     39  C   UNL A   1      35.442  34.500  28.776  1.00  0.00     0.014 A 
ATOM     40  C   UNL A   1      35.042  33.182  31.208  1.00  0.00     0.010 A 
ATOM     41  C   UNL A   1      36.517  33.895  29.425  1.00  0.00     0.010 A 
ATOM     42  C   UNL A   1      36.327  33.230  30.646  1.00  0.00    -0.014 A 
BRANCH  42  43
ATOM     43  C   UNL A   1      37.485  32.587  31.316  1.00  0.00     0.031 A 
ATOM     44  C   UNL A   1      38.197  31.438  30.662  1.00  0.00     0.074 A 
ATOM     45  C   UNL A   1      37.852  32.996  32.546  1.00  0.00     0.049 A 
ATOM     46  N   UNL A   1      39.170  30.695  31.128  1.00  0.00    -0.248 NA
ATOM     47  C   UNL A   1      37.740  31.057  29.316  1.00  0.00     0.031 C 
ATOM     48  C   UNL A   1      37.217  34.074  33.305  1.00  0.00     0.029 A 
ATOM     49  N   UNL A   1      38.842  32.540  33.381  1.00  0.00    -0.354 N 
ATOM     50  C   UNL A   1      39.428  29.750  30.143  1.00  0.00     0.074 A 
ATOM     51  C   UNL A   1      38.485  29.989  29.071  1.00  0.00     0.031 C 
ATOM     52  C   UNL A   1      37.840  34.206  34.487  1.00  0.00     0.029 A 
ATOM     53  C   UNL A   1      38.896  33.202  34.582  1.00  0.00     0.049 A 
ATOM     54  H   UNL A   1      39.455  31.808  33.140  1.00  0.00     0.167 HD
ATOM     55  C   UNL A   1      40.375  28.782  30.127  1.00  0.00     0.037 A 
ATOM     56  C   UNL A   1      39.701  33.017  35.645  1.00  0.00     0.037 A 
ATOM     57  C   UNL A   1      41.332  28.564  31.179  1.00  0.00     0.049 A 
ATOM     58  C   UNL A   1      40.750  31.941  35.599  1.00  0.00     0.074 A 
ATOM     59  C   UNL A   1      42.370  27.648  31.226  1.00  0.00     0.029 A 
ATOM     60  N   UNL A   1      41.371  29.272  32.370  1.00  0.00    -0.354 N 
ATOM     61  N   UNL A   1      41.017  31.089  34.639  1.00  0.00    -0.248 NA
ATOM     62  C   UNL A   1      41.611  31.804  36.782  1.00  0.00     0.031 C 
ATOM     63  C   UNL A   1      43.017  27.782  32.459  1.00  0.00     0.029 A 
ATOM     64  C   UNL A   1      42.404  28.803  33.166  1.00  0.00     0.049 A 
ATOM     65  H   UNL A   1      40.755  29.999  32.615  1.00  0.00     0.167 HD
ATOM     66  C   UNL A   1      42.089  30.332  35.091  1.00  0.00     0.074 A 
ATOM     67  C   UNL A   1      42.430  30.831  36.407  1.00  0.00     0.031 C 
ATOM     68  C   UNL A   1      42.732  29.313  34.471  1.00  0.00     0.037 A 
BRANCH  55  69
ATOM     69  C   UNL A   1      40.423  27.886  28.926  1.00  0.00     0.057 A 
ATOM     70  C   UNL A   1      41.225  28.184  27.816  1.00  0.00     0.134 A 
ATOM     71  C   UNL A   1      39.687  26.696  28.890  1.00  0.00     0.134 A 
ATOM     72  F   UNL A   1      41.946  29.315  27.783  1.00  0.00    -0.206 F 
ATOM     73  C   UNL A   1      41.273  27.344  26.703  1.00  0.00     0.040 A 
ATOM     74  C   UNL A   1      39.744  25.835  27.793  1.00  0.00     0.040 A 
ATOM     75  F   UNL A   1      38.903  26.348  29.922  1.00  0.00    -0.206 F 
ATOM     76  C   UNL A   1      40.535  26.160  26.693  1.00  0.00     0.006 A 
ENDBRANCH  55  69
BRANCH  56  77
ATOM     77  C   UNL A   1      39.563  33.886  36.838  1.00  0.00     0.057 A 
ATOM     78  C   UNL A   1      38.777  33.490  37.927  1.00  0.00     0.134 A 
ATOM     79  C   UNL A   1      40.206  35.126  36.920  1.00  0.00     0.134 A 
ATOM     80  F   UNL A   1      38.121  32.320  37.896  1.00  0.00    -0.206 F 
ATOM     81  C   UNL A   1      38.624  34.303  39.051  1.00  0.00     0.040 A 
ATOM     82  C   UNL A   1      40.078  35.940  38.046  1.00  0.00     0.040 A 
ATOM     83  F   UNL A   1      40.975  35.557  35.911  1.00  0.00    -0.206 F 
ATOM     84  C   UNL A   1      39.280  35.531  39.113  1.00  0.00     0.006 A 
ENDBRANCH  56  77
BRANCH  68  85
ATOM     85  C   UNL A   1      43.887  28.692  35.197  1.00  0.00     0.057 A 
ATOM     86  C   UNL A   1      43.716  27.588  36.042  1.00  0.00     0.134 A 
ATOM     87  C   UNL A   1      45.187  29.181  35.022  1.00  0.00     0.134 A 
ATOM     88  F   UNL A   1      42.493  27.083  36.261  1.00  0.00    -0.206 F 
ATOM     89  C   UNL A   1      44.798  27.004  36.702  1.00  0.00     0.040 A 
ATOM     90  C   UNL A   1      46.279  28.593  35.660  1.00  0.00     0.040 A 
ATOM     91  F   UNL A   1      45.417  30.233  34.221  1.00  0.00    -0.206 F 
ATOM     92  C   UNL A   1      46.085  27.503  36.507  1.00  0.00     0.006 A 
ENDBRANCH  68  85
ENDBRANCH  42  43
ENDBRANCH  34  37
ENDBRANCH  32  33
ENDBRANCH  31  32
ENDBRANCH  30  31
ENDBRANCH   1  30
TORSDOF 17
ENDMDL
MODEL 2
REMARK VINA RESULT:     -12.5      4.650      9.776
REMARK SMILES COc1ccc2c(CC(=O)NCCCCCCNC(=O)c3ccc(-c4c5nc(c(-c6c(F)cccc6F)c6ccc([nH]6)c(-c6c(F)cccc6F)c6nc(c(-c7c(F)cccc7F)c7ccc4[nH]7)C=C6)C=C5)cc3)c(C(=O)c3cc(C)ccn3)[nH]c2c1
REMARK SMILES IDX 14 1 13 2 12 3 11 4 9 5 10 6 8 8 7 9 3 10 4 11 87 12 5 13
REMARK SMILES IDX 86 14 6 15 85 16 75 17 2 19 1 20 76 21 77 22 78 23 79 24
REMARK SMILES IDX 84 25 80 26 83 27 81 28 82 29 15 30 16 31 17 32 18 33 19 34
REMARK SMILES IDX 20 36 21 37 22 38 74 39 23 40 73 41 24 42 25 43 26 44 67 45
REMARK SMILES IDX 27 46 72 47 66 48 68 49 28 50 71 51 65 52 64 53 29 55 55 56
REMARK SMILES IDX 38 57 54 58 39 59 42 60 53 61 69 62 40 63 41 64 52 66 70 67
REMARK SMILES IDX 43 68 30 69 31 70 36 71 32 72 33 73 35 74 37 75 34 76 56 77
REMARK SMILES IDX 57 78 62 79 58 80 59 81 61 82 63 83 60 84 44 85 45 86 50 87
REMARK SMILES IDX 46 88 47 89 49 90 51 91 48 92
REMARK H PARENT 11 7 85 18 18 35 68 54 42 65
REMARK Flexibility Score: inf
ROOT
ATOM      1  C   UNL A   1      35.790  21.695  26.077  1.00  0.00     0.002 C 
ENDROOT
BRANCH   1   2
ATOM      2  C   UNL A   1      35.959  23.221  26.069  1.00  0.00     0.021 C 
BRANCH   2   3
ATOM      3  C   UNL A   1      34.651  24.001  25.956  1.00  0.00     0.116 C 
BRANCH   3   4
ATOM      4  N   UNL A   1      34.550  24.722  24.706  1.00  0.00    -0.356 N 
ATOM      5  C   UNL A   1      33.786  25.803  24.375  1.00  0.00     0.224 C 
ATOM      6  O   UNL A   1      34.027  26.339  23.289  1.00  0.00    -0.275 OA
ATOM      7  H   UNL A   1      35.120  24.379  23.982  1.00  0.00     0.163 HD
BRANCH   5   8
ATOM      8  C   UNL A   1      32.796  26.418  25.357  1.00  0.00     0.138 C 
BRANCH   8   9
ATOM      9  C   UNL A   1      31.341  26.324  24.977  1.00  0.00    -0.002 A 
ATOM     10  C   UNL A   1      28.671  28.842  22.888  1.00  0.00     0.120 A 
ATOM     11  C   UNL A   1      29.986  29.294  22.959  1.00  0.00     0.047 A 
ATOM     12  C   UNL A   1      28.301  27.638  23.501  1.00  0.00     0.073 A 
ATOM     13  C   UNL A   1      30.964  28.538  23.617  1.00  0.00     0.014 A 
ATOM     14  C   UNL A   1      29.296  26.890  24.141  1.00  0.00     0.050 A 
ATOM     15  C   UNL A   1      30.618  27.310  24.220  1.00  0.00     0.004 A 
ATOM     16  N   UNL A   1      29.219  25.681  24.788  1.00  0.00    -0.351 N 
ATOM     17  C   UNL A   1      30.463  25.266  25.219  1.00  0.00     0.093 A 
ATOM     18  H   UNL A   1      28.385  25.176  24.927  1.00  0.00     0.167 HD
BRANCH  10  19
ATOM     19  O   UNL A   1      27.647  29.515  22.275  1.00  0.00    -0.497 OA
ATOM     20  C   UNL A   1      28.047  30.456  21.282  1.00  0.00     0.278 C 
ENDBRANCH  10  19
BRANCH  17  21
ATOM     21  C   UNL A   1      30.752  23.970  25.827  1.00  0.00     0.227 C 
ATOM     22  O   UNL A   1      30.517  23.711  27.005  1.00  0.00    -0.285 OA
BRANCH  21  23
ATOM     23  C   UNL A   1      31.421  22.920  25.013  1.00  0.00     0.113 A 
ATOM     24  C   UNL A   1      31.804  21.720  25.609  1.00  0.00     0.036 A 
ATOM     25  N   UNL A   1      31.601  23.203  23.700  1.00  0.00    -0.253 NA
ATOM     26  C   UNL A   1      32.408  20.747  24.811  1.00  0.00    -0.047 A 
ATOM     27  C   UNL A   1      32.153  22.232  22.945  1.00  0.00     0.112 A 
ATOM     28  C   UNL A   1      32.846  19.431  25.380  1.00  0.00     0.044 C 
ATOM     29  C   UNL A   1      32.572  21.009  23.447  1.00  0.00     0.023 A 
ENDBRANCH  21  23
ENDBRANCH  17  21
ENDBRANCH   8   9
ENDBRANCH   5   8
ENDBRANCH   3   4
ENDBRANCH   2   3
ENDBRANCH   1   2
BRANCH   1  30
ATOM     30  C   UNL A   1      36.247  20.969  24.808  1.00  0.00     0.002 C 
BRANCH  30  31
ATOM     31  C   UNL A   1      37.364  19.939  25.001  1.00  0.00     0.021 C 
BRANCH  31  32
ATOM     32  C   UNL A   1      38.660  20.494  25.585  1.00  0.00     0.116 C 
BRANCH  32  33
ATOM     33  N   UNL A   1      39.680  19.468  25.745  1.00  0.00    -0.352 N 
ATOM     34  C   UNL A   1      40.992  19.590  26.127  1.00  0.00     0.251 C 
ATOM     35  H   UNL A   1      39.385  18.550  25.549  1.00  0.00     0.163 HD
ATOM     36  O   UNL A   1      41.750  18.627  26.044  1.00  0.00    -0.269 OA
BRANCH  34  37
ATOM     37  C   UNL A   1      41.510  20.885  26.621  1.00  0.00     0.039 A 
ATOM     38  C   UNL A   1      41.973  21.822  25.693  1.00  0.00     0.014 A 
ATOM     39  C   UNL A   1      41.568  21.168  27.988  1.00  0.00     0.014 A 
ATOM     40  C   UNL A   1      42.439  23.065  26.131  1.00  0.00     0.010 A 
ATOM     41  C   UNL A   1      41.979  22.426  28.421  1.00  0.00     0.010 A 
ATOM     42  C   UNL A   1      42.417  23.387  27.496  1.00  0.00    -0.014 A 
BRANCH  42  43
ATOM     43  C   UNL A   1      42.844  24.725  27.979  1.00  0.00     0.031 A 
ATOM     44  C   UNL A   1      41.822  25.785  28.276  1.00  0.00     0.074 A 
ATOM     45  C   UNL A   1      44.157  25.006  28.083  1.00  0.00     0.049 A 
ATOM     46  N   UNL A   1      42.004  27.035  28.622  1.00  0.00    -0.248 NA
ATOM     47  C   UNL A   1      40.409  25.396  28.144  1.00  0.00     0.031 C 
ATOM     48  C   UNL A   1      45.248  24.077  27.786  1.00  0.00     0.029 A 
ATOM     49  N   UNL A   1      44.796  26.162  28.455  1.00  0.00    -0.354 N 
ATOM     50  C   UNL A   1      40.734  27.585  28.731  1.00  0.00     0.074 A 
ATOM     51  C   UNL A   1      39.791  26.545  28.377  1.00  0.00     0.031 C 
ATOM     52  C   UNL A   1      46.421  24.694  28.000  1.00  0.00     0.029 A 
ATOM     53  C   UNL A   1      46.166  26.070  28.417  1.00  0.00     0.049 A 
ATOM     54  H   UNL A   1      44.318  26.980  28.724  1.00  0.00     0.167 HD
ATOM     55  C   UNL A   1      40.384  28.839  29.107  1.00  0.00     0.037 A 
ATOM     56  C   UNL A   1      47.110  26.992  28.681  1.00  0.00     0.037 A 
ATOM     57  C   UNL A   1      41.319  29.864  29.488  1.00  0.00     0.049 A 
ATOM     58  C   UNL A   1      46.696  28.373  29.104  1.00  0.00     0.074 A 
ATOM     59  C   UNL A   1      41.057  31.145  29.943  1.00  0.00     0.029 A 
ATOM     60  N   UNL A   1      42.698  29.723  29.460  1.00  0.00    -0.354 N 
ATOM     61  N   UNL A   1      45.490  28.864  29.254  1.00  0.00    -0.248 NA
ATOM     62  C   UNL A   1      47.775  29.327  29.399  1.00  0.00     0.031 C 
ATOM     63  C   UNL A   1      42.279  31.790  30.161  1.00  0.00     0.029 A 
ATOM     64  C   UNL A   1      43.301  30.900  29.874  1.00  0.00     0.049 A 
ATOM     65  H   UNL A   1      43.177  28.909  29.185  1.00  0.00     0.167 HD
ATOM     66  C   UNL A   1      45.663  30.173  29.682  1.00  0.00     0.074 A 
ATOM     67  C   UNL A   1      47.090  30.398  29.777  1.00  0.00     0.031 C 
ATOM     68  C   UNL A   1      44.722  31.106  29.968  1.00  0.00     0.037 A 
BRANCH  55  69
ATOM     69  C   UNL A   1      38.921  29.168  29.128  1.00  0.00     0.057 A 
ATOM     70  C   UNL A   1      38.239  29.566  27.970  1.00  0.00     0.134 A 
ATOM     71  C   UNL A   1      38.179  29.055  30.309  1.00  0.00     0.134 A 
ATOM     72  F   UNL A   1      38.896  29.704  26.808  1.00  0.00    -0.206 F 
ATOM     73  C   UNL A   1      36.876  29.863  27.992  1.00  0.00     0.040 A 
ATOM     74  C   UNL A   1      36.810  29.327  30.339  1.00  0.00     0.040 A 
ATOM     75  F   UNL A   1      38.769  28.673  31.452  1.00  0.00    -0.206 F 
ATOM     76  C   UNL A   1      36.156  29.738  29.179  1.00  0.00     0.006 A 
ENDBRANCH  55  69
BRANCH  56  77
ATOM     77  C   UNL A   1      48.545  26.633  28.574  1.00  0.00     0.057 A 
ATOM     78  C   UNL A   1      49.221  26.048  29.652  1.00  0.00     0.134 A 
ATOM     79  C   UNL A   1      49.272  26.864  27.401  1.00  0.00     0.134 A 
ATOM     80  F   UNL A   1      48.579  25.822  30.807  1.00  0.00    -0.206 F 
ATOM     81  C   UNL A   1      50.574  25.718  29.571  1.00  0.00     0.040 A 
ATOM     82  C   UNL A   1      50.621  26.521  27.300  1.00  0.00     0.040 A 
ATOM     83  F   UNL A   1      48.678  27.417  26.334  1.00  0.00    -0.206 F 
ATOM     84  C   UNL A   1      51.276  25.951  28.390  1.00  0.00     0.006 A 
ENDBRANCH  56  77
BRANCH  68  85
ATOM     85  C   UNL A   1      45.209  32.443  30.439  1.00  0.00     0.057 A 
ATOM     86  C   UNL A   1      45.456  33.493  29.545  1.00  0.00     0.134 A 
ATOM     87  C   UNL A   1      45.397  32.694  31.804  1.00  0.00     0.134 A 
ATOM     88  F   UNL A   1      45.307  33.310  28.225  1.00  0.00    -0.206 F 
ATOM     89  C   UNL A   1      45.892  34.741  29.993  1.00  0.00     0.040 A 
ATOM     90  C   UNL A   1      45.813  33.943  32.265  1.00  0.00     0.040 A 
ATOM     91  F   UNL A   1      45.172  31.731  32.711  1.00  0.00    -0.206 F 
ATOM     92  C   UNL A   1      46.066  34.970  31.357  1.00  0.00     0.006 A 
ENDBRANCH  68  85
ENDBRANCH  42  43
ENDBRANCH  34  37
ENDBRANCH  32  33
ENDBRANCH  31  32
ENDBRANCH  30  31
ENDBRANCH   1  30
TORSDOF 17
ENDMDL
MODEL 3
REMARK VINA RESULT:     -12.5      5.045     10.365
REMARK SMILES COc1ccc2c(CC(=O)NCCCCCCNC(=O)c3ccc(-c4c5nc(c(-c6c(F)cccc6F)c6ccc([nH]6)c(-c6c(F)cccc6F)c6nc(c(-c7c(F)cccc7F)c7ccc4[nH]7)C=C6)C=C5)cc3)c(C(=O)c3cc(C)ccn3)[nH]c2c1
REMARK SMILES IDX 14 1 13 2 12 3 11 4 9 5 10 6 8 8 7 9 3 10 4 11 87 12 5 13
REMARK SMILES IDX 86 14 6 15 85 16 75 17 2 19 1 20 76 21 77 22 78 23 79 24
REMARK SMILES IDX 84 25 80 26 83 27 81 28 82 29 15 30 16 31 17 32 18 33 19 34
REMARK SMILES IDX 20 36 21 37 22 38 74 39 23 40 73 41 24 42 25 43 26 44 67 45
REMARK SMILES IDX 27 46 72 47 66 48 68 49 28 50 71 51 65 52 64 53 29 55 55 56
REMARK SMILES IDX 38 57 54 58 39 59 42 60 53 61 69 62 40 63 41 64 52 66 70 67
REMARK SMILES IDX 43 68 30 69 31 70 36 71 32 72 33 73 35 74 37 75 34 76 56 77
REMARK SMILES IDX 57 78 62 79 58 80 59 81 61 82 63 83 60 84 44 85 45 86 50 87
REMARK SMILES IDX 46 88 47 89 49 90 51 91 48 92
REMARK H PARENT 11 7 85 18 18 35 68 54 42 65
REMARK Flexibility Score: inf
ROOT
ATOM      1  C   UNL A   1      36.210  21.654  25.768  1.00  0.00     0.002 C 
ENDROOT
BRANCH   1   2
ATOM      2  C   UNL A   1      36.405  23.150  25.485  1.00  0.00     0.021 C 
BRANCH   2   3
ATOM      3  C   UNL A   1      35.112  23.963  25.463  1.00  0.00     0.116 C 
BRANCH   3   4
ATOM      4  N   UNL A   1      34.775  24.419  24.133  1.00  0.00    -0.356 N 
ATOM      5  C   UNL A   1      33.964  25.441  23.733  1.00  0.00     0.224 C 
ATOM      6  O   UNL A   1      33.993  25.735  22.534  1.00  0.00    -0.275 OA
ATOM      7  H   UNL A   1      35.196  23.914  23.401  1.00  0.00     0.163 HD
BRANCH   5   8
ATOM      8  C   UNL A   1      33.179  26.282  24.734  1.00  0.00     0.138 C 
BRANCH   8   9
ATOM      9  C   UNL A   1      31.679  26.235  24.605  1.00  0.00    -0.002 A 
ATOM     10  C   UNL A   1      28.805  28.681  22.712  1.00  0.00     0.120 A 
ATOM     11  C   UNL A   1      30.131  29.060  22.520  1.00  0.00     0.047 A 
ATOM     12  C   UNL A   1      28.492  27.570  23.504  1.00  0.00     0.073 A 
ATOM     13  C   UNL A   1      31.173  28.319  23.091  1.00  0.00     0.014 A 
ATOM     14  C   UNL A   1      29.548  26.833  24.053  1.00  0.00     0.050 A 
ATOM     15  C   UNL A   1      30.881  27.180  23.872  1.00  0.00     0.004 A 
ATOM     16  N   UNL A   1      29.530  25.702  24.833  1.00  0.00    -0.351 N 
ATOM     17  C   UNL A   1      30.810  25.261  25.100  1.00  0.00     0.093 A 
ATOM     18  H   UNL A   1      28.711  25.264  25.158  1.00  0.00     0.167 HD
BRANCH  10  19
ATOM     19  O   UNL A   1      27.722  29.349  22.202  1.00  0.00    -0.497 OA
ATOM     20  C   UNL A   1      28.029  30.516  21.444  1.00  0.00     0.278 C 
ENDBRANCH  10  19
BRANCH  17  21
ATOM     21  C   UNL A   1      31.142  24.018  25.792  1.00  0.00     0.227 C 
ATOM     22  O   UNL A   1      31.057  23.881  27.010  1.00  0.00    -0.285 OA
BRANCH  21  23
ATOM     23  C   UNL A   1      31.672  22.870  25.007  1.00  0.00     0.113 A 
ATOM     24  C   UNL A   1      32.116  21.726  25.667  1.00  0.00     0.036 A 
ATOM     25  N   UNL A   1      31.667  23.012  23.659  1.00  0.00    -0.253 NA
ATOM     26  C   UNL A   1      32.583  20.658  24.898  1.00  0.00    -0.047 A 
ATOM     27  C   UNL A   1      32.090  21.953  22.941  1.00  0.00     0.112 A 
ATOM     28  C   UNL A   1      33.076  19.394  25.536  1.00  0.00     0.044 C 
ATOM     29  C   UNL A   1      32.556  20.775  23.505  1.00  0.00     0.023 A 
ENDBRANCH  21  23
ENDBRANCH  17  21
ENDBRANCH   8   9
ENDBRANCH   5   8
ENDBRANCH   3   4
ENDBRANCH   2   3
ENDBRANCH   1   2
BRANCH   1  30
ATOM     30  C   UNL A   1      36.610  20.706  24.632  1.00  0.00     0.002 C 
BRANCH  30  31
ATOM     31  C   UNL A   1      37.640  19.634  24.999  1.00  0.00     0.021 C 
BRANCH  31  32
ATOM     32  C   UNL A   1      38.928  20.162  25.624  1.00  0.00     0.116 C 
BRANCH  32  33
ATOM     33  N   UNL A   1      39.946  19.130  25.752  1.00  0.00    -0.352 N 
ATOM     34  C   UNL A   1      41.288  19.253  26.014  1.00  0.00     0.251 C 
ATOM     35  H   UNL A   1      39.625  18.208  25.633  1.00  0.00     0.163 HD
ATOM     36  O   UNL A   1      42.025  18.274  25.919  1.00  0.00    -0.269 OA
BRANCH  34  37
ATOM     37  C   UNL A   1      41.861  20.564  26.390  1.00  0.00     0.039 A 
ATOM     38  C   UNL A   1      42.298  21.422  25.377  1.00  0.00     0.014 A 
ATOM     39  C   UNL A   1      41.994  20.938  27.730  1.00  0.00     0.014 A 
ATOM     40  C   UNL A   1      42.814  22.679  25.704  1.00  0.00     0.010 A 
ATOM     41  C   UNL A   1      42.456  22.212  28.052  1.00  0.00     0.010 A 
ATOM     42  C   UNL A   1      42.870  23.094  27.043  1.00  0.00    -0.014 A 
BRANCH  42  43
ATOM     43  C   UNL A   1      43.352  24.450  27.409  1.00  0.00     0.031 A 
ATOM     44  C   UNL A   1      42.381  25.505  27.857  1.00  0.00     0.074 A 
ATOM     45  C   UNL A   1      44.658  24.751  27.271  1.00  0.00     0.049 A 
ATOM     46  N   UNL A   1      42.600  26.766  28.136  1.00  0.00    -0.248 NA
ATOM     47  C   UNL A   1      40.974  25.094  27.989  1.00  0.00     0.031 C 
ATOM     48  C   UNL A   1      45.695  23.828  26.807  1.00  0.00     0.029 A 
ATOM     49  N   UNL A   1      45.333  25.925  27.495  1.00  0.00    -0.354 N 
ATOM     50  C   UNL A   1      41.359  27.303  28.455  1.00  0.00     0.074 A 
ATOM     51  C   UNL A   1      40.387  26.241  28.300  1.00  0.00     0.031 C 
ATOM     52  C   UNL A   1      46.876  24.466  26.793  1.00  0.00     0.029 A 
ATOM     53  C   UNL A   1      46.675  25.849  27.216  1.00  0.00     0.049 A 
ATOM     54  H   UNL A   1      44.896  26.743  27.825  1.00  0.00     0.167 HD
ATOM     55  C   UNL A   1      41.061  28.561  28.857  1.00  0.00     0.037 A 
ATOM     56  C   UNL A   1      47.635  26.790  27.285  1.00  0.00     0.037 A 
ATOM     57  C   UNL A   1      42.030  29.608  29.040  1.00  0.00     0.049 A 
ATOM     58  C   UNL A   1      47.279  28.177  27.742  1.00  0.00     0.074 A 
ATOM     59  C   UNL A   1      41.831  30.897  29.503  1.00  0.00     0.029 A 
ATOM     60  N   UNL A   1      43.385  29.484  28.770  1.00  0.00    -0.354 N 
ATOM     61  N   UNL A   1      46.110  28.656  28.092  1.00  0.00    -0.248 NA
ATOM     62  C   UNL A   1      48.376  29.152  27.817  1.00  0.00     0.031 C 
ATOM     63  C   UNL A   1      43.061  31.564  29.485  1.00  0.00     0.029 A 
ATOM     64  C   UNL A   1      44.031  30.679  29.042  1.00  0.00     0.049 A 
ATOM     65  H   UNL A   1      43.822  28.669  28.435  1.00  0.00     0.167 HD
ATOM     66  C   UNL A   1      46.333  29.978  28.450  1.00  0.00     0.074 A 
ATOM     67  C   UNL A   1      47.751  30.224  28.284  1.00  0.00     0.031 C 
ATOM     68  C   UNL A   1      45.442  30.906  28.876  1.00  0.00     0.037 A 
BRANCH  55  69
ATOM     69  C   UNL A   1      39.619  28.872  29.130  1.00  0.00     0.057 A 
ATOM     70  C   UNL A   1      38.758  29.320  28.119  1.00  0.00     0.134 A 
ATOM     71  C   UNL A   1      39.077  28.689  30.407  1.00  0.00     0.134 A 
ATOM     72  F   UNL A   1      39.219  29.526  26.876  1.00  0.00    -0.206 F 
ATOM     73  C   UNL A   1      37.416  29.601  28.375  1.00  0.00     0.040 A 
ATOM     74  C   UNL A   1      37.730  28.944  30.671  1.00  0.00     0.040 A 
ATOM     75  F   UNL A   1      39.845  28.257  31.419  1.00  0.00    -0.206 F 
ATOM     76  C   UNL A   1      36.896  29.406  29.655  1.00  0.00     0.006 A 
ENDBRANCH  55  69
BRANCH  56  77
ATOM     77  C   UNL A   1      49.034  26.447  26.933  1.00  0.00     0.057 A 
ATOM     78  C   UNL A   1      49.898  25.893  27.885  1.00  0.00     0.134 A 
ATOM     79  C   UNL A   1      49.539  26.663  25.646  1.00  0.00     0.134 A 
ATOM     80  F   UNL A   1      49.474  25.682  29.140  1.00  0.00    -0.206 F 
ATOM     81  C   UNL A   1      51.221  25.578  27.573  1.00  0.00     0.040 A 
ATOM     82  C   UNL A   1      50.854  26.334  25.315  1.00  0.00     0.040 A 
ATOM     83  F   UNL A   1      48.758  27.186  24.691  1.00  0.00    -0.206 F 
ATOM     84  C   UNL A   1      51.701  25.795  26.283  1.00  0.00     0.006 A 
ENDBRANCH  56  77
BRANCH  68  85
ATOM     85  C   UNL A   1      45.981  32.262  29.221  1.00  0.00     0.057 A 
ATOM     86  C   UNL A   1      46.039  33.293  28.275  1.00  0.00     0.134 A 
ATOM     87  C   UNL A   1      46.414  32.548  30.521  1.00  0.00     0.134 A 
ATOM     88  F   UNL A   1      45.652  33.076  27.009  1.00  0.00    -0.206 F 
ATOM     89  C   UNL A   1      46.526  34.558  28.607  1.00  0.00     0.040 A 
ATOM     90  C   UNL A   1      46.883  33.814  30.871  1.00  0.00     0.040 A 
ATOM     91  F   UNL A   1      46.378  31.605  31.475  1.00  0.00    -0.206 F 
ATOM     92  C   UNL A   1      46.944  34.823  29.910  1.00  0.00     0.006 A 
ENDBRANCH  68  85
ENDBRANCH  42  43
ENDBRANCH  34  37
ENDBRANCH  32  33
ENDBRANCH  31  32
ENDBRANCH  30  31
ENDBRANCH   1  30
TORSDOF 17
ENDMDL
