MODEL 1
REMARK VINA RESULT:     -13.3      0.000      0.000
REMARK SMILES O=C(NCCCCCCNC(=O)c1ccn(-c2cc(-c3ccncc3)nc(-c3ccccc3F)n2)n1)c1ccc(-c2c3nc(c(-c4c(F)cccc4F)c4ccc([nH]4)c(-c4c(F)cccc4F)c4nc(c(-c5c(F)cccc5F)c5ccc2[nH]5)C=C4)C=C3)cc1
REMARK SMILES IDX 6 1 5 2 4 3 3 4 1 5 2 6 37 8 38 9 90 10 39 11 89 12 40 13
REMARK SMILES IDX 41 14 42 15 83 16 43 17 88 18 82 19 84 20 44 21 87 22 81 23
REMARK SMILES IDX 80 24 45 26 71 27 54 28 70 29 55 30 58 31 69 32 85 33 56 34
REMARK SMILES IDX 57 35 68 37 86 38 59 39 46 40 47 41 52 42 48 43 49 44 51 45
REMARK SMILES IDX 53 46 50 47 72 48 73 49 78 50 74 51 75 52 77 53 79 54 76 55
REMARK SMILES IDX 60 56 61 57 66 58 62 59 63 60 65 61 67 62 64 63 7 64 8 65
REMARK SMILES IDX 9 66 10 67 11 68 12 70 13 71 14 72 36 73 15 74 16 75 17 76
REMARK SMILES IDX 18 77 35 78 19 79 27 80 26 81 20 82 21 83 25 84 22 85 24 86
REMARK SMILES IDX 23 87 28 88 29 89 33 90 30 91 32 92 34 93 31 94
REMARK H PARENT 3 7 84 25 58 36 10 69
REMARK Flexibility Score: inf
ROOT
ATOM      1  C   UNL A   1      31.778  28.536  26.466  1.00  0.00     0.002 C 
ENDROOT
BRANCH   1   2
ATOM      2  C   UNL A   1      33.060  28.873  27.236  1.00  0.00     0.021 C 
BRANCH   2   3
ATOM      3  C   UNL A   1      33.706  30.200  26.838  1.00  0.00     0.116 C 
BRANCH   3   4
ATOM      4  N   UNL A   1      33.757  31.179  27.901  1.00  0.00    -0.352 N 
ATOM      5  O   UNL A   1      34.466  32.604  29.437  1.00  0.00    -0.269 OA
ATOM      6  C   UNL A   1      34.734  31.615  28.750  1.00  0.00     0.251 C 
ATOM      7  H   UNL A   1      32.894  31.632  28.045  1.00  0.00     0.163 HD
BRANCH   6   8
ATOM      8  C   UNL A   1      36.038  30.935  28.960  1.00  0.00     0.039 A 
ATOM      9  C   UNL A   1      36.239  29.558  29.080  1.00  0.00     0.014 A 
ATOM     10  C   UNL A   1      37.152  31.790  29.068  1.00  0.00     0.014 A 
ATOM     11  C   UNL A   1      37.497  29.056  29.402  1.00  0.00     0.010 A 
ATOM     12  C   UNL A   1      38.411  31.296  29.378  1.00  0.00     0.010 A 
ATOM     13  C   UNL A   1      38.574  29.929  29.578  1.00  0.00    -0.014 A 
BRANCH  13  14
ATOM     14  C   UNL A   1      39.917  29.366  29.704  1.00  0.00     0.031 A 
ATOM     15  C   UNL A   1      40.396  29.358  31.116  1.00  0.00     0.074 A 
ATOM     16  C   UNL A   1      40.571  28.757  28.691  1.00  0.00     0.049 A 
ATOM     17  N   UNL A   1      41.406  29.991  31.616  1.00  0.00    -0.248 NA
ATOM     18  C   UNL A   1      39.548  28.703  32.132  1.00  0.00     0.031 C 
ATOM     19  C   UNL A   1      40.053  28.485  27.349  1.00  0.00     0.029 A 
ATOM     20  N   UNL A   1      41.798  28.152  28.667  1.00  0.00    -0.354 N 
ATOM     21  C   UNL A   1      41.456  29.615  32.958  1.00  0.00     0.074 A 
ATOM     22  C   UNL A   1      40.191  29.007  33.259  1.00  0.00     0.031 C 
ATOM     23  C   UNL A   1      40.846  27.577  26.735  1.00  0.00     0.029 A 
ATOM     24  C   UNL A   1      41.989  27.292  27.585  1.00  0.00     0.049 A 
ATOM     25  H   UNL A   1      42.486  28.310  29.353  1.00  0.00     0.167 HD
ATOM     26  C   UNL A   1      42.650  29.537  33.606  1.00  0.00     0.037 A 
ATOM     27  C   UNL A   1      42.980  26.373  27.433  1.00  0.00     0.037 A 
ATOM     28  C   UNL A   1      43.657  30.297  32.905  1.00  0.00     0.049 A 
ATOM     29  C   UNL A   1      44.072  26.751  28.354  1.00  0.00     0.074 A 
ATOM     30  C   UNL A   1      43.864  31.618  32.567  1.00  0.00     0.029 A 
ATOM     31  N   UNL A   1      44.489  29.556  32.113  1.00  0.00    -0.354 N 
ATOM     32  N   UNL A   1      44.820  27.806  28.208  1.00  0.00    -0.248 NA
ATOM     33  C   UNL A   1      44.090  26.147  29.676  1.00  0.00     0.031 C 
ATOM     34  C   UNL A   1      44.559  31.585  31.321  1.00  0.00     0.029 A 
ATOM     35  C   UNL A   1      44.799  30.252  30.983  1.00  0.00     0.049 A 
ATOM     36  H   UNL A   1      44.815  28.651  32.326  1.00  0.00     0.167 HD
ATOM     37  C   UNL A   1      45.023  28.262  29.500  1.00  0.00     0.074 A 
ATOM     38  C   UNL A   1      44.684  27.129  30.357  1.00  0.00     0.031 C 
ATOM     39  C   UNL A   1      45.144  29.601  29.741  1.00  0.00     0.037 A 
BRANCH  26  40
ATOM     40  C   UNL A   1      43.041  28.374  34.511  1.00  0.00     0.057 A 
ATOM     41  C   UNL A   1      43.110  28.434  35.919  1.00  0.00     0.134 A 
ATOM     42  C   UNL A   1      42.997  27.068  33.982  1.00  0.00     0.134 A 
ATOM     43  F   UNL A   1      43.102  29.582  36.601  1.00  0.00    -0.206 F 
ATOM     44  C   UNL A   1      43.086  27.297  36.733  1.00  0.00     0.040 A 
ATOM     45  C   UNL A   1      42.921  25.926  34.790  1.00  0.00     0.040 A 
ATOM     46  F   UNL A   1      42.916  26.865  32.657  1.00  0.00    -0.206 F 
ATOM     47  C   UNL A   1      42.954  26.039  36.173  1.00  0.00     0.006 A 
ENDBRANCH  26  40
BRANCH  27  48
ATOM     48  C   UNL A   1      42.949  25.026  26.801  1.00  0.00     0.057 A 
ATOM     49  C   UNL A   1      42.632  23.872  27.536  1.00  0.00     0.134 A 
ATOM     50  C   UNL A   1      43.537  24.803  25.542  1.00  0.00     0.134 A 
ATOM     51  F   UNL A   1      42.120  23.954  28.771  1.00  0.00    -0.206 F 
ATOM     52  C   UNL A   1      42.919  22.582  27.071  1.00  0.00     0.040 A 
ATOM     53  C   UNL A   1      43.838  23.517  25.069  1.00  0.00     0.040 A 
ATOM     54  F   UNL A   1      43.910  25.834  24.769  1.00  0.00    -0.206 F 
ATOM     55  C   UNL A   1      43.544  22.401  25.844  1.00  0.00     0.006 A 
ENDBRANCH  27  48
BRANCH  39  56
ATOM     56  C   UNL A   1      45.474  30.494  28.579  1.00  0.00     0.057 A 
ATOM     57  C   UNL A   1      44.410  31.063  27.870  1.00  0.00     0.134 A 
ATOM     58  C   UNL A   1      46.764  30.705  28.069  1.00  0.00     0.134 A 
ATOM     59  F   UNL A   1      43.146  30.866  28.278  1.00  0.00    -0.206 F 
ATOM     60  C   UNL A   1      44.610  31.804  26.706  1.00  0.00     0.040 A 
ATOM     61  C   UNL A   1      46.981  31.477  26.924  1.00  0.00     0.040 A 
ATOM     62  F   UNL A   1      47.838  30.131  28.628  1.00  0.00    -0.206 F 
ATOM     63  C   UNL A   1      45.901  32.022  26.234  1.00  0.00     0.006 A 
ENDBRANCH  39  56
ENDBRANCH  13  14
ENDBRANCH   6   8
ENDBRANCH   3   4
ENDBRANCH   2   3
ENDBRANCH   1   2
BRANCH   1  64
ATOM     64  C   UNL A   1      31.555  29.336  25.179  1.00  0.00     0.002 C 
BRANCH  64  65
ATOM     65  C   UNL A   1      31.943  28.612  23.884  1.00  0.00     0.021 C 
BRANCH  65  66
ATOM     66  C   UNL A   1      30.872  27.662  23.350  1.00  0.00     0.116 C 
BRANCH  66  67
ATOM     67  N   UNL A   1      31.201  27.220  22.011  1.00  0.00    -0.351 N 
ATOM     68  C   UNL A   1      31.794  26.037  21.634  1.00  0.00     0.271 C 
ATOM     69  H   UNL A   1      30.972  27.841  21.282  1.00  0.00     0.163 HD
ATOM     70  O   UNL A   1      32.225  25.920  20.494  1.00  0.00    -0.267 OA
BRANCH  68  71
ATOM     71  C   UNL A   1      31.815  24.942  22.609  1.00  0.00     0.150 A 
ATOM     72  C   UNL A   1      30.687  24.275  23.153  1.00  0.00     0.056 A 
ATOM     73  N   UNL A   1      32.962  24.428  23.092  1.00  0.00    -0.161 NA
ATOM     74  C   UNL A   1      31.205  23.223  23.862  1.00  0.00     0.118 A 
ATOM     75  N   UNL A   1      32.573  23.307  23.751  1.00  0.00    -0.222 N 
BRANCH  75  76
ATOM     76  C   UNL A   1      33.505  22.350  24.230  1.00  0.00     0.158 A 
ATOM     77  C   UNL A   1      33.105  21.037  24.363  1.00  0.00     0.078 A 
ATOM     78  N   UNL A   1      34.753  22.783  24.522  1.00  0.00    -0.209 NA
ATOM     79  C   UNL A   1      34.080  20.154  24.775  1.00  0.00     0.077 A 
ATOM     80  C   UNL A   1      35.595  21.861  25.011  1.00  0.00     0.165 A 
ATOM     81  N   UNL A   1      35.314  20.556  25.145  1.00  0.00    -0.228 NA
BRANCH  79  82
ATOM     82  C   UNL A   1      33.866  18.704  24.775  1.00  0.00     0.003 A 
ATOM     83  C   UNL A   1      32.656  18.158  25.222  1.00  0.00     0.030 A 
ATOM     84  C   UNL A   1      34.842  17.829  24.291  1.00  0.00     0.030 A 
ATOM     85  C   UNL A   1      32.483  16.784  25.177  1.00  0.00     0.111 A 
ATOM     86  C   UNL A   1      34.579  16.468  24.295  1.00  0.00     0.111 A 
ATOM     87  N   UNL A   1      33.422  15.926  24.732  1.00  0.00    -0.265 NA
ENDBRANCH  79  82
BRANCH  80  88
ATOM     88  C   UNL A   1      36.872  22.334  25.523  1.00  0.00     0.055 A 
ATOM     89  C   UNL A   1      37.010  23.643  26.026  1.00  0.00     0.015 A 
ATOM     90  C   UNL A   1      37.996  21.507  25.534  1.00  0.00     0.134 A 
ATOM     91  C   UNL A   1      38.232  24.092  26.533  1.00  0.00     0.001 A 
ATOM     92  C   UNL A   1      39.221  21.952  26.031  1.00  0.00     0.040 A 
ATOM     93  F   UNL A   1      37.925  20.262  25.037  1.00  0.00    -0.206 F 
ATOM     94  C   UNL A   1      39.338  23.244  26.536  1.00  0.00     0.003 A 
ENDBRANCH  80  88
ENDBRANCH  75  76
ENDBRANCH  68  71
ENDBRANCH  66  67
ENDBRANCH  65  66
ENDBRANCH  64  65
ENDBRANCH   1  64
TORSDOF 16
ENDMDL
MODEL 2
REMARK VINA RESULT:     -13.0      1.960      5.886
REMARK SMILES O=C(NCCCCCCNC(=O)c1ccn(-c2cc(-c3ccncc3)nc(-c3ccccc3F)n2)n1)c1ccc(-c2c3nc(c(-c4c(F)cccc4F)c4ccc([nH]4)c(-c4c(F)cccc4F)c4nc(c(-c5c(F)cccc5F)c5ccc2[nH]5)C=C4)C=C3)cc1
REMARK SMILES IDX 6 1 5 2 4 3 3 4 1 5 2 6 37 8 38 9 90 10 39 11 89 12 40 13
REMARK SMILES IDX 41 14 42 15 83 16 43 17 88 18 82 19 84 20 44 21 87 22 81 23
REMARK SMILES IDX 80 24 45 26 71 27 54 28 70 29 55 30 58 31 69 32 85 33 56 34
REMARK SMILES IDX 57 35 68 37 86 38 59 39 46 40 47 41 52 42 48 43 49 44 51 45
REMARK SMILES IDX 53 46 50 47 72 48 73 49 78 50 74 51 75 52 77 53 79 54 76 55
REMARK SMILES IDX 60 56 61 57 66 58 62 59 63 60 65 61 67 62 64 63 7 64 8 65
REMARK SMILES IDX 9 66 10 67 11 68 12 70 13 71 14 72 36 73 15 74 16 75 17 76
REMARK SMILES IDX 18 77 35 78 19 79 27 80 26 81 20 82 21 83 25 84 22 85 24 86
REMARK SMILES IDX 23 87 28 88 29 89 33 90 30 91 32 92 34 93 31 94
REMARK H PARENT 3 7 84 25 58 36 10 69
REMARK Flexibility Score: inf
ROOT
ATOM      1  C   UNL A   1      32.929  27.889  26.122  1.00  0.00     0.002 C 
ENDROOT
BRANCH   1   2
ATOM      2  C   UNL A   1      33.791  29.147  26.282  1.00  0.00     0.021 C 
BRANCH   2   3
ATOM      3  C   UNL A   1      35.118  28.917  27.004  1.00  0.00     0.116 C 
BRANCH   3   4
ATOM      4  N   UNL A   1      35.181  29.490  28.330  1.00  0.00    -0.352 N 
ATOM      5  O   UNL A   1      35.884  30.479  30.179  1.00  0.00    -0.269 OA
ATOM      6  C   UNL A   1      36.200  29.854  29.163  1.00  0.00     0.251 C 
ATOM      7  H   UNL A   1      34.291  29.654  28.719  1.00  0.00     0.163 HD
BRANCH   6   8
ATOM      8  C   UNL A   1      37.625  29.474  28.975  1.00  0.00     0.039 A 
ATOM      9  C   UNL A   1      38.423  29.789  27.874  1.00  0.00     0.014 A 
ATOM     10  C   UNL A   1      38.183  28.703  30.013  1.00  0.00     0.014 A 
ATOM     11  C   UNL A   1      39.707  29.264  27.763  1.00  0.00     0.010 A 
ATOM     12  C   UNL A   1      39.466  28.185  29.915  1.00  0.00     0.010 A 
ATOM     13  C   UNL A   1      40.216  28.439  28.771  1.00  0.00    -0.014 A 
BRANCH  13  14
ATOM     14  C   UNL A   1      41.631  28.078  28.732  1.00  0.00     0.031 A 
ATOM     15  C   UNL A   1      41.869  26.804  27.994  1.00  0.00     0.074 A 
ATOM     16  C   UNL A   1      42.623  28.893  29.151  1.00  0.00     0.049 A 
ATOM     17  N   UNL A   1      42.350  25.697  28.456  1.00  0.00    -0.248 NA
ATOM     18  C   UNL A   1      41.349  26.693  26.617  1.00  0.00     0.031 C 
ATOM     19  C   UNL A   1      42.485  30.269  29.634  1.00  0.00     0.029 A 
ATOM     20  N   UNL A   1      43.980  28.716  29.139  1.00  0.00    -0.354 N 
ATOM     21  C   UNL A   1      42.416  24.834  27.363  1.00  0.00     0.074 A 
ATOM     22  C   UNL A   1      41.605  25.417  26.333  1.00  0.00     0.031 C 
ATOM     23  C   UNL A   1      43.697  30.870  29.637  1.00  0.00     0.029 A 
ATOM     24  C   UNL A   1      44.712  29.896  29.274  1.00  0.00     0.049 A 
ATOM     25  H   UNL A   1      44.402  27.832  29.043  1.00  0.00     0.167 HD
ATOM     26  C   UNL A   1      43.395  23.891  27.290  1.00  0.00     0.037 A 
ATOM     27  C   UNL A   1      46.041  30.068  29.044  1.00  0.00     0.037 A 
ATOM     28  C   UNL A   1      43.958  23.644  28.595  1.00  0.00     0.049 A 
ATOM     29  C   UNL A   1      46.668  28.731  29.087  1.00  0.00     0.074 A 
ATOM     30  C   UNL A   1      43.511  23.164  29.807  1.00  0.00     0.029 A 
ATOM     31  N   UNL A   1      45.142  24.284  28.840  1.00  0.00    -0.354 N 
ATOM     32  N   UNL A   1      46.793  28.016  30.167  1.00  0.00    -0.248 NA
ATOM     33  C   UNL A   1      46.825  28.008  27.835  1.00  0.00     0.031 C 
ATOM     34  C   UNL A   1      44.276  23.855  30.794  1.00  0.00     0.029 A 
ATOM     35  C   UNL A   1      45.195  24.679  30.143  1.00  0.00     0.049 A 
ATOM     36  H   UNL A   1      45.851  24.436  28.174  1.00  0.00     0.167 HD
ATOM     37  C   UNL A   1      46.575  26.716  29.744  1.00  0.00     0.074 A 
ATOM     38  C   UNL A   1      46.752  26.757  28.294  1.00  0.00     0.031 C 
ATOM     39  C   UNL A   1      45.974  25.817  30.577  1.00  0.00     0.037 A 
BRANCH  26  40
ATOM     40  C   UNL A   1      44.203  23.616  26.027  1.00  0.00     0.057 A 
ATOM     41  C   UNL A   1      45.072  24.541  25.408  1.00  0.00     0.134 A 
ATOM     42  C   UNL A   1      44.391  22.278  25.626  1.00  0.00     0.134 A 
ATOM     43  F   UNL A   1      45.080  25.844  25.703  1.00  0.00    -0.206 F 
ATOM     44  C   UNL A   1      46.074  24.162  24.508  1.00  0.00     0.040 A 
ATOM     45  C   UNL A   1      45.424  21.883  24.766  1.00  0.00     0.040 A 
ATOM     46  F   UNL A   1      43.642  21.293  26.146  1.00  0.00    -0.206 F 
ATOM     47  C   UNL A   1      46.278  22.826  24.211  1.00  0.00     0.006 A 
ENDBRANCH  26  40
BRANCH  27  48
ATOM     48  C   UNL A   1      46.772  31.235  28.479  1.00  0.00     0.057 A 
ATOM     49  C   UNL A   1      47.423  32.169  29.302  1.00  0.00     0.134 A 
ATOM     50  C   UNL A   1      46.580  31.632  27.142  1.00  0.00     0.134 A 
ATOM     51  F   UNL A   1      47.614  31.931  30.607  1.00  0.00    -0.206 F 
ATOM     52  C   UNL A   1      47.818  33.431  28.840  1.00  0.00     0.040 A 
ATOM     53  C   UNL A   1      46.963  32.896  26.670  1.00  0.00     0.040 A 
ATOM     54  F   UNL A   1      45.941  30.831  26.277  1.00  0.00    -0.206 F 
ATOM     55  C   UNL A   1      47.570  33.808  27.527  1.00  0.00     0.006 A 
ENDBRANCH  27  48
BRANCH  39  56
ATOM     56  C   UNL A   1      45.950  26.132  32.045  1.00  0.00     0.057 A 
ATOM     57  C   UNL A   1      47.042  25.721  32.819  1.00  0.00     0.134 A 
ATOM     58  C   UNL A   1      44.862  26.695  32.728  1.00  0.00     0.134 A 
ATOM     59  F   UNL A   1      48.099  25.135  32.235  1.00  0.00    -0.206 F 
ATOM     60  C   UNL A   1      47.057  25.858  34.207  1.00  0.00     0.040 A 
ATOM     61  C   UNL A   1      44.880  26.872  34.115  1.00  0.00     0.040 A 
ATOM     62  F   UNL A   1      43.738  27.041  32.086  1.00  0.00    -0.206 F 
ATOM     63  C   UNL A   1      45.977  26.444  34.859  1.00  0.00     0.006 A 
ENDBRANCH  39  56
ENDBRANCH  13  14
ENDBRANCH   6   8
ENDBRANCH   3   4
ENDBRANCH   2   3
ENDBRANCH   1   2
BRANCH   1  64
ATOM     64  C   UNL A   1      31.515  28.127  25.581  1.00  0.00     0.002 C 
BRANCH  64  65
ATOM     65  C   UNL A   1      31.376  29.304  24.609  1.00  0.00     0.021 C 
BRANCH  65  66
ATOM     66  C   UNL A   1      31.232  28.896  23.145  1.00  0.00     0.116 C 
BRANCH  66  67
ATOM     67  N   UNL A   1      32.492  29.037  22.446  1.00  0.00    -0.351 N 
ATOM     68  C   UNL A   1      33.472  28.088  22.269  1.00  0.00     0.271 C 
ATOM     69  H   UNL A   1      32.669  29.921  22.049  1.00  0.00     0.163 HD
ATOM     70  O   UNL A   1      34.576  28.434  21.871  1.00  0.00    -0.267 OA
BRANCH  68  71
ATOM     71  C   UNL A   1      33.114  26.685  22.505  1.00  0.00     0.150 A 
ATOM     72  C   UNL A   1      32.128  25.938  21.809  1.00  0.00     0.056 A 
ATOM     73  N   UNL A   1      33.728  25.930  23.435  1.00  0.00    -0.161 NA
ATOM     74  C   UNL A   1      32.286  24.649  22.247  1.00  0.00     0.118 A 
ATOM     75  N   UNL A   1      33.299  24.669  23.176  1.00  0.00    -0.222 N 
BRANCH  75  76
ATOM     76  C   UNL A   1      33.876  23.531  23.799  1.00  0.00     0.158 A 
ATOM     77  C   UNL A   1      33.117  22.389  23.938  1.00  0.00     0.078 A 
ATOM     78  N   UNL A   1      35.159  23.630  24.216  1.00  0.00    -0.209 NA
ATOM     79  C   UNL A   1      33.762  21.306  24.495  1.00  0.00     0.077 A 
ATOM     80  C   UNL A   1      35.659  22.551  24.836  1.00  0.00     0.165 A 
ATOM     81  N   UNL A   1      35.015  21.384  24.990  1.00  0.00    -0.228 NA
BRANCH  79  82
ATOM     82  C   UNL A   1      33.156  19.972  24.529  1.00  0.00     0.003 A 
ATOM     83  C   UNL A   1      32.546  19.433  23.389  1.00  0.00     0.030 A 
ATOM     84  C   UNL A   1      33.206  19.184  25.682  1.00  0.00     0.030 A 
ATOM     85  C   UNL A   1      32.013  18.156  23.454  1.00  0.00     0.111 A 
ATOM     86  C   UNL A   1      32.635  17.921  25.652  1.00  0.00     0.111 A 
ATOM     87  N   UNL A   1      32.035  17.392  24.564  1.00  0.00    -0.265 NA
ENDBRANCH  79  82
BRANCH  80  88
ATOM     88  C   UNL A   1      36.959  22.696  25.473  1.00  0.00     0.055 A 
ATOM     89  C   UNL A   1      37.302  23.878  26.157  1.00  0.00     0.015 A 
ATOM     90  C   UNL A   1      37.903  21.668  25.429  1.00  0.00     0.134 A 
ATOM     91  C   UNL A   1      38.545  24.011  26.784  1.00  0.00     0.001 A 
ATOM     92  C   UNL A   1      39.147  21.797  26.044  1.00  0.00     0.040 A 
ATOM     93  F   UNL A   1      37.636  20.533  24.763  1.00  0.00    -0.206 F 
ATOM     94  C   UNL A   1      39.467  22.968  26.727  1.00  0.00     0.003 A 
ENDBRANCH  80  88
ENDBRANCH  75  76
ENDBRANCH  68  71
ENDBRANCH  66  67
ENDBRANCH  65  66
ENDBRANCH  64  65
ENDBRANCH   1  64
TORSDOF 16
ENDMDL
MODEL 3
REMARK VINA RESULT:     -12.8      1.997      6.440
REMARK SMILES O=C(NCCCCCCNC(=O)c1ccn(-c2cc(-c3ccncc3)nc(-c3ccccc3F)n2)n1)c1ccc(-c2c3nc(c(-c4c(F)cccc4F)c4ccc([nH]4)c(-c4c(F)cccc4F)c4nc(c(-c5c(F)cccc5F)c5ccc2[nH]5)C=C4)C=C3)cc1
REMARK SMILES IDX 6 1 5 2 4 3 3 4 1 5 2 6 37 8 38 9 90 10 39 11 89 12 40 13
REMARK SMILES IDX 41 14 42 15 83 16 43 17 88 18 82 19 84 20 44 21 87 22 81 23
REMARK SMILES IDX 80 24 45 26 71 27 54 28 70 29 55 30 58 31 69 32 85 33 56 34
REMARK SMILES IDX 57 35 68 37 86 38 59 39 46 40 47 41 52 42 48 43 49 44 51 45
REMARK SMILES IDX 53 46 50 47 72 48 73 49 78 50 74 51 75 52 77 53 79 54 76 55
REMARK SMILES IDX 60 56 61 57 66 58 62 59 63 60 65 61 67 62 64 63 7 64 8 65
REMARK SMILES IDX 9 66 10 67 11 68 12 70 13 71 14 72 36 73 15 74 16 75 17 76
REMARK SMILES IDX 18 77 35 78 19 79 27 80 26 81 20 82 21 83 25 84 22 85 24 86
REMARK SMILES IDX 23 87 28 88 29 89 33 90 30 91 32 92 34 93 31 94
REMARK H PARENT 3 7 84 25 58 36 10 69
REMARK Flexibility Score: inf
ROOT
ATOM      1  C   UNL A   1      32.586  28.616  26.483  1.00  0.00     0.002 C 
ENDROOT
BRANCH   1   2
ATOM      2  C   UNL A   1      33.847  29.478  26.355  1.00  0.00     0.021 C 
BRANCH   2   3
ATOM      3  C   UNL A   1      35.040  28.980  27.171  1.00  0.00     0.116 C 
BRANCH   3   4
ATOM      4  N   UNL A   1      35.153  29.575  28.484  1.00  0.00    -0.352 N 
ATOM      5  O   UNL A   1      35.928  30.583  30.293  1.00  0.00    -0.269 OA
ATOM      6  C   UNL A   1      36.202  29.935  29.280  1.00  0.00     0.251 C 
ATOM      7  H   UNL A   1      34.278  29.761  28.896  1.00  0.00     0.163 HD
BRANCH   6   8
ATOM      8  C   UNL A   1      37.614  29.527  29.057  1.00  0.00     0.039 A 
ATOM      9  C   UNL A   1      38.384  29.809  27.927  1.00  0.00     0.014 A 
ATOM     10  C   UNL A   1      38.189  28.765  30.092  1.00  0.00     0.014 A 
ATOM     11  C   UNL A   1      39.655  29.258  27.787  1.00  0.00     0.010 A 
ATOM     12  C   UNL A   1      39.460  28.222  29.965  1.00  0.00     0.010 A 
ATOM     13  C   UNL A   1      40.180  28.443  28.794  1.00  0.00    -0.014 A 
BRANCH  13  14
ATOM     14  C   UNL A   1      41.587  28.056  28.720  1.00  0.00     0.031 A 
ATOM     15  C   UNL A   1      41.778  26.753  28.022  1.00  0.00     0.074 A 
ATOM     16  C   UNL A   1      42.606  28.869  29.075  1.00  0.00     0.049 A 
ATOM     17  N   UNL A   1      42.257  25.655  28.507  1.00  0.00    -0.248 NA
ATOM     18  C   UNL A   1      41.209  26.602  26.668  1.00  0.00     0.031 C 
ATOM     19  C   UNL A   1      42.507  30.264  29.512  1.00  0.00     0.029 A 
ATOM     20  N   UNL A   1      43.958  28.667  29.023  1.00  0.00    -0.354 N 
ATOM     21  C   UNL A   1      42.271  24.752  27.444  1.00  0.00     0.074 A 
ATOM     22  C   UNL A   1      41.434  25.312  26.422  1.00  0.00     0.031 C 
ATOM     23  C   UNL A   1      43.728  30.843  29.452  1.00  0.00     0.029 A 
ATOM     24  C   UNL A   1      44.713  29.839  29.090  1.00  0.00     0.049 A 
ATOM     25  H   UNL A   1      44.363  27.773  28.945  1.00  0.00     0.167 HD
ATOM     26  C   UNL A   1      43.232  23.790  27.372  1.00  0.00     0.037 A 
ATOM     27  C   UNL A   1      46.036  29.979  28.808  1.00  0.00     0.037 A 
ATOM     28  C   UNL A   1      43.836  23.581  28.665  1.00  0.00     0.049 A 
ATOM     29  C   UNL A   1      46.643  28.634  28.878  1.00  0.00     0.074 A 
ATOM     30  C   UNL A   1      43.424  23.152  29.909  1.00  0.00     0.029 A 
ATOM     31  N   UNL A   1      45.038  24.208  28.846  1.00  0.00    -0.354 N 
ATOM     32  N   UNL A   1      46.794  27.956  29.979  1.00  0.00    -0.248 NA
ATOM     33  C   UNL A   1      46.744  27.865  27.649  1.00  0.00     0.031 C 
ATOM     34  C   UNL A   1      44.234  23.865  30.843  1.00  0.00     0.029 A 
ATOM     35  C   UNL A   1      45.143  24.649  30.131  1.00  0.00     0.049 A 
ATOM     36  H   UNL A   1      45.725  24.325  28.151  1.00  0.00     0.167 HD
ATOM     37  C   UNL A   1      46.541  26.646  29.611  1.00  0.00     0.074 A 
ATOM     38  C   UNL A   1      46.667  26.632  28.155  1.00  0.00     0.031 C 
ATOM     39  C   UNL A   1      45.954  25.788  30.496  1.00  0.00     0.037 A 
BRANCH  26  40
ATOM     40  C   UNL A   1      43.991  23.457  26.092  1.00  0.00     0.057 A 
ATOM     41  C   UNL A   1      44.785  24.369  25.365  1.00  0.00     0.134 A 
ATOM     42  C   UNL A   1      44.221  22.102  25.781  1.00  0.00     0.134 A 
ATOM     43  F   UNL A   1      44.748  25.689  25.563  1.00  0.00    -0.206 F 
ATOM     44  C   UNL A   1      45.760  23.967  24.445  1.00  0.00     0.040 A 
ATOM     45  C   UNL A   1      45.230  21.688  24.900  1.00  0.00     0.040 A 
ATOM     46  F   UNL A   1      43.544  21.127  26.409  1.00  0.00    -0.206 F 
ATOM     47  C   UNL A   1      46.011  22.622  24.236  1.00  0.00     0.006 A 
ENDBRANCH  26  40
BRANCH  27  48
ATOM     48  C   UNL A   1      46.766  31.112  28.177  1.00  0.00     0.057 A 
ATOM     49  C   UNL A   1      47.724  31.860  28.881  1.00  0.00     0.134 A 
ATOM     50  C   UNL A   1      46.312  31.686  26.974  1.00  0.00     0.134 A 
ATOM     51  F   UNL A   1      48.192  31.447  30.067  1.00  0.00    -0.206 F 
ATOM     52  C   UNL A   1      48.170  33.113  28.444  1.00  0.00     0.040 A 
ATOM     53  C   UNL A   1      46.744  32.944  26.530  1.00  0.00     0.040 A 
ATOM     54  F   UNL A   1      45.373  31.074  26.237  1.00  0.00    -0.206 F 
ATOM     55  C   UNL A   1      47.665  33.671  27.276  1.00  0.00     0.006 A 
ENDBRANCH  27  48
BRANCH  39  56
ATOM     56  C   UNL A   1      45.986  26.155  31.952  1.00  0.00     0.057 A 
ATOM     57  C   UNL A   1      47.018  25.626  32.736  1.00  0.00     0.134 A 
ATOM     58  C   UNL A   1      44.993  26.888  32.618  1.00  0.00     0.134 A 
ATOM     59  F   UNL A   1      47.979  24.878  32.171  1.00  0.00    -0.206 F 
ATOM     60  C   UNL A   1      47.064  25.809  34.118  1.00  0.00     0.040 A 
ATOM     61  C   UNL A   1      45.047  27.111  33.997  1.00  0.00     0.040 A 
ATOM     62  F   UNL A   1      43.921  27.362  31.967  1.00  0.00    -0.206 F 
ATOM     63  C   UNL A   1      46.080  26.561  34.753  1.00  0.00     0.006 A 
ENDBRANCH  39  56
ENDBRANCH  13  14
ENDBRANCH   6   8
ENDBRANCH   3   4
ENDBRANCH   2   3
ENDBRANCH   1   2
BRANCH   1  64
ATOM     64  C   UNL A   1      32.447  27.498  25.445  1.00  0.00     0.002 C 
BRANCH  64  65
ATOM     65  C   UNL A   1      32.449  27.959  23.983  1.00  0.00     0.021 C 
BRANCH  65  66
ATOM     66  C   UNL A   1      31.237  27.497  23.177  1.00  0.00     0.116 C 
BRANCH  66  67
ATOM     67  N   UNL A   1      31.636  27.059  21.855  1.00  0.00    -0.351 N 
ATOM     68  C   UNL A   1      32.253  25.879  21.506  1.00  0.00     0.271 C 
ATOM     69  H   UNL A   1      31.443  27.681  21.117  1.00  0.00     0.163 HD
ATOM     70  O   UNL A   1      32.742  25.767  20.391  1.00  0.00    -0.267 OA
BRANCH  68  71
ATOM     71  C   UNL A   1      32.228  24.782  22.480  1.00  0.00     0.150 A 
ATOM     72  C   UNL A   1      31.073  24.164  23.024  1.00  0.00     0.056 A 
ATOM     73  N   UNL A   1      33.352  24.217  22.959  1.00  0.00    -0.161 NA
ATOM     74  C   UNL A   1      31.546  23.088  23.729  1.00  0.00     0.118 A 
ATOM     75  N   UNL A   1      32.916  23.114  23.616  1.00  0.00    -0.222 N 
BRANCH  75  76
ATOM     76  C   UNL A   1      33.807  22.115  24.092  1.00  0.00     0.158 A 
ATOM     77  C   UNL A   1      35.109  22.464  24.379  1.00  0.00     0.078 A 
ATOM     78  N   UNL A   1      33.318  20.864  24.248  1.00  0.00    -0.209 NA
ATOM     79  C   UNL A   1      35.898  21.458  24.895  1.00  0.00     0.077 A 
ATOM     80  C   UNL A   1      34.196  19.938  24.660  1.00  0.00     0.165 A 
ATOM     81  N   UNL A   1      35.471  20.182  24.998  1.00  0.00    -0.228 NA
BRANCH  79  82
ATOM     82  C   UNL A   1      37.237  21.717  25.431  1.00  0.00     0.003 A 
ATOM     83  C   UNL A   1      38.235  20.735  25.369  1.00  0.00     0.030 A 
ATOM     84  C   UNL A   1      37.570  22.958  25.978  1.00  0.00     0.030 A 
ATOM     85  C   UNL A   1      39.497  21.031  25.859  1.00  0.00     0.111 A 
ATOM     86  C   UNL A   1      38.858  23.155  26.452  1.00  0.00     0.111 A 
ATOM     87  N   UNL A   1      39.828  22.216  26.408  1.00  0.00    -0.265 NA
ENDBRANCH  79  82
BRANCH  80  88
ATOM     88  C   UNL A   1      33.754  18.552  24.643  1.00  0.00     0.055 A 
ATOM     89  C   UNL A   1      34.127  17.686  23.595  1.00  0.00     0.015 A 
ATOM     90  C   UNL A   1      32.951  18.038  25.663  1.00  0.00     0.134 A 
ATOM     91  C   UNL A   1      33.716  16.350  23.588  1.00  0.00     0.001 A 
ATOM     92  C   UNL A   1      32.531  16.708  25.657  1.00  0.00     0.040 A 
ATOM     93  F   UNL A   1      32.544  18.829  26.667  1.00  0.00    -0.206 F 
ATOM     94  C   UNL A   1      32.918  15.861  24.621  1.00  0.00     0.003 A 
ENDBRANCH  80  88
ENDBRANCH  75  76
ENDBRANCH  68  71
ENDBRANCH  66  67
ENDBRANCH  65  66
ENDBRANCH  64  65
ENDBRANCH   1  64
TORSDOF 16
ENDMDL
