MODEL 1
REMARK VINA RESULT:     -11.9      0.000      0.000
REMARK SMILES CC1(C)C(n2c(SCC(=O)NCCCCNC(=O)c3ccc(-c4c5nc(c(-c6c(F)cccc6F)c6ccc([nH]6)c(-c6c(F)cccc6F)c6nc(c(-c7c(F)cccc7F)c7ccc4[nH]7)C=C6)C=C5)cc3)nc3cnccc32)C1(C)C
REMARK SMILES IDX 13 1 12 2 11 3 9 4 10 5 8 7 7 8 6 9 5 10 79 11 73 12 74 13
REMARK SMILES IDX 78 14 75 15 77 16 76 17 4 18 1 19 2 20 3 21 80 22 81 23
REMARK SMILES IDX 82 24 14 25 15 26 16 27 17 28 18 30 19 31 20 32 72 33 21 34
REMARK SMILES IDX 71 35 22 36 23 37 24 38 65 39 25 40 70 41 64 42 66 43 26 44
REMARK SMILES IDX 69 45 63 46 62 47 27 49 53 50 36 51 52 52 37 53 40 54 51 55
REMARK SMILES IDX 67 56 38 57 39 58 50 60 68 61 41 62 28 63 29 64 34 65 30 66
REMARK SMILES IDX 31 67 33 68 35 69 32 70 54 71 55 72 60 73 56 74 57 75 59 76
REMARK SMILES IDX 61 77 58 78 42 79 43 80 48 81 44 82 45 83 47 84 49 85 46 86
REMARK H PARENT 11 6 16 29 66 48 40 59
REMARK Flexibility Score: inf
ROOT
ATOM      1  C   UNL A   1      41.272  21.048  27.667  1.00  0.00     0.023 C 
ENDROOT
BRANCH   1   2
ATOM      2  C   UNL A   1      40.138  21.281  26.676  1.00  0.00     0.116 C 
BRANCH   2   3
ATOM      3  N   UNL A   1      39.649  22.636  26.802  1.00  0.00    -0.355 N 
ATOM      4  C   UNL A   1      38.580  23.194  26.189  1.00  0.00     0.230 C 
ATOM      5  O   UNL A   1      38.495  24.426  26.219  1.00  0.00    -0.274 OA
ATOM      6  H   UNL A   1      40.154  23.224  27.407  1.00  0.00     0.163 HD
BRANCH   4   7
ATOM      7  C   UNL A   1      37.518  22.305  25.605  1.00  0.00     0.178 C 
BRANCH   7   8
ATOM      8  S   UNL A   1      35.841  22.763  25.957  1.00  0.00    -0.078 SA
BRANCH   8   9
ATOM      9  C   UNL A   1      34.719  21.671  25.231  1.00  0.00     0.169 A 
ATOM     10  N   UNL A   1      33.579  21.852  24.465  1.00  0.00    -0.315 N 
ATOM     11  C   UNL A   1      33.209  20.596  23.998  1.00  0.00     0.072 A 
ATOM     12  N   UNL A   1      34.934  20.389  25.454  1.00  0.00    -0.221 NA
ATOM     13  C   UNL A   1      34.027  19.711  24.696  1.00  0.00     0.108 A 
ATOM     14  C   UNL A   1      32.257  20.129  23.088  1.00  0.00     0.049 A 
ATOM     15  C   UNL A   1      33.857  18.333  24.531  1.00  0.00     0.141 A 
ATOM     16  C   UNL A   1      32.169  18.744  22.981  1.00  0.00     0.113 A 
ATOM     17  N   UNL A   1      32.921  17.857  23.673  1.00  0.00    -0.262 NA
BRANCH  10  18
ATOM     18  C   UNL A   1      32.913  23.065  24.000  1.00  0.00     0.102 C 
ATOM     19  C   UNL A   1      30.537  23.976  23.320  1.00  0.00     0.014 C 
ATOM     20  C   UNL A   1      31.505  23.513  24.399  1.00  0.00    -0.007 C 
ATOM     21  C   UNL A   1      30.795  22.784  25.520  1.00  0.00     0.014 C 
ATOM     22  C   UNL A   1      32.737  24.409  24.699  1.00  0.00    -0.007 C 
ATOM     23  C   UNL A   1      32.952  25.657  23.845  1.00  0.00     0.014 C 
ATOM     24  C   UNL A   1      33.094  24.631  26.156  1.00  0.00     0.014 C 
ENDBRANCH  10  18
ENDBRANCH   8   9
ENDBRANCH   7   8
ENDBRANCH   4   7
ENDBRANCH   2   3
ENDBRANCH   1   2
BRANCH   1  25
ATOM     25  C   UNL A   1      42.233  19.919  27.268  1.00  0.00     0.023 C 
BRANCH  25  26
ATOM     26  C   UNL A   1      42.207  19.546  25.782  1.00  0.00     0.116 C 
BRANCH  26  27
ATOM     27  N   UNL A   1      43.494  19.658  25.129  1.00  0.00    -0.352 N 
ATOM     28  C   UNL A   1      44.436  20.634  25.025  1.00  0.00     0.251 C 
ATOM     29  H   UNL A   1      43.747  18.836  24.648  1.00  0.00     0.163 HD
ATOM     30  O   UNL A   1      45.451  20.347  24.380  1.00  0.00    -0.269 OA
BRANCH  28  31
ATOM     31  C   UNL A   1      44.299  22.001  25.580  1.00  0.00     0.039 A 
ATOM     32  C   UNL A   1      45.055  22.520  26.630  1.00  0.00     0.014 A 
ATOM     33  C   UNL A   1      43.292  22.801  25.010  1.00  0.00     0.014 A 
ATOM     34  C   UNL A   1      44.739  23.748  27.179  1.00  0.00     0.010 A 
ATOM     35  C   UNL A   1      42.996  24.051  25.529  1.00  0.00     0.010 A 
ATOM     36  C   UNL A   1      43.686  24.496  26.651  1.00  0.00    -0.014 A 
BRANCH  36  37
ATOM     37  C   UNL A   1      43.418  25.776  27.281  1.00  0.00     0.031 A 
ATOM     38  C   UNL A   1      44.405  26.849  26.961  1.00  0.00     0.074 A 
ATOM     39  C   UNL A   1      42.334  26.006  28.045  1.00  0.00     0.049 A 
ATOM     40  N   UNL A   1      45.194  27.480  27.768  1.00  0.00    -0.248 NA
ATOM     41  C   UNL A   1      44.623  27.166  25.540  1.00  0.00     0.031 C 
ATOM     42  C   UNL A   1      41.150  25.165  28.233  1.00  0.00     0.029 A 
ATOM     43  N   UNL A   1      42.032  27.123  28.755  1.00  0.00    -0.354 N 
ATOM     44  C   UNL A   1      45.886  28.404  26.986  1.00  0.00     0.074 A 
ATOM     45  C   UNL A   1      45.595  28.074  25.614  1.00  0.00     0.031 C 
ATOM     46  C   UNL A   1      40.168  25.907  28.795  1.00  0.00     0.029 A 
ATOM     47  C   UNL A   1      40.701  27.218  29.127  1.00  0.00     0.049 A 
ATOM     48  H   UNL A   1      42.700  27.808  28.985  1.00  0.00     0.167 HD
ATOM     49  C   UNL A   1      46.482  29.500  27.531  1.00  0.00     0.037 A 
ATOM     50  C   UNL A   1      40.081  28.332  29.590  1.00  0.00     0.037 A 
ATOM     51  C   UNL A   1      46.736  29.320  28.936  1.00  0.00     0.049 A 
ATOM     52  C   UNL A   1      41.132  29.267  30.069  1.00  0.00     0.074 A 
ATOM     53  C   UNL A   1      47.462  28.413  29.686  1.00  0.00     0.029 A 
ATOM     54  N   UNL A   1      45.919  29.959  29.839  1.00  0.00    -0.354 N 
ATOM     55  N   UNL A   1      41.855  29.067  31.135  1.00  0.00    -0.248 NA
ATOM     56  C   UNL A   1      41.694  30.200  29.100  1.00  0.00     0.031 C 
ATOM     57  C   UNL A   1      46.675  28.189  30.855  1.00  0.00     0.029 A 
ATOM     58  C   UNL A   1      45.555  29.015  30.765  1.00  0.00     0.049 A 
ATOM     59  H   UNL A   1      45.650  30.906  29.823  1.00  0.00     0.167 HD
ATOM     60  C   UNL A   1      43.127  29.493  30.784  1.00  0.00     0.074 A 
ATOM     61  C   UNL A   1      42.951  30.252  29.547  1.00  0.00     0.031 C 
ATOM     62  C   UNL A   1      44.245  28.959  31.363  1.00  0.00     0.037 A 
BRANCH  49  63
ATOM     63  C   UNL A   1      46.477  30.864  26.879  1.00  0.00     0.057 A 
ATOM     64  C   UNL A   1      45.307  31.582  26.561  1.00  0.00     0.134 A 
ATOM     65  C   UNL A   1      47.663  31.623  26.868  1.00  0.00     0.134 A 
ATOM     66  F   UNL A   1      44.091  31.024  26.575  1.00  0.00    -0.206 F 
ATOM     67  C   UNL A   1      45.305  32.956  26.306  1.00  0.00     0.040 A 
ATOM     68  C   UNL A   1      47.665  33.008  26.663  1.00  0.00     0.040 A 
ATOM     69  F   UNL A   1      48.846  31.057  27.151  1.00  0.00    -0.206 F 
ATOM     70  C   UNL A   1      46.481  33.681  26.395  1.00  0.00     0.006 A 
ENDBRANCH  49  63
BRANCH  50  71
ATOM     71  C   UNL A   1      38.690  28.766  29.339  1.00  0.00     0.057 A 
ATOM     72  C   UNL A   1      38.307  29.351  28.118  1.00  0.00     0.134 A 
ATOM     73  C   UNL A   1      37.762  28.866  30.385  1.00  0.00     0.134 A 
ATOM     74  F   UNL A   1      39.146  29.391  27.073  1.00  0.00    -0.206 F 
ATOM     75  C   UNL A   1      37.082  30.003  27.949  1.00  0.00     0.040 A 
ATOM     76  C   UNL A   1      36.534  29.524  30.231  1.00  0.00     0.040 A 
ATOM     77  F   UNL A   1      38.052  28.379  31.600  1.00  0.00    -0.206 F 
ATOM     78  C   UNL A   1      36.195  30.103  29.012  1.00  0.00     0.006 A 
ENDBRANCH  50  71
BRANCH  62  79
ATOM     79  C   UNL A   1      44.065  28.047  32.543  1.00  0.00     0.057 A 
ATOM     80  C   UNL A   1      44.221  28.567  33.832  1.00  0.00     0.134 A 
ATOM     81  C   UNL A   1      43.876  26.660  32.440  1.00  0.00     0.134 A 
ATOM     82  F   UNL A   1      44.471  29.874  34.009  1.00  0.00    -0.206 F 
ATOM     83  C   UNL A   1      44.165  27.755  34.968  1.00  0.00     0.040 A 
ATOM     84  C   UNL A   1      43.781  25.841  33.569  1.00  0.00     0.040 A 
ATOM     85  F   UNL A   1      43.834  26.052  31.248  1.00  0.00    -0.206 F 
ATOM     86  C   UNL A   1      43.928  26.389  34.839  1.00  0.00     0.006 A 
ENDBRANCH  62  79
ENDBRANCH  36  37
ENDBRANCH  28  31
ENDBRANCH  26  27
ENDBRANCH  25  26
ENDBRANCH   1  25
TORSDOF 14
ENDMDL
MODEL 2
REMARK VINA RESULT:     -11.5      4.948     10.100
REMARK SMILES CC1(C)C(n2c(SCC(=O)NCCCCNC(=O)c3ccc(-c4c5nc(c(-c6c(F)cccc6F)c6ccc([nH]6)c(-c6c(F)cccc6F)c6nc(c(-c7c(F)cccc7F)c7ccc4[nH]7)C=C6)C=C5)cc3)nc3cnccc32)C1(C)C
REMARK SMILES IDX 13 1 12 2 11 3 9 4 10 5 8 7 7 8 6 9 5 10 79 11 73 12 74 13
REMARK SMILES IDX 78 14 75 15 77 16 76 17 4 18 1 19 2 20 3 21 80 22 81 23
REMARK SMILES IDX 82 24 14 25 15 26 16 27 17 28 18 30 19 31 20 32 72 33 21 34
REMARK SMILES IDX 71 35 22 36 23 37 24 38 65 39 25 40 70 41 64 42 66 43 26 44
REMARK SMILES IDX 69 45 63 46 62 47 27 49 53 50 36 51 52 52 37 53 40 54 51 55
REMARK SMILES IDX 67 56 38 57 39 58 50 60 68 61 41 62 28 63 29 64 34 65 30 66
REMARK SMILES IDX 31 67 33 68 35 69 32 70 54 71 55 72 60 73 56 74 57 75 59 76
REMARK SMILES IDX 61 77 58 78 42 79 43 80 48 81 44 82 45 83 47 84 49 85 46 86
REMARK H PARENT 11 6 16 29 66 48 40 59
REMARK Flexibility Score: inf
ROOT
ATOM      1  C   UNL A   1      34.052  34.876  28.708  1.00  0.00     0.023 C 
ENDROOT
BRANCH   1   2
ATOM      2  C   UNL A   1      33.372  33.625  28.165  1.00  0.00     0.116 C 
BRANCH   2   3
ATOM      3  N   UNL A   1      34.329  32.544  28.083  1.00  0.00    -0.355 N 
ATOM      4  C   UNL A   1      34.099  31.253  27.751  1.00  0.00     0.230 C 
ATOM      5  O   UNL A   1      34.994  30.440  28.005  1.00  0.00    -0.274 OA
ATOM      6  H   UNL A   1      35.262  32.775  28.295  1.00  0.00     0.163 HD
BRANCH   4   7
ATOM      7  C   UNL A   1      32.840  30.895  27.013  1.00  0.00     0.178 C 
BRANCH   7   8
ATOM      8  S   UNL A   1      32.821  29.301  26.237  1.00  0.00    -0.078 SA
BRANCH   8   9
ATOM      9  C   UNL A   1      31.530  29.164  25.099  1.00  0.00     0.169 A 
ATOM     10  N   UNL A   1      30.911  28.083  24.492  1.00  0.00    -0.315 N 
ATOM     11  C   UNL A   1      29.800  28.585  23.823  1.00  0.00     0.072 A 
ATOM     12  N   UNL A   1      31.020  30.301  24.665  1.00  0.00    -0.221 NA
ATOM     13  C   UNL A   1      29.949  29.968  23.891  1.00  0.00     0.108 A 
ATOM     14  C   UNL A   1      28.716  28.011  23.154  1.00  0.00     0.049 A 
ATOM     15  C   UNL A   1      29.035  30.797  23.233  1.00  0.00     0.141 A 
ATOM     16  C   UNL A   1      27.853  28.915  22.540  1.00  0.00     0.113 A 
ATOM     17  N   UNL A   1      27.991  30.261  22.554  1.00  0.00    -0.262 NA
BRANCH  10  18
ATOM     18  C   UNL A   1      31.149  26.648  24.606  1.00  0.00     0.102 C 
ATOM     19  C   UNL A   1      30.662  24.378  23.362  1.00  0.00     0.014 C 
ATOM     20  C   UNL A   1      31.416  25.698  23.436  1.00  0.00    -0.007 C 
ATOM     21  C   UNL A   1      31.671  26.280  22.063  1.00  0.00     0.014 C 
ATOM     22  C   UNL A   1      32.460  25.872  24.572  1.00  0.00    -0.007 C 
ATOM     23  C   UNL A   1      32.617  24.747  25.593  1.00  0.00     0.014 C 
ATOM     24  C   UNL A   1      33.785  26.511  24.202  1.00  0.00     0.014 C 
ENDBRANCH  10  18
ENDBRANCH   8   9
ENDBRANCH   7   8
ENDBRANCH   4   7
ENDBRANCH   2   3
ENDBRANCH   1   2
BRANCH   1  25
ATOM     25  C   UNL A   1      33.117  36.085  28.855  1.00  0.00     0.023 C 
BRANCH  25  26
ATOM     26  C   UNL A   1      33.200  36.803  30.206  1.00  0.00     0.116 C 
BRANCH  26  27
ATOM     27  N   UNL A   1      32.528  36.105  31.282  1.00  0.00    -0.352 N 
ATOM     28  C   UNL A   1      32.900  35.172  32.200  1.00  0.00     0.251 C 
ATOM     29  H   UNL A   1      31.582  36.365  31.370  1.00  0.00     0.163 HD
ATOM     30  O   UNL A   1      32.027  34.816  33.001  1.00  0.00    -0.269 OA
BRANCH  28  31
ATOM     31  C   UNL A   1      34.237  34.537  32.265  1.00  0.00     0.039 A 
ATOM     32  C   UNL A   1      35.426  35.199  32.565  1.00  0.00     0.014 A 
ATOM     33  C   UNL A   1      34.285  33.166  31.953  1.00  0.00     0.014 A 
ATOM     34  C   UNL A   1      36.640  34.549  32.440  1.00  0.00     0.010 A 
ATOM     35  C   UNL A   1      35.495  32.497  31.865  1.00  0.00     0.010 A 
ATOM     36  C   UNL A   1      36.674  33.209  32.055  1.00  0.00    -0.014 A 
BRANCH  36  37
ATOM     37  C   UNL A   1      37.987  32.597  31.948  1.00  0.00     0.031 A 
ATOM     38  C   UNL A   1      38.789  32.617  33.206  1.00  0.00     0.074 A 
ATOM     39  C   UNL A   1      38.429  32.000  30.826  1.00  0.00     0.049 A 
ATOM     40  N   UNL A   1      39.922  33.202  33.426  1.00  0.00    -0.248 NA
ATOM     41  C   UNL A   1      38.186  32.010  34.404  1.00  0.00     0.031 C 
ATOM     42  C   UNL A   1      37.683  31.656  29.615  1.00  0.00     0.029 A 
ATOM     43  N   UNL A   1      39.661  31.483  30.583  1.00  0.00    -0.354 N 
ATOM     44  C   UNL A   1      40.267  32.890  34.740  1.00  0.00     0.074 A 
ATOM     45  C   UNL A   1      39.107  32.274  35.331  1.00  0.00     0.031 C 
ATOM     46  C   UNL A   1      38.408  30.777  28.886  1.00  0.00     0.029 A 
ATOM     47  C   UNL A   1      39.711  30.612  29.507  1.00  0.00     0.049 A 
ATOM     48  H   UNL A   1      40.452  31.708  31.125  1.00  0.00     0.167 HD
ATOM     49  C   UNL A   1      41.552  32.975  35.182  1.00  0.00     0.037 A 
ATOM     50  C   UNL A   1      40.725  29.760  29.219  1.00  0.00     0.037 A 
ATOM     51  C   UNL A   1      42.340  33.849  34.353  1.00  0.00     0.049 A 
ATOM     52  C   UNL A   1      41.934  30.236  29.940  1.00  0.00     0.074 A 
ATOM     53  C   UNL A   1      42.258  35.181  33.990  1.00  0.00     0.029 A 
ATOM     54  N   UNL A   1      43.230  33.290  33.468  1.00  0.00    -0.354 N 
ATOM     55  N   UNL A   1      42.585  31.324  29.633  1.00  0.00    -0.248 NA
ATOM     56  C   UNL A   1      42.145  29.746  31.297  1.00  0.00     0.031 C 
ATOM     57  C   UNL A   1      42.666  35.215  32.623  1.00  0.00     0.029 A 
ATOM     58  C   UNL A   1      43.023  33.915  32.265  1.00  0.00     0.049 A 
ATOM     59  H   UNL A   1      43.888  32.583  33.661  1.00  0.00     0.167 HD
ATOM     60  C   UNL A   1      42.933  31.885  30.853  1.00  0.00     0.074 A 
ATOM     61  C   UNL A   1      42.703  30.830  31.839  1.00  0.00     0.031 C 
ATOM     62  C   UNL A   1      43.102  33.233  30.997  1.00  0.00     0.037 A 
BRANCH  49  63
ATOM     63  C   UNL A   1      42.180  31.972  36.123  1.00  0.00     0.057 A 
ATOM     64  C   UNL A   1      42.317  30.599  35.835  1.00  0.00     0.134 A 
ATOM     65  C   UNL A   1      42.961  32.436  37.198  1.00  0.00     0.134 A 
ATOM     66  F   UNL A   1      41.685  30.009  34.815  1.00  0.00    -0.206 F 
ATOM     67  C   UNL A   1      43.201  29.764  36.524  1.00  0.00     0.040 A 
ATOM     68  C   UNL A   1      43.885  31.620  37.862  1.00  0.00     0.040 A 
ATOM     69  F   UNL A   1      42.919  33.723  37.576  1.00  0.00    -0.206 F 
ATOM     70  C   UNL A   1      44.018  30.282  37.515  1.00  0.00     0.006 A 
ENDBRANCH  49  63
BRANCH  50  71
ATOM     71  C   UNL A   1      40.632  28.401  28.643  1.00  0.00     0.057 A 
ATOM     72  C   UNL A   1      40.934  28.149  27.292  1.00  0.00     0.134 A 
ATOM     73  C   UNL A   1      39.987  27.365  29.332  1.00  0.00     0.134 A 
ATOM     74  F   UNL A   1      41.474  29.096  26.512  1.00  0.00    -0.206 F 
ATOM     75  C   UNL A   1      40.607  26.945  26.661  1.00  0.00     0.040 A 
ATOM     76  C   UNL A   1      39.646  26.157  28.709  1.00  0.00     0.040 A 
ATOM     77  F   UNL A   1      39.617  27.525  30.610  1.00  0.00    -0.206 F 
ATOM     78  C   UNL A   1      39.948  25.947  27.366  1.00  0.00     0.006 A 
ENDBRANCH  50  71
BRANCH  62  79
ATOM     79  C   UNL A   1      43.111  34.083  29.758  1.00  0.00     0.057 A 
ATOM     80  C   UNL A   1      44.337  34.408  29.168  1.00  0.00     0.134 A 
ATOM     81  C   UNL A   1      41.967  34.690  29.216  1.00  0.00     0.134 A 
ATOM     82  F   UNL A   1      45.481  33.920  29.671  1.00  0.00    -0.206 F 
ATOM     83  C   UNL A   1      44.423  35.274  28.074  1.00  0.00     0.040 A 
ATOM     84  C   UNL A   1      42.035  35.529  28.100  1.00  0.00     0.040 A 
ATOM     85  F   UNL A   1      40.764  34.535  29.783  1.00  0.00    -0.206 F 
ATOM     86  C   UNL A   1      43.268  35.825  27.526  1.00  0.00     0.006 A 
ENDBRANCH  62  79
ENDBRANCH  36  37
ENDBRANCH  28  31
ENDBRANCH  26  27
ENDBRANCH  25  26
ENDBRANCH   1  25
TORSDOF 14
ENDMDL
MODEL 3
REMARK VINA RESULT:     -11.3      4.169      9.199
REMARK SMILES CC1(C)C(n2c(SCC(=O)NCCCCNC(=O)c3ccc(-c4c5nc(c(-c6c(F)cccc6F)c6ccc([nH]6)c(-c6c(F)cccc6F)c6nc(c(-c7c(F)cccc7F)c7ccc4[nH]7)C=C6)C=C5)cc3)nc3cnccc32)C1(C)C
REMARK SMILES IDX 13 1 12 2 11 3 9 4 10 5 8 7 7 8 6 9 5 10 79 11 73 12 74 13
REMARK SMILES IDX 78 14 75 15 77 16 76 17 4 18 1 19 2 20 3 21 80 22 81 23
REMARK SMILES IDX 82 24 14 25 15 26 16 27 17 28 18 30 19 31 20 32 72 33 21 34
REMARK SMILES IDX 71 35 22 36 23 37 24 38 65 39 25 40 70 41 64 42 66 43 26 44
REMARK SMILES IDX 69 45 63 46 62 47 27 49 53 50 36 51 52 52 37 53 40 54 51 55
REMARK SMILES IDX 67 56 38 57 39 58 50 60 68 61 41 62 28 63 29 64 34 65 30 66
REMARK SMILES IDX 31 67 33 68 35 69 32 70 54 71 55 72 60 73 56 74 57 75 59 76
REMARK SMILES IDX 61 77 58 78 42 79 43 80 48 81 44 82 45 83 47 84 49 85 46 86
REMARK H PARENT 11 6 16 29 66 48 40 59
REMARK Flexibility Score: inf
ROOT
ATOM      1  C   UNL A   1      34.953  33.163  28.047  1.00  0.00     0.023 C 
ENDROOT
BRANCH   1   2
ATOM      2  C   UNL A   1      34.901  31.650  27.879  1.00  0.00     0.116 C 
BRANCH   2   3
ATOM      3  N   UNL A   1      33.526  31.205  27.870  1.00  0.00    -0.355 N 
ATOM      4  C   UNL A   1      33.018  30.083  27.310  1.00  0.00     0.230 C 
ATOM      5  O   UNL A   1      31.791  30.026  27.179  1.00  0.00    -0.274 OA
ATOM      6  H   UNL A   1      32.879  31.789  28.327  1.00  0.00     0.163 HD
BRANCH   4   7
ATOM      7  C   UNL A   1      33.940  28.943  26.979  1.00  0.00     0.178 C 
BRANCH   7   8
ATOM      8  S   UNL A   1      33.992  28.456  25.275  1.00  0.00    -0.078 SA
BRANCH   8   9
ATOM      9  C   UNL A   1      32.425  28.033  24.688  1.00  0.00     0.169 A 
ATOM     10  N   UNL A   1      31.680  26.864  24.727  1.00  0.00    -0.315 N 
ATOM     11  C   UNL A   1      30.408  27.187  24.267  1.00  0.00     0.072 A 
ATOM     12  N   UNL A   1      31.780  28.976  24.028  1.00  0.00    -0.221 NA
ATOM     13  C   UNL A   1      30.536  28.483  23.773  1.00  0.00     0.108 A 
ATOM     14  C   UNL A   1      29.189  26.508  24.197  1.00  0.00     0.049 A 
ATOM     15  C   UNL A   1      29.448  29.096  23.145  1.00  0.00     0.141 A 
ATOM     16  C   UNL A   1      28.161  27.202  23.566  1.00  0.00     0.113 A 
ATOM     17  N   UNL A   1      28.263  28.445  23.041  1.00  0.00    -0.262 NA
BRANCH  10  18
ATOM     18  C   UNL A   1      31.977  25.551  25.291  1.00  0.00     0.102 C 
ATOM     19  C   UNL A   1      31.171  23.045  25.202  1.00  0.00     0.014 C 
ATOM     20  C   UNL A   1      31.877  24.221  24.541  1.00  0.00    -0.007 C 
ATOM     21  C   UNL A   1      31.661  24.239  23.043  1.00  0.00     0.014 C 
ATOM     22  C   UNL A   1      33.226  24.690  25.149  1.00  0.00    -0.007 C 
ATOM     23  C   UNL A   1      33.731  24.001  26.415  1.00  0.00     0.014 C 
ATOM     24  C   UNL A   1      34.345  25.017  24.179  1.00  0.00     0.014 C 
ENDBRANCH  10  18
ENDBRANCH   8   9
ENDBRANCH   7   8
ENDBRANCH   4   7
ENDBRANCH   2   3
ENDBRANCH   1   2
BRANCH   1  25
ATOM     25  C   UNL A   1      33.593  33.809  28.349  1.00  0.00     0.023 C 
BRANCH  25  26
ATOM     26  C   UNL A   1      33.665  35.152  29.081  1.00  0.00     0.116 C 
BRANCH  26  27
ATOM     27  N   UNL A   1      33.270  35.082  30.472  1.00  0.00    -0.352 N 
ATOM     28  C   UNL A   1      33.812  34.542  31.597  1.00  0.00     0.251 C 
ATOM     29  H   UNL A   1      32.410  35.529  30.645  1.00  0.00     0.163 HD
ATOM     30  O   UNL A   1      33.174  34.706  32.644  1.00  0.00    -0.269 OA
BRANCH  28  31
ATOM     31  C   UNL A   1      35.061  33.746  31.635  1.00  0.00     0.039 A 
ATOM     32  C   UNL A   1      36.351  34.276  31.624  1.00  0.00     0.014 A 
ATOM     33  C   UNL A   1      34.903  32.349  31.638  1.00  0.00     0.014 A 
ATOM     34  C   UNL A   1      37.448  33.444  31.497  1.00  0.00     0.010 A 
ATOM     35  C   UNL A   1      36.001  31.507  31.552  1.00  0.00     0.010 A 
ATOM     36  C   UNL A   1      37.268  32.063  31.425  1.00  0.00    -0.014 A 
BRANCH  36  37
ATOM     37  C   UNL A   1      38.469  31.257  31.294  1.00  0.00     0.031 A 
ATOM     38  C   UNL A   1      39.182  30.987  32.577  1.00  0.00     0.074 A 
ATOM     39  C   UNL A   1      38.881  30.739  30.123  1.00  0.00     0.049 A 
ATOM     40  N   UNL A   1      40.377  31.342  32.922  1.00  0.00    -0.248 NA
ATOM     41  C   UNL A   1      38.413  30.346  33.657  1.00  0.00     0.031 C 
ATOM     42  C   UNL A   1      38.169  30.677  28.846  1.00  0.00     0.029 A 
ATOM     43  N   UNL A   1      40.028  30.056  29.867  1.00  0.00    -0.354 N 
ATOM     44  C   UNL A   1      40.583  30.816  34.197  1.00  0.00     0.074 A 
ATOM     45  C   UNL A   1      39.303  30.335  34.649  1.00  0.00     0.031 C 
ATOM     46  C   UNL A   1      38.789  29.786  28.039  1.00  0.00     0.029 A 
ATOM     47  C   UNL A   1      40.006  29.329  28.689  1.00  0.00     0.049 A 
ATOM     48  H   UNL A   1      40.808  30.076  30.468  1.00  0.00     0.167 HD
ATOM     49  C   UNL A   1      41.834  30.629  34.701  1.00  0.00     0.037 A 
ATOM     50  C   UNL A   1      40.886  28.361  28.334  1.00  0.00     0.037 A 
ATOM     51  C   UNL A   1      42.804  31.454  34.030  1.00  0.00     0.049 A 
ATOM     52  C   UNL A   1      42.107  28.535  29.164  1.00  0.00     0.074 A 
ATOM     53  C   UNL A   1      42.960  32.815  33.843  1.00  0.00     0.029 A 
ATOM     54  N   UNL A   1      43.647  30.868  33.118  1.00  0.00    -0.354 N 
ATOM     55  N   UNL A   1      42.942  29.527  29.032  1.00  0.00    -0.248 NA
ATOM     56  C   UNL A   1      42.149  27.852  30.451  1.00  0.00     0.031 C 
ATOM     57  C   UNL A   1      43.456  32.949  32.512  1.00  0.00     0.029 A 
ATOM     58  C   UNL A   1      43.621  31.662  32.001  1.00  0.00     0.049 A 
ATOM     59  H   UNL A   1      44.168  30.041  33.243  1.00  0.00     0.167 HD
ATOM     60  C   UNL A   1      43.297  29.866  30.329  1.00  0.00     0.074 A 
ATOM     61  C   UNL A   1      42.838  28.752  31.156  1.00  0.00     0.031 C 
ATOM     62  C   UNL A   1      43.671  31.139  30.658  1.00  0.00     0.037 A 
BRANCH  49  63
ATOM     63  C   UNL A   1      42.229  29.426  35.527  1.00  0.00     0.057 A 
ATOM     64  C   UNL A   1      42.035  28.091  35.119  1.00  0.00     0.134 A 
ATOM     65  C   UNL A   1      43.121  29.597  36.602  1.00  0.00     0.134 A 
ATOM     66  F   UNL A   1      41.261  27.759  34.081  1.00  0.00    -0.206 F 
ATOM     67  C   UNL A   1      42.714  27.015  35.697  1.00  0.00     0.040 A 
ATOM     68  C   UNL A   1      43.843  28.532  37.155  1.00  0.00     0.040 A 
ATOM     69  F   UNL A   1      43.390  30.818  37.088  1.00  0.00    -0.206 F 
ATOM     70  C   UNL A   1      43.652  27.237  36.692  1.00  0.00     0.006 A 
ENDBRANCH  49  63
BRANCH  50  71
ATOM     71  C   UNL A   1      40.613  27.119  27.579  1.00  0.00     0.057 A 
ATOM     72  C   UNL A   1      39.888  26.054  28.146  1.00  0.00     0.134 A 
ATOM     73  C   UNL A   1      41.285  26.836  26.383  1.00  0.00     0.134 A 
ATOM     74  F   UNL A   1      39.275  26.183  29.332  1.00  0.00    -0.206 F 
ATOM     75  C   UNL A   1      39.841  24.784  27.564  1.00  0.00     0.040 A 
ATOM     76  C   UNL A   1      41.253  25.565  25.793  1.00  0.00     0.040 A 
ATOM     77  F   UNL A   1      42.040  27.771  25.789  1.00  0.00    -0.206 F 
ATOM     78  C   UNL A   1      40.537  24.531  26.389  1.00  0.00     0.006 A 
ENDBRANCH  50  71
BRANCH  62  79
ATOM     79  C   UNL A   1      43.897  32.122  29.545  1.00  0.00     0.057 A 
ATOM     80  C   UNL A   1      45.168  32.215  28.969  1.00  0.00     0.134 A 
ATOM     81  C   UNL A   1      42.941  33.059  29.121  1.00  0.00     0.134 A 
ATOM     82  F   UNL A   1      46.154  31.397  29.369  1.00  0.00    -0.206 F 
ATOM     83  C   UNL A   1      45.471  33.174  27.999  1.00  0.00     0.040 A 
ATOM     84  C   UNL A   1      43.220  34.000  28.126  1.00  0.00     0.040 A 
ATOM     85  F   UNL A   1      41.733  33.128  29.695  1.00  0.00    -0.206 F 
ATOM     86  C   UNL A   1      44.491  34.061  27.563  1.00  0.00     0.006 A 
ENDBRANCH  62  79
ENDBRANCH  36  37
ENDBRANCH  28  31
ENDBRANCH  26  27
ENDBRANCH  25  26
ENDBRANCH   1  25
TORSDOF 14
ENDMDL
