MODEL 1
REMARK VINA RESULT:     -12.5      0.000      0.000
REMARK SMILES O=C(NCCCCNC(=O)[C@@H]1C=C[C@H](NC(=O)[C@@H]2Cc3ccccc3O2)C1)c1ccc(-c2c3nc(c(-c4c(F)cccc4F)c4ccc([nH]4)c(-c4c(F)cccc4F)c4nc(c(-c5c(F)cccc5F)c5ccc2[nH]5)C=C4)C=C3)cc1
REMARK SMILES IDX 5 1 4 2 3 3 1 4 2 5 28 7 29 8 81 9 30 10 80 11 31 12 32 13
REMARK SMILES IDX 33 14 74 15 34 16 79 17 73 18 75 19 35 20 78 21 72 22 71 23
REMARK SMILES IDX 36 25 62 26 45 27 61 28 46 29 49 30 60 31 76 32 47 33 48 34
REMARK SMILES IDX 59 36 77 37 50 38 37 39 38 40 43 41 39 42 40 43 42 44 44 45
REMARK SMILES IDX 41 46 63 47 64 48 69 49 65 50 66 51 68 52 70 53 67 54 51 55
REMARK SMILES IDX 52 56 57 57 53 58 54 59 56 60 58 61 55 62 6 63 7 64 8 65
REMARK SMILES IDX 9 66 10 68 11 69 12 70 27 71 13 72 14 73 15 74 16 75 17 77
REMARK SMILES IDX 18 78 19 79 26 80 20 81 25 82 21 83 24 84 22 85 23 86
REMARK H PARENT 3 6 75 24 49 35 8 67 15 76
REMARK Flexibility Score: inf
ROOT
ATOM      1  C   UNL A   1      31.343  32.222  26.565  1.00  0.00     0.023 C 
ENDROOT
BRANCH   1   2
ATOM      2  C   UNL A   1      32.604  32.862  27.138  1.00  0.00     0.116 C 
BRANCH   2   3
ATOM      3  N   UNL A   1      32.391  34.204  27.653  1.00  0.00    -0.352 N 
ATOM      4  O   UNL A   1      32.774  35.944  29.055  1.00  0.00    -0.269 OA
ATOM      5  C   UNL A   1      33.102  34.838  28.643  1.00  0.00     0.251 C 
ATOM      6  H   UNL A   1      31.655  34.717  27.248  1.00  0.00     0.163 HD
BRANCH   5   7
ATOM      7  C   UNL A   1      34.256  34.132  29.230  1.00  0.00     0.039 A 
ATOM      8  C   UNL A   1      35.556  34.504  28.873  1.00  0.00     0.014 A 
ATOM      9  C   UNL A   1      34.028  33.061  30.096  1.00  0.00     0.014 A 
ATOM     10  C   UNL A   1      36.630  33.739  29.309  1.00  0.00     0.010 A 
ATOM     11  C   UNL A   1      35.113  32.334  30.585  1.00  0.00     0.010 A 
ATOM     12  C   UNL A   1      36.418  32.663  30.185  1.00  0.00    -0.014 A 
BRANCH  12  13
ATOM     13  C   UNL A   1      37.583  31.966  30.776  1.00  0.00     0.031 A 
ATOM     14  C   UNL A   1      38.341  30.920  30.016  1.00  0.00     0.074 A 
ATOM     15  C   UNL A   1      37.930  32.287  32.037  1.00  0.00     0.049 A 
ATOM     16  N   UNL A   1      39.346  30.184  30.415  1.00  0.00    -0.248 NA
ATOM     17  C   UNL A   1      37.914  30.655  28.633  1.00  0.00     0.031 C 
ATOM     18  C   UNL A   1      37.243  33.279  32.872  1.00  0.00     0.029 A 
ATOM     19  N   UNL A   1      38.936  31.819  32.839  1.00  0.00    -0.354 N 
ATOM     20  C   UNL A   1      39.660  29.356  29.347  1.00  0.00     0.074 A 
ATOM     21  C   UNL A   1      38.734  29.671  28.280  1.00  0.00     0.031 C 
ATOM     22  C   UNL A   1      37.856  33.353  34.061  1.00  0.00     0.029 A 
ATOM     23  C   UNL A   1      38.937  32.377  34.095  1.00  0.00     0.049 A 
ATOM     24  H   UNL A   1      39.593  31.146  32.547  1.00  0.00     0.167 HD
ATOM     25  C   UNL A   1      40.636  28.419  29.274  1.00  0.00     0.037 A 
ATOM     26  C   UNL A   1      39.699  32.106  35.169  1.00  0.00     0.037 A 
ATOM     27  C   UNL A   1      41.568  28.137  30.335  1.00  0.00     0.049 A 
ATOM     28  C   UNL A   1      40.752  31.047  35.060  1.00  0.00     0.074 A 
ATOM     29  C   UNL A   1      42.650  27.273  30.324  1.00  0.00     0.029 A 
ATOM     30  N   UNL A   1      41.522  28.704  31.599  1.00  0.00    -0.354 N 
ATOM     31  N   UNL A   1      41.077  30.314  34.024  1.00  0.00    -0.248 NA
ATOM     32  C   UNL A   1      41.534  30.766  36.271  1.00  0.00     0.031 C 
ATOM     33  C   UNL A   1      43.230  27.282  31.597  1.00  0.00     0.029 A 
ATOM     34  C   UNL A   1      42.531  28.177  32.389  1.00  0.00     0.049 A 
ATOM     35  H   UNL A   1      40.870  29.380  31.893  1.00  0.00     0.167 HD
ATOM     36  C   UNL A   1      42.099  29.482  34.455  1.00  0.00     0.074 A 
ATOM     37  C   UNL A   1      42.360  29.823  35.839  1.00  0.00     0.031 C 
ATOM     38  C   UNL A   1      42.758  28.517  33.770  1.00  0.00     0.037 A 
BRANCH  25  39
ATOM     39  C   UNL A   1      40.750  27.612  28.015  1.00  0.00     0.057 A 
ATOM     40  C   UNL A   1      41.563  28.016  26.949  1.00  0.00     0.134 A 
ATOM     41  C   UNL A   1      40.117  26.367  27.912  1.00  0.00     0.134 A 
ATOM     42  F   UNL A   1      42.193  29.199  26.985  1.00  0.00    -0.206 F 
ATOM     43  C   UNL A   1      41.739  27.209  25.822  1.00  0.00     0.040 A 
ATOM     44  C   UNL A   1      40.298  25.545  26.799  1.00  0.00     0.040 A 
ATOM     45  F   UNL A   1      39.330  25.920  28.903  1.00  0.00    -0.206 F 
ATOM     46  C   UNL A   1      41.113  25.965  25.750  1.00  0.00     0.006 A 
ENDBRANCH  25  39
BRANCH  26  47
ATOM     47  C   UNL A   1      39.455  32.823  36.442  1.00  0.00     0.057 A 
ATOM     48  C   UNL A   1      40.154  33.990  36.764  1.00  0.00     0.134 A 
ATOM     49  C   UNL A   1      38.500  32.364  37.359  1.00  0.00     0.134 A 
ATOM     50  F   UNL A   1      41.090  34.467  35.932  1.00  0.00    -0.206 F 
ATOM     51  C   UNL A   1      39.923  34.670  37.960  1.00  0.00     0.040 A 
ATOM     52  C   UNL A   1      38.240  33.049  38.546  1.00  0.00     0.040 A 
ATOM     53  F   UNL A   1      37.791  31.255  37.101  1.00  0.00    -0.206 F 
ATOM     54  C   UNL A   1      38.958  34.203  38.852  1.00  0.00     0.006 A 
ENDBRANCH  26  47
BRANCH  38  55
ATOM     55  C   UNL A   1      43.809  27.761  34.519  1.00  0.00     0.057 A 
ATOM     56  C   UNL A   1      43.520  26.543  35.148  1.00  0.00     0.134 A 
ATOM     57  C   UNL A   1      45.122  28.238  34.596  1.00  0.00     0.134 A 
ATOM     58  F   UNL A   1      42.275  26.043  35.123  1.00  0.00    -0.206 F 
ATOM     59  C   UNL A   1      44.500  25.836  35.845  1.00  0.00     0.040 A 
ATOM     60  C   UNL A   1      46.114  27.530  35.273  1.00  0.00     0.040 A 
ATOM     61  F   UNL A   1      45.461  29.398  34.011  1.00  0.00    -0.206 F 
ATOM     62  C   UNL A   1      45.802  26.326  35.903  1.00  0.00     0.006 A 
ENDBRANCH  38  55
ENDBRANCH  12  13
ENDBRANCH   5   7
ENDBRANCH   2   3
ENDBRANCH   1   2
BRANCH   1  63
ATOM     63  C   UNL A   1      31.572  30.875  25.881  1.00  0.00     0.023 C 
BRANCH  63  64
ATOM     64  C   UNL A   1      32.575  29.995  26.625  1.00  0.00     0.116 C 
BRANCH  64  65
ATOM     65  N   UNL A   1      31.950  28.802  27.142  1.00  0.00    -0.356 N 
ATOM     66  C   UNL A   1      31.587  27.623  26.589  1.00  0.00     0.227 C 
ATOM     67  H   UNL A   1      31.744  28.859  28.104  1.00  0.00     0.163 HD
ATOM     68  O   UNL A   1      31.024  26.832  27.363  1.00  0.00    -0.274 OA
BRANCH  66  69
ATOM     69  C   UNL A   1      31.790  27.209  25.121  1.00  0.00     0.103 C 
ATOM     70  C   UNL A   1      30.465  27.278  24.407  1.00  0.00    -0.016 C 
ATOM     71  C   UNL A   1      32.287  25.840  24.665  1.00  0.00     0.047 C 
ATOM     72  C   UNL A   1      30.047  26.081  23.970  1.00  0.00    -0.006 C 
ATOM     73  C   UNL A   1      31.049  25.031  24.235  1.00  0.00     0.106 C 
BRANCH  73  74
ATOM     74  N   UNL A   1      30.655  23.971  25.151  1.00  0.00    -0.347 N 
ATOM     75  C   UNL A   1      31.096  22.755  25.558  1.00  0.00     0.261 C 
ATOM     76  H   UNL A   1      29.819  24.208  25.614  1.00  0.00     0.164 HD
ATOM     77  O   UNL A   1      30.241  22.058  26.126  1.00  0.00    -0.271 OA
BRANCH  75  78
ATOM     78  C   UNL A   1      32.533  22.226  25.460  1.00  0.00     0.266 C 
ATOM     79  C   UNL A   1      33.441  22.844  26.531  1.00  0.00     0.095 C 
ATOM     80  O   UNL A   1      33.154  22.278  24.172  1.00  0.00    -0.480 OA
ATOM     81  C   UNL A   1      34.678  23.021  25.739  1.00  0.00    -0.002 A 
ATOM     82  C   UNL A   1      34.446  22.655  24.425  1.00  0.00     0.123 A 
ATOM     83  C   UNL A   1      35.898  23.544  26.127  1.00  0.00     0.008 A 
ATOM     84  C   UNL A   1      35.416  22.779  23.451  1.00  0.00     0.047 A 
ATOM     85  C   UNL A   1      36.890  23.695  25.153  1.00  0.00     0.001 A 
ATOM     86  C   UNL A   1      36.651  23.311  23.822  1.00  0.00     0.004 A 
ENDBRANCH  75  78
ENDBRANCH  73  74
ENDBRANCH  66  69
ENDBRANCH  64  65
ENDBRANCH  63  64
ENDBRANCH   1  63
TORSDOF 13
ENDMDL
MODEL 2
REMARK VINA RESULT:     -12.4      1.345      3.071
REMARK SMILES O=C(NCCCCNC(=O)[C@@H]1C=C[C@H](NC(=O)[C@@H]2Cc3ccccc3O2)C1)c1ccc(-c2c3nc(c(-c4c(F)cccc4F)c4ccc([nH]4)c(-c4c(F)cccc4F)c4nc(c(-c5c(F)cccc5F)c5ccc2[nH]5)C=C4)C=C3)cc1
REMARK SMILES IDX 5 1 4 2 3 3 1 4 2 5 28 7 29 8 81 9 30 10 80 11 31 12 32 13
REMARK SMILES IDX 33 14 74 15 34 16 79 17 73 18 75 19 35 20 78 21 72 22 71 23
REMARK SMILES IDX 36 25 62 26 45 27 61 28 46 29 49 30 60 31 76 32 47 33 48 34
REMARK SMILES IDX 59 36 77 37 50 38 37 39 38 40 43 41 39 42 40 43 42 44 44 45
REMARK SMILES IDX 41 46 63 47 64 48 69 49 65 50 66 51 68 52 70 53 67 54 51 55
REMARK SMILES IDX 52 56 57 57 53 58 54 59 56 60 58 61 55 62 6 63 7 64 8 65
REMARK SMILES IDX 9 66 10 68 11 69 12 70 27 71 13 72 14 73 15 74 16 75 17 77
REMARK SMILES IDX 18 78 19 79 26 80 20 81 25 82 21 83 24 84 22 85 23 86
REMARK H PARENT 3 6 75 24 49 35 8 67 15 76
REMARK Flexibility Score: inf
ROOT
ATOM      1  C   UNL A   1      31.386  32.185  26.590  1.00  0.00     0.023 C 
ENDROOT
BRANCH   1   2
ATOM      2  C   UNL A   1      32.651  32.877  27.088  1.00  0.00     0.116 C 
BRANCH   2   3
ATOM      3  N   UNL A   1      32.411  34.204  27.630  1.00  0.00    -0.352 N 
ATOM      4  O   UNL A   1      32.749  35.917  29.076  1.00  0.00    -0.269 OA
ATOM      5  C   UNL A   1      33.099  34.825  28.644  1.00  0.00     0.251 C 
ATOM      6  H   UNL A   1      31.674  34.716  27.225  1.00  0.00     0.163 HD
BRANCH   5   7
ATOM      7  C   UNL A   1      34.254  34.122  29.233  1.00  0.00     0.039 A 
ATOM      8  C   UNL A   1      35.553  34.490  28.869  1.00  0.00     0.014 A 
ATOM      9  C   UNL A   1      34.027  33.058  30.107  1.00  0.00     0.014 A 
ATOM     10  C   UNL A   1      36.628  33.727  29.307  1.00  0.00     0.010 A 
ATOM     11  C   UNL A   1      35.112  32.334  30.598  1.00  0.00     0.010 A 
ATOM     12  C   UNL A   1      36.417  32.657  30.192  1.00  0.00    -0.014 A 
BRANCH  12  13
ATOM     13  C   UNL A   1      37.583  31.963  30.785  1.00  0.00     0.031 A 
ATOM     14  C   UNL A   1      38.347  30.922  30.023  1.00  0.00     0.074 A 
ATOM     15  C   UNL A   1      37.925  32.283  32.048  1.00  0.00     0.049 A 
ATOM     16  N   UNL A   1      39.354  30.189  30.424  1.00  0.00    -0.248 NA
ATOM     17  C   UNL A   1      37.925  30.660  28.638  1.00  0.00     0.031 C 
ATOM     18  C   UNL A   1      37.232  33.269  32.883  1.00  0.00     0.029 A 
ATOM     19  N   UNL A   1      38.930  31.816  32.851  1.00  0.00    -0.354 N 
ATOM     20  C   UNL A   1      39.675  29.365  29.354  1.00  0.00     0.074 A 
ATOM     21  C   UNL A   1      38.750  29.679  28.286  1.00  0.00     0.031 C 
ATOM     22  C   UNL A   1      37.841  33.343  34.074  1.00  0.00     0.029 A 
ATOM     23  C   UNL A   1      38.926  32.370  34.108  1.00  0.00     0.049 A 
ATOM     24  H   UNL A   1      39.591  31.146  32.558  1.00  0.00     0.167 HD
ATOM     25  C   UNL A   1      40.654  28.432  29.282  1.00  0.00     0.037 A 
ATOM     26  C   UNL A   1      39.686  32.100  35.183  1.00  0.00     0.037 A 
ATOM     27  C   UNL A   1      41.584  28.151  30.344  1.00  0.00     0.049 A 
ATOM     28  C   UNL A   1      40.743  31.045  35.075  1.00  0.00     0.074 A 
ATOM     29  C   UNL A   1      42.670  27.291  30.333  1.00  0.00     0.029 A 
ATOM     30  N   UNL A   1      41.532  28.715  31.610  1.00  0.00    -0.354 N 
ATOM     31  N   UNL A   1      41.074  30.316  34.037  1.00  0.00    -0.248 NA
ATOM     32  C   UNL A   1      41.523  30.764  36.287  1.00  0.00     0.031 C 
ATOM     33  C   UNL A   1      43.245  27.299  31.608  1.00  0.00     0.029 A 
ATOM     34  C   UNL A   1      42.541  28.190  32.401  1.00  0.00     0.049 A 
ATOM     35  H   UNL A   1      40.876  29.387  31.903  1.00  0.00     0.167 HD
ATOM     36  C   UNL A   1      42.098  29.487  34.469  1.00  0.00     0.074 A 
ATOM     37  C   UNL A   1      42.354  29.825  35.855  1.00  0.00     0.031 C 
ATOM     38  C   UNL A   1      42.763  28.526  33.783  1.00  0.00     0.037 A 
BRANCH  25  39
ATOM     39  C   UNL A   1      40.775  27.630  28.021  1.00  0.00     0.057 A 
ATOM     40  C   UNL A   1      41.578  28.047  26.952  1.00  0.00     0.134 A 
ATOM     41  C   UNL A   1      40.159  26.375  27.917  1.00  0.00     0.134 A 
ATOM     42  F   UNL A   1      42.191  29.239  26.988  1.00  0.00    -0.206 F 
ATOM     43  C   UNL A   1      41.761  27.244  25.823  1.00  0.00     0.040 A 
ATOM     44  C   UNL A   1      40.348  25.558  26.802  1.00  0.00     0.040 A 
ATOM     45  F   UNL A   1      39.383  25.916  28.910  1.00  0.00    -0.206 F 
ATOM     46  C   UNL A   1      41.153  25.992  25.751  1.00  0.00     0.006 A 
ENDBRANCH  25  39
BRANCH  26  47
ATOM     47  C   UNL A   1      39.435  32.813  36.458  1.00  0.00     0.057 A 
ATOM     48  C   UNL A   1      40.127  33.982  36.784  1.00  0.00     0.134 A 
ATOM     49  C   UNL A   1      38.481  32.346  37.372  1.00  0.00     0.134 A 
ATOM     50  F   UNL A   1      41.063  34.466  35.955  1.00  0.00    -0.206 F 
ATOM     51  C   UNL A   1      39.890  34.658  37.981  1.00  0.00     0.040 A 
ATOM     52  C   UNL A   1      38.215  33.026  38.560  1.00  0.00     0.040 A 
ATOM     53  F   UNL A   1      37.779  31.234  37.110  1.00  0.00    -0.206 F 
ATOM     54  C   UNL A   1      38.926  34.183  38.870  1.00  0.00     0.006 A 
ENDBRANCH  26  47
BRANCH  38  55
ATOM     55  C   UNL A   1      43.815  27.772  34.533  1.00  0.00     0.057 A 
ATOM     56  C   UNL A   1      43.523  26.565  35.181  1.00  0.00     0.134 A 
ATOM     57  C   UNL A   1      45.132  28.241  34.593  1.00  0.00     0.134 A 
ATOM     58  F   UNL A   1      42.274  26.075  35.173  1.00  0.00    -0.206 F 
ATOM     59  C   UNL A   1      44.503  25.860  35.879  1.00  0.00     0.040 A 
ATOM     60  C   UNL A   1      46.125  27.534  35.270  1.00  0.00     0.040 A 
ATOM     61  F   UNL A   1      45.475  29.390  33.989  1.00  0.00    -0.206 F 
ATOM     62  C   UNL A   1      45.809  26.341  35.920  1.00  0.00     0.006 A 
ENDBRANCH  38  55
ENDBRANCH  12  13
ENDBRANCH   5   7
ENDBRANCH   2   3
ENDBRANCH   1   2
BRANCH   1  63
ATOM     63  C   UNL A   1      31.609  30.772  26.052  1.00  0.00     0.023 C 
BRANCH  63  64
ATOM     64  C   UNL A   1      32.447  29.905  26.989  1.00  0.00     0.116 C 
BRANCH  64  65
ATOM     65  N   UNL A   1      31.849  28.606  27.183  1.00  0.00    -0.356 N 
ATOM     66  C   UNL A   1      32.220  27.349  26.852  1.00  0.00     0.227 C 
ATOM     67  H   UNL A   1      30.988  28.643  27.660  1.00  0.00     0.163 HD
ATOM     68  O   UNL A   1      31.407  26.464  27.160  1.00  0.00    -0.274 OA
BRANCH  66  69
ATOM     69  C   UNL A   1      33.516  26.947  26.126  1.00  0.00     0.103 C 
ATOM     70  C   UNL A   1      33.742  27.887  24.971  1.00  0.00    -0.016 C 
ATOM     71  C   UNL A   1      33.749  25.600  25.446  1.00  0.00     0.047 C 
ATOM     72  C   UNL A   1      33.697  27.270  23.782  1.00  0.00    -0.006 C 
ATOM     73  C   UNL A   1      33.523  25.813  23.937  1.00  0.00     0.106 C 
BRANCH  73  74
ATOM     74  N   UNL A   1      32.292  25.244  23.411  1.00  0.00    -0.347 N 
ATOM     75  C   UNL A   1      30.953  25.399  23.551  1.00  0.00     0.261 C 
ATOM     76  H   UNL A   1      32.491  24.533  22.759  1.00  0.00     0.164 HD
ATOM     77  O   UNL A   1      30.275  24.446  23.135  1.00  0.00    -0.271 OA
BRANCH  75  78
ATOM     78  C   UNL A   1      30.228  26.646  24.075  1.00  0.00     0.266 C 
ATOM     79  C   UNL A   1      28.715  26.568  23.834  1.00  0.00     0.095 C 
ATOM     80  O   UNL A   1      30.747  27.915  23.663  1.00  0.00    -0.480 OA
ATOM     81  C   UNL A   1      28.446  27.977  23.470  1.00  0.00    -0.002 A 
ATOM     82  C   UNL A   1      29.638  28.681  23.421  1.00  0.00     0.123 A 
ATOM     83  C   UNL A   1      27.250  28.580  23.126  1.00  0.00     0.008 A 
ATOM     84  C   UNL A   1      29.686  30.008  23.046  1.00  0.00     0.047 A 
ATOM     85  C   UNL A   1      27.278  29.919  22.726  1.00  0.00     0.001 A 
ATOM     86  C   UNL A   1      28.489  30.631  22.690  1.00  0.00     0.004 A 
ENDBRANCH  75  78
ENDBRANCH  73  74
ENDBRANCH  66  69
ENDBRANCH  64  65
ENDBRANCH  63  64
ENDBRANCH   1  63
TORSDOF 13
ENDMDL
MODEL 3
REMARK VINA RESULT:     -12.4      1.243      1.704
REMARK SMILES O=C(NCCCCNC(=O)[C@@H]1C=C[C@H](NC(=O)[C@@H]2Cc3ccccc3O2)C1)c1ccc(-c2c3nc(c(-c4c(F)cccc4F)c4ccc([nH]4)c(-c4c(F)cccc4F)c4nc(c(-c5c(F)cccc5F)c5ccc2[nH]5)C=C4)C=C3)cc1
REMARK SMILES IDX 5 1 4 2 3 3 1 4 2 5 28 7 29 8 81 9 30 10 80 11 31 12 32 13
REMARK SMILES IDX 33 14 74 15 34 16 79 17 73 18 75 19 35 20 78 21 72 22 71 23
REMARK SMILES IDX 36 25 62 26 45 27 61 28 46 29 49 30 60 31 76 32 47 33 48 34
REMARK SMILES IDX 59 36 77 37 50 38 37 39 38 40 43 41 39 42 40 43 42 44 44 45
REMARK SMILES IDX 41 46 63 47 64 48 69 49 65 50 66 51 68 52 70 53 67 54 51 55
REMARK SMILES IDX 52 56 57 57 53 58 54 59 56 60 58 61 55 62 6 63 7 64 8 65
REMARK SMILES IDX 9 66 10 68 11 69 12 70 27 71 13 72 14 73 15 74 16 75 17 77
REMARK SMILES IDX 18 78 19 79 26 80 20 81 25 82 21 83 24 84 22 85 23 86
REMARK H PARENT 3 6 75 24 49 35 8 67 15 76
REMARK Flexibility Score: inf
ROOT
ATOM      1  C   UNL A   1      31.406  32.197  26.816  1.00  0.00     0.023 C 
ENDROOT
BRANCH   1   2
ATOM      2  C   UNL A   1      32.678  32.996  27.086  1.00  0.00     0.116 C 
BRANCH   2   3
ATOM      3  N   UNL A   1      32.426  34.308  27.658  1.00  0.00    -0.352 N 
ATOM      4  O   UNL A   1      32.743  35.986  29.150  1.00  0.00    -0.269 OA
ATOM      5  C   UNL A   1      33.102  34.907  28.694  1.00  0.00     0.251 C 
ATOM      6  H   UNL A   1      31.691  34.827  27.259  1.00  0.00     0.163 HD
BRANCH   5   7
ATOM      7  C   UNL A   1      34.254  34.195  29.275  1.00  0.00     0.039 A 
ATOM      8  C   UNL A   1      35.555  34.563  28.918  1.00  0.00     0.014 A 
ATOM      9  C   UNL A   1      34.024  33.121  30.137  1.00  0.00     0.014 A 
ATOM     10  C   UNL A   1      36.627  33.793  29.349  1.00  0.00     0.010 A 
ATOM     11  C   UNL A   1      35.107  32.388  30.621  1.00  0.00     0.010 A 
ATOM     12  C   UNL A   1      36.414  32.714  30.221  1.00  0.00    -0.014 A 
BRANCH  12  13
ATOM     13  C   UNL A   1      37.577  32.010  30.806  1.00  0.00     0.031 A 
ATOM     14  C   UNL A   1      38.327  30.963  30.041  1.00  0.00     0.074 A 
ATOM     15  C   UNL A   1      37.930  32.328  32.067  1.00  0.00     0.049 A 
ATOM     16  N   UNL A   1      39.331  30.221  30.436  1.00  0.00    -0.248 NA
ATOM     17  C   UNL A   1      37.895  30.702  28.659  1.00  0.00     0.031 C 
ATOM     18  C   UNL A   1      37.250  33.321  32.906  1.00  0.00     0.029 A 
ATOM     19  N   UNL A   1      38.936  31.853  32.864  1.00  0.00    -0.354 N 
ATOM     20  C   UNL A   1      39.638  29.394  29.365  1.00  0.00     0.074 A 
ATOM     21  C   UNL A   1      38.709  29.715  28.302  1.00  0.00     0.031 C 
ATOM     22  C   UNL A   1      37.867  33.390  34.093  1.00  0.00     0.029 A 
ATOM     23  C   UNL A   1      38.944  32.408  34.121  1.00  0.00     0.049 A 
ATOM     24  H   UNL A   1      39.589  31.178  32.568  1.00  0.00     0.167 HD
ATOM     25  C   UNL A   1      40.608  28.452  29.287  1.00  0.00     0.037 A 
ATOM     26  C   UNL A   1      39.708  32.132  35.192  1.00  0.00     0.037 A 
ATOM     27  C   UNL A   1      41.543  28.164  30.344  1.00  0.00     0.049 A 
ATOM     28  C   UNL A   1      40.756  31.069  35.077  1.00  0.00     0.074 A 
ATOM     29  C   UNL A   1      42.621  27.295  30.327  1.00  0.00     0.029 A 
ATOM     30  N   UNL A   1      41.503  28.729  31.609  1.00  0.00    -0.354 N 
ATOM     31  N   UNL A   1      41.074  30.336  34.038  1.00  0.00    -0.248 NA
ATOM     32  C   UNL A   1      41.541  30.781  36.285  1.00  0.00     0.031 C 
ATOM     33  C   UNL A   1      43.205  27.299  31.598  1.00  0.00     0.029 A 
ATOM     34  C   UNL A   1      42.513  28.196  32.395  1.00  0.00     0.049 A 
ATOM     35  H   UNL A   1      40.855  29.407  31.906  1.00  0.00     0.167 HD
ATOM     36  C   UNL A   1      42.094  29.498  34.464  1.00  0.00     0.074 A 
ATOM     37  C   UNL A   1      42.361  29.835  35.849  1.00  0.00     0.031 C 
ATOM     38  C   UNL A   1      42.746  28.532  33.775  1.00  0.00     0.037 A 
BRANCH  25  39
ATOM     39  C   UNL A   1      40.715  27.648  28.026  1.00  0.00     0.057 A 
ATOM     40  C   UNL A   1      41.518  28.055  26.954  1.00  0.00     0.134 A 
ATOM     41  C   UNL A   1      40.083  26.401  27.925  1.00  0.00     0.134 A 
ATOM     42  F   UNL A   1      42.145  29.240  26.987  1.00  0.00    -0.206 F 
ATOM     43  C   UNL A   1      41.688  27.250  25.825  1.00  0.00     0.040 A 
ATOM     44  C   UNL A   1      40.258  25.581  26.810  1.00  0.00     0.040 A 
ATOM     45  F   UNL A   1      39.306  25.951  28.922  1.00  0.00    -0.206 F 
ATOM     46  C   UNL A   1      41.064  26.005  25.755  1.00  0.00     0.006 A 
ENDBRANCH  25  39
BRANCH  26  47
ATOM     47  C   UNL A   1      39.471  32.848  36.467  1.00  0.00     0.057 A 
ATOM     48  C   UNL A   1      40.179  34.009  36.791  1.00  0.00     0.134 A 
ATOM     49  C   UNL A   1      38.516  32.393  37.386  1.00  0.00     0.134 A 
ATOM     50  F   UNL A   1      41.116  34.482  35.957  1.00  0.00    -0.206 F 
ATOM     51  C   UNL A   1      39.955  34.688  37.988  1.00  0.00     0.040 A 
ATOM     52  C   UNL A   1      38.263  33.076  38.574  1.00  0.00     0.040 A 
ATOM     53  F   UNL A   1      37.800  31.288  37.127  1.00  0.00    -0.206 F 
ATOM     54  C   UNL A   1      38.989  34.225  38.882  1.00  0.00     0.006 A 
ENDBRANCH  26  47
BRANCH  38  55
ATOM     55  C   UNL A   1      43.796  27.769  34.520  1.00  0.00     0.057 A 
ATOM     56  C   UNL A   1      43.503  26.553  35.150  1.00  0.00     0.134 A 
ATOM     57  C   UNL A   1      45.112  28.239  34.591  1.00  0.00     0.134 A 
ATOM     58  F   UNL A   1      42.255  26.061  35.130  1.00  0.00    -0.206 F 
ATOM     59  C   UNL A   1      44.482  25.840  35.842  1.00  0.00     0.040 A 
ATOM     60  C   UNL A   1      46.104  27.525  35.263  1.00  0.00     0.040 A 
ATOM     61  F   UNL A   1      45.455  29.397  34.004  1.00  0.00    -0.206 F 
ATOM     62  C   UNL A   1      45.787  26.323  35.894  1.00  0.00     0.006 A 
ENDBRANCH  38  55
ENDBRANCH  12  13
ENDBRANCH   5   7
ENDBRANCH   2   3
ENDBRANCH   1   2
BRANCH   1  63
ATOM     63  C   UNL A   1      31.645  30.724  26.486  1.00  0.00     0.023 C 
BRANCH  63  64
ATOM     64  C   UNL A   1      33.099  30.299  26.681  1.00  0.00     0.116 C 
BRANCH  64  65
ATOM     65  N   UNL A   1      33.619  29.638  25.509  1.00  0.00    -0.356 N 
ATOM     66  C   UNL A   1      33.346  28.460  24.903  1.00  0.00     0.227 C 
ATOM     67  H   UNL A   1      34.321  30.155  25.052  1.00  0.00     0.163 HD
ATOM     68  O   UNL A   1      34.045  28.208  23.909  1.00  0.00    -0.274 OA
BRANCH  66  69
ATOM     69  C   UNL A   1      32.290  27.434  25.349  1.00  0.00     0.103 C 
ATOM     70  C   UNL A   1      32.982  26.147  25.714  1.00  0.00    -0.016 C 
ATOM     71  C   UNL A   1      31.162  26.908  24.464  1.00  0.00     0.047 C 
ATOM     72  C   UNL A   1      32.640  25.127  24.914  1.00  0.00    -0.006 C 
ATOM     73  C   UNL A   1      31.605  25.529  23.942  1.00  0.00     0.106 C 
BRANCH  73  74
ATOM     74  N   UNL A   1      31.980  25.492  22.537  1.00  0.00    -0.347 N 
ATOM     75  C   UNL A   1      32.841  24.829  21.726  1.00  0.00     0.261 C 
ATOM     76  H   UNL A   1      31.452  26.144  22.021  1.00  0.00     0.164 HD
ATOM     77  O   UNL A   1      33.045  25.375  20.631  1.00  0.00    -0.271 OA
BRANCH  75  78
ATOM     78  C   UNL A   1      33.486  23.464  22.001  1.00  0.00     0.266 C 
ATOM     79  C   UNL A   1      32.480  22.466  22.588  1.00  0.00     0.095 C 
ATOM     80  O   UNL A   1      34.703  23.467  22.754  1.00  0.00    -0.480 OA
ATOM     81  C   UNL A   1      33.349  21.786  23.574  1.00  0.00    -0.002 A 
ATOM     82  C   UNL A   1      34.595  22.388  23.591  1.00  0.00     0.123 A 
ATOM     83  C   UNL A   1      33.042  20.763  24.453  1.00  0.00     0.008 A 
ATOM     84  C   UNL A   1      35.586  21.990  24.466  1.00  0.00     0.047 A 
ATOM     85  C   UNL A   1      34.025  20.356  25.360  1.00  0.00     0.001 A 
ATOM     86  C   UNL A   1      35.291  20.964  25.364  1.00  0.00     0.004 A 
ENDBRANCH  75  78
ENDBRANCH  73  74
ENDBRANCH  66  69
ENDBRANCH  64  65
ENDBRANCH  63  64
ENDBRANCH   1  63
TORSDOF 13
ENDMDL
