MODEL 1
REMARK VINA RESULT:     -12.0      0.000      0.000
REMARK SMILES O=C(NCCCCNC(=O)[C@@H]1CC(=O)N(c2ccc(Cl)cc2C(=O)c2ccccc2)C1)c1ccc(-c2c3nc(c(-c4c(F)cccc4F)c4ccc([nH]4)c(-c4c(F)cccc4F)c4nc(c(-c5c(F)cccc5F)c5ccc2[nH]5)C=C4)C=C3)cc1
REMARK SMILES IDX 6 1 5 2 4 3 3 4 1 5 2 6 32 8 33 9 85 10 34 11 84 12 35 13
REMARK SMILES IDX 36 14 37 15 78 16 38 17 83 18 77 19 79 20 39 21 82 22 76 23
REMARK SMILES IDX 75 24 40 26 66 27 49 28 65 29 50 30 53 31 64 32 80 33 51 34
REMARK SMILES IDX 52 35 63 37 81 38 54 39 41 40 42 41 47 42 43 43 44 44 46 45
REMARK SMILES IDX 48 46 45 47 67 48 68 49 73 50 69 51 70 52 72 53 74 54 71 55
REMARK SMILES IDX 55 56 56 57 61 58 57 59 58 60 60 61 62 62 59 63 7 64 8 65
REMARK SMILES IDX 9 66 10 68 11 69 12 70 31 71 13 72 15 73 14 74 16 75 17 76
REMARK SMILES IDX 22 77 18 78 21 79 19 80 20 81 23 82 24 83 25 84 26 85 30 86
REMARK SMILES IDX 27 87 29 88 28 89
REMARK H PARENT 3 7 79 25 53 36 8 67
REMARK Flexibility Score: inf
ROOT
ATOM      1  C   UNL A   1      32.771  29.106  24.719  1.00  0.00     0.023 C 
ENDROOT
BRANCH   1   2
ATOM      2  C   UNL A   1      34.043  28.670  25.453  1.00  0.00     0.023 C 
BRANCH   2   3
ATOM      3  C   UNL A   1      33.949  28.591  26.974  1.00  0.00     0.116 C 
BRANCH   3   4
ATOM      4  N   UNL A   1      33.841  29.894  27.606  1.00  0.00    -0.352 N 
ATOM      5  O   UNL A   1      34.374  31.622  28.942  1.00  0.00    -0.269 OA
ATOM      6  C   UNL A   1      34.739  30.595  28.374  1.00  0.00     0.251 C 
ATOM      7  H   UNL A   1      32.982  30.352  27.459  1.00  0.00     0.163 HD
BRANCH   6   8
ATOM      8  C   UNL A   1      36.131  30.122  28.544  1.00  0.00     0.039 A 
ATOM      9  C   UNL A   1      37.078  30.284  27.533  1.00  0.00     0.014 A 
ATOM     10  C   UNL A   1      36.510  29.555  29.766  1.00  0.00     0.014 A 
ATOM     11  C   UNL A   1      38.355  29.755  27.687  1.00  0.00     0.010 A 
ATOM     12  C   UNL A   1      37.822  29.102  29.953  1.00  0.00     0.010 A 
ATOM     13  C   UNL A   1      38.749  29.174  28.904  1.00  0.00    -0.014 A 
BRANCH  13  14
ATOM     14  C   UNL A   1      40.157  28.728  29.068  1.00  0.00     0.031 A 
ATOM     15  C   UNL A   1      40.607  27.365  28.622  1.00  0.00     0.074 A 
ATOM     16  C   UNL A   1      41.047  29.599  29.585  1.00  0.00     0.049 A 
ATOM     17  N   UNL A   1      41.812  26.854  28.637  1.00  0.00    -0.248 NA
ATOM     18  C   UNL A   1      39.577  26.456  28.098  1.00  0.00     0.031 C 
ATOM     19  C   UNL A   1      40.723  30.941  30.077  1.00  0.00     0.029 A 
ATOM     20  N   UNL A   1      42.403  29.502  29.759  1.00  0.00    -0.354 N 
ATOM     21  C   UNL A   1      41.687  25.565  28.133  1.00  0.00     0.074 A 
ATOM     22  C   UNL A   1      40.282  25.361  27.848  1.00  0.00     0.031 C 
ATOM     23  C   UNL A   1      41.853  31.561  30.444  1.00  0.00     0.029 A 
ATOM     24  C   UNL A   1      42.973  30.644  30.268  1.00  0.00     0.049 A 
ATOM     25  H   UNL A   1      42.919  28.692  29.542  1.00  0.00     0.167 HD
ATOM     26  C   UNL A   1      42.657  24.644  27.917  1.00  0.00     0.037 A 
ATOM     27  C   UNL A   1      44.254  30.923  30.568  1.00  0.00     0.037 A 
ATOM     28  C   UNL A   1      44.056  24.854  28.194  1.00  0.00     0.049 A 
ATOM     29  C   UNL A   1      45.303  29.879  30.326  1.00  0.00     0.074 A 
ATOM     30  C   UNL A   1      45.116  23.986  27.991  1.00  0.00     0.029 A 
ATOM     31  N   UNL A   1      44.591  26.014  28.735  1.00  0.00    -0.354 N 
ATOM     32  N   UNL A   1      45.170  28.677  29.819  1.00  0.00    -0.248 NA
ATOM     33  C   UNL A   1      46.680  30.228  30.699  1.00  0.00     0.031 C 
ATOM     34  C   UNL A   1      46.286  24.607  28.441  1.00  0.00     0.029 A 
ATOM     35  C   UNL A   1      45.961  25.878  28.886  1.00  0.00     0.049 A 
ATOM     36  H   UNL A   1      44.072  26.816  28.975  1.00  0.00     0.167 HD
ATOM     37  C   UNL A   1      46.444  28.128  29.808  1.00  0.00     0.074 A 
ATOM     38  C   UNL A   1      47.341  29.142  30.327  1.00  0.00     0.031 C 
ATOM     39  C   UNL A   1      46.836  26.893  29.412  1.00  0.00     0.037 A 
BRANCH  26  40
ATOM     40  C   UNL A   1      42.246  23.315  27.354  1.00  0.00     0.057 A 
ATOM     41  C   UNL A   1      42.387  23.016  25.994  1.00  0.00     0.134 A 
ATOM     42  C   UNL A   1      41.773  22.298  28.193  1.00  0.00     0.134 A 
ATOM     43  F   UNL A   1      42.825  23.949  25.134  1.00  0.00    -0.206 F 
ATOM     44  C   UNL A   1      42.062  21.756  25.485  1.00  0.00     0.040 A 
ATOM     45  C   UNL A   1      41.465  21.027  27.700  1.00  0.00     0.040 A 
ATOM     46  F   UNL A   1      41.622  22.515  29.508  1.00  0.00    -0.206 F 
ATOM     47  C   UNL A   1      41.609  20.755  26.342  1.00  0.00     0.006 A 
ENDBRANCH  26  40
BRANCH  27  48
ATOM     48  C   UNL A   1      44.611  32.246  31.138  1.00  0.00     0.057 A 
ATOM     49  C   UNL A   1      44.643  32.458  32.520  1.00  0.00     0.134 A 
ATOM     50  C   UNL A   1      44.923  33.332  30.310  1.00  0.00     0.134 A 
ATOM     51  F   UNL A   1      44.336  31.461  33.363  1.00  0.00    -0.206 F 
ATOM     52  C   UNL A   1      44.955  33.707  33.060  1.00  0.00     0.040 A 
ATOM     53  C   UNL A   1      45.264  34.578  30.836  1.00  0.00     0.040 A 
ATOM     54  F   UNL A   1      44.917  33.190  28.976  1.00  0.00    -0.206 F 
ATOM     55  C   UNL A   1      45.273  34.769  32.216  1.00  0.00     0.006 A 
ENDBRANCH  27  48
BRANCH  39  56
ATOM     56  C   UNL A   1      48.300  26.584  29.521  1.00  0.00     0.057 A 
ATOM     57  C   UNL A   1      48.842  26.001  30.673  1.00  0.00     0.134 A 
ATOM     58  C   UNL A   1      49.173  26.872  28.465  1.00  0.00     0.134 A 
ATOM     59  F   UNL A   1      48.059  25.716  31.725  1.00  0.00    -0.206 F 
ATOM     60  C   UNL A   1      50.209  25.741  30.781  1.00  0.00     0.040 A 
ATOM     61  C   UNL A   1      50.536  26.594  28.554  1.00  0.00     0.040 A 
ATOM     62  F   UNL A   1      48.714  27.425  27.333  1.00  0.00    -0.206 F 
ATOM     63  C   UNL A   1      51.060  26.035  29.718  1.00  0.00     0.006 A 
ENDBRANCH  39  56
ENDBRANCH  13  14
ENDBRANCH   6   8
ENDBRANCH   3   4
ENDBRANCH   2   3
ENDBRANCH   1   2
BRANCH   1  64
ATOM     64  C   UNL A   1      31.539  28.233  24.931  1.00  0.00     0.116 C 
BRANCH  64  65
ATOM     65  N   UNL A   1      31.387  27.182  23.946  1.00  0.00    -0.356 N 
ATOM     66  C   UNL A   1      31.430  25.868  24.319  1.00  0.00     0.225 C 
ATOM     67  H   UNL A   1      31.252  27.417  22.999  1.00  0.00     0.163 HD
ATOM     68  O   UNL A   1      30.414  25.197  24.175  1.00  0.00    -0.275 OA
BRANCH  66  69
ATOM     69  C   UNL A   1      32.702  25.334  24.947  1.00  0.00     0.107 C 
ATOM     70  C   UNL A   1      33.875  25.346  23.961  1.00  0.00     0.116 C 
ATOM     71  C   UNL A   1      32.540  23.865  25.303  1.00  0.00     0.139 C 
ATOM     72  C   UNL A   1      33.964  23.919  23.461  1.00  0.00     0.227 C 
ATOM     73  N   UNL A   1      32.999  23.169  24.129  1.00  0.00    -0.311 N 
ATOM     74  O   UNL A   1      34.764  23.527  22.628  1.00  0.00    -0.274 OA
BRANCH  73  75
ATOM     75  C   UNL A   1      32.907  21.769  24.041  1.00  0.00     0.055 A 
ATOM     76  C   UNL A   1      32.174  21.243  22.962  1.00  0.00     0.028 A 
ATOM     77  C   UNL A   1      33.613  20.899  24.896  1.00  0.00     0.048 A 
ATOM     78  C   UNL A   1      32.165  19.871  22.706  1.00  0.00     0.023 A 
ATOM     79  C   UNL A   1      33.587  19.516  24.624  1.00  0.00     0.035 A 
ATOM     80  C   UNL A   1      32.876  19.013  23.536  1.00  0.00     0.041 A 
ATOM     81  Cl  UNL A   1      32.901  17.327  23.200  1.00  0.00    -0.084 Cl
BRANCH  77  82
ATOM     82  C   UNL A   1      34.501  21.295  26.028  1.00  0.00     0.195 C 
ATOM     83  O   UNL A   1      34.040  21.191  27.168  1.00  0.00    -0.289 OA
BRANCH  82  84
ATOM     84  C   UNL A   1      35.879  21.830  25.892  1.00  0.00     0.023 A 
ATOM     85  C   UNL A   1      36.084  23.185  26.196  1.00  0.00     0.012 A 
ATOM     86  C   UNL A   1      36.955  21.068  25.438  1.00  0.00     0.012 A 
ATOM     87  C   UNL A   1      37.363  23.743  26.145  1.00  0.00     0.001 A 
ATOM     88  C   UNL A   1      38.241  21.623  25.403  1.00  0.00     0.001 A 
ATOM     89  C   UNL A   1      38.446  22.953  25.769  1.00  0.00     0.000 A 
ENDBRANCH  82  84
ENDBRANCH  77  82
ENDBRANCH  73  75
ENDBRANCH  66  69
ENDBRANCH  64  65
ENDBRANCH   1  64
TORSDOF 14
ENDMDL
MODEL 2
REMARK VINA RESULT:     -12.0      4.484      9.274
REMARK SMILES O=C(NCCCCNC(=O)[C@@H]1CC(=O)N(c2ccc(Cl)cc2C(=O)c2ccccc2)C1)c1ccc(-c2c3nc(c(-c4c(F)cccc4F)c4ccc([nH]4)c(-c4c(F)cccc4F)c4nc(c(-c5c(F)cccc5F)c5ccc2[nH]5)C=C4)C=C3)cc1
REMARK SMILES IDX 6 1 5 2 4 3 3 4 1 5 2 6 32 8 33 9 85 10 34 11 84 12 35 13
REMARK SMILES IDX 36 14 37 15 78 16 38 17 83 18 77 19 79 20 39 21 82 22 76 23
REMARK SMILES IDX 75 24 40 26 66 27 49 28 65 29 50 30 53 31 64 32 80 33 51 34
REMARK SMILES IDX 52 35 63 37 81 38 54 39 41 40 42 41 47 42 43 43 44 44 46 45
REMARK SMILES IDX 48 46 45 47 67 48 68 49 73 50 69 51 70 52 72 53 74 54 71 55
REMARK SMILES IDX 55 56 56 57 61 58 57 59 58 60 60 61 62 62 59 63 7 64 8 65
REMARK SMILES IDX 9 66 10 68 11 69 12 70 31 71 13 72 15 73 14 74 16 75 17 76
REMARK SMILES IDX 22 77 18 78 21 79 19 80 20 81 23 82 24 83 25 84 26 85 30 86
REMARK SMILES IDX 27 87 29 88 28 89
REMARK H PARENT 3 7 79 25 53 36 8 67
REMARK Flexibility Score: inf
ROOT
ATOM      1  C   UNL A   1      37.018  22.446  24.325  1.00  0.00     0.023 C 
ENDROOT
BRANCH   1   2
ATOM      2  C   UNL A   1      36.929  22.947  25.770  1.00  0.00     0.023 C 
BRANCH   2   3
ATOM      3  C   UNL A   1      37.881  24.078  26.151  1.00  0.00     0.116 C 
BRANCH   3   4
ATOM      4  N   UNL A   1      39.280  23.717  26.003  1.00  0.00    -0.352 N 
ATOM      5  O   UNL A   1      41.516  23.917  26.126  1.00  0.00    -0.269 OA
ATOM      6  C   UNL A   1      40.415  24.302  26.513  1.00  0.00     0.251 C 
ATOM      7  H   UNL A   1      39.443  22.923  25.445  1.00  0.00     0.163 HD
BRANCH   6   8
ATOM      8  C   UNL A   1      40.330  25.398  27.503  1.00  0.00     0.039 A 
ATOM      9  C   UNL A   1      39.534  25.282  28.643  1.00  0.00     0.014 A 
ATOM     10  C   UNL A   1      41.111  26.543  27.316  1.00  0.00     0.014 A 
ATOM     11  C   UNL A   1      39.407  26.359  29.513  1.00  0.00     0.010 A 
ATOM     12  C   UNL A   1      41.051  27.593  28.240  1.00  0.00     0.010 A 
ATOM     13  C   UNL A   1      40.178  27.521  29.333  1.00  0.00    -0.014 A 
BRANCH  13  14
ATOM     14  C   UNL A   1      40.101  28.600  30.351  1.00  0.00     0.031 A 
ATOM     15  C   UNL A   1      39.087  29.705  30.251  1.00  0.00     0.074 A 
ATOM     16  C   UNL A   1      40.937  28.544  31.408  1.00  0.00     0.049 A 
ATOM     17  N   UNL A   1      38.851  30.681  31.091  1.00  0.00    -0.248 NA
ATOM     18  C   UNL A   1      38.230  29.724  29.056  1.00  0.00     0.031 C 
ATOM     19  C   UNL A   1      41.981  27.533  31.601  1.00  0.00     0.029 A 
ATOM     20  N   UNL A   1      41.026  29.329  32.527  1.00  0.00    -0.354 N 
ATOM     21  C   UNL A   1      37.828  31.433  30.527  1.00  0.00     0.074 A 
ATOM     22  C   UNL A   1      37.506  30.816  29.257  1.00  0.00     0.031 C 
ATOM     23  C   UNL A   1      42.566  27.726  32.791  1.00  0.00     0.029 A 
ATOM     24  C   UNL A   1      41.981  28.905  33.419  1.00  0.00     0.049 A 
ATOM     25  H   UNL A   1      40.462  30.122  32.677  1.00  0.00     0.167 HD
ATOM     26  C   UNL A   1      37.208  32.528  31.030  1.00  0.00     0.037 A 
ATOM     27  C   UNL A   1      42.351  29.410  34.610  1.00  0.00     0.037 A 
ATOM     28  C   UNL A   1      37.525  33.133  32.298  1.00  0.00     0.049 A 
ATOM     29  C   UNL A   1      41.652  30.628  35.134  1.00  0.00     0.074 A 
ATOM     30  C   UNL A   1      36.938  34.234  32.900  1.00  0.00     0.029 A 
ATOM     31  N   UNL A   1      38.517  32.691  33.161  1.00  0.00    -0.354 N 
ATOM     32  N   UNL A   1      40.665  31.306  34.601  1.00  0.00    -0.248 NA
ATOM     33  C   UNL A   1      42.117  31.153  36.424  1.00  0.00     0.031 C 
ATOM     34  C   UNL A   1      37.598  34.479  34.110  1.00  0.00     0.029 A 
ATOM     35  C   UNL A   1      38.568  33.505  34.281  1.00  0.00     0.049 A 
ATOM     36  H   UNL A   1      39.098  31.913  33.001  1.00  0.00     0.167 HD
ATOM     37  C   UNL A   1      40.388  32.334  35.491  1.00  0.00     0.074 A 
ATOM     38  C   UNL A   1      41.289  32.169  36.614  1.00  0.00     0.031 C 
ATOM     39  C   UNL A   1      39.476  33.331  35.385  1.00  0.00     0.037 A 
BRANCH  26  40
ATOM     40  C   UNL A   1      36.118  33.153  30.207  1.00  0.00     0.057 A 
ATOM     41  C   UNL A   1      34.768  33.019  30.551  1.00  0.00     0.134 A 
ATOM     42  C   UNL A   1      36.427  33.958  29.103  1.00  0.00     0.134 A 
ATOM     43  F   UNL A   1      34.403  32.253  31.591  1.00  0.00    -0.206 F 
ATOM     44  C   UNL A   1      33.761  33.654  29.820  1.00  0.00     0.040 A 
ATOM     45  C   UNL A   1      35.432  34.616  28.377  1.00  0.00     0.040 A 
ATOM     46  F   UNL A   1      37.702  34.135  28.725  1.00  0.00    -0.206 F 
ATOM     47  C   UNL A   1      34.094  34.464  28.735  1.00  0.00     0.006 A 
ENDBRANCH  26  40
BRANCH  27  48
ATOM     48  C   UNL A   1      43.445  28.767  35.380  1.00  0.00     0.057 A 
ATOM     49  C   UNL A   1      44.785  29.098  35.154  1.00  0.00     0.134 A 
ATOM     50  C   UNL A   1      43.174  27.801  36.357  1.00  0.00     0.134 A 
ATOM     51  F   UNL A   1      45.109  30.003  34.219  1.00  0.00    -0.206 F 
ATOM     52  C   UNL A   1      45.819  28.479  35.860  1.00  0.00     0.040 A 
ATOM     53  C   UNL A   1      44.194  27.195  37.089  1.00  0.00     0.040 A 
ATOM     54  F   UNL A   1      41.908  27.446  36.625  1.00  0.00    -0.206 F 
ATOM     55  C   UNL A   1      45.523  27.528  36.835  1.00  0.00     0.006 A 
ENDBRANCH  27  48
BRANCH  39  56
ATOM     56  C   UNL A   1      39.411  34.308  36.521  1.00  0.00     0.057 A 
ATOM     57  C   UNL A   1      38.683  34.030  37.685  1.00  0.00     0.134 A 
ATOM     58  C   UNL A   1      40.083  35.534  36.451  1.00  0.00     0.134 A 
ATOM     59  F   UNL A   1      38.005  32.879  37.805  1.00  0.00    -0.206 F 
ATOM     60  C   UNL A   1      38.602  34.953  38.728  1.00  0.00     0.040 A 
ATOM     61  C   UNL A   1      40.029  36.453  37.498  1.00  0.00     0.040 A 
ATOM     62  F   UNL A   1      40.803  35.855  35.365  1.00  0.00    -0.206 F 
ATOM     63  C   UNL A   1      39.279  36.168  38.638  1.00  0.00     0.006 A 
ENDBRANCH  39  56
ENDBRANCH  13  14
ENDBRANCH   6   8
ENDBRANCH   3   4
ENDBRANCH   2   3
ENDBRANCH   1   2
BRANCH   1  64
ATOM     64  C   UNL A   1      35.751  22.578  23.488  1.00  0.00     0.116 C 
BRANCH  64  65
ATOM     65  N   UNL A   1      34.528  22.418  24.246  1.00  0.00    -0.356 N 
ATOM     66  C   UNL A   1      33.551  23.374  24.200  1.00  0.00     0.225 C 
ATOM     67  H   UNL A   1      34.398  21.614  24.799  1.00  0.00     0.163 HD
ATOM     68  O   UNL A   1      32.470  23.067  23.710  1.00  0.00    -0.275 OA
BRANCH  66  69
ATOM     69  C   UNL A   1      33.879  24.769  24.694  1.00  0.00     0.107 C 
ATOM     70  C   UNL A   1      33.367  25.006  26.119  1.00  0.00     0.116 C 
ATOM     71  C   UNL A   1      33.146  25.810  23.864  1.00  0.00     0.139 C 
ATOM     72  C   UNL A   1      32.077  25.777  25.933  1.00  0.00     0.227 C 
ATOM     73  N   UNL A   1      31.907  26.008  24.570  1.00  0.00    -0.311 N 
ATOM     74  O   UNL A   1      31.346  26.131  26.843  1.00  0.00    -0.274 OA
BRANCH  73  75
ATOM     75  C   UNL A   1      30.905  26.842  24.044  1.00  0.00     0.055 A 
ATOM     76  C   UNL A   1      29.625  26.283  23.886  1.00  0.00     0.028 A 
ATOM     77  C   UNL A   1      31.102  28.217  23.800  1.00  0.00     0.048 A 
ATOM     78  C   UNL A   1      28.537  27.079  23.524  1.00  0.00     0.023 A 
ATOM     79  C   UNL A   1      29.992  29.003  23.430  1.00  0.00     0.035 A 
ATOM     80  C   UNL A   1      28.725  28.438  23.302  1.00  0.00     0.041 A 
ATOM     81  Cl  UNL A   1      27.380  29.430  22.897  1.00  0.00    -0.084 Cl
BRANCH  77  82
ATOM     82  C   UNL A   1      32.368  28.981  23.999  1.00  0.00     0.195 C 
ATOM     83  O   UNL A   1      33.050  29.212  22.997  1.00  0.00    -0.289 OA
BRANCH  82  84
ATOM     84  C   UNL A   1      32.887  29.457  25.306  1.00  0.00     0.023 A 
ATOM     85  C   UNL A   1      34.036  28.834  25.817  1.00  0.00     0.012 A 
ATOM     86  C   UNL A   1      32.265  30.452  26.060  1.00  0.00     0.012 A 
ATOM     87  C   UNL A   1      34.613  29.268  27.012  1.00  0.00     0.001 A 
ATOM     88  C   UNL A   1      32.853  30.899  27.251  1.00  0.00     0.001 A 
ATOM     89  C   UNL A   1      34.031  30.317  27.718  1.00  0.00     0.000 A 
ENDBRANCH  82  84
ENDBRANCH  77  82
ENDBRANCH  73  75
ENDBRANCH  66  69
ENDBRANCH  64  65
ENDBRANCH   1  64
TORSDOF 14
ENDMDL
MODEL 3
REMARK VINA RESULT:     -11.8      3.517      8.450
REMARK SMILES O=C(NCCCCNC(=O)[C@@H]1CC(=O)N(c2ccc(Cl)cc2C(=O)c2ccccc2)C1)c1ccc(-c2c3nc(c(-c4c(F)cccc4F)c4ccc([nH]4)c(-c4c(F)cccc4F)c4nc(c(-c5c(F)cccc5F)c5ccc2[nH]5)C=C4)C=C3)cc1
REMARK SMILES IDX 6 1 5 2 4 3 3 4 1 5 2 6 32 8 33 9 85 10 34 11 84 12 35 13
REMARK SMILES IDX 36 14 37 15 78 16 38 17 83 18 77 19 79 20 39 21 82 22 76 23
REMARK SMILES IDX 75 24 40 26 66 27 49 28 65 29 50 30 53 31 64 32 80 33 51 34
REMARK SMILES IDX 52 35 63 37 81 38 54 39 41 40 42 41 47 42 43 43 44 44 46 45
REMARK SMILES IDX 48 46 45 47 67 48 68 49 73 50 69 51 70 52 72 53 74 54 71 55
REMARK SMILES IDX 55 56 56 57 61 58 57 59 58 60 60 61 62 62 59 63 7 64 8 65
REMARK SMILES IDX 9 66 10 68 11 69 12 70 31 71 13 72 15 73 14 74 16 75 17 76
REMARK SMILES IDX 22 77 18 78 21 79 19 80 20 81 23 82 24 83 25 84 26 85 30 86
REMARK SMILES IDX 27 87 29 88 28 89
REMARK H PARENT 3 7 79 25 53 36 8 67
REMARK Flexibility Score: inf
ROOT
ATOM      1  C   UNL A   1      34.827  22.377  25.495  1.00  0.00     0.023 C 
ENDROOT
BRANCH   1   2
ATOM      2  C   UNL A   1      35.833  23.350  26.119  1.00  0.00     0.023 C 
BRANCH   2   3
ATOM      3  C   UNL A   1      37.042  23.711  25.261  1.00  0.00     0.116 C 
BRANCH   3   4
ATOM      4  N   UNL A   1      38.176  22.827  25.476  1.00  0.00    -0.352 N 
ATOM      5  O   UNL A   1      40.263  22.198  26.026  1.00  0.00    -0.269 OA
ATOM      6  C   UNL A   1      39.379  23.049  26.100  1.00  0.00     0.251 C 
ATOM      7  H   UNL A   1      38.063  21.919  25.113  1.00  0.00     0.163 HD
BRANCH   6   8
ATOM      8  C   UNL A   1      39.634  24.304  26.842  1.00  0.00     0.039 A 
ATOM      9  C   UNL A   1      39.241  24.450  28.173  1.00  0.00     0.014 A 
ATOM     10  C   UNL A   1      40.335  25.336  26.209  1.00  0.00     0.014 A 
ATOM     11  C   UNL A   1      39.417  25.668  28.819  1.00  0.00     0.010 A 
ATOM     12  C   UNL A   1      40.592  26.532  26.890  1.00  0.00     0.010 A 
ATOM     13  C   UNL A   1      40.111  26.718  28.193  1.00  0.00    -0.014 A 
BRANCH  13  14
ATOM     14  C   UNL A   1      40.382  27.961  28.961  1.00  0.00     0.031 A 
ATOM     15  C   UNL A   1      39.366  29.065  29.055  1.00  0.00     0.074 A 
ATOM     16  C   UNL A   1      41.552  28.061  29.624  1.00  0.00     0.049 A 
ATOM     17  N   UNL A   1      39.427  30.180  29.738  1.00  0.00    -0.248 NA
ATOM     18  C   UNL A   1      38.126  28.904  28.280  1.00  0.00     0.031 C 
ATOM     19  C   UNL A   1      42.626  27.064  29.588  1.00  0.00     0.029 A 
ATOM     20  N   UNL A   1      42.024  29.026  30.474  1.00  0.00    -0.354 N 
ATOM     21  C   UNL A   1      38.243  30.856  29.473  1.00  0.00     0.074 A 
ATOM     22  C   UNL A   1      37.492  30.039  28.543  1.00  0.00     0.031 C 
ATOM     23  C   UNL A   1      43.606  27.442  30.422  1.00  0.00     0.029 A 
ATOM     24  C   UNL A   1      43.256  28.731  31.006  1.00  0.00     0.049 A 
ATOM     25  H   UNL A   1      41.530  29.852  30.683  1.00  0.00     0.167 HD
ATOM     26  C   UNL A   1      37.817  32.043  29.971  1.00  0.00     0.037 A 
ATOM     27  C   UNL A   1      44.026  29.424  31.866  1.00  0.00     0.037 A 
ATOM     28  C   UNL A   1      38.563  32.849  30.904  1.00  0.00     0.049 A 
ATOM     29  C   UNL A   1      43.530  30.737  32.392  1.00  0.00     0.074 A 
ATOM     30  C   UNL A   1      38.205  34.057  31.479  1.00  0.00     0.029 A 
ATOM     31  N   UNL A   1      39.819  32.530  31.399  1.00  0.00    -0.354 N 
ATOM     32  N   UNL A   1      42.394  31.346  32.155  1.00  0.00    -0.248 NA
ATOM     33  C   UNL A   1      44.425  31.463  33.303  1.00  0.00     0.031 C 
ATOM     34  C   UNL A   1      39.259  34.486  32.293  1.00  0.00     0.029 A 
ATOM     35  C   UNL A   1      40.255  33.525  32.259  1.00  0.00     0.049 A 
ATOM     36  H   UNL A   1      40.325  31.716  31.172  1.00  0.00     0.167 HD
ATOM     37  C   UNL A   1      42.433  32.522  32.890  1.00  0.00     0.074 A 
ATOM     38  C   UNL A   1      43.692  32.524  33.607  1.00  0.00     0.031 C 
ATOM     39  C   UNL A   1      41.514  33.516  32.957  1.00  0.00     0.037 A 
BRANCH  26  40
ATOM     40  C   UNL A   1      36.480  32.551  29.517  1.00  0.00     0.057 A 
ATOM     41  C   UNL A   1      35.305  32.266  30.224  1.00  0.00     0.134 A 
ATOM     42  C   UNL A   1      36.375  33.395  28.405  1.00  0.00     0.134 A 
ATOM     43  F   UNL A   1      35.335  31.455  31.293  1.00  0.00    -0.206 F 
ATOM     44  C   UNL A   1      34.072  32.793  29.835  1.00  0.00     0.040 A 
ATOM     45  C   UNL A   1      35.151  33.946  28.017  1.00  0.00     0.040 A 
ATOM     46  F   UNL A   1      37.462  33.716  27.687  1.00  0.00    -0.206 F 
ATOM     47  C   UNL A   1      33.995  33.644  28.734  1.00  0.00     0.006 A 
ENDBRANCH  26  40
BRANCH  27  48
ATOM     48  C   UNL A   1      45.348  28.888  32.273  1.00  0.00     0.057 A 
ATOM     49  C   UNL A   1      46.504  29.165  31.536  1.00  0.00     0.134 A 
ATOM     50  C   UNL A   1      45.485  28.080  33.409  1.00  0.00     0.134 A 
ATOM     51  F   UNL A   1      46.433  29.918  30.428  1.00  0.00    -0.206 F 
ATOM     52  C   UNL A   1      47.747  28.644  31.902  1.00  0.00     0.040 A 
ATOM     53  C   UNL A   1      46.725  27.576  33.803  1.00  0.00     0.040 A 
ATOM     54  F   UNL A   1      44.415  27.784  34.163  1.00  0.00    -0.206 F 
ATOM     55  C   UNL A   1      47.859  27.852  33.043  1.00  0.00     0.006 A 
ENDBRANCH  27  48
BRANCH  39  56
ATOM     56  C   UNL A   1      41.843  34.677  33.847  1.00  0.00     0.057 A 
ATOM     57  C   UNL A   1      41.408  34.728  35.177  1.00  0.00     0.134 A 
ATOM     58  C   UNL A   1      42.604  35.751  33.371  1.00  0.00     0.134 A 
ATOM     59  F   UNL A   1      40.662  33.736  35.688  1.00  0.00    -0.206 F 
ATOM     60  C   UNL A   1      41.692  35.823  35.993  1.00  0.00     0.040 A 
ATOM     61  C   UNL A   1      42.915  36.839  34.185  1.00  0.00     0.040 A 
ATOM     62  F   UNL A   1      43.057  35.758  32.108  1.00  0.00    -0.206 F 
ATOM     63  C   UNL A   1      42.451  36.882  35.498  1.00  0.00     0.006 A 
ENDBRANCH  39  56
ENDBRANCH  13  14
ENDBRANCH   6   8
ENDBRANCH   3   4
ENDBRANCH   2   3
ENDBRANCH   1   2
BRANCH   1  64
ATOM     64  C   UNL A   1      33.359  22.776  25.589  1.00  0.00     0.116 C 
BRANCH  64  65
ATOM     65  N   UNL A   1      33.142  24.205  25.662  1.00  0.00    -0.356 N 
ATOM     66  C   UNL A   1      31.883  24.710  25.834  1.00  0.00     0.225 C 
ATOM     67  H   UNL A   1      33.908  24.820  25.587  1.00  0.00     0.163 HD
ATOM     68  O   UNL A   1      31.645  25.321  26.869  1.00  0.00    -0.275 OA
BRANCH  66  69
ATOM     69  C   UNL A   1      30.840  24.431  24.770  1.00  0.00     0.107 C 
ATOM     70  C   UNL A   1      31.452  24.385  23.366  1.00  0.00     0.116 C 
ATOM     71  C   UNL A   1      29.841  25.575  24.695  1.00  0.00     0.139 C 
ATOM     72  C   UNL A   1      31.151  25.747  22.777  1.00  0.00     0.227 C 
ATOM     73  N   UNL A   1      30.401  26.461  23.709  1.00  0.00    -0.311 N 
ATOM     74  O   UNL A   1      31.506  26.116  21.670  1.00  0.00    -0.274 OA
BRANCH  73  75
ATOM     75  C   UNL A   1      29.799  27.702  23.433  1.00  0.00     0.055 A 
ATOM     76  C   UNL A   1      28.403  27.713  23.265  1.00  0.00     0.028 A 
ATOM     77  C   UNL A   1      30.511  28.919  23.448  1.00  0.00     0.048 A 
ATOM     78  C   UNL A   1      27.707  28.918  23.148  1.00  0.00     0.023 A 
ATOM     79  C   UNL A   1      29.790  30.125  23.324  1.00  0.00     0.035 A 
ATOM     80  C   UNL A   1      28.404  30.119  23.183  1.00  0.00     0.041 A 
ATOM     81  Cl  UNL A   1      27.547  31.606  23.082  1.00  0.00    -0.084 Cl
BRANCH  77  82
ATOM     82  C   UNL A   1      31.972  29.089  23.699  1.00  0.00     0.195 C 
ATOM     83  O   UNL A   1      32.713  29.112  22.713  1.00  0.00    -0.289 OA
BRANCH  82  84
ATOM     84  C   UNL A   1      32.606  29.202  25.036  1.00  0.00     0.023 A 
ATOM     85  C   UNL A   1      33.428  28.146  25.459  1.00  0.00     0.012 A 
ATOM     86  C   UNL A   1      32.390  30.277  25.898  1.00  0.00     0.012 A 
ATOM     87  C   UNL A   1      34.102  28.209  26.680  1.00  0.00     0.001 A 
ATOM     88  C   UNL A   1      33.080  30.349  27.115  1.00  0.00     0.001 A 
ATOM     89  C   UNL A   1      33.944  29.323  27.498  1.00  0.00     0.000 A 
ENDBRANCH  82  84
ENDBRANCH  77  82
ENDBRANCH  73  75
ENDBRANCH  66  69
ENDBRANCH  64  65
ENDBRANCH   1  64
TORSDOF 14
ENDMDL
