MODEL 1
REMARK VINA RESULT:     -11.4      0.000      0.000
REMARK SMILES O=C(NCCCCNC(=O)c1cc(-c2ccn(C(F)F)c(=O)c2)ccc1O)c1ccc(-c2c3nc(c(-c4c(F)cccc4F)c4ccc([nH]4)c(-c4c(F)cccc4F)c4nc(c(-c5c(F)cccc5F)c5ccc2[nH]5)C=C4)C=C3)cc1
REMARK SMILES IDX 5 1 4 2 3 3 1 4 2 5 28 7 29 8 81 9 30 10 80 11 31 12 32 13
REMARK SMILES IDX 33 14 74 15 34 16 79 17 73 18 75 19 35 20 78 21 72 22 71 23
REMARK SMILES IDX 36 25 62 26 45 27 61 28 46 29 49 30 60 31 76 32 47 33 48 34
REMARK SMILES IDX 59 36 77 37 50 38 37 39 38 40 43 41 39 42 40 43 42 44 44 45
REMARK SMILES IDX 41 46 63 47 64 48 69 49 65 50 66 51 68 52 70 53 67 54 51 55
REMARK SMILES IDX 52 56 57 57 53 58 54 59 56 60 58 61 55 62 6 63 7 64 8 65
REMARK SMILES IDX 9 66 10 68 11 69 12 70 26 71 13 72 25 73 24 74 27 75 14 77
REMARK SMILES IDX 15 78 23 79 16 80 21 81 17 82 22 83 18 84 19 85 20 86
REMARK H PARENT 3 6 75 24 49 35 8 67 27 76
REMARK Flexibility Score: inf
ROOT
ATOM      1  C   UNL A   1      33.403  27.580  26.441  1.00  0.00     0.023 C 
ENDROOT
BRANCH   1   2
ATOM      2  C   UNL A   1      34.345  28.738  26.129  1.00  0.00     0.116 C 
BRANCH   2   3
ATOM      3  N   UNL A   1      34.071  29.918  26.933  1.00  0.00    -0.352 N 
ATOM      4  O   UNL A   1      34.343  31.416  28.592  1.00  0.00    -0.269 OA
ATOM      5  C   UNL A   1      34.822  30.500  27.922  1.00  0.00     0.251 C 
ATOM      6  H   UNL A   1      33.217  30.367  26.739  1.00  0.00     0.163 HD
BRANCH   5   7
ATOM      7  C   UNL A   1      36.196  30.033  28.202  1.00  0.00     0.039 A 
ATOM      8  C   UNL A   1      36.477  29.472  29.453  1.00  0.00     0.014 A 
ATOM      9  C   UNL A   1      37.220  30.188  27.263  1.00  0.00     0.014 A 
ATOM     10  C   UNL A   1      37.770  29.033  29.747  1.00  0.00     0.010 A 
ATOM     11  C   UNL A   1      38.489  29.684  27.529  1.00  0.00     0.010 A 
ATOM     12  C   UNL A   1      38.784  29.121  28.781  1.00  0.00    -0.014 A 
BRANCH  12  13
ATOM     13  C   UNL A   1      40.178  28.707  29.078  1.00  0.00     0.031 A 
ATOM     14  C   UNL A   1      41.108  29.677  29.754  1.00  0.00     0.074 A 
ATOM     15  C   UNL A   1      40.628  27.498  28.693  1.00  0.00     0.049 A 
ATOM     16  N   UNL A   1      42.392  29.573  29.987  1.00  0.00    -0.248 NA
ATOM     17  C   UNL A   1      40.517  30.948  30.203  1.00  0.00     0.031 C 
ATOM     18  C   UNL A   1      39.834  26.473  28.016  1.00  0.00     0.029 A 
ATOM     19  N   UNL A   1      41.874  26.935  28.804  1.00  0.00    -0.354 N 
ATOM     20  C   UNL A   1      42.764  30.770  30.586  1.00  0.00     0.074 A 
ATOM     21  C   UNL A   1      41.584  31.604  30.635  1.00  0.00     0.031 C 
ATOM     22  C   UNL A   1      40.611  25.402  27.779  1.00  0.00     0.029 A 
ATOM     23  C   UNL A   1      41.965  25.683  28.249  1.00  0.00     0.049 A 
ATOM     24  H   UNL A   1      42.634  27.387  29.241  1.00  0.00     0.167 HD
ATOM     25  C   UNL A   1      43.974  31.136  31.072  1.00  0.00     0.037 A 
ATOM     26  C   UNL A   1      43.026  24.864  28.114  1.00  0.00     0.037 A 
ATOM     27  C   UNL A   1      45.141  30.295  31.050  1.00  0.00     0.049 A 
ATOM     28  C   UNL A   1      44.370  25.307  28.626  1.00  0.00     0.074 A 
ATOM     29  C   UNL A   1      46.398  30.547  31.572  1.00  0.00     0.029 A 
ATOM     30  N   UNL A   1      45.192  29.035  30.472  1.00  0.00    -0.354 N 
ATOM     31  N   UNL A   1      44.698  26.422  29.232  1.00  0.00    -0.248 NA
ATOM     32  C   UNL A   1      45.492  24.378  28.427  1.00  0.00     0.031 C 
ATOM     33  C   UNL A   1      47.221  29.456  31.271  1.00  0.00     0.029 A 
ATOM     34  C   UNL A   1      46.467  28.509  30.598  1.00  0.00     0.049 A 
ATOM     35  H   UNL A   1      44.435  28.582  30.035  1.00  0.00     0.167 HD
ATOM     36  C   UNL A   1      46.057  26.323  29.501  1.00  0.00     0.074 A 
ATOM     37  C   UNL A   1      46.488  25.031  29.009  1.00  0.00     0.031 C 
ATOM     38  C   UNL A   1      46.878  27.223  30.096  1.00  0.00     0.037 A 
BRANCH  25  39
ATOM     39  C   UNL A   1      44.089  32.511  31.662  1.00  0.00     0.057 A 
ATOM     40  C   UNL A   1      44.433  33.606  30.861  1.00  0.00     0.134 A 
ATOM     41  C   UNL A   1      43.860  32.752  33.024  1.00  0.00     0.134 A 
ATOM     42  F   UNL A   1      44.672  33.444  29.550  1.00  0.00    -0.206 F 
ATOM     43  C   UNL A   1      44.538  34.893  31.391  1.00  0.00     0.040 A 
ATOM     44  C   UNL A   1      43.933  34.039  33.559  1.00  0.00     0.040 A 
ATOM     45  F   UNL A   1      43.511  31.748  33.842  1.00  0.00    -0.206 F 
ATOM     46  C   UNL A   1      44.278  35.114  32.742  1.00  0.00     0.006 A 
ENDBRANCH  25  39
BRANCH  26  47
ATOM     47  C   UNL A   1      42.869  23.542  27.458  1.00  0.00     0.057 A 
ATOM     48  C   UNL A   1      43.097  23.373  26.087  1.00  0.00     0.134 A 
ATOM     49  C   UNL A   1      42.509  22.409  28.197  1.00  0.00     0.134 A 
ATOM     50  F   UNL A   1      43.444  24.421  25.324  1.00  0.00    -0.206 F 
ATOM     51  C   UNL A   1      42.967  22.127  25.472  1.00  0.00     0.040 A 
ATOM     52  C   UNL A   1      42.399  21.152  27.599  1.00  0.00     0.040 A 
ATOM     53  F   UNL A   1      42.301  22.503  29.518  1.00  0.00    -0.206 F 
ATOM     54  C   UNL A   1      42.624  21.010  26.232  1.00  0.00     0.006 A 
ENDBRANCH  26  47
BRANCH  38  55
ATOM     55  C   UNL A   1      48.317  26.832  30.258  1.00  0.00     0.057 A 
ATOM     56  C   UNL A   1      49.273  27.201  29.304  1.00  0.00     0.134 A 
ATOM     57  C   UNL A   1      48.749  26.059  31.344  1.00  0.00     0.134 A 
ATOM     58  F   UNL A   1      48.921  27.936  28.237  1.00  0.00    -0.206 F 
ATOM     59  C   UNL A   1      50.607  26.814  29.422  1.00  0.00     0.040 A 
ATOM     60  C   UNL A   1      50.087  25.686  31.485  1.00  0.00     0.040 A 
ATOM     61  F   UNL A   1      47.885  25.686  32.300  1.00  0.00    -0.206 F 
ATOM     62  C   UNL A   1      51.019  26.058  30.517  1.00  0.00     0.006 A 
ENDBRANCH  38  55
ENDBRANCH  12  13
ENDBRANCH   5   7
ENDBRANCH   2   3
ENDBRANCH   1   2
BRANCH   1  63
ATOM     63  C   UNL A   1      31.916  27.932  26.468  1.00  0.00     0.023 C 
BRANCH  63  64
ATOM     64  C   UNL A   1      31.002  26.978  25.706  1.00  0.00     0.116 C 
BRANCH  64  65
ATOM     65  N   UNL A   1      30.510  25.892  26.533  1.00  0.00    -0.352 N 
ATOM     66  C   UNL A   1      30.740  24.545  26.396  1.00  0.00     0.255 C 
ATOM     67  H   UNL A   1      29.937  26.154  27.290  1.00  0.00     0.163 HD
ATOM     68  O   UNL A   1      30.198  23.745  27.159  1.00  0.00    -0.269 OA
BRANCH  66  69
ATOM     69  C   UNL A   1      31.568  24.041  25.284  1.00  0.00     0.082 A 
ATOM     70  C   UNL A   1      32.881  23.654  25.588  1.00  0.00     0.026 A 
ATOM     71  C   UNL A   1      31.103  23.969  23.966  1.00  0.00     0.128 A 
ATOM     72  C   UNL A   1      33.711  23.136  24.587  1.00  0.00    -0.017 A 
ATOM     73  C   UNL A   1      31.915  23.433  22.969  1.00  0.00     0.047 A 
ATOM     74  C   UNL A   1      33.209  23.011  23.283  1.00  0.00     0.012 A 
BRANCH  71  75
ATOM     75  O   UNL A   1      29.853  24.415  23.644  1.00  0.00    -0.507 OA
ATOM     76  H   UNL A   1      29.426  25.048  24.188  1.00  0.00     0.293 HD
ENDBRANCH  71  75
BRANCH  72  77
ATOM     77  C   UNL A   1      35.112  22.763  24.861  1.00  0.00    -0.011 A 
ATOM     78  C   UNL A   1      35.571  21.390  24.759  1.00  0.00     0.027 A 
ATOM     79  C   UNL A   1      35.986  23.713  25.242  1.00  0.00     0.080 A 
ATOM     80  C   UNL A   1      36.831  21.064  25.068  1.00  0.00     0.095 A 
ATOM     81  C   UNL A   1      37.396  23.366  25.580  1.00  0.00     0.255 A 
ATOM     82  N   UNL A   1      37.733  22.026  25.479  1.00  0.00    -0.258 N 
ATOM     83  O   UNL A   1      38.151  24.268  25.933  1.00  0.00    -0.269 OA
BRANCH  82  84
ATOM     84  C   UNL A   1      39.079  21.657  25.834  1.00  0.00     0.451 C 
ATOM     85  F   UNL A   1      39.357  21.986  27.119  1.00  0.00    -0.185 F 
ATOM     86  F   UNL A   1      39.268  20.322  25.691  1.00  0.00    -0.185 F 
ENDBRANCH  82  84
ENDBRANCH  72  77
ENDBRANCH  66  69
ENDBRANCH  64  65
ENDBRANCH  63  64
ENDBRANCH   1  63
TORSDOF 14
ENDMDL
MODEL 2
REMARK VINA RESULT:     -11.4      3.055      6.782
REMARK SMILES O=C(NCCCCNC(=O)c1cc(-c2ccn(C(F)F)c(=O)c2)ccc1O)c1ccc(-c2c3nc(c(-c4c(F)cccc4F)c4ccc([nH]4)c(-c4c(F)cccc4F)c4nc(c(-c5c(F)cccc5F)c5ccc2[nH]5)C=C4)C=C3)cc1
REMARK SMILES IDX 5 1 4 2 3 3 1 4 2 5 28 7 29 8 81 9 30 10 80 11 31 12 32 13
REMARK SMILES IDX 33 14 74 15 34 16 79 17 73 18 75 19 35 20 78 21 72 22 71 23
REMARK SMILES IDX 36 25 62 26 45 27 61 28 46 29 49 30 60 31 76 32 47 33 48 34
REMARK SMILES IDX 59 36 77 37 50 38 37 39 38 40 43 41 39 42 40 43 42 44 44 45
REMARK SMILES IDX 41 46 63 47 64 48 69 49 65 50 66 51 68 52 70 53 67 54 51 55
REMARK SMILES IDX 52 56 57 57 53 58 54 59 56 60 58 61 55 62 6 63 7 64 8 65
REMARK SMILES IDX 9 66 10 68 11 69 12 70 26 71 13 72 25 73 24 74 27 75 14 77
REMARK SMILES IDX 15 78 23 79 16 80 21 81 17 82 22 83 18 84 19 85 20 86
REMARK H PARENT 3 6 75 24 49 35 8 67 27 76
REMARK Flexibility Score: inf
ROOT
ATOM      1  C   UNL A   1      32.699  27.954  24.124  1.00  0.00     0.023 C 
ENDROOT
BRANCH   1   2
ATOM      2  C   UNL A   1      33.551  29.038  24.775  1.00  0.00     0.116 C 
BRANCH   2   3
ATOM      3  N   UNL A   1      32.755  30.120  25.332  1.00  0.00    -0.352 N 
ATOM      4  O   UNL A   1      32.049  31.607  26.867  1.00  0.00    -0.269 OA
ATOM      5  C   UNL A   1      32.923  30.823  26.498  1.00  0.00     0.251 C 
ATOM      6  H   UNL A   1      31.978  30.389  24.791  1.00  0.00     0.163 HD
BRANCH   5   7
ATOM      7  C   UNL A   1      34.137  30.642  27.322  1.00  0.00     0.039 A 
ATOM      8  C   UNL A   1      34.916  31.762  27.633  1.00  0.00     0.014 A 
ATOM      9  C   UNL A   1      34.540  29.373  27.748  1.00  0.00     0.014 A 
ATOM     10  C   UNL A   1      36.073  31.616  28.400  1.00  0.00     0.010 A 
ATOM     11  C   UNL A   1      35.653  29.238  28.573  1.00  0.00     0.010 A 
ATOM     12  C   UNL A   1      36.443  30.355  28.890  1.00  0.00    -0.014 A 
BRANCH  12  13
ATOM     13  C   UNL A   1      37.692  30.158  29.669  1.00  0.00     0.031 A 
ATOM     14  C   UNL A   1      38.794  29.311  29.094  1.00  0.00     0.074 A 
ATOM     15  C   UNL A   1      37.817  30.682  30.903  1.00  0.00     0.049 A 
ATOM     16  N   UNL A   1      39.905  28.902  29.652  1.00  0.00    -0.248 NA
ATOM     17  C   UNL A   1      38.605  28.836  27.713  1.00  0.00     0.031 C 
ATOM     18  C   UNL A   1      36.818  31.507  31.580  1.00  0.00     0.029 A 
ATOM     19  N   UNL A   1      38.838  30.579  31.814  1.00  0.00    -0.354 N 
ATOM     20  C   UNL A   1      40.533  28.106  28.702  1.00  0.00     0.074 A 
ATOM     21  C   UNL A   1      39.658  28.048  27.553  1.00  0.00     0.031 C 
ATOM     22  C   UNL A   1      37.278  31.844  32.796  1.00  0.00     0.029 A 
ATOM     23  C   UNL A   1      38.584  31.222  32.999  1.00  0.00     0.049 A 
ATOM     24  H   UNL A   1      39.674  30.090  31.634  1.00  0.00     0.167 HD
ATOM     25  C   UNL A   1      41.740  27.496  28.770  1.00  0.00     0.037 A 
ATOM     26  C   UNL A   1      39.314  31.285  34.130  1.00  0.00     0.037 A 
ATOM     27  C   UNL A   1      42.624  27.578  29.902  1.00  0.00     0.049 A 
ATOM     28  C   UNL A   1      40.634  30.567  34.197  1.00  0.00     0.074 A 
ATOM     29  C   UNL A   1      43.895  27.048  30.046  1.00  0.00     0.029 A 
ATOM     30  N   UNL A   1      42.326  28.234  31.086  1.00  0.00    -0.354 N 
ATOM     31  N   UNL A   1      41.238  29.856  33.276  1.00  0.00    -0.248 NA
ATOM     32  C   UNL A   1      41.370  30.654  35.467  1.00  0.00     0.031 C 
ATOM     33  C   UNL A   1      44.349  27.349  31.336  1.00  0.00     0.029 A 
ATOM     34  C   UNL A   1      43.377  28.099  31.979  1.00  0.00     0.049 A 
ATOM     35  H   UNL A   1      41.492  28.724  31.267  1.00  0.00     0.167 HD
ATOM     36  C   UNL A   1      42.428  29.426  33.847  1.00  0.00     0.074 A 
ATOM     37  C   UNL A   1      42.471  29.971  35.187  1.00  0.00     0.031 C 
ATOM     38  C   UNL A   1      43.398  28.644  33.312  1.00  0.00     0.037 A 
BRANCH  25  39
ATOM     39  C   UNL A   1      42.164  26.681  27.583  1.00  0.00     0.057 A 
ATOM     40  C   UNL A   1      42.853  27.275  26.518  1.00  0.00     0.134 A 
ATOM     41  C   UNL A   1      41.891  25.309  27.491  1.00  0.00     0.134 A 
ATOM     42  F   UNL A   1      43.142  28.586  26.539  1.00  0.00    -0.206 F 
ATOM     43  C   UNL A   1      43.261  26.533  25.409  1.00  0.00     0.040 A 
ATOM     44  C   UNL A   1      42.319  24.551  26.401  1.00  0.00     0.040 A 
ATOM     45  F   UNL A   1      41.248  24.677  28.484  1.00  0.00    -0.206 F 
ATOM     46  C   UNL A   1      43.003  25.165  25.352  1.00  0.00     0.006 A 
ENDBRANCH  25  39
BRANCH  26  47
ATOM     47  C   UNL A   1      38.812  32.049  35.300  1.00  0.00     0.057 A 
ATOM     48  C   UNL A   1      38.186  31.411  36.378  1.00  0.00     0.134 A 
ATOM     49  C   UNL A   1      38.970  33.438  35.376  1.00  0.00     0.134 A 
ATOM     50  F   UNL A   1      38.005  30.082  36.365  1.00  0.00    -0.206 F 
ATOM     51  C   UNL A   1      37.731  32.126  37.486  1.00  0.00     0.040 A 
ATOM     52  C   UNL A   1      38.540  34.162  36.488  1.00  0.00     0.040 A 
ATOM     53  F   UNL A   1      39.583  34.101  34.385  1.00  0.00    -0.206 F 
ATOM     54  C   UNL A   1      37.915  33.506  37.546  1.00  0.00     0.006 A 
ENDBRANCH  26  47
BRANCH  38  55
ATOM     55  C   UNL A   1      44.589  28.347  34.174  1.00  0.00     0.057 A 
ATOM     56  C   UNL A   1      45.702  29.196  34.177  1.00  0.00     0.134 A 
ATOM     57  C   UNL A   1      44.645  27.201  34.977  1.00  0.00     0.134 A 
ATOM     58  F   UNL A   1      45.713  30.307  33.424  1.00  0.00    -0.206 F 
ATOM     59  C   UNL A   1      46.832  28.914  34.945  1.00  0.00     0.040 A 
ATOM     60  C   UNL A   1      45.761  26.921  35.769  1.00  0.00     0.040 A 
ATOM     61  F   UNL A   1      43.605  26.356  35.030  1.00  0.00    -0.206 F 
ATOM     62  C   UNL A   1      46.862  27.776  35.748  1.00  0.00     0.006 A 
ENDBRANCH  38  55
ENDBRANCH  12  13
ENDBRANCH   5   7
ENDBRANCH   2   3
ENDBRANCH   1   2
BRANCH   1  63
ATOM     63  C   UNL A   1      31.689  27.271  25.046  1.00  0.00     0.023 C 
BRANCH  63  64
ATOM     64  C   UNL A   1      32.267  26.676  26.326  1.00  0.00     0.116 C 
BRANCH  64  65
ATOM     65  N   UNL A   1      31.418  25.648  26.900  1.00  0.00    -0.352 N 
ATOM     66  C   UNL A   1      31.360  24.315  26.582  1.00  0.00     0.255 C 
ATOM     67  H   UNL A   1      30.805  25.947  27.611  1.00  0.00     0.163 HD
ATOM     68  O   UNL A   1      30.538  23.582  27.133  1.00  0.00    -0.269 OA
BRANCH  66  69
ATOM     69  C   UNL A   1      32.222  23.765  25.517  1.00  0.00     0.082 A 
ATOM     70  C   UNL A   1      33.557  23.495  25.851  1.00  0.00     0.026 A 
ATOM     71  C   UNL A   1      31.766  23.541  24.214  1.00  0.00     0.128 A 
ATOM     72  C   UNL A   1      34.421  22.943  24.898  1.00  0.00    -0.017 A 
ATOM     73  C   UNL A   1      32.613  22.970  23.267  1.00  0.00     0.047 A 
ATOM     74  C   UNL A   1      33.931  22.664  23.614  1.00  0.00     0.012 A 
BRANCH  71  75
ATOM     75  O   UNL A   1      30.489  23.873  23.857  1.00  0.00    -0.507 OA
ATOM     76  H   UNL A   1      29.937  24.330  24.461  1.00  0.00     0.293 HD
ENDBRANCH  71  75
BRANCH  72  77
ATOM     77  C   UNL A   1      35.843  22.689  25.200  1.00  0.00    -0.011 A 
ATOM     78  C   UNL A   1      36.434  21.373  25.047  1.00  0.00     0.027 A 
ATOM     79  C   UNL A   1      36.611  23.696  25.655  1.00  0.00     0.080 A 
ATOM     80  C   UNL A   1      37.709  21.152  25.381  1.00  0.00     0.095 A 
ATOM     81  C   UNL A   1      38.037  23.467  26.023  1.00  0.00     0.255 A 
ATOM     82  N   UNL A   1      38.504  22.172  25.868  1.00  0.00    -0.258 N 
ATOM     83  O   UNL A   1      38.693  24.417  26.443  1.00  0.00    -0.269 OA
BRANCH  82  84
ATOM     84  C   UNL A   1      39.868  21.913  26.249  1.00  0.00     0.451 C 
ATOM     85  F   UNL A   1      40.023  21.973  27.594  1.00  0.00    -0.185 F 
ATOM     86  F   UNL A   1      40.262  20.684  25.834  1.00  0.00    -0.185 F 
ENDBRANCH  82  84
ENDBRANCH  72  77
ENDBRANCH  66  69
ENDBRANCH  64  65
ENDBRANCH  63  64
ENDBRANCH   1  63
TORSDOF 14
ENDMDL
MODEL 3
REMARK VINA RESULT:     -11.4      1.424      2.164
REMARK SMILES O=C(NCCCCNC(=O)c1cc(-c2ccn(C(F)F)c(=O)c2)ccc1O)c1ccc(-c2c3nc(c(-c4c(F)cccc4F)c4ccc([nH]4)c(-c4c(F)cccc4F)c4nc(c(-c5c(F)cccc5F)c5ccc2[nH]5)C=C4)C=C3)cc1
REMARK SMILES IDX 5 1 4 2 3 3 1 4 2 5 28 7 29 8 81 9 30 10 80 11 31 12 32 13
REMARK SMILES IDX 33 14 74 15 34 16 79 17 73 18 75 19 35 20 78 21 72 22 71 23
REMARK SMILES IDX 36 25 62 26 45 27 61 28 46 29 49 30 60 31 76 32 47 33 48 34
REMARK SMILES IDX 59 36 77 37 50 38 37 39 38 40 43 41 39 42 40 43 42 44 44 45
REMARK SMILES IDX 41 46 63 47 64 48 69 49 65 50 66 51 68 52 70 53 67 54 51 55
REMARK SMILES IDX 52 56 57 57 53 58 54 59 56 60 58 61 55 62 6 63 7 64 8 65
REMARK SMILES IDX 9 66 10 68 11 69 12 70 26 71 13 72 25 73 24 74 27 75 14 77
REMARK SMILES IDX 15 78 23 79 16 80 21 81 17 82 22 83 18 84 19 85 20 86
REMARK H PARENT 3 6 75 24 49 35 8 67 27 76
REMARK Flexibility Score: inf
ROOT
ATOM      1  C   UNL A   1      32.571  27.852  26.849  1.00  0.00     0.023 C 
ENDROOT
BRANCH   1   2
ATOM      2  C   UNL A   1      33.938  28.480  27.101  1.00  0.00     0.116 C 
BRANCH   2   3
ATOM      3  N   UNL A   1      33.847  29.832  27.629  1.00  0.00    -0.352 N 
ATOM      4  O   UNL A   1      34.455  31.653  28.805  1.00  0.00    -0.269 OA
ATOM      5  C   UNL A   1      34.780  30.574  28.308  1.00  0.00     0.251 C 
ATOM      6  H   UNL A   1      32.986  30.284  27.475  1.00  0.00     0.163 HD
BRANCH   5   7
ATOM      7  C   UNL A   1      36.167  30.087  28.462  1.00  0.00     0.039 A 
ATOM      8  C   UNL A   1      36.558  29.538  29.688  1.00  0.00     0.014 A 
ATOM      9  C   UNL A   1      37.097  30.213  27.426  1.00  0.00     0.014 A 
ATOM     10  C   UNL A   1      37.867  29.082  29.863  1.00  0.00     0.010 A 
ATOM     11  C   UNL A   1      38.379  29.692  27.577  1.00  0.00     0.010 A 
ATOM     12  C   UNL A   1      38.784  29.141  28.803  1.00  0.00    -0.014 A 
BRANCH  12  13
ATOM     13  C   UNL A   1      40.194  28.707  28.970  1.00  0.00     0.031 A 
ATOM     14  C   UNL A   1      41.208  29.683  29.500  1.00  0.00     0.074 A 
ATOM     15  C   UNL A   1      40.578  27.472  28.596  1.00  0.00     0.049 A 
ATOM     16  N   UNL A   1      42.507  29.560  29.602  1.00  0.00    -0.248 NA
ATOM     17  C   UNL A   1      40.692  30.986  29.951  1.00  0.00     0.031 C 
ATOM     18  C   UNL A   1      39.698  26.437  28.053  1.00  0.00     0.029 A 
ATOM     19  N   UNL A   1      41.818  26.886  28.601  1.00  0.00    -0.354 N 
ATOM     20  C   UNL A   1      42.962  30.773  30.103  1.00  0.00     0.074 A 
ATOM     21  C   UNL A   1      41.810  31.635  30.238  1.00  0.00     0.031 C 
ATOM     22  C   UNL A   1      40.425  25.340  27.785  1.00  0.00     0.029 A 
ATOM     23  C   UNL A   1      41.826  25.609  28.097  1.00  0.00     0.049 A 
ATOM     24  H   UNL A   1      42.628  27.338  28.935  1.00  0.00     0.167 HD
ATOM     25  C   UNL A   1      44.224  31.130  30.443  1.00  0.00     0.037 A 
ATOM     26  C   UNL A   1      42.852  24.761  27.889  1.00  0.00     0.037 A 
ATOM     27  C   UNL A   1      45.366  30.262  30.337  1.00  0.00     0.049 A 
ATOM     28  C   UNL A   1      44.250  25.194  28.237  1.00  0.00     0.074 A 
ATOM     29  C   UNL A   1      46.676  30.507  30.712  1.00  0.00     0.029 A 
ATOM     30  N   UNL A   1      45.332  28.978  29.814  1.00  0.00    -0.354 N 
ATOM     31  N   UNL A   1      44.662  26.326  28.754  1.00  0.00    -0.248 NA
ATOM     32  C   UNL A   1      45.327  24.231  27.964  1.00  0.00     0.031 C 
ATOM     33  C   UNL A   1      47.442  29.385  30.377  1.00  0.00     0.029 A 
ATOM     34  C   UNL A   1      46.603  28.428  29.830  1.00  0.00     0.049 A 
ATOM     35  H   UNL A   1      44.525  28.525  29.481  1.00  0.00     0.167 HD
ATOM     36  C   UNL A   1      46.039  26.206  28.883  1.00  0.00     0.074 A 
ATOM     37  C   UNL A   1      46.391  24.885  28.408  1.00  0.00     0.031 C 
ATOM     38  C   UNL A   1      46.935  27.112  29.347  1.00  0.00     0.037 A 
BRANCH  25  39
ATOM     39  C   UNL A   1      44.426  32.527  30.955  1.00  0.00     0.057 A 
ATOM     40  C   UNL A   1      44.675  33.583  30.070  1.00  0.00     0.134 A 
ATOM     41  C   UNL A   1      44.376  32.827  32.323  1.00  0.00     0.134 A 
ATOM     42  F   UNL A   1      44.742  33.364  28.748  1.00  0.00    -0.206 F 
ATOM     43  C   UNL A   1      44.859  34.889  30.527  1.00  0.00     0.040 A 
ATOM     44  C   UNL A   1      44.529  34.133  32.789  1.00  0.00     0.040 A 
ATOM     45  F   UNL A   1      44.126  31.863  33.221  1.00  0.00    -0.206 F 
ATOM     46  C   UNL A   1      44.776  35.169  31.890  1.00  0.00     0.006 A 
ENDBRANCH  25  39
BRANCH  26  47
ATOM     47  C   UNL A   1      42.601  23.415  27.314  1.00  0.00     0.057 A 
ATOM     48  C   UNL A   1      42.255  22.326  28.122  1.00  0.00     0.134 A 
ATOM     49  C   UNL A   1      42.679  23.196  25.934  1.00  0.00     0.134 A 
ATOM     50  F   UNL A   1      42.164  22.472  29.452  1.00  0.00    -0.206 F 
ATOM     51  C   UNL A   1      42.001  21.065  27.581  1.00  0.00     0.040 A 
ATOM     52  C   UNL A   1      42.405  21.946  25.376  1.00  0.00     0.040 A 
ATOM     53  F   UNL A   1      42.983  24.206  25.107  1.00  0.00    -0.206 F 
ATOM     54  C   UNL A   1      42.069  20.875  26.201  1.00  0.00     0.006 A 
ENDBRANCH  26  47
BRANCH  38  55
ATOM     55  C   UNL A   1      48.375  26.695  29.375  1.00  0.00     0.057 A 
ATOM     56  C   UNL A   1      48.899  26.000  30.472  1.00  0.00     0.134 A 
ATOM     57  C   UNL A   1      49.251  27.011  28.330  1.00  0.00     0.134 A 
ATOM     58  F   UNL A   1      48.113  25.672  31.510  1.00  0.00    -0.206 F 
ATOM     59  C   UNL A   1      50.245  25.638  30.530  1.00  0.00     0.040 A 
ATOM     60  C   UNL A   1      50.595  26.633  28.365  1.00  0.00     0.040 A 
ATOM     61  F   UNL A   1      48.807  27.663  27.244  1.00  0.00    -0.206 F 
ATOM     62  C   UNL A   1      51.096  25.950  29.472  1.00  0.00     0.006 A 
ENDBRANCH  38  55
ENDBRANCH  12  13
ENDBRANCH   5   7
ENDBRANCH   2   3
ENDBRANCH   1   2
BRANCH   1  63
ATOM     63  C   UNL A   1      31.481  28.817  26.386  1.00  0.00     0.023 C 
BRANCH  63  64
ATOM     64  C   UNL A   1      31.184  28.803  24.890  1.00  0.00     0.116 C 
BRANCH  64  65
ATOM     65  N   UNL A   1      32.279  29.331  24.096  1.00  0.00    -0.352 N 
ATOM     66  C   UNL A   1      33.100  28.660  23.225  1.00  0.00     0.255 C 
ATOM     67  H   UNL A   1      32.455  30.295  24.195  1.00  0.00     0.163 HD
ATOM     68  O   UNL A   1      34.024  29.252  22.666  1.00  0.00    -0.269 OA
BRANCH  66  69
ATOM     69  C   UNL A   1      32.937  27.208  23.016  1.00  0.00     0.082 A 
ATOM     70  C   UNL A   1      33.905  26.367  23.582  1.00  0.00     0.026 A 
ATOM     71  C   UNL A   1      31.888  26.665  22.266  1.00  0.00     0.128 A 
ATOM     72  C   UNL A   1      33.793  24.978  23.450  1.00  0.00    -0.017 A 
ATOM     73  C   UNL A   1      31.756  25.284  22.150  1.00  0.00     0.047 A 
ATOM     74  C   UNL A   1      32.701  24.446  22.749  1.00  0.00     0.012 A 
BRANCH  71  75
ATOM     75  O   UNL A   1      30.982  27.479  21.646  1.00  0.00    -0.507 OA
ATOM     76  H   UNL A   1      31.030  28.407  21.761  1.00  0.00     0.293 HD
ENDBRANCH  71  75
BRANCH  72  77
ATOM     77  C   UNL A   1      34.819  24.065  23.991  1.00  0.00    -0.011 A 
ATOM     78  C   UNL A   1      34.966  22.707  23.503  1.00  0.00     0.027 A 
ATOM     79  C   UNL A   1      35.624  24.490  24.982  1.00  0.00     0.080 A 
ATOM     80  C   UNL A   1      35.864  21.878  24.047  1.00  0.00     0.095 A 
ATOM     81  C   UNL A   1      36.635  23.581  25.592  1.00  0.00     0.255 A 
ATOM     82  N   UNL A   1      36.683  22.295  25.078  1.00  0.00    -0.258 N 
ATOM     83  O   UNL A   1      37.339  24.014  26.501  1.00  0.00    -0.269 OA
BRANCH  82  84
ATOM     84  C   UNL A   1      37.626  21.383  25.673  1.00  0.00     0.451 C 
ATOM     85  F   UNL A   1      37.536  20.150  25.117  1.00  0.00    -0.185 F 
ATOM     86  F   UNL A   1      38.897  21.828  25.511  1.00  0.00    -0.185 F 
ENDBRANCH  82  84
ENDBRANCH  72  77
ENDBRANCH  66  69
ENDBRANCH  64  65
ENDBRANCH  63  64
ENDBRANCH   1  63
TORSDOF 14
ENDMDL
