MODEL 1
REMARK VINA RESULT:     -12.5      0.000      0.000
REMARK SMILES C[C@@]12CC[C@@H]3c4ccc(O)cc4/C(=N\OCC(=O)NCCCCNC(=O)c4ccc(-c5c6nc(c(-c7c(F)cccc7F)c7ccc([nH]7)c(-c7c(F)cccc7F)c7nc(c(-c8c(F)cccc8F)c8ccc5[nH]8)C=C7)C=C6)cc4)C[C@H]3[C@@H]1C[C@@H](O)[C@@H]2O
REMARK SMILES IDX 21 1 20 2 19 3 17 4 18 5 16 7 15 8 14 9 1 10 2 11 3 12 83 13
REMARK SMILES IDX 87 14 4 15 82 16 84 17 85 18 5 19 81 20 6 21 13 22 7 23
REMARK SMILES IDX 12 24 8 25 11 26 9 27 88 28 86 30 10 32 22 34 23 35 24 36
REMARK SMILES IDX 25 37 26 39 27 40 28 41 80 42 29 43 79 44 30 45 31 46 32 47
REMARK SMILES IDX 73 48 33 49 78 50 72 51 74 52 34 53 77 54 71 55 70 56 35 58
REMARK SMILES IDX 61 59 44 60 60 61 45 62 48 63 59 64 75 65 46 66 47 67 58 69
REMARK SMILES IDX 76 70 49 71 36 72 37 73 42 74 38 75 39 76 41 77 43 78 40 79
REMARK SMILES IDX 62 80 63 81 68 82 64 83 65 84 67 85 69 86 66 87 50 88 51 89
REMARK SMILES IDX 56 90 52 91 53 92 55 93 57 94 54 95
REMARK H PARENT 19 6 88 29 86 31 10 33 24 38 74 57 48 68
REMARK Flexibility Score: inf
ROOT
ATOM      1  C   UNL A   1      34.427  32.438  28.825  1.00  0.00     0.023 C 
ENDROOT
BRANCH   1   2
ATOM      2  C   UNL A   1      34.575  31.340  27.773  1.00  0.00     0.116 C 
BRANCH   2   3
ATOM      3  N   UNL A   1      33.680  30.225  28.018  1.00  0.00    -0.353 N 
ATOM      4  C   UNL A   1      32.582  29.816  27.312  1.00  0.00     0.260 C 
ATOM      5  O   UNL A   1      31.978  28.821  27.725  1.00  0.00    -0.271 OA
ATOM      6  H   UNL A   1      33.895  29.681  28.809  1.00  0.00     0.163 HD
BRANCH   4   7
ATOM      7  C   UNL A   1      32.197  30.487  25.993  1.00  0.00     0.363 C 
BRANCH   7   8
ATOM      8  O   UNL A   1      32.629  29.816  24.828  1.00  0.00    -0.385 OA
BRANCH   8   9
ATOM      9  N   UNL A   1      33.597  28.835  25.098  1.00  0.00    -0.090 NA
ATOM     10  C   UNL A   1      33.866  21.940  27.608  1.00  0.00     0.014 C 
ATOM     11  C   UNL A   1      33.127  22.748  26.505  1.00  0.00    -0.001 C 
ATOM     12  C   UNL A   1      31.797  23.175  27.132  1.00  0.00     0.010 C 
ATOM     13  C   UNL A   1      33.990  23.948  26.042  1.00  0.00     0.004 C 
ATOM     14  C   UNL A   1      33.017  21.890  25.214  1.00  0.00     0.149 C 
ATOM     15  C   UNL A   1      30.991  24.154  26.313  1.00  0.00     0.009 C 
ATOM     16  C   UNL A   1      33.198  25.094  25.331  1.00  0.00     0.006 C 
ATOM     17  C   UNL A   1      35.036  23.275  25.099  1.00  0.00     0.039 C 
ATOM     18  C   UNL A   1      34.436  21.932  24.622  1.00  0.00     0.144 C 
ATOM     19  C   UNL A   1      31.794  25.393  25.929  1.00  0.00     0.024 C 
ATOM     20  C   UNL A   1      33.985  26.435  25.322  1.00  0.00     0.065 C 
ATOM     21  C   UNL A   1      31.064  26.279  24.926  1.00  0.00    -0.035 A 
ATOM     22  C   UNL A   1      33.134  27.634  24.875  1.00  0.00     0.088 C 
ATOM     23  C   UNL A   1      29.713  26.112  24.579  1.00  0.00     0.008 A 
ATOM     24  C   UNL A   1      31.778  27.327  24.323  1.00  0.00     0.006 A 
ATOM     25  C   UNL A   1      29.108  26.942  23.635  1.00  0.00     0.046 A 
ATOM     26  C   UNL A   1      31.191  28.114  23.322  1.00  0.00     0.056 A 
ATOM     27  C   UNL A   1      29.851  27.930  23.009  1.00  0.00     0.116 A 
BRANCH  14  28
ATOM     28  O   UNL A   1      32.085  22.402  24.266  1.00  0.00    -0.390 OA
ATOM     29  H   UNL A   1      32.550  22.965  23.628  1.00  0.00     0.211 HD
ENDBRANCH  14  28
BRANCH  18  30
ATOM     30  O   UNL A   1      35.223  20.844  25.098  1.00  0.00    -0.390 OA
ATOM     31  H   UNL A   1      35.686  20.430  24.352  1.00  0.00     0.211 HD
ENDBRANCH  18  30
BRANCH  27  32
ATOM     32  O   UNL A   1      29.212  28.736  22.116  1.00  0.00    -0.508 OA
ATOM     33  H   UNL A   1      28.302  28.931  22.230  1.00  0.00     0.293 HD
ENDBRANCH  27  32
ENDBRANCH   8   9
ENDBRANCH   7   8
ENDBRANCH   4   7
ENDBRANCH   2   3
ENDBRANCH   1   2
BRANCH   1  34
ATOM     34  C   UNL A   1      33.603  33.654  28.408  1.00  0.00     0.023 C 
BRANCH  34  35
ATOM     35  C   UNL A   1      34.017  34.969  29.050  1.00  0.00     0.116 C 
BRANCH  35  36
ATOM     36  N   UNL A   1      32.995  35.551  29.913  1.00  0.00    -0.352 N 
ATOM     37  C   UNL A   1      32.930  35.552  31.291  1.00  0.00     0.251 C 
ATOM     38  H   UNL A   1      32.253  36.003  29.451  1.00  0.00     0.163 HD
ATOM     39  O   UNL A   1      31.952  36.012  31.874  1.00  0.00    -0.269 OA
BRANCH  37  40
ATOM     40  C   UNL A   1      34.029  34.933  32.063  1.00  0.00     0.039 A 
ATOM     41  C   UNL A   1      35.201  35.649  32.313  1.00  0.00     0.014 A 
ATOM     42  C   UNL A   1      33.930  33.590  32.433  1.00  0.00     0.014 A 
ATOM     43  C   UNL A   1      36.341  34.966  32.717  1.00  0.00     0.010 A 
ATOM     44  C   UNL A   1      35.055  32.929  32.936  1.00  0.00     0.010 A 
ATOM     45  C   UNL A   1      36.290  33.593  33.008  1.00  0.00    -0.014 A 
BRANCH  45  46
ATOM     46  C   UNL A   1      37.549  32.864  33.324  1.00  0.00     0.031 A 
ATOM     47  C   UNL A   1      38.263  33.095  34.633  1.00  0.00     0.074 A 
ATOM     48  C   UNL A   1      38.013  31.937  32.464  1.00  0.00     0.049 A 
ATOM     49  N   UNL A   1      39.371  32.551  35.078  1.00  0.00    -0.248 NA
ATOM     50  C   UNL A   1      37.660  34.063  35.563  1.00  0.00     0.031 C 
ATOM     51  C   UNL A   1      37.403  31.600  31.177  1.00  0.00     0.029 A 
ATOM     52  N   UNL A   1      39.090  31.094  32.553  1.00  0.00    -0.354 N 
ATOM     53  C   UNL A   1      39.608  33.127  36.322  1.00  0.00     0.074 A 
ATOM     54  C   UNL A   1      38.545  34.083  36.551  1.00  0.00     0.031 C 
ATOM     55  C   UNL A   1      38.085  30.589  30.620  1.00  0.00     0.029 A 
ATOM     56  C   UNL A   1      39.218  30.255  31.474  1.00  0.00     0.049 A 
ATOM     57  H   UNL A   1      39.711  31.090  33.317  1.00  0.00     0.167 HD
ATOM     58  C   UNL A   1      40.610  32.875  37.199  1.00  0.00     0.037 A 
ATOM     59  C   UNL A   1      40.157  29.334  31.191  1.00  0.00     0.037 A 
ATOM     60  C   UNL A   1      41.653  31.904  36.986  1.00  0.00     0.049 A 
ATOM     61  C   UNL A   1      41.287  29.116  32.154  1.00  0.00     0.074 A 
ATOM     62  C   UNL A   1      42.698  31.561  37.826  1.00  0.00     0.029 A 
ATOM     63  N   UNL A   1      41.782  31.120  35.849  1.00  0.00    -0.354 N 
ATOM     64  N   UNL A   1      41.497  29.669  33.323  1.00  0.00    -0.248 NA
ATOM     65  C   UNL A   1      42.320  28.153  31.749  1.00  0.00     0.031 C 
ATOM     66  C   UNL A   1      43.484  30.598  37.181  1.00  0.00     0.029 A 
ATOM     67  C   UNL A   1      42.903  30.312  35.956  1.00  0.00     0.049 A 
ATOM     68  H   UNL A   1      41.168  31.136  35.080  1.00  0.00     0.167 HD
ATOM     69  C   UNL A   1      42.676  29.114  33.799  1.00  0.00     0.074 A 
ATOM     70  C   UNL A   1      43.122  28.160  32.804  1.00  0.00     0.031 C 
ATOM     71  C   UNL A   1      43.336  29.374  34.954  1.00  0.00     0.037 A 
BRANCH  58  72
ATOM     72  C   UNL A   1      40.639  33.677  38.469  1.00  0.00     0.057 A 
ATOM     73  C   UNL A   1      41.492  34.781  38.596  1.00  0.00     0.134 A 
ATOM     74  C   UNL A   1      39.854  33.339  39.580  1.00  0.00     0.134 A 
ATOM     75  F   UNL A   1      42.277  35.155  37.574  1.00  0.00    -0.206 F 
ATOM     76  C   UNL A   1      41.564  35.518  39.779  1.00  0.00     0.040 A 
ATOM     77  C   UNL A   1      39.898  34.083  40.760  1.00  0.00     0.040 A 
ATOM     78  F   UNL A   1      39.006  32.300  39.522  1.00  0.00    -0.206 F 
ATOM     79  C   UNL A   1      40.761  35.174  40.864  1.00  0.00     0.006 A 
ENDBRANCH  58  72
BRANCH  59  80
ATOM     80  C   UNL A   1      40.085  28.566  29.922  1.00  0.00     0.057 A 
ATOM     81  C   UNL A   1      40.777  28.985  28.779  1.00  0.00     0.134 A 
ATOM     82  C   UNL A   1      39.338  27.388  29.830  1.00  0.00     0.134 A 
ATOM     83  F   UNL A   1      41.509  30.109  28.804  1.00  0.00    -0.206 F 
ATOM     84  C   UNL A   1      40.721  28.265  27.587  1.00  0.00     0.040 A 
ATOM     85  C   UNL A   1      39.295  26.642  28.651  1.00  0.00     0.040 A 
ATOM     86  F   UNL A   1      38.670  26.925  30.897  1.00  0.00    -0.206 F 
ATOM     87  C   UNL A   1      39.985  27.083  27.523  1.00  0.00     0.006 A 
ENDBRANCH  59  80
BRANCH  71  88
ATOM     88  C   UNL A   1      44.597  28.599  35.200  1.00  0.00     0.057 A 
ATOM     89  C   UNL A   1      44.558  27.357  35.849  1.00  0.00     0.134 A 
ATOM     90  C   UNL A   1      45.848  29.080  34.796  1.00  0.00     0.134 A 
ATOM     91  F   UNL A   1      43.392  26.843  36.268  1.00  0.00    -0.206 F 
ATOM     92  C   UNL A   1      45.720  26.621  36.082  1.00  0.00     0.040 A 
ATOM     93  C   UNL A   1      47.014  28.340  34.999  1.00  0.00     0.040 A 
ATOM     94  F   UNL A   1      45.950  30.254  34.153  1.00  0.00    -0.206 F 
ATOM     95  C   UNL A   1      46.952  27.108  35.648  1.00  0.00     0.006 A 
ENDBRANCH  71  88
ENDBRANCH  45  46
ENDBRANCH  37  40
ENDBRANCH  35  36
ENDBRANCH  34  35
ENDBRANCH   1  34
TORSDOF 16
ENDMDL
MODEL 2
REMARK VINA RESULT:     -12.5      2.715      8.625
REMARK SMILES C[C@@]12CC[C@@H]3c4ccc(O)cc4/C(=N\OCC(=O)NCCCCNC(=O)c4ccc(-c5c6nc(c(-c7c(F)cccc7F)c7ccc([nH]7)c(-c7c(F)cccc7F)c7nc(c(-c8c(F)cccc8F)c8ccc5[nH]8)C=C7)C=C6)cc4)C[C@H]3[C@@H]1C[C@@H](O)[C@@H]2O
REMARK SMILES IDX 21 1 20 2 19 3 17 4 18 5 16 7 15 8 14 9 1 10 2 11 3 12 83 13
REMARK SMILES IDX 87 14 4 15 82 16 84 17 85 18 5 19 81 20 6 21 13 22 7 23
REMARK SMILES IDX 12 24 8 25 11 26 9 27 88 28 86 30 10 32 22 34 23 35 24 36
REMARK SMILES IDX 25 37 26 39 27 40 28 41 80 42 29 43 79 44 30 45 31 46 32 47
REMARK SMILES IDX 73 48 33 49 78 50 72 51 74 52 34 53 77 54 71 55 70 56 35 58
REMARK SMILES IDX 61 59 44 60 60 61 45 62 48 63 59 64 75 65 46 66 47 67 58 69
REMARK SMILES IDX 76 70 49 71 36 72 37 73 42 74 38 75 39 76 41 77 43 78 40 79
REMARK SMILES IDX 62 80 63 81 68 82 64 83 65 84 67 85 69 86 66 87 50 88 51 89
REMARK SMILES IDX 56 90 52 91 53 92 55 93 57 94 54 95
REMARK H PARENT 19 6 88 29 86 31 10 33 24 38 74 57 48 68
REMARK Flexibility Score: inf
ROOT
ATOM      1  C   UNL A   1      40.695  21.760  26.227  1.00  0.00     0.023 C 
ENDROOT
BRANCH   1   2
ATOM      2  C   UNL A   1      39.225  22.076  26.495  1.00  0.00     0.116 C 
BRANCH   2   3
ATOM      3  N   UNL A   1      38.555  22.601  25.319  1.00  0.00    -0.353 N 
ATOM      4  C   UNL A   1      37.467  22.117  24.646  1.00  0.00     0.260 C 
ATOM      5  O   UNL A   1      37.078  22.753  23.662  1.00  0.00    -0.271 OA
ATOM      6  H   UNL A   1      38.942  23.428  24.952  1.00  0.00     0.163 HD
BRANCH   4   7
ATOM      7  C   UNL A   1      36.688  20.910  25.170  1.00  0.00     0.363 C 
BRANCH   7   8
ATOM      8  O   UNL A   1      35.641  21.213  26.068  1.00  0.00    -0.385 OA
BRANCH   8   9
ATOM      9  N   UNL A   1      35.559  22.586  26.355  1.00  0.00    -0.090 NA
ATOM     10  C   UNL A   1      33.682  28.802  22.927  1.00  0.00     0.014 C 
ATOM     11  C   UNL A   1      33.081  27.394  23.193  1.00  0.00    -0.001 C 
ATOM     12  C   UNL A   1      33.451  26.553  21.969  1.00  0.00     0.010 C 
ATOM     13  C   UNL A   1      33.632  26.810  24.517  1.00  0.00     0.004 C 
ATOM     14  C   UNL A   1      31.560  27.522  23.486  1.00  0.00     0.149 C 
ATOM     15  C   UNL A   1      33.150  25.079  22.092  1.00  0.00     0.009 C 
ATOM     16  C   UNL A   1      33.513  25.257  24.653  1.00  0.00     0.006 C 
ATOM     17  C   UNL A   1      32.800  27.566  25.599  1.00  0.00     0.039 C 
ATOM     18  C   UNL A   1      31.507  28.073  24.920  1.00  0.00     0.144 C 
ATOM     19  C   UNL A   1      33.770  24.460  23.343  1.00  0.00     0.024 C 
ATOM     20  C   UNL A   1      34.479  24.685  25.730  1.00  0.00     0.065 C 
ATOM     21  C   UNL A   1      33.292  23.033  23.590  1.00  0.00    -0.035 A 
ATOM     22  C   UNL A   1      34.579  23.151  25.700  1.00  0.00     0.088 C 
ATOM     23  C   UNL A   1      32.562  22.283  22.653  1.00  0.00     0.008 A 
ATOM     24  C   UNL A   1      33.609  22.431  24.818  1.00  0.00     0.006 A 
ATOM     25  C   UNL A   1      32.134  20.989  22.949  1.00  0.00     0.046 A 
ATOM     26  C   UNL A   1      33.117  21.160  25.144  1.00  0.00     0.056 A 
ATOM     27  C   UNL A   1      32.406  20.440  24.193  1.00  0.00     0.116 A 
BRANCH  14  28
ATOM     28  O   UNL A   1      30.860  26.283  23.420  1.00  0.00    -0.390 OA
ATOM     29  H   UNL A   1      30.891  25.848  24.286  1.00  0.00     0.211 HD
ENDBRANCH  14  28
BRANCH  18  30
ATOM     30  O   UNL A   1      31.474  29.497  24.922  1.00  0.00    -0.390 OA
ATOM     31  H   UNL A   1      31.533  29.823  24.010  1.00  0.00     0.211 HD
ENDBRANCH  18  30
BRANCH  27  32
ATOM     32  O   UNL A   1      31.995  19.163  24.427  1.00  0.00    -0.508 OA
ATOM     33  H   UNL A   1      31.869  18.573  23.709  1.00  0.00     0.293 HD
ENDBRANCH  27  32
ENDBRANCH   8   9
ENDBRANCH   7   8
ENDBRANCH   4   7
ENDBRANCH   2   3
ENDBRANCH   1   2
BRANCH   1  34
ATOM     34  C   UNL A   1      41.680  22.212  27.302  1.00  0.00     0.023 C 
BRANCH  34  35
ATOM     35  C   UNL A   1      42.688  23.260  26.859  1.00  0.00     0.116 C 
BRANCH  35  36
ATOM     36  N   UNL A   1      42.190  24.155  25.820  1.00  0.00    -0.352 N 
ATOM     37  C   UNL A   1      41.710  25.442  25.948  1.00  0.00     0.251 C 
ATOM     38  H   UNL A   1      42.197  23.792  24.905  1.00  0.00     0.163 HD
ATOM     39  O   UNL A   1      41.242  26.037  24.983  1.00  0.00    -0.269 OA
BRANCH  37  40
ATOM     40  C   UNL A   1      41.709  26.078  27.283  1.00  0.00     0.039 A 
ATOM     41  C   UNL A   1      40.645  25.867  28.161  1.00  0.00     0.014 A 
ATOM     42  C   UNL A   1      42.723  26.983  27.607  1.00  0.00     0.014 A 
ATOM     43  C   UNL A   1      40.476  26.722  29.243  1.00  0.00     0.010 A 
ATOM     44  C   UNL A   1      42.599  27.774  28.754  1.00  0.00     0.010 A 
ATOM     45  C   UNL A   1      41.437  27.704  29.538  1.00  0.00    -0.014 A 
BRANCH  45  46
ATOM     46  C   UNL A   1      41.173  28.680  30.630  1.00  0.00     0.031 A 
ATOM     47  C   UNL A   1      40.047  29.678  30.516  1.00  0.00     0.074 A 
ATOM     48  C   UNL A   1      41.902  28.623  31.761  1.00  0.00     0.049 A 
ATOM     49  N   UNL A   1      39.672  30.603  31.366  1.00  0.00    -0.248 NA
ATOM     50  C   UNL A   1      39.237  29.635  29.287  1.00  0.00     0.031 C 
ATOM     51  C   UNL A   1      43.003  27.691  32.009  1.00  0.00     0.029 A 
ATOM     52  N   UNL A   1      41.813  29.349  32.920  1.00  0.00    -0.354 N 
ATOM     53  C   UNL A   1      38.605  31.264  30.767  1.00  0.00     0.074 A 
ATOM     54  C   UNL A   1      38.408  30.654  29.469  1.00  0.00     0.031 C 
ATOM     55  C   UNL A   1      43.454  27.867  33.260  1.00  0.00     0.029 A 
ATOM     56  C   UNL A   1      42.724  28.968  33.876  1.00  0.00     0.049 A 
ATOM     57  H   UNL A   1      41.159  30.072  33.056  1.00  0.00     0.167 HD
ATOM     58  C   UNL A   1      37.849  32.277  31.256  1.00  0.00     0.037 A 
ATOM     59  C   UNL A   1      42.962  29.466  35.103  1.00  0.00     0.037 A 
ATOM     60  C   UNL A   1      38.024  32.867  32.558  1.00  0.00     0.049 A 
ATOM     61  C   UNL A   1      42.147  30.625  35.596  1.00  0.00     0.074 A 
ATOM     62  C   UNL A   1      37.293  33.883  33.152  1.00  0.00     0.029 A 
ATOM     63  N   UNL A   1      39.000  32.495  33.470  1.00  0.00    -0.354 N 
ATOM     64  N   UNL A   1      41.143  31.239  35.017  1.00  0.00    -0.248 NA
ATOM     65  C   UNL A   1      42.509  31.171  36.912  1.00  0.00     0.031 C 
ATOM     66  C   UNL A   1      37.853  34.153  34.406  1.00  0.00     0.029 A 
ATOM     67  C   UNL A   1      38.906  33.276  34.611  1.00  0.00     0.049 A 
ATOM     68  H   UNL A   1      39.663  31.781  33.326  1.00  0.00     0.167 HD
ATOM     69  C   UNL A   1      40.746  32.233  35.901  1.00  0.00     0.074 A 
ATOM     70  C   UNL A   1      41.599  32.123  37.066  1.00  0.00     0.031 C 
ATOM     71  C   UNL A   1      39.767  33.159  35.759  1.00  0.00     0.037 A 
BRANCH  58  72
ATOM     72  C   UNL A   1      36.768  32.828  30.369  1.00  0.00     0.057 A 
ATOM     73  C   UNL A   1      35.436  32.425  30.535  1.00  0.00     0.134 A 
ATOM     74  C   UNL A   1      37.044  33.726  29.330  1.00  0.00     0.134 A 
ATOM     75  F   UNL A   1      35.102  31.562  31.506  1.00  0.00    -0.206 F 
ATOM     76  C   UNL A   1      34.420  32.895  29.700  1.00  0.00     0.040 A 
ATOM     77  C   UNL A   1      36.033  34.222  28.503  1.00  0.00     0.040 A 
ATOM     78  F   UNL A   1      38.297  34.162  29.124  1.00  0.00    -0.206 F 
ATOM     79  C   UNL A   1      34.717  33.800  28.684  1.00  0.00     0.006 A 
ENDBRANCH  58  72
BRANCH  59  80
ATOM     80  C   UNL A   1      44.041  28.888  35.942  1.00  0.00     0.057 A 
ATOM     81  C   UNL A   1      45.336  29.418  35.927  1.00  0.00     0.134 A 
ATOM     82  C   UNL A   1      43.796  27.803  36.790  1.00  0.00     0.134 A 
ATOM     83  F   UNL A   1      45.634  30.457  35.132  1.00  0.00    -0.206 F 
ATOM     84  C   UNL A   1      46.353  28.885  36.719  1.00  0.00     0.040 A 
ATOM     85  C   UNL A   1      44.796  27.278  37.609  1.00  0.00     0.040 A 
ATOM     86  F   UNL A   1      42.570  27.265  36.864  1.00  0.00    -0.206 F 
ATOM     87  C   UNL A   1      46.082  27.817  37.570  1.00  0.00     0.006 A 
ENDBRANCH  59  80
BRANCH  71  88
ATOM     88  C   UNL A   1      39.563  34.107  36.903  1.00  0.00     0.057 A 
ATOM     89  C   UNL A   1      38.783  33.740  38.007  1.00  0.00     0.134 A 
ATOM     90  C   UNL A   1      40.139  35.384  36.912  1.00  0.00     0.134 A 
ATOM     91  F   UNL A   1      38.198  32.533  38.057  1.00  0.00    -0.206 F 
ATOM     92  C   UNL A   1      38.588  34.607  39.081  1.00  0.00     0.040 A 
ATOM     93  C   UNL A   1      39.973  36.250  37.993  1.00  0.00     0.040 A 
ATOM     94  F   UNL A   1      40.912  35.789  35.893  1.00  0.00    -0.206 F 
ATOM     95  C   UNL A   1      39.191  35.864  39.081  1.00  0.00     0.006 A 
ENDBRANCH  71  88
ENDBRANCH  45  46
ENDBRANCH  37  40
ENDBRANCH  35  36
ENDBRANCH  34  35
ENDBRANCH   1  34
TORSDOF 16
ENDMDL
MODEL 3
REMARK VINA RESULT:     -12.5      0.345      5.855
REMARK SMILES C[C@@]12CC[C@@H]3c4ccc(O)cc4/C(=N\OCC(=O)NCCCCNC(=O)c4ccc(-c5c6nc(c(-c7c(F)cccc7F)c7ccc([nH]7)c(-c7c(F)cccc7F)c7nc(c(-c8c(F)cccc8F)c8ccc5[nH]8)C=C7)C=C6)cc4)C[C@H]3[C@@H]1C[C@@H](O)[C@@H]2O
REMARK SMILES IDX 21 1 20 2 19 3 17 4 18 5 16 7 15 8 14 9 1 10 2 11 3 12 83 13
REMARK SMILES IDX 87 14 4 15 82 16 84 17 85 18 5 19 81 20 6 21 13 22 7 23
REMARK SMILES IDX 12 24 8 25 11 26 9 27 88 28 86 30 10 32 22 34 23 35 24 36
REMARK SMILES IDX 25 37 26 39 27 40 28 41 80 42 29 43 79 44 30 45 31 46 32 47
REMARK SMILES IDX 73 48 33 49 78 50 72 51 74 52 34 53 77 54 71 55 70 56 35 58
REMARK SMILES IDX 61 59 44 60 60 61 45 62 48 63 59 64 75 65 46 66 47 67 58 69
REMARK SMILES IDX 76 70 49 71 36 72 37 73 42 74 38 75 39 76 41 77 43 78 40 79
REMARK SMILES IDX 62 80 63 81 68 82 64 83 65 84 67 85 69 86 66 87 50 88 51 89
REMARK SMILES IDX 56 90 52 91 53 92 55 93 57 94 54 95
REMARK H PARENT 19 6 88 29 86 31 10 33 24 38 74 57 48 68
REMARK Flexibility Score: inf
ROOT
ATOM      1  C   UNL A   1      34.417  32.408  28.902  1.00  0.00     0.023 C 
ENDROOT
BRANCH   1   2
ATOM      2  C   UNL A   1      34.537  31.354  27.803  1.00  0.00     0.116 C 
BRANCH   2   3
ATOM      3  N   UNL A   1      33.647  30.229  28.026  1.00  0.00    -0.353 N 
ATOM      4  C   UNL A   1      32.564  29.816  27.300  1.00  0.00     0.260 C 
ATOM      5  O   UNL A   1      31.962  28.814  27.696  1.00  0.00    -0.271 OA
ATOM      6  H   UNL A   1      33.855  29.682  28.817  1.00  0.00     0.163 HD
BRANCH   4   7
ATOM      7  C   UNL A   1      32.195  30.495  25.979  1.00  0.00     0.363 C 
BRANCH   7   8
ATOM      8  O   UNL A   1      32.595  29.803  24.815  1.00  0.00    -0.385 OA
BRANCH   8   9
ATOM      9  N   UNL A   1      33.581  28.836  25.075  1.00  0.00    -0.090 NA
ATOM     10  C   UNL A   1      33.984  21.954  27.600  1.00  0.00     0.014 C 
ATOM     11  C   UNL A   1      33.218  22.748  26.506  1.00  0.00    -0.001 C 
ATOM     12  C   UNL A   1      31.891  23.158  27.151  1.00  0.00     0.010 C 
ATOM     13  C   UNL A   1      34.056  23.958  26.027  1.00  0.00     0.004 C 
ATOM     14  C   UNL A   1      33.101  21.884  25.220  1.00  0.00     0.149 C 
ATOM     15  C   UNL A   1      31.059  24.123  26.341  1.00  0.00     0.009 C 
ATOM     16  C   UNL A   1      33.239  25.091  25.324  1.00  0.00     0.006 C 
ATOM     17  C   UNL A   1      35.098  23.297  25.071  1.00  0.00     0.039 C 
ATOM     18  C   UNL A   1      34.510  21.945  24.607  1.00  0.00     0.144 C 
ATOM     19  C   UNL A   1      31.839  25.372  25.942  1.00  0.00     0.024 C 
ATOM     20  C   UNL A   1      34.006  26.443  25.300  1.00  0.00     0.065 C 
ATOM     21  C   UNL A   1      31.082  26.244  24.947  1.00  0.00    -0.035 A 
ATOM     22  C   UNL A   1      33.132  27.628  24.862  1.00  0.00     0.088 C 
ATOM     23  C   UNL A   1      29.729  26.057  24.620  1.00  0.00     0.008 A 
ATOM     24  C   UNL A   1      31.772  27.300  24.331  1.00  0.00     0.006 A 
ATOM     25  C   UNL A   1      29.098  26.875  23.683  1.00  0.00     0.046 A 
ATOM     26  C   UNL A   1      31.160  28.076  23.336  1.00  0.00     0.056 A 
ATOM     27  C   UNL A   1      29.819  27.872  23.042  1.00  0.00     0.116 A 
BRANCH  14  28
ATOM     28  O   UNL A   1      32.149  22.380  24.284  1.00  0.00    -0.390 OA
ATOM     29  H   UNL A   1      31.809  23.235  24.590  1.00  0.00     0.211 HD
ENDBRANCH  14  28
BRANCH  18  30
ATOM     30  O   UNL A   1      35.320  20.869  25.075  1.00  0.00    -0.390 OA
ATOM     31  H   UNL A   1      36.239  21.170  25.160  1.00  0.00     0.211 HD
ENDBRANCH  18  30
BRANCH  27  32
ATOM     32  O   UNL A   1      29.155  28.666  22.157  1.00  0.00    -0.508 OA
ATOM     33  H   UNL A   1      28.474  29.236  22.459  1.00  0.00     0.293 HD
ENDBRANCH  27  32
ENDBRANCH   8   9
ENDBRANCH   7   8
ENDBRANCH   4   7
ENDBRANCH   2   3
ENDBRANCH   1   2
BRANCH   1  34
ATOM     34  C   UNL A   1      33.663  33.681  28.525  1.00  0.00     0.023 C 
BRANCH  34  35
ATOM     35  C   UNL A   1      34.090  34.933  29.274  1.00  0.00     0.116 C 
BRANCH  35  36
ATOM     36  N   UNL A   1      33.033  35.521  30.090  1.00  0.00    -0.352 N 
ATOM     37  C   UNL A   1      32.925  35.558  31.465  1.00  0.00     0.251 C 
ATOM     38  H   UNL A   1      32.298  35.948  29.593  1.00  0.00     0.163 HD
ATOM     39  O   UNL A   1      31.923  36.017  32.005  1.00  0.00    -0.269 OA
BRANCH  37  40
ATOM     40  C   UNL A   1      34.011  34.980  32.286  1.00  0.00     0.039 A 
ATOM     41  C   UNL A   1      35.216  35.666  32.442  1.00  0.00     0.014 A 
ATOM     42  C   UNL A   1      33.861  33.690  32.802  1.00  0.00     0.014 A 
ATOM     43  C   UNL A   1      36.333  34.983  32.904  1.00  0.00     0.010 A 
ATOM     44  C   UNL A   1      34.966  33.039  33.360  1.00  0.00     0.010 A 
ATOM     45  C   UNL A   1      36.229  33.652  33.344  1.00  0.00    -0.014 A 
BRANCH  45  46
ATOM     46  C   UNL A   1      37.461  32.908  33.722  1.00  0.00     0.031 A 
ATOM     47  C   UNL A   1      38.067  31.894  32.784  1.00  0.00     0.074 A 
ATOM     48  C   UNL A   1      38.080  33.197  34.883  1.00  0.00     0.049 A 
ATOM     49  N   UNL A   1      39.136  31.151  32.946  1.00  0.00    -0.248 NA
ATOM     50  C   UNL A   1      37.386  31.684  31.496  1.00  0.00     0.031 C 
ATOM     51  C   UNL A   1      37.613  34.173  35.868  1.00  0.00     0.029 A 
ATOM     52  N   UNL A   1      39.245  32.714  35.420  1.00  0.00    -0.354 N 
ATOM     53  C   UNL A   1      39.239  30.372  31.799  1.00  0.00     0.074 A 
ATOM     54  C   UNL A   1      38.110  30.711  30.958  1.00  0.00     0.031 C 
ATOM     55  C   UNL A   1      38.507  34.254  36.865  1.00  0.00     0.029 A 
ATOM     56  C   UNL A   1      39.571  33.287  36.625  1.00  0.00     0.049 A 
ATOM     57  H   UNL A   1      39.796  32.024  34.984  1.00  0.00     0.167 HD
ATOM     58  C   UNL A   1      40.192  29.467  31.468  1.00  0.00     0.037 A 
ATOM     59  C   UNL A   1      40.600  33.045  37.457  1.00  0.00     0.037 A 
ATOM     60  C   UNL A   1      41.331  29.148  32.289  1.00  0.00     0.049 A 
ATOM     61  C   UNL A   1      41.610  31.997  37.091  1.00  0.00     0.074 A 
ATOM     62  C   UNL A   1      42.363  28.262  32.029  1.00  0.00     0.029 A 
ATOM     63  N   UNL A   1      41.589  29.705  33.533  1.00  0.00    -0.354 N 
ATOM     64  N   UNL A   1      41.692  31.269  36.005  1.00  0.00    -0.248 NA
ATOM     65  C   UNL A   1      42.664  31.727  38.079  1.00  0.00     0.031 C 
ATOM     66  C   UNL A   1      43.224  28.252  33.133  1.00  0.00     0.029 A 
ATOM     67  C   UNL A   1      42.751  29.165  34.062  1.00  0.00     0.049 A 
ATOM     68  H   UNL A   1      41.030  30.385  33.973  1.00  0.00     0.167 HD
ATOM     69  C   UNL A   1      42.811  30.465  36.170  1.00  0.00     0.074 A 
ATOM     70  C   UNL A   1      43.391  30.814  37.451  1.00  0.00     0.031 C 
ATOM     71  C   UNL A   1      43.311  29.517  35.341  1.00  0.00     0.037 A 
BRANCH  58  72
ATOM     72  C   UNL A   1      40.035  28.738  30.163  1.00  0.00     0.057 A 
ATOM     73  C   UNL A   1      40.628  29.234  28.994  1.00  0.00     0.134 A 
ATOM     74  C   UNL A   1      39.269  27.570  30.051  1.00  0.00     0.134 A 
ATOM     75  F   UNL A   1      41.368  30.352  29.028  1.00  0.00    -0.206 F 
ATOM     76  C   UNL A   1      40.466  28.595  27.763  1.00  0.00     0.040 A 
ATOM     77  C   UNL A   1      39.119  26.908  28.830  1.00  0.00     0.040 A 
ATOM     78  F   UNL A   1      38.683  27.035  31.133  1.00  0.00    -0.206 F 
ATOM     79  C   UNL A   1      39.714  27.425  27.680  1.00  0.00     0.006 A 
ENDBRANCH  58  72
BRANCH  59  80
ATOM     80  C   UNL A   1      40.713  33.791  38.735  1.00  0.00     0.057 A 
ATOM     81  C   UNL A   1      41.545  34.911  38.853  1.00  0.00     0.134 A 
ATOM     82  C   UNL A   1      39.977  33.411  39.862  1.00  0.00     0.134 A 
ATOM     83  F   UNL A   1      42.279  35.323  37.808  1.00  0.00    -0.206 F 
ATOM     84  C   UNL A   1      41.650  35.621  40.048  1.00  0.00     0.040 A 
ATOM     85  C   UNL A   1      40.050  34.129  41.057  1.00  0.00     0.040 A 
ATOM     86  F   UNL A   1      39.146  32.360  39.805  1.00  0.00    -0.206 F 
ATOM     87  C   UNL A   1      40.893  35.236  41.153  1.00  0.00     0.006 A 
ENDBRANCH  59  80
BRANCH  71  88
ATOM     88  C   UNL A   1      44.555  28.812  35.793  1.00  0.00     0.057 A 
ATOM     89  C   UNL A   1      44.475  27.655  36.580  1.00  0.00     0.134 A 
ATOM     90  C   UNL A   1      45.831  29.275  35.451  1.00  0.00     0.134 A 
ATOM     91  F   UNL A   1      43.283  27.161  36.948  1.00  0.00    -0.206 F 
ATOM     92  C   UNL A   1      45.621  26.983  37.005  1.00  0.00     0.040 A 
ATOM     93  C   UNL A   1      46.984  28.597  35.848  1.00  0.00     0.040 A 
ATOM     94  F   UNL A   1      45.974  30.368  34.684  1.00  0.00    -0.206 F 
ATOM     95  C   UNL A   1      46.881  27.449  36.631  1.00  0.00     0.006 A 
ENDBRANCH  71  88
ENDBRANCH  45  46
ENDBRANCH  37  40
ENDBRANCH  35  36
ENDBRANCH  34  35
ENDBRANCH   1  34
TORSDOF 16
ENDMDL
