MODEL 1
REMARK VINA RESULT:     -12.6      0.000      0.000
REMARK SMILES C[C@H]1OCC[C@@H]1C(=O)Nc1sc2c(c1C(=O)NCCCCNC(=O)c1ccc(-c3c4nc(c(-c5c(F)cccc5F)c5ccc([nH]5)c(-c5c(F)cccc5F)c5nc(c(-c6c(F)cccc6F)c6ccc3[nH]6)C=C5)C=C4)cc1)CCC2
REMARK SMILES IDX 19 1 18 2 17 3 15 4 16 5 14 7 10 8 11 9 12 10 13 11 81 12
REMARK SMILES IDX 79 13 80 14 9 15 7 16 8 17 6 19 1 20 2 21 3 22 4 23 5 24
REMARK SMILES IDX 20 25 21 26 22 27 23 28 24 30 25 31 26 32 78 33 27 34 77 35
REMARK SMILES IDX 28 36 29 37 30 38 71 39 31 40 76 41 70 42 72 43 32 44 75 45
REMARK SMILES IDX 69 46 68 47 33 49 59 50 42 51 58 52 43 53 46 54 57 55 73 56
REMARK SMILES IDX 44 57 45 58 56 60 74 61 47 62 34 63 35 64 40 65 36 66 37 67
REMARK SMILES IDX 39 68 41 69 38 70 60 71 61 72 66 73 62 74 63 75 65 76 67 77
REMARK SMILES IDX 64 78 48 79 49 80 54 81 50 82 51 83 53 84 55 85 52 86
REMARK H PARENT 17 6 9 18 22 29 72 48 46 59
REMARK Flexibility Score: inf
ROOT
ATOM      1  C   UNL A   1      31.494  30.463  26.284  1.00  0.00     0.023 C 
ENDROOT
BRANCH   1   2
ATOM      2  C   UNL A   1      32.805  29.779  26.675  1.00  0.00     0.116 C 
BRANCH   2   3
ATOM      3  N   UNL A   1      33.677  29.410  25.590  1.00  0.00    -0.352 N 
ATOM      4  C   UNL A   1      33.507  28.635  24.471  1.00  0.00     0.254 C 
ATOM      5  O   UNL A   1      34.275  28.923  23.546  1.00  0.00    -0.269 OA
ATOM      6  H   UNL A   1      34.581  29.793  25.666  1.00  0.00     0.163 HD
BRANCH   4   7
ATOM      7  C   UNL A   1      32.545  27.535  24.326  1.00  0.00     0.078 A 
ATOM      8  C   UNL A   1      31.508  27.635  23.385  1.00  0.00     0.108 A 
ATOM      9  S   UNL A   1      30.181  26.592  23.698  1.00  0.00    -0.122 S 
ATOM     10  C   UNL A   1      31.085  25.784  24.832  1.00  0.00     0.011 A 
ATOM     11  C   UNL A   1      32.325  26.324  25.075  1.00  0.00    -0.019 A 
ATOM     12  C   UNL A   1      30.720  24.623  25.678  1.00  0.00     0.047 C 
ATOM     13  C   UNL A   1      32.972  25.529  26.159  1.00  0.00     0.038 C 
ATOM     14  C   UNL A   1      32.104  24.241  26.245  1.00  0.00     0.010 C 
BRANCH   8  15
ATOM     15  N   UNL A   1      31.207  28.491  22.353  1.00  0.00    -0.317 N 
ATOM     16  C   UNL A   1      30.157  29.332  22.164  1.00  0.00     0.230 C 
ATOM     17  O   UNL A   1      30.162  29.979  21.104  1.00  0.00    -0.274 OA
ATOM     18  H   UNL A   1      31.868  28.496  21.624  1.00  0.00     0.170 HD
BRANCH  16  19
ATOM     19  C   UNL A   1      29.057  29.645  23.172  1.00  0.00     0.110 C 
ATOM     20  C   UNL A   1      26.846  28.497  23.616  1.00  0.00     0.039 C 
ATOM     21  C   UNL A   1      27.640  29.400  22.671  1.00  0.00     0.127 C 
ATOM     22  O   UNL A   1      27.002  30.687  22.627  1.00  0.00    -0.378 OA
ATOM     23  C   UNL A   1      27.634  31.516  23.602  1.00  0.00     0.161 C 
ATOM     24  C   UNL A   1      29.055  31.034  23.758  1.00  0.00     0.044 C 
ENDBRANCH  16  19
ENDBRANCH   8  15
ENDBRANCH   4   7
ENDBRANCH   2   3
ENDBRANCH   1   2
BRANCH   1  25
ATOM     25  C   UNL A   1      31.413  31.978  26.527  1.00  0.00     0.023 C 
BRANCH  25  26
ATOM     26  C   UNL A   1      32.605  32.586  27.265  1.00  0.00     0.116 C 
BRANCH  26  27
ATOM     27  N   UNL A   1      32.409  33.992  27.655  1.00  0.00    -0.352 N 
ATOM     28  C   UNL A   1      33.007  34.703  28.690  1.00  0.00     0.251 C 
ATOM     29  H   UNL A   1      31.765  34.498  27.108  1.00  0.00     0.163 HD
ATOM     30  O   UNL A   1      32.533  35.738  29.123  1.00  0.00    -0.269 OA
BRANCH  28  31
ATOM     31  C   UNL A   1      34.280  34.188  29.216  1.00  0.00     0.039 A 
ATOM     32  C   UNL A   1      34.423  33.527  30.439  1.00  0.00     0.014 A 
ATOM     33  C   UNL A   1      35.351  34.328  28.352  1.00  0.00     0.014 A 
ATOM     34  C   UNL A   1      35.657  32.946  30.734  1.00  0.00     0.010 A 
ATOM     35  C   UNL A   1      36.422  33.509  28.499  1.00  0.00     0.010 A 
ATOM     36  C   UNL A   1      36.645  32.943  29.744  1.00  0.00    -0.014 A 
BRANCH  36  37
ATOM     37  C   UNL A   1      37.970  32.373  29.909  1.00  0.00     0.031 A 
ATOM     38  C   UNL A   1      38.147  30.994  29.386  1.00  0.00     0.074 A 
ATOM     39  C   UNL A   1      39.006  33.195  30.196  1.00  0.00     0.049 A 
ATOM     40  N   UNL A   1      38.477  29.936  30.048  1.00  0.00    -0.248 NA
ATOM     41  C   UNL A   1      37.797  30.725  27.981  1.00  0.00     0.031 C 
ATOM     42  C   UNL A   1      39.002  34.658  30.386  1.00  0.00     0.029 A 
ATOM     43  N   UNL A   1      40.330  32.905  30.226  1.00  0.00    -0.354 N 
ATOM     44  C   UNL A   1      38.561  28.902  29.117  1.00  0.00     0.074 A 
ATOM     45  C   UNL A   1      37.959  29.402  27.910  1.00  0.00     0.031 C 
ATOM     46  C   UNL A   1      40.256  35.140  30.263  1.00  0.00     0.029 A 
ATOM     47  C   UNL A   1      41.165  34.017  30.171  1.00  0.00     0.049 A 
ATOM     48  H   UNL A   1      40.671  31.984  30.284  1.00  0.00     0.167 HD
ATOM     49  C   UNL A   1      39.310  27.789  29.358  1.00  0.00     0.037 A 
ATOM     50  C   UNL A   1      42.509  33.980  29.999  1.00  0.00     0.037 A 
ATOM     51  C   UNL A   1      39.709  27.729  30.742  1.00  0.00     0.049 A 
ATOM     52  C   UNL A   1      42.944  32.604  30.372  1.00  0.00     0.074 A 
ATOM     53  C   UNL A   1      39.022  27.633  31.937  1.00  0.00     0.029 A 
ATOM     54  N   UNL A   1      40.962  28.194  31.065  1.00  0.00    -0.354 N 
ATOM     55  N   UNL A   1      42.840  32.126  31.585  1.00  0.00    -0.248 NA
ATOM     56  C   UNL A   1      42.985  31.607  29.311  1.00  0.00     0.031 C 
ATOM     57  C   UNL A   1      39.707  28.519  32.819  1.00  0.00     0.029 A 
ATOM     58  C   UNL A   1      40.818  29.030  32.145  1.00  0.00     0.049 A 
ATOM     59  H   UNL A   1      41.805  27.968  30.608  1.00  0.00     0.167 HD
ATOM     60  C   UNL A   1      42.393  30.820  31.422  1.00  0.00     0.074 A 
ATOM     61  C   UNL A   1      42.554  30.540  29.994  1.00  0.00     0.031 C 
ATOM     62  C   UNL A   1      41.646  30.193  32.381  1.00  0.00     0.037 A 
BRANCH  49  63
ATOM     63  C   UNL A   1      39.961  26.924  28.310  1.00  0.00     0.057 A 
ATOM     64  C   UNL A   1      40.821  27.518  27.367  1.00  0.00     0.134 A 
ATOM     65  C   UNL A   1      39.578  25.601  28.018  1.00  0.00     0.134 A 
ATOM     66  F   UNL A   1      41.258  28.776  27.529  1.00  0.00    -0.206 F 
ATOM     67  C   UNL A   1      41.205  26.871  26.187  1.00  0.00     0.040 A 
ATOM     68  C   UNL A   1      39.997  24.927  26.867  1.00  0.00     0.040 A 
ATOM     69  F   UNL A   1      38.703  24.925  28.771  1.00  0.00    -0.206 F 
ATOM     70  C   UNL A   1      40.786  25.574  25.929  1.00  0.00     0.006 A 
ENDBRANCH  49  63
BRANCH  50  71
ATOM     71  C   UNL A   1      43.334  34.917  29.200  1.00  0.00     0.057 A 
ATOM     72  C   UNL A   1      44.639  35.255  29.580  1.00  0.00     0.134 A 
ATOM     73  C   UNL A   1      42.952  35.312  27.902  1.00  0.00     0.134 A 
ATOM     74  F   UNL A   1      45.111  34.887  30.781  1.00  0.00    -0.206 F 
ATOM     75  C   UNL A   1      45.516  35.932  28.719  1.00  0.00     0.040 A 
ATOM     76  C   UNL A   1      43.815  35.991  27.034  1.00  0.00     0.040 A 
ATOM     77  F   UNL A   1      41.755  34.975  27.399  1.00  0.00    -0.206 F 
ATOM     78  C   UNL A   1      45.108  36.293  27.438  1.00  0.00     0.006 A 
ENDBRANCH  50  71
BRANCH  62  79
ATOM     79  C   UNL A   1      41.457  30.880  33.711  1.00  0.00     0.057 A 
ATOM     80  C   UNL A   1      40.357  31.693  34.027  1.00  0.00     0.134 A 
ATOM     81  C   UNL A   1      42.299  30.535  34.773  1.00  0.00     0.134 A 
ATOM     82  F   UNL A   1      39.435  31.997  33.111  1.00  0.00    -0.206 F 
ATOM     83  C   UNL A   1      40.123  32.165  35.323  1.00  0.00     0.040 A 
ATOM     84  C   UNL A   1      42.061  30.971  36.079  1.00  0.00     0.040 A 
ATOM     85  F   UNL A   1      43.337  29.708  34.568  1.00  0.00    -0.206 F 
ATOM     86  C   UNL A   1      40.972  31.795  36.358  1.00  0.00     0.006 A 
ENDBRANCH  62  79
ENDBRANCH  36  37
ENDBRANCH  28  31
ENDBRANCH  26  27
ENDBRANCH  25  26
ENDBRANCH   1  25
TORSDOF 13
ENDMDL
MODEL 2
REMARK VINA RESULT:     -12.3      3.156      7.423
REMARK SMILES C[C@H]1OCC[C@@H]1C(=O)Nc1sc2c(c1C(=O)NCCCCNC(=O)c1ccc(-c3c4nc(c(-c5c(F)cccc5F)c5ccc([nH]5)c(-c5c(F)cccc5F)c5nc(c(-c6c(F)cccc6F)c6ccc3[nH]6)C=C5)C=C4)cc1)CCC2
REMARK SMILES IDX 19 1 18 2 17 3 15 4 16 5 14 7 10 8 11 9 12 10 13 11 81 12
REMARK SMILES IDX 79 13 80 14 9 15 7 16 8 17 6 19 1 20 2 21 3 22 4 23 5 24
REMARK SMILES IDX 20 25 21 26 22 27 23 28 24 30 25 31 26 32 78 33 27 34 77 35
REMARK SMILES IDX 28 36 29 37 30 38 71 39 31 40 76 41 70 42 72 43 32 44 75 45
REMARK SMILES IDX 69 46 68 47 33 49 59 50 42 51 58 52 43 53 46 54 57 55 73 56
REMARK SMILES IDX 44 57 45 58 56 60 74 61 47 62 34 63 35 64 40 65 36 66 37 67
REMARK SMILES IDX 39 68 41 69 38 70 60 71 61 72 66 73 62 74 63 75 65 76 67 77
REMARK SMILES IDX 64 78 48 79 49 80 54 81 50 82 51 83 53 84 55 85 52 86
REMARK H PARENT 17 6 9 18 22 29 72 48 46 59
REMARK Flexibility Score: inf
ROOT
ATOM      1  C   UNL A   1      35.106  29.792  27.117  1.00  0.00     0.023 C 
ENDROOT
BRANCH   1   2
ATOM      2  C   UNL A   1      34.196  28.590  26.859  1.00  0.00     0.116 C 
BRANCH   2   3
ATOM      3  N   UNL A   1      32.905  28.623  27.497  1.00  0.00    -0.352 N 
ATOM      4  C   UNL A   1      31.727  27.959  27.267  1.00  0.00     0.254 C 
ATOM      5  O   UNL A   1      31.004  27.870  28.266  1.00  0.00    -0.269 OA
ATOM      6  H   UNL A   1      32.859  29.250  28.254  1.00  0.00     0.163 HD
BRANCH   4   7
ATOM      7  C   UNL A   1      31.289  27.408  25.979  1.00  0.00     0.078 A 
ATOM      8  C   UNL A   1      31.092  26.024  25.843  1.00  0.00     0.108 A 
ATOM      9  S   UNL A   1      31.137  25.470  24.219  1.00  0.00    -0.122 S 
ATOM     10  C   UNL A   1      31.070  27.040  23.683  1.00  0.00     0.011 A 
ATOM     11  C   UNL A   1      31.119  27.992  24.672  1.00  0.00    -0.019 A 
ATOM     12  C   UNL A   1      31.050  27.565  22.296  1.00  0.00     0.047 C 
ATOM     13  C   UNL A   1      31.119  29.335  24.024  1.00  0.00     0.038 C 
ATOM     14  C   UNL A   1      30.686  29.042  22.558  1.00  0.00     0.010 C 
BRANCH   8  15
ATOM     15  N   UNL A   1      31.038  24.958  26.708  1.00  0.00    -0.317 N 
ATOM     16  C   UNL A   1      31.770  23.815  26.769  1.00  0.00     0.230 C 
ATOM     17  O   UNL A   1      31.468  23.024  27.677  1.00  0.00    -0.274 OA
ATOM     18  H   UNL A   1      30.348  25.036  27.406  1.00  0.00     0.170 HD
BRANCH  16  19
ATOM     19  C   UNL A   1      32.991  23.478  25.919  1.00  0.00     0.110 C 
ATOM     20  C   UNL A   1      33.215  22.057  23.839  1.00  0.00     0.039 C 
ATOM     21  C   UNL A   1      33.007  22.065  25.355  1.00  0.00     0.127 C 
ATOM     22  O   UNL A   1      34.121  21.399  25.971  1.00  0.00    -0.378 OA
ATOM     23  C   UNL A   1      35.084  22.395  26.315  1.00  0.00     0.161 C 
ATOM     24  C   UNL A   1      34.337  23.683  26.565  1.00  0.00     0.044 C 
ENDBRANCH  16  19
ENDBRANCH   8  15
ENDBRANCH   4   7
ENDBRANCH   2   3
ENDBRANCH   1   2
BRANCH   1  25
ATOM     25  C   UNL A   1      34.415  31.092  27.562  1.00  0.00     0.023 C 
BRANCH  25  26
ATOM     26  C   UNL A   1      35.352  32.196  28.050  1.00  0.00     0.116 C 
BRANCH  26  27
ATOM     27  N   UNL A   1      35.018  32.708  29.389  1.00  0.00    -0.352 N 
ATOM     28  C   UNL A   1      35.339  32.174  30.633  1.00  0.00     0.251 C 
ATOM     29  H   UNL A   1      34.497  33.543  29.407  1.00  0.00     0.163 HD
ATOM     30  O   UNL A   1      34.740  32.488  31.646  1.00  0.00    -0.269 OA
BRANCH  28  31
ATOM     31  C   UNL A   1      36.479  31.247  30.697  1.00  0.00     0.039 A 
ATOM     32  C   UNL A   1      36.377  29.858  30.584  1.00  0.00     0.014 A 
ATOM     33  C   UNL A   1      37.711  31.866  30.793  1.00  0.00     0.014 A 
ATOM     34  C   UNL A   1      37.556  29.115  30.495  1.00  0.00     0.010 A 
ATOM     35  C   UNL A   1      38.817  31.189  30.394  1.00  0.00     0.010 A 
ATOM     36  C   UNL A   1      38.770  29.804  30.396  1.00  0.00    -0.014 A 
BRANCH  36  37
ATOM     37  C   UNL A   1      40.069  29.164  30.294  1.00  0.00     0.031 A 
ATOM     38  C   UNL A   1      40.778  28.936  31.579  1.00  0.00     0.074 A 
ATOM     39  C   UNL A   1      40.398  28.531  29.143  1.00  0.00     0.049 A 
ATOM     40  N   UNL A   1      41.923  29.408  31.941  1.00  0.00    -0.248 NA
ATOM     41  C   UNL A   1      40.081  28.196  32.644  1.00  0.00     0.031 C 
ATOM     42  C   UNL A   1      39.607  28.387  27.906  1.00  0.00     0.029 A 
ATOM     43  N   UNL A   1      41.470  27.740  28.893  1.00  0.00    -0.354 N 
ATOM     44  C   UNL A   1      42.183  28.877  33.203  1.00  0.00     0.074 A 
ATOM     45  C   UNL A   1      40.947  28.296  33.654  1.00  0.00     0.031 C 
ATOM     46  C   UNL A   1      40.104  27.379  27.159  1.00  0.00     0.029 A 
ATOM     47  C   UNL A   1      41.340  26.933  27.765  1.00  0.00     0.049 A 
ATOM     48  H   UNL A   1      42.273  27.737  29.461  1.00  0.00     0.167 HD
ATOM     49  C   UNL A   1      43.455  28.777  33.684  1.00  0.00     0.037 A 
ATOM     50  C   UNL A   1      42.184  25.932  27.417  1.00  0.00     0.037 A 
ATOM     51  C   UNL A   1      44.372  29.534  32.868  1.00  0.00     0.049 A 
ATOM     52  C   UNL A   1      43.461  26.186  28.142  1.00  0.00     0.074 A 
ATOM     53  C   UNL A   1      44.501  30.874  32.557  1.00  0.00     0.029 A 
ATOM     54  N   UNL A   1      45.076  28.854  31.902  1.00  0.00    -0.354 N 
ATOM     55  N   UNL A   1      44.216  27.231  27.917  1.00  0.00    -0.248 NA
ATOM     56  C   UNL A   1      43.614  25.582  29.458  1.00  0.00     0.031 C 
ATOM     57  C   UNL A   1      44.822  30.892  31.168  1.00  0.00     0.029 A 
ATOM     58  C   UNL A   1      44.960  29.572  30.737  1.00  0.00     0.049 A 
ATOM     59  H   UNL A   1      45.571  28.011  32.023  1.00  0.00     0.167 HD
ATOM     60  C   UNL A   1      44.624  27.661  29.174  1.00  0.00     0.074 A 
ATOM     61  C   UNL A   1      44.265  26.570  30.082  1.00  0.00     0.031 C 
ATOM     62  C   UNL A   1      44.924  28.973  29.420  1.00  0.00     0.037 A 
BRANCH  49  63
ATOM     63  C   UNL A   1      43.942  27.755  34.678  1.00  0.00     0.057 A 
ATOM     64  C   UNL A   1      44.529  28.193  35.881  1.00  0.00     0.134 A 
ATOM     65  C   UNL A   1      44.108  26.386  34.397  1.00  0.00     0.134 A 
ATOM     66  F   UNL A   1      44.443  29.476  36.263  1.00  0.00    -0.206 F 
ATOM     67  C   UNL A   1      45.288  27.348  36.699  1.00  0.00     0.040 A 
ATOM     68  C   UNL A   1      44.822  25.522  35.233  1.00  0.00     0.040 A 
ATOM     69  F   UNL A   1      43.681  25.830  33.258  1.00  0.00    -0.206 F 
ATOM     70  C   UNL A   1      45.444  26.008  36.372  1.00  0.00     0.006 A 
ENDBRANCH  49  63
BRANCH  50  71
ATOM     71  C   UNL A   1      41.822  24.625  26.818  1.00  0.00     0.057 A 
ATOM     72  C   UNL A   1      42.643  23.998  25.873  1.00  0.00     0.134 A 
ATOM     73  C   UNL A   1      40.781  23.836  27.348  1.00  0.00     0.134 A 
ATOM     74  F   UNL A   1      43.686  24.652  25.341  1.00  0.00    -0.206 F 
ATOM     75  C   UNL A   1      42.450  22.663  25.486  1.00  0.00     0.040 A 
ATOM     76  C   UNL A   1      40.575  22.505  26.967  1.00  0.00     0.040 A 
ATOM     77  F   UNL A   1      39.980  24.304  28.317  1.00  0.00    -0.206 F 
ATOM     78  C   UNL A   1      41.419  21.910  26.041  1.00  0.00     0.006 A 
ENDBRANCH  50  71
BRANCH  62  79
ATOM     79  C   UNL A   1      44.979  29.930  28.256  1.00  0.00     0.057 A 
ATOM     80  C   UNL A   1      43.905  30.742  27.854  1.00  0.00     0.134 A 
ATOM     81  C   UNL A   1      46.215  30.199  27.661  1.00  0.00     0.134 A 
ATOM     82  F   UNL A   1      42.706  30.640  28.432  1.00  0.00    -0.206 F 
ATOM     83  C   UNL A   1      44.045  31.746  26.890  1.00  0.00     0.040 A 
ATOM     84  C   UNL A   1      46.379  31.219  26.720  1.00  0.00     0.040 A 
ATOM     85  F   UNL A   1      47.306  29.512  28.037  1.00  0.00    -0.206 F 
ATOM     86  C   UNL A   1      45.290  31.994  26.326  1.00  0.00     0.006 A 
ENDBRANCH  62  79
ENDBRANCH  36  37
ENDBRANCH  28  31
ENDBRANCH  26  27
ENDBRANCH  25  26
ENDBRANCH   1  25
TORSDOF 13
ENDMDL
MODEL 3
REMARK VINA RESULT:     -12.3      2.927      6.764
REMARK SMILES C[C@H]1OCC[C@@H]1C(=O)Nc1sc2c(c1C(=O)NCCCCNC(=O)c1ccc(-c3c4nc(c(-c5c(F)cccc5F)c5ccc([nH]5)c(-c5c(F)cccc5F)c5nc(c(-c6c(F)cccc6F)c6ccc3[nH]6)C=C5)C=C4)cc1)CCC2
REMARK SMILES IDX 19 1 18 2 17 3 15 4 16 5 14 7 10 8 11 9 12 10 13 11 81 12
REMARK SMILES IDX 79 13 80 14 9 15 7 16 8 17 6 19 1 20 2 21 3 22 4 23 5 24
REMARK SMILES IDX 20 25 21 26 22 27 23 28 24 30 25 31 26 32 78 33 27 34 77 35
REMARK SMILES IDX 28 36 29 37 30 38 71 39 31 40 76 41 70 42 72 43 32 44 75 45
REMARK SMILES IDX 69 46 68 47 33 49 59 50 42 51 58 52 43 53 46 54 57 55 73 56
REMARK SMILES IDX 44 57 45 58 56 60 74 61 47 62 34 63 35 64 40 65 36 66 37 67
REMARK SMILES IDX 39 68 41 69 38 70 60 71 61 72 66 73 62 74 63 75 65 76 67 77
REMARK SMILES IDX 64 78 48 79 49 80 54 81 50 82 51 83 53 84 55 85 52 86
REMARK H PARENT 17 6 9 18 22 29 72 48 46 59
REMARK Flexibility Score: inf
ROOT
ATOM      1  C   UNL A   1      34.583  28.992  27.244  1.00  0.00     0.023 C 
ENDROOT
BRANCH   1   2
ATOM      2  C   UNL A   1      33.904  28.042  26.256  1.00  0.00     0.116 C 
BRANCH   2   3
ATOM      3  N   UNL A   1      32.592  27.576  26.624  1.00  0.00    -0.352 N 
ATOM      4  C   UNL A   1      31.884  26.438  26.331  1.00  0.00     0.254 C 
ATOM      5  O   UNL A   1      31.026  26.156  27.176  1.00  0.00    -0.269 OA
ATOM      6  H   UNL A   1      32.103  28.202  27.205  1.00  0.00     0.163 HD
BRANCH   4   7
ATOM      7  C   UNL A   1      32.054  25.603  25.136  1.00  0.00     0.078 A 
ATOM      8  C   UNL A   1      30.931  25.235  24.377  1.00  0.00     0.108 A 
ATOM      9  S   UNL A   1      31.181  23.855  23.388  1.00  0.00    -0.122 S 
ATOM     10  C   UNL A   1      32.813  23.942  23.680  1.00  0.00     0.011 A 
ATOM     11  C   UNL A   1      33.188  24.909  24.581  1.00  0.00    -0.019 A 
ATOM     12  C   UNL A   1      33.910  23.080  23.179  1.00  0.00     0.047 C 
ATOM     13  C   UNL A   1      34.663  24.809  24.782  1.00  0.00     0.038 C 
ATOM     14  C   UNL A   1      35.139  23.913  23.603  1.00  0.00     0.010 C 
BRANCH   8  15
ATOM     15  N   UNL A   1      29.608  25.606  24.351  1.00  0.00    -0.317 N 
ATOM     16  C   UNL A   1      28.999  26.722  23.872  1.00  0.00     0.230 C 
ATOM     17  O   UNL A   1      27.766  26.770  24.009  1.00  0.00    -0.274 OA
ATOM     18  H   UNL A   1      28.994  24.947  24.749  1.00  0.00     0.170 HD
BRANCH  16  19
ATOM     19  C   UNL A   1      29.663  27.844  23.082  1.00  0.00     0.110 C 
ATOM     20  C   UNL A   1      32.014  28.773  23.187  1.00  0.00     0.039 C 
ATOM     21  C   UNL A   1      30.651  28.688  23.876  1.00  0.00     0.127 C 
ATOM     22  O   UNL A   1      30.089  30.009  23.940  1.00  0.00    -0.378 OA
ATOM     23  C   UNL A   1      29.258  30.182  22.793  1.00  0.00     0.161 C 
ATOM     24  C   UNL A   1      28.742  28.820  22.396  1.00  0.00     0.044 C 
ENDBRANCH  16  19
ENDBRANCH   8  15
ENDBRANCH   4   7
ENDBRANCH   2   3
ENDBRANCH   1   2
BRANCH   1  25
ATOM     25  C   UNL A   1      34.037  30.428  27.300  1.00  0.00     0.023 C 
BRANCH  25  26
ATOM     26  C   UNL A   1      35.068  31.506  27.632  1.00  0.00     0.116 C 
BRANCH  26  27
ATOM     27  N   UNL A   1      34.780  32.241  28.874  1.00  0.00    -0.352 N 
ATOM     28  C   UNL A   1      35.186  31.952  30.173  1.00  0.00     0.251 C 
ATOM     29  H   UNL A   1      34.224  33.047  28.772  1.00  0.00     0.163 HD
ATOM     30  O   UNL A   1      34.625  32.424  31.146  1.00  0.00    -0.269 OA
BRANCH  28  31
ATOM     31  C   UNL A   1      36.367  31.091  30.337  1.00  0.00     0.039 A 
ATOM     32  C   UNL A   1      36.323  29.698  30.440  1.00  0.00     0.014 A 
ATOM     33  C   UNL A   1      37.573  31.765  30.293  1.00  0.00     0.014 A 
ATOM     34  C   UNL A   1      37.530  28.998  30.423  1.00  0.00     0.010 A 
ATOM     35  C   UNL A   1      38.695  31.079  29.963  1.00  0.00     0.010 A 
ATOM     36  C   UNL A   1      38.709  29.709  30.178  1.00  0.00    -0.014 A 
BRANCH  36  37
ATOM     37  C   UNL A   1      40.032  29.113  30.127  1.00  0.00     0.031 A 
ATOM     38  C   UNL A   1      40.696  28.907  31.440  1.00  0.00     0.074 A 
ATOM     39  C   UNL A   1      40.428  28.493  28.991  1.00  0.00     0.049 A 
ATOM     40  N   UNL A   1      41.810  29.416  31.848  1.00  0.00    -0.248 NA
ATOM     41  C   UNL A   1      39.981  28.143  32.476  1.00  0.00     0.031 C 
ATOM     42  C   UNL A   1      39.692  28.325  27.724  1.00  0.00     0.029 A 
ATOM     43  N   UNL A   1      41.534  27.738  28.784  1.00  0.00    -0.354 N 
ATOM     44  C   UNL A   1      42.036  28.891  33.119  1.00  0.00     0.074 A 
ATOM     45  C   UNL A   1      40.802  28.270  33.521  1.00  0.00     0.031 C 
ATOM     46  C   UNL A   1      40.251  27.334  26.997  1.00  0.00     0.029 A 
ATOM     47  C   UNL A   1      41.476  26.928  27.652  1.00  0.00     0.049 A 
ATOM     48  H   UNL A   1      42.314  27.760  29.384  1.00  0.00     0.167 HD
ATOM     49  C   UNL A   1      43.290  28.833  33.651  1.00  0.00     0.037 A 
ATOM     50  C   UNL A   1      42.366  25.956  27.338  1.00  0.00     0.037 A 
ATOM     51  C   UNL A   1      44.214  29.620  32.873  1.00  0.00     0.049 A 
ATOM     52  C   UNL A   1      43.604  26.251  28.114  1.00  0.00     0.074 A 
ATOM     53  C   UNL A   1      44.311  30.964  32.567  1.00  0.00     0.029 A 
ATOM     54  N   UNL A   1      44.978  28.966  31.935  1.00  0.00    -0.354 N 
ATOM     55  N   UNL A   1      44.332  27.320  27.919  1.00  0.00    -0.248 NA
ATOM     56  C   UNL A   1      43.723  25.650  29.435  1.00  0.00     0.031 C 
ATOM     57  C   UNL A   1      44.686  30.995  31.192  1.00  0.00     0.029 A 
ATOM     58  C   UNL A   1      44.886  29.680  30.766  1.00  0.00     0.049 A 
ATOM     59  H   UNL A   1      45.495  28.139  32.077  1.00  0.00     0.167 HD
ATOM     60  C   UNL A   1      44.675  27.762  29.191  1.00  0.00     0.074 A 
ATOM     61  C   UNL A   1      44.316  26.658  30.084  1.00  0.00     0.031 C 
ATOM     62  C   UNL A   1      44.922  29.082  29.449  1.00  0.00     0.037 A 
BRANCH  49  63
ATOM     63  C   UNL A   1      43.770  27.826  34.664  1.00  0.00     0.057 A 
ATOM     64  C   UNL A   1      44.267  28.281  35.900  1.00  0.00     0.134 A 
ATOM     65  C   UNL A   1      44.018  26.470  34.383  1.00  0.00     0.134 A 
ATOM     66  F   UNL A   1      44.097  29.555  36.286  1.00  0.00    -0.206 F 
ATOM     67  C   UNL A   1      45.020  27.466  36.754  1.00  0.00     0.040 A 
ATOM     68  C   UNL A   1      44.725  25.633  35.252  1.00  0.00     0.040 A 
ATOM     69  F   UNL A   1      43.682  25.905  33.218  1.00  0.00    -0.206 F 
ATOM     70  C   UNL A   1      45.259  26.138  36.427  1.00  0.00     0.006 A 
ENDBRANCH  49  63
BRANCH  50  71
ATOM     71  C   UNL A   1      42.072  24.639  26.726  1.00  0.00     0.057 A 
ATOM     72  C   UNL A   1      42.900  24.084  25.741  1.00  0.00     0.134 A 
ATOM     73  C   UNL A   1      41.103  23.772  27.272  1.00  0.00     0.134 A 
ATOM     74  F   UNL A   1      43.879  24.816  25.190  1.00  0.00    -0.206 F 
ATOM     75  C   UNL A   1      42.783  22.746  25.335  1.00  0.00     0.040 A 
ATOM     76  C   UNL A   1      40.973  22.438  26.872  1.00  0.00     0.040 A 
ATOM     77  F   UNL A   1      40.306  24.168  28.276  1.00  0.00    -0.206 F 
ATOM     78  C   UNL A   1      41.824  21.917  25.908  1.00  0.00     0.006 A 
ENDBRANCH  50  71
BRANCH  62  79
ATOM     79  C   UNL A   1      44.992  30.043  28.288  1.00  0.00     0.057 A 
ATOM     80  C   UNL A   1      43.901  30.797  27.825  1.00  0.00     0.134 A 
ATOM     81  C   UNL A   1      46.244  30.377  27.764  1.00  0.00     0.134 A 
ATOM     82  F   UNL A   1      42.679  30.631  28.334  1.00  0.00    -0.206 F 
ATOM     83  C   UNL A   1      44.043  31.808  26.868  1.00  0.00     0.040 A 
ATOM     84  C   UNL A   1      46.407  31.406  26.832  1.00  0.00     0.040 A 
ATOM     85  F   UNL A   1      47.347  29.748  28.203  1.00  0.00    -0.206 F 
ATOM     86  C   UNL A   1      45.303  32.122  26.375  1.00  0.00     0.006 A 
ENDBRANCH  62  79
ENDBRANCH  36  37
ENDBRANCH  28  31
ENDBRANCH  26  27
ENDBRANCH  25  26
ENDBRANCH   1  25
TORSDOF 13
ENDMDL
