MODEL 1
REMARK VINA RESULT:     -14.3      0.000      0.000
REMARK SMILES C[C@]12C(=O)N(c3ccc(C(=O)NCCCCNC(=O)c4ccc(-c5c6nc(c(-c7c(F)cccc7F)c7ccc([nH]7)c(-c7c(F)cccc7F)c7nc(c(-c8c(F)cccc8F)c8ccc5[nH]8)C=C7)C=C6)cc4)cc3)C(=O)[C@@H]1[C@H]1c3ccccc3[C@@H]2c2ccccc21
REMARK SMILES IDX 15 1 14 2 13 3 12 4 10 5 11 6 9 8 6 9 7 10 75 11 8 12 74 13
REMARK SMILES IDX 5 14 1 15 2 16 3 17 78 18 86 19 4 20 76 21 79 22 85 23 87 24
REMARK SMILES IDX 77 25 80 26 92 27 84 28 88 29 81 30 91 31 83 32 89 33 82 34
REMARK SMILES IDX 90 35 16 36 17 37 18 38 19 40 20 41 21 42 73 43 22 44 72 45
REMARK SMILES IDX 23 46 24 47 25 48 66 49 26 50 71 51 65 52 67 53 27 54 70 55
REMARK SMILES IDX 64 56 63 57 28 59 54 60 37 61 53 62 38 63 41 64 52 65 68 66
REMARK SMILES IDX 39 67 40 68 51 70 69 71 42 72 29 73 30 74 35 75 31 76 32 77
REMARK SMILES IDX 34 78 36 79 33 80 55 81 56 82 61 83 57 84 58 85 60 86 62 87
REMARK SMILES IDX 59 88 43 89 44 90 49 91 45 92 46 93 48 94 50 95 47 96
REMARK H PARENT 12 7 17 39 67 58 41 69
REMARK Flexibility Score: inf
ROOT
ATOM      1  C   UNL A   1      31.431  32.156  26.962  1.00  0.00     0.023 C 
ENDROOT
BRANCH   1   2
ATOM      2  C   UNL A   1      31.031  31.376  25.715  1.00  0.00     0.023 C 
BRANCH   2   3
ATOM      3  C   UNL A   1      31.622  29.978  25.595  1.00  0.00     0.116 C 
BRANCH   3   4
ATOM      4  N   UNL A   1      32.985  29.892  26.085  1.00  0.00    -0.352 N 
ATOM      5  C   UNL A   1      33.883  28.860  25.996  1.00  0.00     0.251 C 
ATOM      6  O   UNL A   1      34.968  28.943  26.566  1.00  0.00    -0.269 OA
ATOM      7  H   UNL A   1      33.314  30.695  26.550  1.00  0.00     0.163 HD
BRANCH   5   8
ATOM      8  C   UNL A   1      33.542  27.633  25.244  1.00  0.00     0.039 A 
ATOM      9  C   UNL A   1      32.968  25.213  23.894  1.00  0.00     0.052 A 
ATOM     10  C   UNL A   1      32.778  25.341  25.283  1.00  0.00     0.027 A 
ATOM     11  C   UNL A   1      33.399  26.352  23.191  1.00  0.00     0.027 A 
ATOM     12  C   UNL A   1      33.074  26.533  25.954  1.00  0.00     0.016 A 
ATOM     13  C   UNL A   1      33.730  27.533  23.866  1.00  0.00     0.016 A 
BRANCH   9  14
ATOM     14  N   UNL A   1      33.014  23.922  23.261  1.00  0.00    -0.250 N 
ATOM     15  C   UNL A   1      32.442  21.000  22.167  1.00  0.00     0.024 C 
ATOM     16  C   UNL A   1      32.581  21.641  23.568  1.00  0.00     0.071 C 
ATOM     17  C   UNL A   1      31.964  23.013  23.457  1.00  0.00     0.241 C 
ATOM     18  C   UNL A   1      34.025  22.031  23.931  1.00  0.00     0.107 C 
ATOM     19  C   UNL A   1      32.071  20.744  24.742  1.00  0.00     0.066 C 
ATOM     20  O   UNL A   1      30.757  23.204  23.506  1.00  0.00    -0.273 OA
ATOM     21  C   UNL A   1      34.251  23.236  23.073  1.00  0.00     0.238 C 
ATOM     22  C   UNL A   1      34.735  20.967  24.801  1.00  0.00     0.063 C 
ATOM     23  C   UNL A   1      32.613  21.310  26.079  1.00  0.00    -0.036 A 
ATOM     24  C   UNL A   1      32.815  19.415  24.549  1.00  0.00    -0.036 A 
ATOM     25  O   UNL A   1      35.264  23.569  22.520  1.00  0.00    -0.274 OA
ATOM     26  C   UNL A   1      34.053  21.310  26.179  1.00  0.00    -0.036 A 
ATOM     27  C   UNL A   1      34.235  19.552  24.514  1.00  0.00    -0.036 A 
ATOM     28  C   UNL A   1      31.854  21.982  27.025  1.00  0.00     0.005 A 
ATOM     29  C   UNL A   1      32.210  18.169  24.471  1.00  0.00     0.005 A 
ATOM     30  C   UNL A   1      34.703  21.943  27.231  1.00  0.00     0.004 A 
ATOM     31  C   UNL A   1      35.036  18.423  24.410  1.00  0.00     0.004 A 
ATOM     32  C   UNL A   1      32.518  22.637  28.066  1.00  0.00     0.000 A 
ATOM     33  C   UNL A   1      33.024  17.043  24.365  1.00  0.00     0.000 A 
ATOM     34  C   UNL A   1      33.922  22.610  28.174  1.00  0.00     0.000 A 
ATOM     35  C   UNL A   1      34.422  17.168  24.335  1.00  0.00     0.000 A 
ENDBRANCH   9  14
ENDBRANCH   5   8
ENDBRANCH   3   4
ENDBRANCH   2   3
ENDBRANCH   1   2
BRANCH   1  36
ATOM     36  C   UNL A   1      32.396  33.316  26.745  1.00  0.00     0.116 C 
BRANCH  36  37
ATOM     37  N   UNL A   1      32.391  34.308  27.812  1.00  0.00    -0.352 N 
ATOM     38  C   UNL A   1      33.308  34.524  28.814  1.00  0.00     0.251 C 
ATOM     39  H   UNL A   1      31.614  34.914  27.818  1.00  0.00     0.163 HD
ATOM     40  O   UNL A   1      33.122  35.404  29.648  1.00  0.00    -0.269 OA
BRANCH  38  41
ATOM     41  C   UNL A   1      34.480  33.633  28.922  1.00  0.00     0.039 A 
ATOM     42  C   UNL A   1      34.323  32.276  29.211  1.00  0.00     0.014 A 
ATOM     43  C   UNL A   1      35.753  34.202  28.846  1.00  0.00     0.014 A 
ATOM     44  C   UNL A   1      35.424  31.541  29.639  1.00  0.00     0.010 A 
ATOM     45  C   UNL A   1      36.866  33.440  29.199  1.00  0.00     0.010 A 
ATOM     46  C   UNL A   1      36.698  32.129  29.675  1.00  0.00    -0.014 A 
BRANCH  46  47
ATOM     47  C   UNL A   1      37.827  31.409  30.314  1.00  0.00     0.031 A 
ATOM     48  C   UNL A   1      38.128  31.629  31.775  1.00  0.00     0.074 A 
ATOM     49  C   UNL A   1      38.547  30.518  29.608  1.00  0.00     0.049 A 
ATOM     50  N   UNL A   1      39.105  31.148  32.502  1.00  0.00    -0.248 NA
ATOM     51  C   UNL A   1      37.208  32.508  32.518  1.00  0.00     0.031 C 
ATOM     52  C   UNL A   1      38.328  30.180  28.202  1.00  0.00     0.029 A 
ATOM     53  N   UNL A   1      39.595  29.721  29.987  1.00  0.00    -0.354 N 
ATOM     54  C   UNL A   1      38.939  31.690  33.771  1.00  0.00     0.074 A 
ATOM     55  C   UNL A   1      37.775  32.548  33.715  1.00  0.00     0.031 C 
ATOM     56  C   UNL A   1      39.191  29.216  27.846  1.00  0.00     0.029 A 
ATOM     57  C   UNL A   1      40.059  28.914  28.980  1.00  0.00     0.049 A 
ATOM     58  H   UNL A   1      39.979  29.728  30.894  1.00  0.00     0.167 HD
ATOM     59  C   UNL A   1      39.683  31.488  34.884  1.00  0.00     0.037 A 
ATOM     60  C   UNL A   1      41.083  28.040  28.967  1.00  0.00     0.037 A 
ATOM     61  C   UNL A   1      40.816  30.606  34.954  1.00  0.00     0.049 A 
ATOM     62  C   UNL A   1      41.917  27.862  30.202  1.00  0.00     0.074 A 
ATOM     63  C   UNL A   1      41.635  30.333  36.036  1.00  0.00     0.029 A 
ATOM     64  N   UNL A   1      41.281  29.838  33.897  1.00  0.00    -0.354 N 
ATOM     65  N   UNL A   1      41.775  28.416  31.382  1.00  0.00    -0.248 NA
ATOM     66  C   UNL A   1      43.064  26.950  30.098  1.00  0.00     0.031 C 
ATOM     67  C   UNL A   1      42.608  29.413  35.627  1.00  0.00     0.029 A 
ATOM     68  C   UNL A   1      42.378  29.096  34.299  1.00  0.00     0.049 A 
ATOM     69  H   UNL A   1      40.889  29.824  32.994  1.00  0.00     0.167 HD
ATOM     70  C   UNL A   1      42.805  27.911  32.163  1.00  0.00     0.074 A 
ATOM     71  C   UNL A   1      43.555  26.996  31.328  1.00  0.00     0.031 C 
ATOM     72  C   UNL A   1      43.105  28.186  33.455  1.00  0.00     0.037 A 
BRANCH  59  73
ATOM     73  C   UNL A   1      39.302  32.251  36.116  1.00  0.00     0.057 A 
ATOM     74  C   UNL A   1      38.352  31.736  37.007  1.00  0.00     0.134 A 
ATOM     75  C   UNL A   1      39.853  33.505  36.409  1.00  0.00     0.134 A 
ATOM     76  F   UNL A   1      37.787  30.540  36.783  1.00  0.00    -0.206 F 
ATOM     77  C   UNL A   1      37.961  32.443  38.146  1.00  0.00     0.040 A 
ATOM     78  C   UNL A   1      39.483  34.213  37.554  1.00  0.00     0.040 A 
ATOM     79  F   UNL A   1      40.780  34.044  35.604  1.00  0.00    -0.206 F 
ATOM     80  C   UNL A   1      38.530  33.684  38.423  1.00  0.00     0.006 A 
ENDBRANCH  59  73
BRANCH  60  81
ATOM     81  C   UNL A   1      41.386  27.279  27.732  1.00  0.00     0.057 A 
ATOM     82  C   UNL A   1      40.877  25.992  27.527  1.00  0.00     0.134 A 
ATOM     83  C   UNL A   1      42.195  27.826  26.730  1.00  0.00     0.134 A 
ATOM     84  F   UNL A   1      40.099  25.416  28.454  1.00  0.00    -0.206 F 
ATOM     85  C   UNL A   1      41.172  25.267  26.372  1.00  0.00     0.040 A 
ATOM     86  C   UNL A   1      42.481  27.121  25.561  1.00  0.00     0.040 A 
ATOM     87  F   UNL A   1      42.693  29.064  26.866  1.00  0.00    -0.206 F 
ATOM     88  C   UNL A   1      41.972  25.835  25.382  1.00  0.00     0.006 A 
ENDBRANCH  60  81
BRANCH  72  89
ATOM     89  C   UNL A   1      44.278  27.467  34.046  1.00  0.00     0.057 A 
ATOM     90  C   UNL A   1      45.559  28.027  33.992  1.00  0.00     0.134 A 
ATOM     91  C   UNL A   1      44.139  26.209  34.645  1.00  0.00     0.134 A 
ATOM     92  F   UNL A   1      45.754  29.228  33.427  1.00  0.00    -0.206 F 
ATOM     93  C   UNL A   1      46.667  27.359  34.514  1.00  0.00     0.040 A 
ATOM     94  C   UNL A   1      45.236  25.539  35.186  1.00  0.00     0.040 A 
ATOM     95  F   UNL A   1      42.932  25.631  34.739  1.00  0.00    -0.206 F 
ATOM     96  C   UNL A   1      46.506  26.111  35.116  1.00  0.00     0.006 A 
ENDBRANCH  72  89
ENDBRANCH  46  47
ENDBRANCH  38  41
ENDBRANCH  36  37
ENDBRANCH   1  36
TORSDOF 12
ENDMDL
MODEL 2
REMARK VINA RESULT:     -14.2      4.193      9.962
REMARK SMILES C[C@]12C(=O)N(c3ccc(C(=O)NCCCCNC(=O)c4ccc(-c5c6nc(c(-c7c(F)cccc7F)c7ccc([nH]7)c(-c7c(F)cccc7F)c7nc(c(-c8c(F)cccc8F)c8ccc5[nH]8)C=C7)C=C6)cc4)cc3)C(=O)[C@@H]1[C@H]1c3ccccc3[C@@H]2c2ccccc21
REMARK SMILES IDX 15 1 14 2 13 3 12 4 10 5 11 6 9 8 6 9 7 10 75 11 8 12 74 13
REMARK SMILES IDX 5 14 1 15 2 16 3 17 78 18 86 19 4 20 76 21 79 22 85 23 87 24
REMARK SMILES IDX 77 25 80 26 92 27 84 28 88 29 81 30 91 31 83 32 89 33 82 34
REMARK SMILES IDX 90 35 16 36 17 37 18 38 19 40 20 41 21 42 73 43 22 44 72 45
REMARK SMILES IDX 23 46 24 47 25 48 66 49 26 50 71 51 65 52 67 53 27 54 70 55
REMARK SMILES IDX 64 56 63 57 28 59 54 60 37 61 53 62 38 63 41 64 52 65 68 66
REMARK SMILES IDX 39 67 40 68 51 70 69 71 42 72 29 73 30 74 35 75 31 76 32 77
REMARK SMILES IDX 34 78 36 79 33 80 55 81 56 82 61 83 57 84 58 85 60 86 62 87
REMARK SMILES IDX 59 88 43 89 44 90 49 91 45 92 46 93 48 94 50 95 47 96
REMARK H PARENT 12 7 17 39 67 58 41 69
REMARK Flexibility Score: inf
ROOT
ATOM      1  C   UNL A   1      38.472  19.928  24.766  1.00  0.00     0.023 C 
ENDROOT
BRANCH   1   2
ATOM      2  C   UNL A   1      36.958  19.795  24.657  1.00  0.00     0.023 C 
BRANCH   2   3
ATOM      3  C   UNL A   1      36.148  20.802  25.461  1.00  0.00     0.116 C 
BRANCH   3   4
ATOM      4  N   UNL A   1      36.929  21.945  25.894  1.00  0.00    -0.352 N 
ATOM      5  C   UNL A   1      36.562  23.261  26.015  1.00  0.00     0.251 C 
ATOM      6  O   UNL A   1      37.403  24.106  26.307  1.00  0.00    -0.269 OA
ATOM      7  H   UNL A   1      37.862  21.747  26.138  1.00  0.00     0.163 HD
BRANCH   5   8
ATOM      8  C   UNL A   1      35.164  23.674  25.765  1.00  0.00     0.039 A 
ATOM      9  C   UNL A   1      32.535  24.594  25.263  1.00  0.00     0.052 A 
ATOM     10  C   UNL A   1      33.582  24.832  24.352  1.00  0.00     0.027 A 
ATOM     11  C   UNL A   1      32.832  23.830  26.406  1.00  0.00     0.027 A 
ATOM     12  C   UNL A   1      34.885  24.389  24.604  1.00  0.00     0.016 A 
ATOM     13  C   UNL A   1      34.142  23.419  26.678  1.00  0.00     0.016 A 
BRANCH   9  14
ATOM     14  N   UNL A   1      31.303  25.334  25.197  1.00  0.00    -0.250 N 
ATOM     15  C   UNL A   1      28.586  26.731  24.347  1.00  0.00     0.024 C 
ATOM     16  C   UNL A   1      30.064  26.845  23.906  1.00  0.00     0.071 C 
ATOM     17  C   UNL A   1      30.623  25.446  23.975  1.00  0.00     0.241 C 
ATOM     18  C   UNL A   1      30.967  27.540  24.941  1.00  0.00     0.107 C 
ATOM     19  C   UNL A   1      30.280  27.614  22.563  1.00  0.00     0.066 C 
ATOM     20  O   UNL A   1      30.442  24.614  23.098  1.00  0.00    -0.273 OA
ATOM     21  C   UNL A   1      31.095  26.493  26.003  1.00  0.00     0.238 C 
ATOM     22  C   UNL A   1      31.191  29.040  24.633  1.00  0.00     0.063 C 
ATOM     23  C   UNL A   1      31.776  27.996  22.438  1.00  0.00    -0.036 A 
ATOM     24  C   UNL A   1      29.550  28.947  22.773  1.00  0.00    -0.036 A 
ATOM     25  O   UNL A   1      31.153  26.651  27.192  1.00  0.00    -0.274 OA
ATOM     26  C   UNL A   1      32.248  28.879  23.477  1.00  0.00    -0.036 A 
ATOM     27  C   UNL A   1      29.996  29.672  23.919  1.00  0.00    -0.036 A 
ATOM     28  C   UNL A   1      32.681  27.398  21.575  1.00  0.00     0.005 A 
ATOM     29  C   UNL A   1      28.586  29.469  21.923  1.00  0.00     0.005 A 
ATOM     30  C   UNL A   1      33.599  29.175  23.614  1.00  0.00     0.004 A 
ATOM     31  C   UNL A   1      29.468  30.926  24.192  1.00  0.00     0.004 A 
ATOM     32  C   UNL A   1      34.041  27.682  21.736  1.00  0.00     0.000 A 
ATOM     33  C   UNL A   1      28.062  30.729  22.208  1.00  0.00     0.000 A 
ATOM     34  C   UNL A   1      34.492  28.566  22.734  1.00  0.00     0.000 A 
ATOM     35  C   UNL A   1      28.499  31.450  23.331  1.00  0.00     0.000 A 
ENDBRANCH   9  14
ENDBRANCH   5   8
ENDBRANCH   3   4
ENDBRANCH   2   3
ENDBRANCH   1   2
BRANCH   1  36
ATOM     36  C   UNL A   1      39.099  19.402  26.053  1.00  0.00     0.116 C 
BRANCH  36  37
ATOM     37  N   UNL A   1      40.495  19.007  25.922  1.00  0.00    -0.352 N 
ATOM     38  C   UNL A   1      41.638  19.714  26.214  1.00  0.00     0.251 C 
ATOM     39  H   UNL A   1      40.643  18.099  25.571  1.00  0.00     0.163 HD
ATOM     40  O   UNL A   1      42.743  19.220  26.015  1.00  0.00    -0.269 OA
BRANCH  38  41
ATOM     41  C   UNL A   1      41.522  21.104  26.695  1.00  0.00     0.039 A 
ATOM     42  C   UNL A   1      40.977  22.099  25.882  1.00  0.00     0.014 A 
ATOM     43  C   UNL A   1      42.078  21.424  27.936  1.00  0.00     0.014 A 
ATOM     44  C   UNL A   1      41.185  23.435  26.211  1.00  0.00     0.010 A 
ATOM     45  C   UNL A   1      42.214  22.763  28.301  1.00  0.00     0.010 A 
ATOM     46  C   UNL A   1      41.842  23.777  27.404  1.00  0.00    -0.014 A 
BRANCH  46  47
ATOM     47  C   UNL A   1      42.235  25.186  27.654  1.00  0.00     0.031 A 
ATOM     48  C   UNL A   1      43.561  25.697  27.149  1.00  0.00     0.074 A 
ATOM     49  C   UNL A   1      41.387  26.023  28.279  1.00  0.00     0.049 A 
ATOM     50  N   UNL A   1      44.115  26.871  27.318  1.00  0.00    -0.248 NA
ATOM     51  C   UNL A   1      44.371  24.764  26.347  1.00  0.00     0.031 C 
ATOM     52  C   UNL A   1      40.058  25.666  28.774  1.00  0.00     0.029 A 
ATOM     53  N   UNL A   1      41.514  27.353  28.585  1.00  0.00    -0.354 N 
ATOM     54  C   UNL A   1      45.348  26.806  26.680  1.00  0.00     0.074 A 
ATOM     55  C   UNL A   1      45.468  25.474  26.128  1.00  0.00     0.031 C 
ATOM     56  C   UNL A   1      39.476  26.760  29.288  1.00  0.00     0.029 A 
ATOM     57  C   UNL A   1      40.412  27.877  29.213  1.00  0.00     0.049 A 
ATOM     58  H   UNL A   1      42.318  27.881  28.376  1.00  0.00     0.167 HD
ATOM     59  C   UNL A   1      46.291  27.769  26.556  1.00  0.00     0.037 A 
ATOM     60  C   UNL A   1      40.190  29.115  29.691  1.00  0.00     0.037 A 
ATOM     61  C   UNL A   1      46.158  29.107  27.068  1.00  0.00     0.049 A 
ATOM     62  C   UNL A   1      41.267  30.155  29.576  1.00  0.00     0.074 A 
ATOM     63  C   UNL A   1      47.059  30.155  26.993  1.00  0.00     0.029 A 
ATOM     64  N   UNL A   1      45.042  29.584  27.737  1.00  0.00    -0.354 N 
ATOM     65  N   UNL A   1      42.445  30.065  29.009  1.00  0.00    -0.248 NA
ATOM     66  C   UNL A   1      40.988  31.463  30.184  1.00  0.00     0.031 C 
ATOM     67  C   UNL A   1      46.494  31.263  27.636  1.00  0.00     0.029 A 
ATOM     68  C   UNL A   1      45.232  30.910  28.086  1.00  0.00     0.049 A 
ATOM     69  H   UNL A   1      44.234  29.058  27.935  1.00  0.00     0.167 HD
ATOM     70  C   UNL A   1      43.043  31.306  29.180  1.00  0.00     0.074 A 
ATOM     71  C   UNL A   1      42.092  32.135  29.891  1.00  0.00     0.031 C 
ATOM     72  C   UNL A   1      44.271  31.719  28.787  1.00  0.00     0.037 A 
BRANCH  59  73
ATOM     73  C   UNL A   1      47.562  27.404  25.851  1.00  0.00     0.057 A 
ATOM     74  C   UNL A   1      47.664  27.522  24.459  1.00  0.00     0.134 A 
ATOM     75  C   UNL A   1      48.675  26.910  26.543  1.00  0.00     0.134 A 
ATOM     76  F   UNL A   1      46.632  27.988  23.739  1.00  0.00    -0.206 F 
ATOM     77  C   UNL A   1      48.828  27.160  23.779  1.00  0.00     0.040 A 
ATOM     78  C   UNL A   1      49.851  26.562  25.876  1.00  0.00     0.040 A 
ATOM     79  F   UNL A   1      48.646  26.790  27.878  1.00  0.00    -0.206 F 
ATOM     80  C   UNL A   1      49.927  26.681  24.489  1.00  0.00     0.006 A 
ENDBRANCH  59  73
BRANCH  60  81
ATOM     81  C   UNL A   1      38.896  29.433  30.338  1.00  0.00     0.057 A 
ATOM     82  C   UNL A   1      38.683  29.187  31.700  1.00  0.00     0.134 A 
ATOM     83  C   UNL A   1      37.843  29.989  29.606  1.00  0.00     0.134 A 
ATOM     84  F   UNL A   1      39.656  28.652  32.452  1.00  0.00    -0.206 F 
ATOM     85  C   UNL A   1      37.461  29.472  32.309  1.00  0.00     0.040 A 
ATOM     86  C   UNL A   1      36.623  30.299  30.207  1.00  0.00     0.040 A 
ATOM     87  F   UNL A   1      37.998  30.264  28.302  1.00  0.00    -0.206 F 
ATOM     88  C   UNL A   1      36.428  30.035  31.563  1.00  0.00     0.006 A 
ENDBRANCH  60  81
BRANCH  72  89
ATOM     89  C   UNL A   1      44.641  33.136  29.097  1.00  0.00     0.057 A 
ATOM     90  C   UNL A   1      44.342  34.165  28.197  1.00  0.00     0.134 A 
ATOM     91  C   UNL A   1      45.315  33.475  30.277  1.00  0.00     0.134 A 
ATOM     92  F   UNL A   1      43.700  33.900  27.050  1.00  0.00    -0.206 F 
ATOM     93  C   UNL A   1      44.704  35.487  28.459  1.00  0.00     0.040 A 
ATOM     94  C   UNL A   1      45.667  34.795  30.557  1.00  0.00     0.040 A 
ATOM     95  F   UNL A   1      45.615  32.532  31.183  1.00  0.00    -0.206 F 
ATOM     96  C   UNL A   1      45.366  35.805  29.644  1.00  0.00     0.006 A 
ENDBRANCH  72  89
ENDBRANCH  46  47
ENDBRANCH  38  41
ENDBRANCH  36  37
ENDBRANCH   1  36
TORSDOF 12
ENDMDL
MODEL 3
REMARK VINA RESULT:     -14.1      1.043      2.076
REMARK SMILES C[C@]12C(=O)N(c3ccc(C(=O)NCCCCNC(=O)c4ccc(-c5c6nc(c(-c7c(F)cccc7F)c7ccc([nH]7)c(-c7c(F)cccc7F)c7nc(c(-c8c(F)cccc8F)c8ccc5[nH]8)C=C7)C=C6)cc4)cc3)C(=O)[C@@H]1[C@H]1c3ccccc3[C@@H]2c2ccccc21
REMARK SMILES IDX 15 1 14 2 13 3 12 4 10 5 11 6 9 8 6 9 7 10 75 11 8 12 74 13
REMARK SMILES IDX 5 14 1 15 2 16 3 17 78 18 86 19 4 20 76 21 79 22 85 23 87 24
REMARK SMILES IDX 77 25 80 26 92 27 84 28 88 29 81 30 91 31 83 32 89 33 82 34
REMARK SMILES IDX 90 35 16 36 17 37 18 38 19 40 20 41 21 42 73 43 22 44 72 45
REMARK SMILES IDX 23 46 24 47 25 48 66 49 26 50 71 51 65 52 67 53 27 54 70 55
REMARK SMILES IDX 64 56 63 57 28 59 54 60 37 61 53 62 38 63 41 64 52 65 68 66
REMARK SMILES IDX 39 67 40 68 51 70 69 71 42 72 29 73 30 74 35 75 31 76 32 77
REMARK SMILES IDX 34 78 36 79 33 80 55 81 56 82 61 83 57 84 58 85 60 86 62 87
REMARK SMILES IDX 59 88 43 89 44 90 49 91 45 92 46 93 48 94 50 95 47 96
REMARK H PARENT 12 7 17 39 67 58 41 69
REMARK Flexibility Score: inf
ROOT
ATOM      1  C   UNL A   1      31.399  32.880  26.857  1.00  0.00     0.023 C 
ENDROOT
BRANCH   1   2
ATOM      2  C   UNL A   1      31.727  31.392  26.877  1.00  0.00     0.023 C 
BRANCH   2   3
ATOM      3  C   UNL A   1      32.908  30.966  26.015  1.00  0.00     0.116 C 
BRANCH   3   4
ATOM      4  N   UNL A   1      34.030  30.473  26.790  1.00  0.00    -0.352 N 
ATOM      5  C   UNL A   1      34.359  29.187  27.134  1.00  0.00     0.251 C 
ATOM      6  O   UNL A   1      35.306  28.978  27.886  1.00  0.00    -0.269 OA
ATOM      7  H   UNL A   1      34.649  31.165  27.117  1.00  0.00     0.163 HD
BRANCH   5   8
ATOM      8  C   UNL A   1      33.560  28.050  26.629  1.00  0.00     0.039 A 
ATOM      9  C   UNL A   1      32.005  25.837  25.794  1.00  0.00     0.052 A 
ATOM     10  C   UNL A   1      31.507  26.777  26.716  1.00  0.00     0.027 A 
ATOM     11  C   UNL A   1      33.284  26.070  25.258  1.00  0.00     0.027 A 
ATOM     12  C   UNL A   1      32.279  27.865  27.140  1.00  0.00     0.016 A 
ATOM     13  C   UNL A   1      34.071  27.136  25.708  1.00  0.00     0.016 A 
BRANCH   9  14
ATOM     14  N   UNL A   1      31.383  24.550  25.628  1.00  0.00    -0.250 N 
ATOM     15  C   UNL A   1      30.379  21.553  25.885  1.00  0.00     0.024 C 
ATOM     16  C   UNL A   1      31.753  22.238  25.705  1.00  0.00     0.071 C 
ATOM     17  C   UNL A   1      31.690  23.509  26.516  1.00  0.00     0.241 C 
ATOM     18  C   UNL A   1      31.970  22.834  24.302  1.00  0.00     0.107 C 
ATOM     19  C   UNL A   1      32.980  21.307  25.969  1.00  0.00     0.066 C 
ATOM     20  O   UNL A   1      31.855  23.532  27.727  1.00  0.00    -0.273 OA
ATOM     21  C   UNL A   1      31.082  24.039  24.330  1.00  0.00     0.238 C 
ATOM     22  C   UNL A   1      32.777  21.899  23.370  1.00  0.00     0.063 C 
ATOM     23  C   UNL A   1      34.252  21.974  25.387  1.00  0.00    -0.036 A 
ATOM     24  C   UNL A   1      32.728  20.090  25.068  1.00  0.00    -0.036 A 
ATOM     25  O   UNL A   1      30.429  24.496  23.431  1.00  0.00    -0.274 OA
ATOM     26  C   UNL A   1      34.211  22.176  23.959  1.00  0.00    -0.036 A 
ATOM     27  C   UNL A   1      32.553  20.422  23.691  1.00  0.00    -0.036 A 
ATOM     28  C   UNL A   1      35.261  22.555  26.139  1.00  0.00     0.005 A 
ATOM     29  C   UNL A   1      32.721  18.771  25.496  1.00  0.00     0.005 A 
ATOM     30  C   UNL A   1      35.188  22.918  23.306  1.00  0.00     0.004 A 
ATOM     31  C   UNL A   1      32.383  19.413  22.753  1.00  0.00     0.004 A 
ATOM     32  C   UNL A   1      36.226  23.321  25.477  1.00  0.00     0.000 A 
ATOM     33  C   UNL A   1      32.548  17.767  24.546  1.00  0.00     0.000 A 
ATOM     34  C   UNL A   1      36.197  23.491  24.081  1.00  0.00     0.000 A 
ATOM     35  C   UNL A   1      32.380  18.084  23.188  1.00  0.00     0.000 A 
ENDBRANCH   9  14
ENDBRANCH   5   8
ENDBRANCH   3   4
ENDBRANCH   2   3
ENDBRANCH   1   2
BRANCH   1  36
ATOM     36  C   UNL A   1      32.592  33.829  26.905  1.00  0.00     0.116 C 
BRANCH  36  37
ATOM     37  N   UNL A   1      32.581  34.748  28.035  1.00  0.00    -0.352 N 
ATOM     38  C   UNL A   1      33.458  34.854  29.090  1.00  0.00     0.251 C 
ATOM     39  H   UNL A   1      31.834  35.390  28.047  1.00  0.00     0.163 HD
ATOM     40  O   UNL A   1      33.273  35.686  29.971  1.00  0.00    -0.269 OA
BRANCH  38  41
ATOM     41  C   UNL A   1      34.582  33.903  29.190  1.00  0.00     0.039 A 
ATOM     42  C   UNL A   1      34.369  32.586  29.602  1.00  0.00     0.014 A 
ATOM     43  C   UNL A   1      35.876  34.381  28.978  1.00  0.00     0.014 A 
ATOM     44  C   UNL A   1      35.455  31.818  30.012  1.00  0.00     0.010 A 
ATOM     45  C   UNL A   1      36.967  33.580  29.316  1.00  0.00     0.010 A 
ATOM     46  C   UNL A   1      36.760  32.325  29.911  1.00  0.00    -0.014 A 
BRANCH  46  47
ATOM     47  C   UNL A   1      37.890  31.588  30.527  1.00  0.00     0.031 A 
ATOM     48  C   UNL A   1      38.222  31.803  31.982  1.00  0.00     0.074 A 
ATOM     49  C   UNL A   1      38.581  30.685  29.808  1.00  0.00     0.049 A 
ATOM     50  N   UNL A   1      39.206  31.307  32.690  1.00  0.00    -0.248 NA
ATOM     51  C   UNL A   1      37.331  32.696  32.743  1.00  0.00     0.031 C 
ATOM     52  C   UNL A   1      38.330  30.351  28.406  1.00  0.00     0.029 A 
ATOM     53  N   UNL A   1      39.625  29.872  30.166  1.00  0.00    -0.354 N 
ATOM     54  C   UNL A   1      39.074  31.853  33.961  1.00  0.00     0.074 A 
ATOM     55  C   UNL A   1      37.922  32.728  33.928  1.00  0.00     0.031 C 
ATOM     56  C   UNL A   1      39.170  29.373  28.034  1.00  0.00     0.029 A 
ATOM     57  C   UNL A   1      40.056  29.057  29.151  1.00  0.00     0.049 A 
ATOM     58  H   UNL A   1      40.026  29.873  31.065  1.00  0.00     0.167 HD
ATOM     59  C   UNL A   1      39.836  31.639  35.060  1.00  0.00     0.037 A 
ATOM     60  C   UNL A   1      41.066  28.168  29.118  1.00  0.00     0.037 A 
ATOM     61  C   UNL A   1      40.957  30.739  35.108  1.00  0.00     0.049 A 
ATOM     62  C   UNL A   1      41.921  27.978  30.337  1.00  0.00     0.074 A 
ATOM     63  C   UNL A   1      41.792  30.454  36.174  1.00  0.00     0.029 A 
ATOM     64  N   UNL A   1      41.388  29.964  34.043  1.00  0.00    -0.354 N 
ATOM     65  N   UNL A   1      41.811  28.534  31.519  1.00  0.00    -0.248 NA
ATOM     66  C   UNL A   1      43.051  27.047  30.211  1.00  0.00     0.031 C 
ATOM     67  C   UNL A   1      42.743  29.519  35.746  1.00  0.00     0.029 A 
ATOM     68  C   UNL A   1      42.481  29.205  34.423  1.00  0.00     0.049 A 
ATOM     69  H   UNL A   1      40.979  29.956  33.148  1.00  0.00     0.167 HD
ATOM     70  C   UNL A   1      42.848  28.014  32.280  1.00  0.00     0.074 A 
ATOM     71  C   UNL A   1      43.568  27.087  31.431  1.00  0.00     0.031 C 
ATOM     72  C   UNL A   1      43.178  28.283  33.565  1.00  0.00     0.037 A 
BRANCH  59  73
ATOM     73  C   UNL A   1      39.492  32.408  36.299  1.00  0.00     0.057 A 
ATOM     74  C   UNL A   1      38.502  31.942  37.174  1.00  0.00     0.134 A 
ATOM     75  C   UNL A   1      40.117  33.620  36.614  1.00  0.00     0.134 A 
ATOM     76  F   UNL A   1      37.864  30.788  36.927  1.00  0.00    -0.206 F 
ATOM     77  C   UNL A   1      38.144  32.657  38.318  1.00  0.00     0.040 A 
ATOM     78  C   UNL A   1      39.781  34.335  37.766  1.00  0.00     0.040 A 
ATOM     79  F   UNL A   1      41.085  34.111  35.826  1.00  0.00    -0.206 F 
ATOM     80  C   UNL A   1      38.788  33.856  38.618  1.00  0.00     0.006 A 
ENDBRANCH  59  73
BRANCH  60  81
ATOM     81  C   UNL A   1      41.333  27.403  27.878  1.00  0.00     0.057 A 
ATOM     82  C   UNL A   1      42.118  27.934  26.848  1.00  0.00     0.134 A 
ATOM     83  C   UNL A   1      40.804  26.120  27.698  1.00  0.00     0.134 A 
ATOM     84  F   UNL A   1      42.648  29.159  26.965  1.00  0.00    -0.206 F 
ATOM     85  C   UNL A   1      42.359  27.220  25.674  1.00  0.00     0.040 A 
ATOM     86  C   UNL A   1      41.055  25.387  26.537  1.00  0.00     0.040 A 
ATOM     87  F   UNL A   1      40.061  25.554  28.660  1.00  0.00    -0.206 F 
ATOM     88  C   UNL A   1      41.831  25.940  25.519  1.00  0.00     0.006 A 
ENDBRANCH  60  81
BRANCH  72  89
ATOM     89  C   UNL A   1      44.351  27.547  34.134  1.00  0.00     0.057 A 
ATOM     90  C   UNL A   1      44.181  26.304  34.753  1.00  0.00     0.134 A 
ATOM     91  C   UNL A   1      45.643  28.083  34.088  1.00  0.00     0.134 A 
ATOM     92  F   UNL A   1      42.965  25.742  34.829  1.00  0.00    -0.206 F 
ATOM     93  C   UNL A   1      45.259  25.616  35.311  1.00  0.00     0.040 A 
ATOM     94  C   UNL A   1      46.732  27.398  34.628  1.00  0.00     0.040 A 
ATOM     95  F   UNL A   1      45.869  29.265  33.494  1.00  0.00    -0.206 F 
ATOM     96  C   UNL A   1      46.540  26.163  35.246  1.00  0.00     0.006 A 
ENDBRANCH  72  89
ENDBRANCH  46  47
ENDBRANCH  38  41
ENDBRANCH  36  37
ENDBRANCH   1  36
TORSDOF 12
ENDMDL
