MODEL 1
REMARK VINA RESULT:     -12.0      0.000      0.000
REMARK SMILES Cc1ccc(CN2/C(=[NH+]/C(=O)CCC(=O)NCCCCNC(=O)c3ccc(-c4c5nc(c(-c6c(F)cccc6F)c6ccc([nH]6)c(-c6c(F)cccc6F)c6nc(c(-c7c(F)cccc7F)c7ccc4[nH]7)C=C6)C=C5)cc3)S[C@H]3CS(=O)(=O)C[C@@H]32)cc1
REMARK SMILES IDX 17 1 16 2 14 3 15 4 13 6 12 7 10 8 7 9 8 10 85 11 9 12 78 13
REMARK SMILES IDX 79 14 84 15 80 17 81 18 11 19 82 20 83 21 6 22 5 23 1 24
REMARK SMILES IDX 2 25 3 26 87 27 4 28 86 29 18 30 19 31 20 32 21 33 22 34
REMARK SMILES IDX 23 36 24 37 25 38 77 39 26 40 76 41 27 42 28 43 29 44 70 45
REMARK SMILES IDX 30 46 75 47 69 48 71 49 31 50 74 51 68 52 67 53 32 55 58 56
REMARK SMILES IDX 41 57 57 58 42 59 45 60 56 61 72 62 43 63 44 64 55 66 73 67
REMARK SMILES IDX 46 68 33 69 34 70 39 71 35 72 36 73 38 74 40 75 37 76 59 77
REMARK SMILES IDX 60 78 65 79 61 80 62 81 64 82 66 83 63 84 47 85 48 86 53 87
REMARK SMILES IDX 49 88 50 89 52 90 54 91 51 92
REMARK H PARENT 16 5 9 16 21 35 71 54 45 65
REMARK Flexibility Score: inf
ROOT
ATOM      1  C   UNL A   1      36.978  22.424  25.875  1.00  0.00     0.116 C 
ENDROOT
BRANCH   1   2
ATOM      2  N   UNL A   1      35.814  21.992  25.147  1.00  0.00    -0.356 N 
ATOM      3  C   UNL A   1      34.720  21.463  25.787  1.00  0.00     0.220 C 
ATOM      4  O   UNL A   1      34.093  20.553  25.246  1.00  0.00    -0.275 OA
ATOM      5  H   UNL A   1      35.801  22.080  24.166  1.00  0.00     0.163 HD
BRANCH   3   6
ATOM      6  C   UNL A   1      34.327  22.048  27.143  1.00  0.00     0.112 C 
BRANCH   6   7
ATOM      7  C   UNL A   1      32.845  22.462  27.344  1.00  0.00     0.138 C 
BRANCH   7   8
ATOM      8  C   UNL A   1      32.262  23.500  26.344  1.00  0.00     0.308 C 
ATOM      9  N   UNL A   1      32.656  27.132  25.338  1.00  0.00    -0.247 N 
ATOM     10  C   UNL A   1      32.186  25.837  25.878  1.00  0.00     0.314 C 
ATOM     11  C   UNL A   1      31.413  27.908  24.877  1.00  0.00     0.206 C 
ATOM     12  N   UNL A   1      32.805  24.805  26.373  1.00  0.00    -0.205 N 
ATOM     13  S   UNL A   1      30.351  25.766  25.759  1.00  0.00    -0.030 SA
ATOM     14  C   UNL A   1      30.428  26.852  24.354  1.00  0.00     0.120 C 
ATOM     15  C   UNL A   1      31.494  28.953  23.787  1.00  0.00     0.187 C 
ATOM     16  H   UNL A   1      33.688  24.939  26.785  1.00  0.00     0.316 HD
ATOM     17  C   UNL A   1      29.219  27.450  23.683  1.00  0.00     0.156 C 
ATOM     18  S   UNL A   1      29.833  29.016  23.079  1.00  0.00     0.155 S 
ATOM     19  O   UNL A   1      31.504  23.083  25.466  1.00  0.00    -0.247 OA
ATOM     20  O   UNL A   1      29.944  28.969  21.626  1.00  0.00    -0.229 OA
ATOM     21  O   UNL A   1      29.101  30.064  23.740  1.00  0.00    -0.229 OA
BRANCH   9  22
ATOM     22  C   UNL A   1      33.938  27.986  25.684  1.00  0.00     0.273 C 
BRANCH  22  23
ATOM     23  C   UNL A   1      34.079  29.215  26.707  1.00  0.00    -0.007 A 
ATOM     24  C   UNL A   1      34.880  33.282  28.005  1.00  0.00     0.044 C 
ATOM     25  C   UNL A   1      34.520  31.810  27.952  1.00  0.00    -0.051 A 
ATOM     26  C   UNL A   1      35.495  30.808  28.003  1.00  0.00     0.004 A 
ATOM     27  C   UNL A   1      33.239  31.381  27.621  1.00  0.00     0.004 A 
ATOM     28  C   UNL A   1      35.269  29.521  27.403  1.00  0.00     0.008 A 
ATOM     29  C   UNL A   1      33.018  30.076  27.075  1.00  0.00     0.008 A 
ENDBRANCH  22  23
ENDBRANCH   9  22
ENDBRANCH   7   8
ENDBRANCH   6   7
ENDBRANCH   3   6
ENDBRANCH   1   2
BRANCH   1  30
ATOM     30  C   UNL A   1      38.113  21.728  25.206  1.00  0.00     0.023 C 
BRANCH  30  31
ATOM     31  C   UNL A   1      39.165  21.215  26.126  1.00  0.00     0.023 C 
BRANCH  31  32
ATOM     32  C   UNL A   1      40.667  21.300  26.126  1.00  0.00     0.116 C 
BRANCH  32  33
ATOM     33  N   UNL A   1      41.444  22.153  27.009  1.00  0.00    -0.352 N 
ATOM     34  C   UNL A   1      41.112  23.375  27.621  1.00  0.00     0.251 C 
ATOM     35  H   UNL A   1      42.348  21.822  27.212  1.00  0.00     0.163 HD
ATOM     36  O   UNL A   1      41.831  23.774  28.538  1.00  0.00    -0.269 OA
BRANCH  34  37
ATOM     37  C   UNL A   1      39.959  24.278  27.252  1.00  0.00     0.039 A 
ATOM     38  C   UNL A   1      40.173  25.152  26.198  1.00  0.00     0.014 A 
ATOM     39  C   UNL A   1      39.184  24.765  28.253  1.00  0.00     0.014 A 
ATOM     40  C   UNL A   1      40.408  26.468  26.532  1.00  0.00     0.010 A 
ATOM     41  C   UNL A   1      39.622  25.942  28.751  1.00  0.00     0.010 A 
ATOM     42  C   UNL A   1      40.335  26.752  27.879  1.00  0.00    -0.014 A 
BRANCH  42  43
ATOM     43  C   UNL A   1      41.031  27.792  28.573  1.00  0.00     0.031 A 
ATOM     44  C   UNL A   1      40.220  28.971  28.862  1.00  0.00     0.074 A 
ATOM     45  C   UNL A   1      42.156  27.354  29.185  1.00  0.00     0.049 A 
ATOM     46  N   UNL A   1      40.684  30.130  29.130  1.00  0.00    -0.248 NA
ATOM     47  C   UNL A   1      38.753  28.951  28.814  1.00  0.00     0.031 C 
ATOM     48  C   UNL A   1      42.869  27.859  30.347  1.00  0.00     0.029 A 
ATOM     49  N   UNL A   1      42.982  26.319  28.721  1.00  0.00    -0.354 N 
ATOM     50  C   UNL A   1      39.656  30.804  29.752  1.00  0.00     0.074 A 
ATOM     51  C   UNL A   1      38.453  30.145  29.326  1.00  0.00     0.031 C 
ATOM     52  C   UNL A   1      44.133  27.387  30.317  1.00  0.00     0.029 A 
ATOM     53  C   UNL A   1      44.300  26.666  29.061  1.00  0.00     0.049 A 
ATOM     54  H   UNL A   1      42.693  25.506  28.247  1.00  0.00     0.167 HD
ATOM     55  C   UNL A   1      39.987  31.661  30.758  1.00  0.00     0.037 A 
ATOM     56  C   UNL A   1      45.137  27.046  28.048  1.00  0.00     0.037 A 
ATOM     57  C   UNL A   1      41.445  31.635  30.943  1.00  0.00     0.049 A 
ATOM     58  C   UNL A   1      45.406  28.536  28.071  1.00  0.00     0.074 A 
ATOM     59  C   UNL A   1      42.263  31.021  31.878  1.00  0.00     0.029 A 
ATOM     60  N   UNL A   1      42.263  31.965  29.870  1.00  0.00    -0.354 N 
ATOM     61  N   UNL A   1      44.625  29.416  28.639  1.00  0.00    -0.248 NA
ATOM     62  C   UNL A   1      46.604  29.144  27.504  1.00  0.00     0.031 C 
ATOM     63  C   UNL A   1      43.578  30.956  31.333  1.00  0.00     0.029 A 
ATOM     64  C   UNL A   1      43.552  31.518  30.069  1.00  0.00     0.049 A 
ATOM     65  H   UNL A   1      41.960  32.455  29.071  1.00  0.00     0.167 HD
ATOM     66  C   UNL A   1      45.179  30.666  28.540  1.00  0.00     0.074 A 
ATOM     67  C   UNL A   1      46.423  30.436  27.829  1.00  0.00     0.031 C 
ATOM     68  C   UNL A   1      44.565  31.776  29.053  1.00  0.00     0.037 A 
BRANCH  55  69
ATOM     69  C   UNL A   1      39.049  32.297  31.758  1.00  0.00     0.057 A 
ATOM     70  C   UNL A   1      38.486  31.507  32.782  1.00  0.00     0.134 A 
ATOM     71  C   UNL A   1      38.661  33.649  31.804  1.00  0.00     0.134 A 
ATOM     72  F   UNL A   1      38.791  30.210  32.922  1.00  0.00    -0.206 F 
ATOM     73  C   UNL A   1      37.590  32.005  33.735  1.00  0.00     0.040 A 
ATOM     74  C   UNL A   1      37.751  34.158  32.742  1.00  0.00     0.040 A 
ATOM     75  F   UNL A   1      39.166  34.574  30.986  1.00  0.00    -0.206 F 
ATOM     76  C   UNL A   1      37.212  33.335  33.714  1.00  0.00     0.006 A 
ENDBRANCH  55  69
BRANCH  56  77
ATOM     77  C   UNL A   1      44.938  26.211  26.819  1.00  0.00     0.057 A 
ATOM     78  C   UNL A   1      45.319  24.856  26.878  1.00  0.00     0.134 A 
ATOM     79  C   UNL A   1      44.021  26.565  25.823  1.00  0.00     0.134 A 
ATOM     80  F   UNL A   1      46.187  24.442  27.816  1.00  0.00    -0.206 F 
ATOM     81  C   UNL A   1      44.722  23.881  26.073  1.00  0.00     0.040 A 
ATOM     82  C   UNL A   1      43.427  25.596  25.001  1.00  0.00     0.040 A 
ATOM     83  F   UNL A   1      43.576  27.825  25.720  1.00  0.00    -0.206 F 
ATOM     84  C   UNL A   1      43.746  24.249  25.153  1.00  0.00     0.006 A 
ENDBRANCH  56  77
BRANCH  68  85
ATOM     85  C   UNL A   1      44.863  33.224  28.703  1.00  0.00     0.057 A 
ATOM     86  C   UNL A   1      44.458  33.857  27.521  1.00  0.00     0.134 A 
ATOM     87  C   UNL A   1      45.449  34.094  29.660  1.00  0.00     0.134 A 
ATOM     88  F   UNL A   1      43.778  33.215  26.565  1.00  0.00    -0.206 F 
ATOM     89  C   UNL A   1      44.678  35.221  27.282  1.00  0.00     0.040 A 
ATOM     90  C   UNL A   1      45.587  35.469  29.469  1.00  0.00     0.040 A 
ATOM     91  F   UNL A   1      45.892  33.663  30.850  1.00  0.00    -0.206 F 
ATOM     92  C   UNL A   1      45.226  36.036  28.263  1.00  0.00     0.006 A 
ENDBRANCH  68  85
ENDBRANCH  42  43
ENDBRANCH  34  37
ENDBRANCH  32  33
ENDBRANCH  31  32
ENDBRANCH  30  31
ENDBRANCH   1  30
TORSDOF 15
ENDMDL
MODEL 2
REMARK VINA RESULT:     -11.7      2.568      5.402
REMARK SMILES Cc1ccc(CN2/C(=[NH+]/C(=O)CCC(=O)NCCCCNC(=O)c3ccc(-c4c5nc(c(-c6c(F)cccc6F)c6ccc([nH]6)c(-c6c(F)cccc6F)c6nc(c(-c7c(F)cccc7F)c7ccc4[nH]7)C=C6)C=C5)cc3)S[C@H]3CS(=O)(=O)C[C@@H]32)cc1
REMARK SMILES IDX 17 1 16 2 14 3 15 4 13 6 12 7 10 8 7 9 8 10 85 11 9 12 78 13
REMARK SMILES IDX 79 14 84 15 80 17 81 18 11 19 82 20 83 21 6 22 5 23 1 24
REMARK SMILES IDX 2 25 3 26 87 27 4 28 86 29 18 30 19 31 20 32 21 33 22 34
REMARK SMILES IDX 23 36 24 37 25 38 77 39 26 40 76 41 27 42 28 43 29 44 70 45
REMARK SMILES IDX 30 46 75 47 69 48 71 49 31 50 74 51 68 52 67 53 32 55 58 56
REMARK SMILES IDX 41 57 57 58 42 59 45 60 56 61 72 62 43 63 44 64 55 66 73 67
REMARK SMILES IDX 46 68 33 69 34 70 39 71 35 72 36 73 38 74 40 75 37 76 59 77
REMARK SMILES IDX 60 78 65 79 61 80 62 81 64 82 66 83 63 84 47 85 48 86 53 87
REMARK SMILES IDX 49 88 50 89 52 90 54 91 51 92
REMARK H PARENT 16 5 9 16 21 35 71 54 45 65
REMARK Flexibility Score: inf
ROOT
ATOM      1  C   UNL A   1      42.195  19.555  25.482  1.00  0.00     0.116 C 
ENDROOT
BRANCH   1   2
ATOM      2  N   UNL A   1      41.392  19.621  26.676  1.00  0.00    -0.356 N 
ATOM      3  C   UNL A   1      40.552  20.680  26.920  1.00  0.00     0.220 C 
ATOM      4  O   UNL A   1      40.413  21.079  28.075  1.00  0.00    -0.275 OA
ATOM      5  H   UNL A   1      41.446  18.889  27.332  1.00  0.00     0.163 HD
BRANCH   3   6
ATOM      6  C   UNL A   1      39.816  21.303  25.734  1.00  0.00     0.112 C 
BRANCH   6   7
ATOM      7  C   UNL A   1      38.333  20.901  25.518  1.00  0.00     0.138 C 
BRANCH   7   8
ATOM      8  C   UNL A   1      37.261  21.998  25.776  1.00  0.00     0.308 C 
ATOM      9  N   UNL A   1      33.503  22.480  25.739  1.00  0.00    -0.247 N 
ATOM     10  C   UNL A   1      34.954  22.498  25.447  1.00  0.00     0.314 C 
ATOM     11  C   UNL A   1      32.940  23.844  25.313  1.00  0.00     0.206 C 
ATOM     12  N   UNL A   1      35.905  21.629  25.625  1.00  0.00    -0.205 N 
ATOM     13  S   UNL A   1      35.398  24.122  24.704  1.00  0.00    -0.030 SA
ATOM     14  C   UNL A   1      34.051  24.865  25.595  1.00  0.00     0.120 C 
ATOM     15  C   UNL A   1      31.697  24.419  25.955  1.00  0.00     0.187 C 
ATOM     16  H   UNL A   1      35.670  20.674  25.657  1.00  0.00     0.316 HD
ATOM     17  C   UNL A   1      33.605  26.293  25.411  1.00  0.00     0.156 C 
ATOM     18  S   UNL A   1      31.852  26.207  25.746  1.00  0.00     0.155 S 
ATOM     19  O   UNL A   1      37.640  23.061  26.273  1.00  0.00    -0.247 OA
ATOM     20  O   UNL A   1      31.566  26.852  27.023  1.00  0.00    -0.229 OA
ATOM     21  O   UNL A   1      31.152  26.584  24.546  1.00  0.00    -0.229 OA
BRANCH   9  22
ATOM     22  C   UNL A   1      32.481  21.279  25.804  1.00  0.00     0.273 C 
BRANCH  22  23
ATOM     23  C   UNL A   1      32.557  19.856  25.064  1.00  0.00    -0.007 A 
ATOM     24  C   UNL A   1      34.341  16.595  22.814  1.00  0.00     0.044 C 
ATOM     25  C   UNL A   1      33.390  17.485  23.592  1.00  0.00    -0.051 A 
ATOM     26  C   UNL A   1      32.653  18.499  22.972  1.00  0.00     0.004 A 
ATOM     27  C   UNL A   1      33.371  17.497  24.982  1.00  0.00     0.004 A 
ATOM     28  C   UNL A   1      32.227  19.662  23.705  1.00  0.00     0.008 A 
ATOM     29  C   UNL A   1      32.893  18.639  25.703  1.00  0.00     0.008 A 
ENDBRANCH  22  23
ENDBRANCH   9  22
ENDBRANCH   7   8
ENDBRANCH   6   7
ENDBRANCH   3   6
ENDBRANCH   1   2
BRANCH   1  30
ATOM     30  C   UNL A   1      43.517  19.052  25.952  1.00  0.00     0.023 C 
BRANCH  30  31
ATOM     31  C   UNL A   1      44.654  19.322  25.032  1.00  0.00     0.023 C 
BRANCH  31  32
ATOM     32  C   UNL A   1      45.628  20.462  24.899  1.00  0.00     0.116 C 
BRANCH  32  33
ATOM     33  N   UNL A   1      45.845  21.481  25.911  1.00  0.00    -0.352 N 
ATOM     34  C   UNL A   1      45.025  22.546  26.322  1.00  0.00     0.251 C 
ATOM     35  H   UNL A   1      46.705  21.416  26.385  1.00  0.00     0.163 HD
ATOM     36  O   UNL A   1      45.304  23.115  27.379  1.00  0.00    -0.269 OA
BRANCH  34  37
ATOM     37  C   UNL A   1      43.827  23.093  25.582  1.00  0.00     0.039 A 
ATOM     38  C   UNL A   1      44.081  24.082  24.645  1.00  0.00     0.014 A 
ATOM     39  C   UNL A   1      42.664  23.236  26.266  1.00  0.00     0.014 A 
ATOM     40  C   UNL A   1      43.776  25.373  25.019  1.00  0.00     0.010 A 
ATOM     41  C   UNL A   1      42.532  24.440  26.863  1.00  0.00     0.010 A 
ATOM     42  C   UNL A   1      43.195  25.501  26.263  1.00  0.00    -0.014 A 
BRANCH  42  43
ATOM     43  C   UNL A   1      43.275  26.634  27.132  1.00  0.00     0.031 A 
ATOM     44  C   UNL A   1      42.034  27.394  27.247  1.00  0.00     0.074 A 
ATOM     45  C   UNL A   1      44.322  26.568  27.987  1.00  0.00     0.049 A 
ATOM     46  N   UNL A   1      41.952  28.603  27.650  1.00  0.00    -0.248 NA
ATOM     47  C   UNL A   1      40.733  26.847  26.844  1.00  0.00     0.031 C 
ATOM     48  C   UNL A   1      44.521  27.159  29.301  1.00  0.00     0.029 A 
ATOM     49  N   UNL A   1      45.560  25.966  27.710  1.00  0.00    -0.354 N 
ATOM     50  C   UNL A   1      40.636  28.779  28.022  1.00  0.00     0.074 A 
ATOM     51  C   UNL A   1      39.898  27.782  27.299  1.00  0.00     0.031 C 
ATOM     52  C   UNL A   1      45.844  27.186  29.566  1.00  0.00     0.029 A 
ATOM     53  C   UNL A   1      46.539  26.728  28.370  1.00  0.00     0.049 A 
ATOM     54  H   UNL A   1      45.712  25.165  27.160  1.00  0.00     0.167 HD
ATOM     55  C   UNL A   1      40.392  29.574  29.101  1.00  0.00     0.037 A 
ATOM     56  C   UNL A   1      47.364  27.502  27.600  1.00  0.00     0.037 A 
ATOM     57  C   UNL A   1      41.672  30.059  29.633  1.00  0.00     0.049 A 
ATOM     58  C   UNL A   1      47.033  28.974  27.728  1.00  0.00     0.074 A 
ATOM     59  C   UNL A   1      42.441  29.681  30.723  1.00  0.00     0.029 A 
ATOM     60  N   UNL A   1      42.512  30.788  28.800  1.00  0.00    -0.354 N 
ATOM     61  N   UNL A   1      45.873  29.436  28.112  1.00  0.00    -0.248 NA
ATOM     62  C   UNL A   1      48.000  30.038  27.485  1.00  0.00     0.031 C 
ATOM     63  C   UNL A   1      43.765  30.164  30.511  1.00  0.00     0.029 A 
ATOM     64  C   UNL A   1      43.799  30.822  29.294  1.00  0.00     0.049 A 
ATOM     65  H   UNL A   1      42.225  31.223  27.964  1.00  0.00     0.167 HD
ATOM     66  C   UNL A   1      45.915  30.804  28.184  1.00  0.00     0.074 A 
ATOM     67  C   UNL A   1      47.274  31.129  27.790  1.00  0.00     0.031 C 
ATOM     68  C   UNL A   1      44.829  31.547  28.562  1.00  0.00     0.037 A 
BRANCH  55  69
ATOM     69  C   UNL A   1      39.091  29.703  29.859  1.00  0.00     0.057 A 
ATOM     70  C   UNL A   1      38.786  28.777  30.879  1.00  0.00     0.134 A 
ATOM     71  C   UNL A   1      38.105  30.691  29.675  1.00  0.00     0.134 A 
ATOM     72  F   UNL A   1      39.638  27.804  31.227  1.00  0.00    -0.206 F 
ATOM     73  C   UNL A   1      37.596  28.806  31.616  1.00  0.00     0.040 A 
ATOM     74  C   UNL A   1      36.900  30.721  30.393  1.00  0.00     0.040 A 
ATOM     75  F   UNL A   1      38.256  31.713  28.831  1.00  0.00    -0.206 F 
ATOM     76  C   UNL A   1      36.642  29.777  31.370  1.00  0.00     0.006 A 
ENDBRANCH  55  69
BRANCH  56  77
ATOM     77  C   UNL A   1      47.767  26.801  26.339  1.00  0.00     0.057 A 
ATOM     78  C   UNL A   1      47.147  27.202  25.138  1.00  0.00     0.134 A 
ATOM     79  C   UNL A   1      48.989  26.128  26.221  1.00  0.00     0.134 A 
ATOM     80  F   UNL A   1      45.978  27.864  25.174  1.00  0.00    -0.206 F 
ATOM     81  C   UNL A   1      47.770  27.057  23.895  1.00  0.00     0.040 A 
ATOM     82  C   UNL A   1      49.615  25.965  24.978  1.00  0.00     0.040 A 
ATOM     83  F   UNL A   1      49.665  25.744  27.313  1.00  0.00    -0.206 F 
ATOM     84  C   UNL A   1      49.026  26.466  23.819  1.00  0.00     0.006 A 
ENDBRANCH  56  77
BRANCH  68  85
ATOM     85  C   UNL A   1      44.620  33.034  28.333  1.00  0.00     0.057 A 
ATOM     86  C   UNL A   1      44.140  33.597  27.144  1.00  0.00     0.134 A 
ATOM     87  C   UNL A   1      44.749  33.956  29.405  1.00  0.00     0.134 A 
ATOM     88  F   UNL A   1      43.840  32.853  26.073  1.00  0.00    -0.206 F 
ATOM     89  C   UNL A   1      43.877  34.968  27.010  1.00  0.00     0.040 A 
ATOM     90  C   UNL A   1      44.402  35.304  29.308  1.00  0.00     0.040 A 
ATOM     91  F   UNL A   1      45.192  33.594  30.617  1.00  0.00    -0.206 F 
ATOM     92  C   UNL A   1      43.989  35.823  28.097  1.00  0.00     0.006 A 
ENDBRANCH  68  85
ENDBRANCH  42  43
ENDBRANCH  34  37
ENDBRANCH  32  33
ENDBRANCH  31  32
ENDBRANCH  30  31
ENDBRANCH   1  30
TORSDOF 15
ENDMDL
MODEL 3
REMARK VINA RESULT:     -11.6      3.143      8.802
REMARK SMILES Cc1ccc(CN2/C(=[NH+]/C(=O)CCC(=O)NCCCCNC(=O)c3ccc(-c4c5nc(c(-c6c(F)cccc6F)c6ccc([nH]6)c(-c6c(F)cccc6F)c6nc(c(-c7c(F)cccc7F)c7ccc4[nH]7)C=C6)C=C5)cc3)S[C@H]3CS(=O)(=O)C[C@@H]32)cc1
REMARK SMILES IDX 17 1 16 2 14 3 15 4 13 6 12 7 10 8 7 9 8 10 85 11 9 12 78 13
REMARK SMILES IDX 79 14 84 15 80 17 81 18 11 19 82 20 83 21 6 22 5 23 1 24
REMARK SMILES IDX 2 25 3 26 87 27 4 28 86 29 18 30 19 31 20 32 21 33 22 34
REMARK SMILES IDX 23 36 24 37 25 38 77 39 26 40 76 41 27 42 28 43 29 44 70 45
REMARK SMILES IDX 30 46 75 47 69 48 71 49 31 50 74 51 68 52 67 53 32 55 58 56
REMARK SMILES IDX 41 57 57 58 42 59 45 60 56 61 72 62 43 63 44 64 55 66 73 67
REMARK SMILES IDX 46 68 33 69 34 70 39 71 35 72 36 73 38 74 40 75 37 76 59 77
REMARK SMILES IDX 60 78 65 79 61 80 62 81 64 82 66 83 63 84 47 85 48 86 53 87
REMARK SMILES IDX 49 88 50 89 52 90 54 91 51 92
REMARK H PARENT 16 5 9 16 21 35 71 54 45 65
REMARK Flexibility Score: inf
ROOT
ATOM      1  C   UNL A   1      33.067  34.241  29.747  1.00  0.00     0.116 C 
ENDROOT
BRANCH   1   2
ATOM      2  N   UNL A   1      33.780  34.341  28.500  1.00  0.00    -0.356 N 
ATOM      3  C   UNL A   1      34.461  33.271  27.972  1.00  0.00     0.220 C 
ATOM      4  O   UNL A   1      35.519  33.471  27.376  1.00  0.00    -0.275 OA
ATOM      5  H   UNL A   1      33.779  35.197  28.014  1.00  0.00     0.163 HD
BRANCH   3   6
ATOM      6  C   UNL A   1      33.854  31.878  28.140  1.00  0.00     0.112 C 
BRANCH   6   7
ATOM      7  C   UNL A   1      33.030  31.306  26.956  1.00  0.00     0.138 C 
BRANCH   7   8
ATOM      8  C   UNL A   1      33.403  29.880  26.463  1.00  0.00     0.308 C 
ATOM      9  N   UNL A   1      32.349  27.307  23.888  1.00  0.00    -0.247 N 
ATOM     10  C   UNL A   1      32.602  28.074  25.128  1.00  0.00     0.314 C 
ATOM     11  C   UNL A   1      32.460  25.819  24.246  1.00  0.00     0.206 C 
ATOM     12  N   UNL A   1      32.653  29.347  25.389  1.00  0.00    -0.205 N 
ATOM     13  S   UNL A   1      32.915  26.898  26.509  1.00  0.00    -0.030 SA
ATOM     14  C   UNL A   1      33.545  25.726  25.329  1.00  0.00     0.120 C 
ATOM     15  C   UNL A   1      32.842  24.784  23.210  1.00  0.00     0.187 C 
ATOM     16  H   UNL A   1      32.148  29.966  24.815  1.00  0.00     0.316 HD
ATOM     17  C   UNL A   1      33.923  24.308  25.670  1.00  0.00     0.156 C 
ATOM     18  S   UNL A   1      33.571  23.428  24.155  1.00  0.00     0.155 S 
ATOM     19  O   UNL A   1      34.438  29.375  26.904  1.00  0.00    -0.247 OA
ATOM     20  O   UNL A   1      34.822  23.035  23.516  1.00  0.00    -0.229 OA
ATOM     21  O   UNL A   1      32.538  22.465  24.432  1.00  0.00    -0.229 OA
BRANCH   9  22
ATOM     22  C   UNL A   1      31.491  27.669  22.613  1.00  0.00     0.273 C 
BRANCH  22  23
ATOM     23  C   UNL A   1      30.189  28.602  22.511  1.00  0.00    -0.007 A 
ATOM     24  C   UNL A   1      27.273  31.569  23.762  1.00  0.00     0.044 C 
ATOM     25  C   UNL A   1      28.052  30.522  22.991  1.00  0.00    -0.051 A 
ATOM     26  C   UNL A   1      27.854  29.153  23.195  1.00  0.00     0.004 A 
ATOM     27  C   UNL A   1      29.157  30.856  22.214  1.00  0.00     0.004 A 
ATOM     28  C   UNL A   1      28.905  28.203  22.941  1.00  0.00     0.008 A 
ATOM     29  C   UNL A   1      30.170  29.888  21.920  1.00  0.00     0.008 A 
ENDBRANCH  22  23
ENDBRANCH   9  22
ENDBRANCH   7   8
ENDBRANCH   6   7
ENDBRANCH   3   6
ENDBRANCH   1   2
BRANCH   1  30
ATOM     30  C   UNL A   1      34.107  34.472  30.788  1.00  0.00     0.023 C 
BRANCH  30  31
ATOM     31  C   UNL A   1      34.506  33.262  31.557  1.00  0.00     0.023 C 
BRANCH  31  32
ATOM     32  C   UNL A   1      35.814  32.541  31.744  1.00  0.00     0.116 C 
BRANCH  32  33
ATOM     33  N   UNL A   1      37.011  32.792  30.962  1.00  0.00    -0.352 N 
ATOM     34  C   UNL A   1      37.473  32.185  29.781  1.00  0.00     0.251 C 
ATOM     35  H   UNL A   1      37.593  33.502  31.315  1.00  0.00     0.163 HD
ATOM     36  O   UNL A   1      38.375  32.747  29.157  1.00  0.00    -0.269 OA
BRANCH  34  37
ATOM     37  C   UNL A   1      36.988  30.880  29.195  1.00  0.00     0.039 A 
ATOM     38  C   UNL A   1      36.701  29.868  30.098  1.00  0.00     0.014 A 
ATOM     39  C   UNL A   1      37.529  30.465  28.023  1.00  0.00     0.014 A 
ATOM     40  C   UNL A   1      37.636  28.862  30.209  1.00  0.00     0.010 A 
ATOM     41  C   UNL A   1      38.631  29.700  28.177  1.00  0.00     0.010 A 
ATOM     42  C   UNL A   1      38.711  28.966  29.352  1.00  0.00    -0.014 A 
BRANCH  42  43
ATOM     43  C   UNL A   1      40.033  28.465  29.573  1.00  0.00     0.031 A 
ATOM     44  C   UNL A   1      40.253  27.107  29.085  1.00  0.00     0.074 A 
ATOM     45  C   UNL A   1      40.933  29.448  29.811  1.00  0.00     0.049 A 
ATOM     46  N   UNL A   1      41.192  26.335  29.475  1.00  0.00    -0.248 NA
ATOM     47  C   UNL A   1      39.358  26.461  28.119  1.00  0.00     0.031 C 
ATOM     48  C   UNL A   1      42.370  29.498  29.597  1.00  0.00     0.029 A 
ATOM     49  N   UNL A   1      40.659  30.660  30.463  1.00  0.00    -0.354 N 
ATOM     50  C   UNL A   1      41.309  25.374  28.493  1.00  0.00     0.074 A 
ATOM     51  C   UNL A   1      40.038  25.352  27.826  1.00  0.00     0.031 C 
ATOM     52  C   UNL A   1      42.889  30.475  30.370  1.00  0.00     0.029 A 
ATOM     53  C   UNL A   1      41.809  30.995  31.199  1.00  0.00     0.049 A 
ATOM     54  H   UNL A   1      39.822  31.176  30.415  1.00  0.00     0.167 HD
ATOM     55  C   UNL A   1      42.561  24.919  28.208  1.00  0.00     0.037 A 
ATOM     56  C   UNL A   1      41.745  30.882  32.561  1.00  0.00     0.037 A 
ATOM     57  C   UNL A   1      43.528  25.623  29.063  1.00  0.00     0.049 A 
ATOM     58  C   UNL A   1      42.537  29.693  33.063  1.00  0.00     0.074 A 
ATOM     59  C   UNL A   1      44.403  26.672  28.827  1.00  0.00     0.029 A 
ATOM     60  N   UNL A   1      43.391  25.535  30.443  1.00  0.00    -0.354 N 
ATOM     61  N   UNL A   1      42.845  28.654  32.333  1.00  0.00    -0.248 NA
ATOM     62  C   UNL A   1      43.090  29.608  34.409  1.00  0.00     0.031 C 
ATOM     63  C   UNL A   1      44.759  27.235  30.086  1.00  0.00     0.029 A 
ATOM     64  C   UNL A   1      44.094  26.536  31.079  1.00  0.00     0.049 A 
ATOM     65  H   UNL A   1      42.859  24.848  30.906  1.00  0.00     0.167 HD
ATOM     66  C   UNL A   1      43.617  27.785  33.059  1.00  0.00     0.074 A 
ATOM     67  C   UNL A   1      43.748  28.436  34.350  1.00  0.00     0.031 C 
ATOM     68  C   UNL A   1      44.081  26.609  32.534  1.00  0.00     0.037 A 
BRANCH  55  69
ATOM     69  C   UNL A   1      42.979  24.090  27.016  1.00  0.00     0.057 A 
ATOM     70  C   UNL A   1      43.416  22.763  27.211  1.00  0.00     0.134 A 
ATOM     71  C   UNL A   1      42.969  24.493  25.667  1.00  0.00     0.134 A 
ATOM     72  F   UNL A   1      43.435  22.197  28.424  1.00  0.00    -0.206 F 
ATOM     73  C   UNL A   1      43.843  21.931  26.169  1.00  0.00     0.040 A 
ATOM     74  C   UNL A   1      43.411  23.677  24.615  1.00  0.00     0.040 A 
ATOM     75  F   UNL A   1      42.491  25.674  25.270  1.00  0.00    -0.206 F 
ATOM     76  C   UNL A   1      43.849  22.389  24.864  1.00  0.00     0.006 A 
ENDBRANCH  55  69
BRANCH  56  77
ATOM     77  C   UNL A   1      40.423  31.342  33.096  1.00  0.00     0.057 A 
ATOM     78  C   UNL A   1      39.487  30.357  33.471  1.00  0.00     0.134 A 
ATOM     79  C   UNL A   1      40.249  32.617  33.647  1.00  0.00     0.134 A 
ATOM     80  F   UNL A   1      39.599  29.107  32.990  1.00  0.00    -0.206 F 
ATOM     81  C   UNL A   1      38.509  30.593  34.441  1.00  0.00     0.040 A 
ATOM     82  C   UNL A   1      39.261  32.867  34.610  1.00  0.00     0.040 A 
ATOM     83  F   UNL A   1      41.115  33.604  33.373  1.00  0.00    -0.206 F 
ATOM     84  C   UNL A   1      38.418  31.845  35.038  1.00  0.00     0.006 A 
ENDBRANCH  56  77
BRANCH  68  85
ATOM     85  C   UNL A   1      44.610  25.414  33.307  1.00  0.00     0.057 A 
ATOM     86  C   UNL A   1      45.941  24.977  33.288  1.00  0.00     0.134 A 
ATOM     87  C   UNL A   1      43.791  24.745  34.256  1.00  0.00     0.134 A 
ATOM     88  F   UNL A   1      46.877  25.580  32.546  1.00  0.00    -0.206 F 
ATOM     89  C   UNL A   1      46.402  23.923  34.089  1.00  0.00     0.040 A 
ATOM     90  C   UNL A   1      44.263  23.759  35.123  1.00  0.00     0.040 A 
ATOM     91  F   UNL A   1      42.491  25.034  34.415  1.00  0.00    -0.206 F 
ATOM     92  C   UNL A   1      45.569  23.323  35.023  1.00  0.00     0.006 A 
ENDBRANCH  68  85
ENDBRANCH  42  43
ENDBRANCH  34  37
ENDBRANCH  32  33
ENDBRANCH  31  32
ENDBRANCH  30  31
ENDBRANCH   1  30
TORSDOF 15
ENDMDL
