MODEL 1
REMARK VINA RESULT:     -12.7      0.000      0.000
REMARK SMILES Cc1cc2nc(NC(=O)[C@H]3[C@@H](C(=O)NCCCCNC(=O)c4ccc(-c5c6nc(c(-c7c(F)cccc7F)c7ccc([nH]7)c(-c7c(F)cccc7F)c7nc(c(-c8c(F)cccc8F)c8ccc5[nH]8)C=C7)C=C6)cc4)[C@@H]4C=C[C@H]3C4)sc2cc1C
REMARK SMILES IDX 16 1 15 2 14 3 12 4 13 5 11 7 10 8 79 9 76 10 78 11 80 12
REMARK SMILES IDX 77 13 8 14 7 15 9 17 6 18 1 19 2 20 3 21 84 22 4 23 83 24
REMARK SMILES IDX 85 25 5 26 82 27 81 28 17 29 18 30 19 31 20 32 21 34 22 35
REMARK SMILES IDX 23 36 75 37 24 38 74 39 25 40 26 41 27 42 68 43 28 44 73 45
REMARK SMILES IDX 67 46 69 47 29 48 72 49 66 50 65 51 30 53 56 54 39 55 55 56
REMARK SMILES IDX 40 57 43 58 54 59 70 60 41 61 42 62 53 64 71 65 44 66 31 67
REMARK SMILES IDX 32 68 37 69 33 70 34 71 36 72 38 73 35 74 57 75 58 76 63 77
REMARK SMILES IDX 59 78 60 79 62 80 64 81 61 82 45 83 46 84 51 85 47 86 48 87
REMARK SMILES IDX 50 88 52 89 49 90
REMARK H PARENT 14 6 7 16 19 33 69 52 43 63
REMARK Flexibility Score: inf
ROOT
ATOM      1  C   UNL A   1      38.220  23.814  26.310  1.00  0.00     0.023 C 
ENDROOT
BRANCH   1   2
ATOM      2  C   UNL A   1      37.808  22.545  25.595  1.00  0.00     0.116 C 
BRANCH   2   3
ATOM      3  N   UNL A   1      37.219  22.727  24.285  1.00  0.00    -0.356 N 
ATOM      4  C   UNL A   1      35.918  22.703  23.869  1.00  0.00     0.224 C 
ATOM      5  O   UNL A   1      35.715  23.145  22.730  1.00  0.00    -0.275 OA
ATOM      6  H   UNL A   1      37.870  22.898  23.567  1.00  0.00     0.163 HD
BRANCH   4   7
ATOM      7  C   UNL A   1      34.747  22.028  24.616  1.00  0.00     0.098 C 
ATOM      8  C   UNL A   1      33.268  22.478  24.394  1.00  0.00     0.099 C 
ATOM      9  C   UNL A   1      33.007  23.250  25.738  1.00  0.00     0.025 C 
ATOM     10  C   UNL A   1      34.948  22.220  26.149  1.00  0.00     0.025 C 
ATOM     11  C   UNL A   1      32.714  22.137  26.733  1.00  0.00    -0.027 C 
ATOM     12  C   UNL A   1      34.377  23.617  26.337  1.00  0.00     0.017 C 
ATOM     13  C   UNL A   1      33.872  21.483  26.931  1.00  0.00    -0.027 C 
BRANCH   8  14
ATOM     14  C   UNL A   1      32.983  22.975  22.975  1.00  0.00     0.230 C 
ATOM     15  N   UNL A   1      33.062  24.273  22.593  1.00  0.00    -0.302 N 
ATOM     16  H   UNL A   1      33.150  24.448  21.628  1.00  0.00     0.172 HD
ATOM     17  O   UNL A   1      32.655  22.169  22.093  1.00  0.00    -0.274 OA
BRANCH  15  18
ATOM     18  C   UNL A   1      33.032  25.352  23.411  1.00  0.00     0.190 A 
ATOM     19  C   UNL A   1      34.690  29.553  27.303  1.00  0.00     0.044 C 
ATOM     20  C   UNL A   1      33.795  28.793  26.364  1.00  0.00    -0.046 A 
ATOM     21  C   UNL A   1      34.368  27.747  25.624  1.00  0.00     0.033 A 
ATOM     22  C   UNL A   1      32.419  29.058  26.242  1.00  0.00    -0.047 A 
ATOM     23  C   UNL A   1      33.575  26.947  24.790  1.00  0.00     0.084 A 
ATOM     24  C   UNL A   1      31.620  28.284  25.374  1.00  0.00     0.025 A 
ATOM     25  C   UNL A   1      31.723  30.130  27.038  1.00  0.00     0.044 C 
ATOM     26  N   UNL A   1      34.031  25.876  24.056  1.00  0.00    -0.220 NA
ATOM     27  C   UNL A   1      32.212  27.220  24.680  1.00  0.00     0.057 A 
ATOM     28  S   UNL A   1      31.499  26.049  23.635  1.00  0.00    -0.097 S 
ENDBRANCH  15  18
ENDBRANCH   8  14
ENDBRANCH   4   7
ENDBRANCH   2   3
ENDBRANCH   1   2
BRANCH   1  29
ATOM     29  C   UNL A   1      39.417  23.639  27.240  1.00  0.00     0.023 C 
BRANCH  29  30
ATOM     30  C   UNL A   1      40.292  22.391  27.009  1.00  0.00     0.116 C 
BRANCH  30  31
ATOM     31  N   UNL A   1      41.325  22.502  25.987  1.00  0.00    -0.352 N 
ATOM     32  C   UNL A   1      42.353  23.382  25.767  1.00  0.00     0.251 C 
ATOM     33  H   UNL A   1      41.272  21.793  25.307  1.00  0.00     0.163 HD
ATOM     34  O   UNL A   1      43.246  23.014  24.998  1.00  0.00    -0.269 OA
BRANCH  32  35
ATOM     35  C   UNL A   1      42.389  24.768  26.299  1.00  0.00     0.039 A 
ATOM     36  C   UNL A   1      42.887  25.090  27.553  1.00  0.00     0.014 A 
ATOM     37  C   UNL A   1      41.753  25.774  25.551  1.00  0.00     0.014 A 
ATOM     38  C   UNL A   1      42.562  26.292  28.145  1.00  0.00     0.010 A 
ATOM     39  C   UNL A   1      41.497  27.025  26.110  1.00  0.00     0.010 A 
ATOM     40  C   UNL A   1      41.831  27.248  27.440  1.00  0.00    -0.014 A 
BRANCH  40  41
ATOM     41  C   UNL A   1      41.527  28.465  28.185  1.00  0.00     0.031 A 
ATOM     42  C   UNL A   1      42.586  29.511  28.118  1.00  0.00     0.074 A 
ATOM     43  C   UNL A   1      40.411  28.656  28.911  1.00  0.00     0.049 A 
ATOM     44  N   UNL A   1      43.333  29.958  29.077  1.00  0.00    -0.248 NA
ATOM     45  C   UNL A   1      42.952  30.010  26.784  1.00  0.00     0.031 C 
ATOM     46  C   UNL A   1      39.175  27.872  28.905  1.00  0.00     0.029 A 
ATOM     47  N   UNL A   1      40.132  29.675  29.773  1.00  0.00    -0.354 N 
ATOM     48  C   UNL A   1      44.156  30.919  28.499  1.00  0.00     0.074 A 
ATOM     49  C   UNL A   1      43.967  30.824  27.074  1.00  0.00     0.031 C 
ATOM     50  C   UNL A   1      38.208  28.567  29.544  1.00  0.00     0.029 A 
ATOM     51  C   UNL A   1      38.798  29.758  30.131  1.00  0.00     0.049 A 
ATOM     52  H   UNL A   1      40.819  30.294  30.111  1.00  0.00     0.167 HD
ATOM     53  C   UNL A   1      44.788  31.867  29.240  1.00  0.00     0.037 A 
ATOM     54  C   UNL A   1      38.214  30.776  30.804  1.00  0.00     0.037 A 
ATOM     55  C   UNL A   1      44.882  31.495  30.624  1.00  0.00     0.049 A 
ATOM     56  C   UNL A   1      39.269  31.491  31.558  1.00  0.00     0.074 A 
ATOM     57  C   UNL A   1      45.576  30.557  31.357  1.00  0.00     0.029 A 
ATOM     58  N   UNL A   1      43.910  31.995  31.448  1.00  0.00    -0.354 N 
ATOM     59  N   UNL A   1      39.914  30.991  32.574  1.00  0.00    -0.248 NA
ATOM     60  C   UNL A   1      39.847  32.700  30.988  1.00  0.00     0.031 C 
ATOM     61  C   UNL A   1      44.755  30.270  32.488  1.00  0.00     0.029 A 
ATOM     62  C   UNL A   1      43.605  31.055  32.395  1.00  0.00     0.049 A 
ATOM     63  H   UNL A   1      43.499  32.886  31.373  1.00  0.00     0.167 HD
ATOM     64  C   UNL A   1      41.171  31.565  32.508  1.00  0.00     0.074 A 
ATOM     65  C   UNL A   1      41.015  32.718  31.632  1.00  0.00     0.031 C 
ATOM     66  C   UNL A   1      42.274  30.887  32.937  1.00  0.00     0.037 A 
BRANCH  53  67
ATOM     67  C   UNL A   1      44.952  33.299  28.789  1.00  0.00     0.057 A 
ATOM     68  C   UNL A   1      43.815  34.096  28.569  1.00  0.00     0.134 A 
ATOM     69  C   UNL A   1      46.157  33.819  28.271  1.00  0.00     0.134 A 
ATOM     70  F   UNL A   1      42.604  33.697  28.984  1.00  0.00    -0.206 F 
ATOM     71  C   UNL A   1      43.866  35.293  27.840  1.00  0.00     0.040 A 
ATOM     72  C   UNL A   1      46.229  35.035  27.588  1.00  0.00     0.040 A 
ATOM     73  F   UNL A   1      47.306  33.131  28.306  1.00  0.00    -0.206 F 
ATOM     74  C   UNL A   1      45.076  35.763  27.345  1.00  0.00     0.006 A 
ENDBRANCH  53  67
BRANCH  54  75
ATOM     75  C   UNL A   1      36.874  31.357  30.577  1.00  0.00     0.057 A 
ATOM     76  C   UNL A   1      35.986  31.553  31.644  1.00  0.00     0.134 A 
ATOM     77  C   UNL A   1      36.547  32.001  29.371  1.00  0.00     0.134 A 
ATOM     78  F   UNL A   1      36.232  31.006  32.843  1.00  0.00    -0.206 F 
ATOM     79  C   UNL A   1      34.860  32.378  31.530  1.00  0.00     0.040 A 
ATOM     80  C   UNL A   1      35.422  32.819  29.242  1.00  0.00     0.040 A 
ATOM     81  F   UNL A   1      37.359  31.937  28.306  1.00  0.00    -0.206 F 
ATOM     82  C   UNL A   1      34.584  33.025  30.330  1.00  0.00     0.006 A 
ENDBRANCH  54  75
BRANCH  66  83
ATOM     83  C   UNL A   1      42.053  29.717  33.852  1.00  0.00     0.057 A 
ATOM     84  C   UNL A   1      41.830  28.404  33.413  1.00  0.00     0.134 A 
ATOM     85  C   UNL A   1      42.187  29.912  35.232  1.00  0.00     0.134 A 
ATOM     86  F   UNL A   1      41.777  28.109  32.107  1.00  0.00    -0.206 F 
ATOM     87  C   UNL A   1      41.704  27.342  34.313  1.00  0.00     0.040 A 
ATOM     88  C   UNL A   1      42.100  28.855  36.138  1.00  0.00     0.040 A 
ATOM     89  F   UNL A   1      42.453  31.136  35.719  1.00  0.00    -0.206 F 
ATOM     90  C   UNL A   1      41.846  27.565  35.680  1.00  0.00     0.006 A 
ENDBRANCH  66  83
ENDBRANCH  40  41
ENDBRANCH  32  35
ENDBRANCH  30  31
ENDBRANCH  29  30
ENDBRANCH   1  29
TORSDOF 13
ENDMDL
MODEL 2
REMARK VINA RESULT:     -12.6      2.887      7.935
REMARK SMILES Cc1cc2nc(NC(=O)[C@H]3[C@@H](C(=O)NCCCCNC(=O)c4ccc(-c5c6nc(c(-c7c(F)cccc7F)c7ccc([nH]7)c(-c7c(F)cccc7F)c7nc(c(-c8c(F)cccc8F)c8ccc5[nH]8)C=C7)C=C6)cc4)[C@@H]4C=C[C@H]3C4)sc2cc1C
REMARK SMILES IDX 16 1 15 2 14 3 12 4 13 5 11 7 10 8 79 9 76 10 78 11 80 12
REMARK SMILES IDX 77 13 8 14 7 15 9 17 6 18 1 19 2 20 3 21 84 22 4 23 83 24
REMARK SMILES IDX 85 25 5 26 82 27 81 28 17 29 18 30 19 31 20 32 21 34 22 35
REMARK SMILES IDX 23 36 75 37 24 38 74 39 25 40 26 41 27 42 68 43 28 44 73 45
REMARK SMILES IDX 67 46 69 47 29 48 72 49 66 50 65 51 30 53 56 54 39 55 55 56
REMARK SMILES IDX 40 57 43 58 54 59 70 60 41 61 42 62 53 64 71 65 44 66 31 67
REMARK SMILES IDX 32 68 37 69 33 70 34 71 36 72 38 73 35 74 57 75 58 76 63 77
REMARK SMILES IDX 59 78 60 79 62 80 64 81 61 82 45 83 46 84 51 85 47 86 48 87
REMARK SMILES IDX 50 88 52 89 49 90
REMARK H PARENT 14 6 7 16 19 33 69 52 43 63
REMARK Flexibility Score: inf
ROOT
ATOM      1  C   UNL A   1      34.797  29.708  27.694  1.00  0.00     0.023 C 
ENDROOT
BRANCH   1   2
ATOM      2  C   UNL A   1      33.395  30.040  27.232  1.00  0.00     0.116 C 
BRANCH   2   3
ATOM      3  N   UNL A   1      32.390  29.034  27.509  1.00  0.00    -0.356 N 
ATOM      4  C   UNL A   1      31.769  28.130  26.696  1.00  0.00     0.224 C 
ATOM      5  O   UNL A   1      31.141  27.234  27.276  1.00  0.00    -0.275 OA
ATOM      6  H   UNL A   1      32.103  28.996  28.450  1.00  0.00     0.163 HD
BRANCH   4   7
ATOM      7  C   UNL A   1      31.649  28.236  25.160  1.00  0.00     0.098 C 
ATOM      8  C   UNL A   1      31.326  26.989  24.276  1.00  0.00     0.099 C 
ATOM      9  C   UNL A   1      32.737  26.730  23.634  1.00  0.00     0.025 C 
ATOM     10  C   UNL A   1      33.005  28.738  24.579  1.00  0.00     0.025 C 
ATOM     11  C   UNL A   1      32.802  27.745  22.503  1.00  0.00    -0.027 C 
ATOM     12  C   UNL A   1      33.785  27.434  24.515  1.00  0.00     0.017 C 
ATOM     13  C   UNL A   1      32.902  28.956  23.078  1.00  0.00    -0.027 C 
BRANCH   8  14
ATOM     14  C   UNL A   1      30.425  25.963  24.967  1.00  0.00     0.230 C 
ATOM     15  N   UNL A   1      30.883  24.897  25.669  1.00  0.00    -0.302 N 
ATOM     16  H   UNL A   1      30.257  24.480  26.304  1.00  0.00     0.172 HD
ATOM     17  O   UNL A   1      29.193  26.080  24.903  1.00  0.00    -0.274 OA
BRANCH  15  18
ATOM     18  C   UNL A   1      32.120  24.353  25.580  1.00  0.00     0.190 A 
ATOM     19  C   UNL A   1      37.996  23.525  26.157  1.00  0.00     0.044 C 
ATOM     20  C   UNL A   1      36.579  23.242  25.743  1.00  0.00    -0.046 A 
ATOM     21  C   UNL A   1      35.581  24.114  26.203  1.00  0.00     0.033 A 
ATOM     22  C   UNL A   1      36.234  22.180  24.887  1.00  0.00    -0.047 A 
ATOM     23  C   UNL A   1      34.251  23.955  25.790  1.00  0.00     0.084 A 
ATOM     24  C   UNL A   1      34.891  21.988  24.498  1.00  0.00     0.025 A 
ATOM     25  C   UNL A   1      37.254  21.233  24.314  1.00  0.00     0.044 C 
ATOM     26  N   UNL A   1      33.208  24.777  26.151  1.00  0.00    -0.220 NA
ATOM     27  C   UNL A   1      33.923  22.900  24.940  1.00  0.00     0.057 A 
ATOM     28  S   UNL A   1      32.241  22.992  24.571  1.00  0.00    -0.097 S 
ENDBRANCH  15  18
ENDBRANCH   8  14
ENDBRANCH   4   7
ENDBRANCH   2   3
ENDBRANCH   1   2
BRANCH   1  29
ATOM     29  C   UNL A   1      35.781  30.867  27.565  1.00  0.00     0.023 C 
BRANCH  29  30
ATOM     30  C   UNL A   1      35.301  32.238  28.082  1.00  0.00     0.116 C 
BRANCH  30  31
ATOM     31  N   UNL A   1      34.799  32.279  29.449  1.00  0.00    -0.352 N 
ATOM     32  C   UNL A   1      35.368  32.055  30.676  1.00  0.00     0.251 C 
ATOM     33  H   UNL A   1      33.846  32.517  29.503  1.00  0.00     0.163 HD
ATOM     34  O   UNL A   1      34.759  32.486  31.660  1.00  0.00    -0.269 OA
BRANCH  32  35
ATOM     35  C   UNL A   1      36.588  31.236  30.889  1.00  0.00     0.039 A 
ATOM     36  C   UNL A   1      37.874  31.747  30.802  1.00  0.00     0.014 A 
ATOM     37  C   UNL A   1      36.427  29.847  31.042  1.00  0.00     0.014 A 
ATOM     38  C   UNL A   1      38.950  30.902  30.632  1.00  0.00     0.010 A 
ATOM     39  C   UNL A   1      37.523  28.988  30.961  1.00  0.00     0.010 A 
ATOM     40  C   UNL A   1      38.773  29.519  30.670  1.00  0.00    -0.014 A 
BRANCH  40  41
ATOM     41  C   UNL A   1      39.983  28.735  30.450  1.00  0.00     0.031 A 
ATOM     42  C   UNL A   1      40.848  28.582  31.654  1.00  0.00     0.074 A 
ATOM     43  C   UNL A   1      40.342  28.204  29.268  1.00  0.00     0.049 A 
ATOM     44  N   UNL A   1      42.039  29.050  31.850  1.00  0.00    -0.248 NA
ATOM     45  C   UNL A   1      40.244  27.951  32.837  1.00  0.00     0.031 C 
ATOM     46  C   UNL A   1      39.533  28.038  28.060  1.00  0.00     0.029 A 
ATOM     47  N   UNL A   1      41.529  27.620  28.934  1.00  0.00    -0.354 N 
ATOM     48  C   UNL A   1      42.404  28.632  33.126  1.00  0.00     0.074 A 
ATOM     49  C   UNL A   1      41.225  28.069  33.731  1.00  0.00     0.031 C 
ATOM     50  C   UNL A   1      40.171  27.200  27.213  1.00  0.00     0.029 A 
ATOM     51  C   UNL A   1      41.488  26.903  27.750  1.00  0.00     0.049 A 
ATOM     52  H   UNL A   1      42.340  27.702  29.485  1.00  0.00     0.167 HD
ATOM     53  C   UNL A   1      43.703  28.592  33.526  1.00  0.00     0.037 A 
ATOM     54  C   UNL A   1      42.448  26.072  27.287  1.00  0.00     0.037 A 
ATOM     55  C   UNL A   1      44.545  29.420  32.709  1.00  0.00     0.049 A 
ATOM     56  C   UNL A   1      43.730  26.453  27.923  1.00  0.00     0.074 A 
ATOM     57  C   UNL A   1      44.718  30.773  32.511  1.00  0.00     0.029 A 
ATOM     58  N   UNL A   1      45.203  28.787  31.690  1.00  0.00    -0.354 N 
ATOM     59  N   UNL A   1      44.368  27.564  27.683  1.00  0.00    -0.248 NA
ATOM     60  C   UNL A   1      44.184  25.715  29.093  1.00  0.00     0.031 C 
ATOM     61  C   UNL A   1      45.175  30.907  31.167  1.00  0.00     0.029 A 
ATOM     62  C   UNL A   1      45.267  29.630  30.613  1.00  0.00     0.049 A 
ATOM     63  H   UNL A   1      45.572  27.875  31.725  1.00  0.00     0.167 HD
ATOM     64  C   UNL A   1      45.002  27.869  28.875  1.00  0.00     0.074 A 
ATOM     65  C   UNL A   1      44.995  26.626  29.635  1.00  0.00     0.031 C 
ATOM     66  C   UNL A   1      45.215  29.164  29.244  1.00  0.00     0.037 A 
BRANCH  53  67
ATOM     67  C   UNL A   1      44.269  27.493  34.393  1.00  0.00     0.057 A 
ATOM     68  C   UNL A   1      44.232  26.161  33.944  1.00  0.00     0.134 A 
ATOM     69  C   UNL A   1      44.561  27.654  35.764  1.00  0.00     0.134 A 
ATOM     70  F   UNL A   1      43.933  25.872  32.669  1.00  0.00    -0.206 F 
ATOM     71  C   UNL A   1      44.418  25.072  34.807  1.00  0.00     0.040 A 
ATOM     72  C   UNL A   1      44.798  26.579  36.622  1.00  0.00     0.040 A 
ATOM     73  F   UNL A   1      44.529  28.851  36.366  1.00  0.00    -0.206 F 
ATOM     74  C   UNL A   1      44.698  25.280  36.152  1.00  0.00     0.006 A 
ENDBRANCH  53  67
BRANCH  54  75
ATOM     75  C   UNL A   1      42.265  24.780  26.593  1.00  0.00     0.057 A 
ATOM     76  C   UNL A   1      43.031  24.457  25.463  1.00  0.00     0.134 A 
ATOM     77  C   UNL A   1      41.557  23.720  27.186  1.00  0.00     0.134 A 
ATOM     78  F   UNL A   1      43.767  25.394  24.850  1.00  0.00    -0.206 F 
ATOM     79  C   UNL A   1      43.120  23.146  24.977  1.00  0.00     0.040 A 
ATOM     80  C   UNL A   1      41.631  22.410  26.705  1.00  0.00     0.040 A 
ATOM     81  F   UNL A   1      40.847  23.901  28.308  1.00  0.00    -0.206 F 
ATOM     82  C   UNL A   1      42.430  22.116  25.608  1.00  0.00     0.006 A 
ENDBRANCH  54  75
BRANCH  66  83
ATOM     83  C   UNL A   1      45.139  30.210  28.169  1.00  0.00     0.057 A 
ATOM     84  C   UNL A   1      43.956  30.852  27.777  1.00  0.00     0.134 A 
ATOM     85  C   UNL A   1      46.332  30.664  27.594  1.00  0.00     0.134 A 
ATOM     86  F   UNL A   1      42.780  30.545  28.340  1.00  0.00    -0.206 F 
ATOM     87  C   UNL A   1      43.959  31.873  26.821  1.00  0.00     0.040 A 
ATOM     88  C   UNL A   1      46.352  31.706  26.666  1.00  0.00     0.040 A 
ATOM     89  F   UNL A   1      47.507  30.129  27.962  1.00  0.00    -0.206 F 
ATOM     90  C   UNL A   1      45.161  32.307  26.268  1.00  0.00     0.006 A 
ENDBRANCH  66  83
ENDBRANCH  40  41
ENDBRANCH  32  35
ENDBRANCH  30  31
ENDBRANCH  29  30
ENDBRANCH   1  29
TORSDOF 13
ENDMDL
MODEL 3
REMARK VINA RESULT:     -12.4      2.954      8.100
REMARK SMILES Cc1cc2nc(NC(=O)[C@H]3[C@@H](C(=O)NCCCCNC(=O)c4ccc(-c5c6nc(c(-c7c(F)cccc7F)c7ccc([nH]7)c(-c7c(F)cccc7F)c7nc(c(-c8c(F)cccc8F)c8ccc5[nH]8)C=C7)C=C6)cc4)[C@@H]4C=C[C@H]3C4)sc2cc1C
REMARK SMILES IDX 16 1 15 2 14 3 12 4 13 5 11 7 10 8 79 9 76 10 78 11 80 12
REMARK SMILES IDX 77 13 8 14 7 15 9 17 6 18 1 19 2 20 3 21 84 22 4 23 83 24
REMARK SMILES IDX 85 25 5 26 82 27 81 28 17 29 18 30 19 31 20 32 21 34 22 35
REMARK SMILES IDX 23 36 75 37 24 38 74 39 25 40 26 41 27 42 68 43 28 44 73 45
REMARK SMILES IDX 67 46 69 47 29 48 72 49 66 50 65 51 30 53 56 54 39 55 55 56
REMARK SMILES IDX 40 57 43 58 54 59 70 60 41 61 42 62 53 64 71 65 44 66 31 67
REMARK SMILES IDX 32 68 37 69 33 70 34 71 36 72 38 73 35 74 57 75 58 76 63 77
REMARK SMILES IDX 59 78 60 79 62 80 64 81 61 82 45 83 46 84 51 85 47 86 48 87
REMARK SMILES IDX 50 88 52 89 49 90
REMARK H PARENT 14 6 7 16 19 33 69 52 43 63
REMARK Flexibility Score: inf
ROOT
ATOM      1  C   UNL A   1      32.810  30.281  27.115  1.00  0.00     0.023 C 
ENDROOT
BRANCH   1   2
ATOM      2  C   UNL A   1      32.169  28.911  27.142  1.00  0.00     0.116 C 
BRANCH   2   3
ATOM      3  N   UNL A   1      33.070  27.795  26.944  1.00  0.00    -0.356 N 
ATOM      4  C   UNL A   1      33.307  27.009  25.852  1.00  0.00     0.224 C 
ATOM      5  O   UNL A   1      34.318  26.297  25.917  1.00  0.00    -0.275 OA
ATOM      6  H   UNL A   1      33.605  27.560  27.735  1.00  0.00     0.163 HD
BRANCH   4   7
ATOM      7  C   UNL A   1      32.347  26.816  24.657  1.00  0.00     0.098 C 
ATOM      8  C   UNL A   1      31.314  25.645  24.618  1.00  0.00     0.099 C 
ATOM      9  C   UNL A   1      31.999  24.706  23.560  1.00  0.00     0.025 C 
ATOM     10  C   UNL A   1      33.187  26.589  23.365  1.00  0.00     0.025 C 
ATOM     11  C   UNL A   1      31.614  25.334  22.229  1.00  0.00    -0.027 C 
ATOM     12  C   UNL A   1      33.485  25.102  23.479  1.00  0.00     0.017 C 
ATOM     13  C   UNL A   1      32.286  26.495  22.144  1.00  0.00    -0.027 C 
BRANCH   8  14
ATOM     14  C   UNL A   1      30.784  25.247  25.998  1.00  0.00     0.230 C 
ATOM     15  N   UNL A   1      31.223  24.175  26.703  1.00  0.00    -0.302 N 
ATOM     16  H   UNL A   1      31.042  24.175  27.670  1.00  0.00     0.172 HD
ATOM     17  O   UNL A   1      29.896  25.923  26.536  1.00  0.00    -0.274 OA
BRANCH  15  18
ATOM     18  C   UNL A   1      31.887  23.106  26.203  1.00  0.00     0.190 A 
ATOM     19  C   UNL A   1      33.044  17.904  23.531  1.00  0.00     0.044 C 
ATOM     20  C   UNL A   1      33.314  19.192  24.257  1.00  0.00    -0.046 A 
ATOM     21  C   UNL A   1      32.232  20.061  24.462  1.00  0.00     0.033 A 
ATOM     22  C   UNL A   1      34.580  19.525  24.772  1.00  0.00    -0.047 A 
ATOM     23  C   UNL A   1      32.396  21.241  25.201  1.00  0.00     0.084 A 
ATOM     24  C   UNL A   1      34.765  20.730  25.482  1.00  0.00     0.025 A 
ATOM     25  C   UNL A   1      35.777  18.622  24.636  1.00  0.00     0.044 C 
ATOM     26  N   UNL A   1      31.393  22.138  25.490  1.00  0.00    -0.220 NA
ATOM     27  C   UNL A   1      33.656  21.558  25.706  1.00  0.00     0.057 A 
ATOM     28  S   UNL A   1      33.536  23.026  26.603  1.00  0.00    -0.097 S 
ENDBRANCH  15  18
ENDBRANCH   8  14
ENDBRANCH   4   7
ENDBRANCH   2   3
ENDBRANCH   1   2
BRANCH   1  29
ATOM     29  C   UNL A   1      34.326  30.259  27.287  1.00  0.00     0.023 C 
BRANCH  29  30
ATOM     30  C   UNL A   1      34.978  31.551  27.817  1.00  0.00     0.116 C 
BRANCH  30  31
ATOM     31  N   UNL A   1      34.639  31.939  29.180  1.00  0.00    -0.352 N 
ATOM     32  C   UNL A   1      35.336  31.971  30.360  1.00  0.00     0.251 C 
ATOM     33  H   UNL A   1      33.707  32.242  29.273  1.00  0.00     0.163 HD
ATOM     34  O   UNL A   1      34.860  32.656  31.270  1.00  0.00    -0.269 OA
BRANCH  32  35
ATOM     35  C   UNL A   1      36.542  31.150  30.636  1.00  0.00     0.039 A 
ATOM     36  C   UNL A   1      37.828  31.666  30.650  1.00  0.00     0.014 A 
ATOM     37  C   UNL A   1      36.376  29.757  30.740  1.00  0.00     0.014 A 
ATOM     38  C   UNL A   1      38.917  30.829  30.533  1.00  0.00     0.010 A 
ATOM     39  C   UNL A   1      37.479  28.903  30.712  1.00  0.00     0.010 A 
ATOM     40  C   UNL A   1      38.744  29.445  30.523  1.00  0.00    -0.014 A 
BRANCH  40  41
ATOM     41  C   UNL A   1      39.969  28.670  30.366  1.00  0.00     0.031 A 
ATOM     42  C   UNL A   1      40.793  28.558  31.603  1.00  0.00     0.074 A 
ATOM     43  C   UNL A   1      40.376  28.113  29.211  1.00  0.00     0.049 A 
ATOM     44  N   UNL A   1      41.970  29.046  31.829  1.00  0.00    -0.248 NA
ATOM     45  C   UNL A   1      40.154  27.951  32.780  1.00  0.00     0.031 C 
ATOM     46  C   UNL A   1      39.613  27.906  27.980  1.00  0.00     0.029 A 
ATOM     47  N   UNL A   1      41.580  27.535  28.935  1.00  0.00    -0.354 N 
ATOM     48  C   UNL A   1      42.295  28.665  33.127  1.00  0.00     0.074 A 
ATOM     49  C   UNL A   1      41.101  28.104  33.705  1.00  0.00     0.031 C 
ATOM     50  C   UNL A   1      40.290  27.054  27.179  1.00  0.00     0.029 A 
ATOM     51  C   UNL A   1      41.590  26.787  27.770  1.00  0.00     0.049 A 
ATOM     52  H   UNL A   1      42.371  27.641  29.512  1.00  0.00     0.167 HD
ATOM     53  C   UNL A   1      43.578  28.651  33.574  1.00  0.00     0.037 A 
ATOM     54  C   UNL A   1      42.575  25.956  27.363  1.00  0.00     0.037 A 
ATOM     55  C   UNL A   1      44.440  29.468  32.766  1.00  0.00     0.049 A 
ATOM     56  C   UNL A   1      43.829  26.369  28.033  1.00  0.00     0.074 A 
ATOM     57  C   UNL A   1      44.605  30.817  32.539  1.00  0.00     0.029 A 
ATOM     58  N   UNL A   1      45.141  28.817  31.788  1.00  0.00    -0.354 N 
ATOM     59  N   UNL A   1      44.463  27.481  27.787  1.00  0.00    -0.248 NA
ATOM     60  C   UNL A   1      44.250  25.667  29.238  1.00  0.00     0.031 C 
ATOM     61  C   UNL A   1      45.108  30.922  31.209  1.00  0.00     0.029 A 
ATOM     62  C   UNL A   1      45.234  29.632  30.692  1.00  0.00     0.049 A 
ATOM     63  H   UNL A   1      45.518  27.911  31.860  1.00  0.00     0.167 HD
ATOM     64  C   UNL A   1      45.051  27.824  28.992  1.00  0.00     0.074 A 
ATOM     65  C   UNL A   1      45.031  26.601  29.784  1.00  0.00     0.031 C 
ATOM     66  C   UNL A   1      45.236  29.131  29.335  1.00  0.00     0.037 A 
BRANCH  53  67
ATOM     67  C   UNL A   1      44.126  27.582  34.489  1.00  0.00     0.057 A 
ATOM     68  C   UNL A   1      44.154  26.243  34.059  1.00  0.00     0.134 A 
ATOM     69  C   UNL A   1      44.333  27.771  35.872  1.00  0.00     0.134 A 
ATOM     70  F   UNL A   1      43.938  25.928  32.774  1.00  0.00    -0.206 F 
ATOM     71  C   UNL A   1      44.321  25.172  34.949  1.00  0.00     0.040 A 
ATOM     72  C   UNL A   1      44.552  26.715  36.759  1.00  0.00     0.040 A 
ATOM     73  F   UNL A   1      44.231  28.974  36.452  1.00  0.00    -0.206 F 
ATOM     74  C   UNL A   1      44.517  25.407  36.304  1.00  0.00     0.006 A 
ENDBRANCH  53  67
BRANCH  54  75
ATOM     75  C   UNL A   1      42.432  24.644  26.697  1.00  0.00     0.057 A 
ATOM     76  C   UNL A   1      42.997  24.415  25.434  1.00  0.00     0.134 A 
ATOM     77  C   UNL A   1      41.999  23.506  27.400  1.00  0.00     0.134 A 
ATOM     78  F   UNL A   1      43.469  25.435  24.704  1.00  0.00    -0.206 F 
ATOM     79  C   UNL A   1      43.161  23.123  24.919  1.00  0.00     0.040 A 
ATOM     80  C   UNL A   1      42.149  22.213  26.892  1.00  0.00     0.040 A 
ATOM     81  F   UNL A   1      41.505  23.602  28.642  1.00  0.00    -0.206 F 
ATOM     82  C   UNL A   1      42.750  22.016  25.655  1.00  0.00     0.006 A 
ENDBRANCH  54  75
BRANCH  66  83
ATOM     83  C   UNL A   1      45.187  30.147  28.231  1.00  0.00     0.057 A 
ATOM     84  C   UNL A   1      44.013  30.771  27.785  1.00  0.00     0.134 A 
ATOM     85  C   UNL A   1      46.394  30.595  27.681  1.00  0.00     0.134 A 
ATOM     86  F   UNL A   1      42.822  30.470  28.320  1.00  0.00    -0.206 F 
ATOM     87  C   UNL A   1      44.039  31.766  26.804  1.00  0.00     0.040 A 
ATOM     88  C   UNL A   1      46.436  31.612  26.727  1.00  0.00     0.040 A 
ATOM     89  F   UNL A   1      47.561  30.078  28.100  1.00  0.00    -0.206 F 
ATOM     90  C   UNL A   1      45.254  32.194  26.276  1.00  0.00     0.006 A 
ENDBRANCH  66  83
ENDBRANCH  40  41
ENDBRANCH  32  35
ENDBRANCH  30  31
ENDBRANCH  29  30
ENDBRANCH   1  29
TORSDOF 13
ENDMDL
