MODEL 1
REMARK VINA RESULT:     -12.9      0.000      0.000
REMARK SMILES O=C(C[C@H]1S/C(=[NH+]\c2ccccc2)N(NC(=O)c2ccc([N+](=O)[O-])cc2)C1=O)NCCCCNC(=O)c1ccc(-c2c3nc(c(-c4c(F)cccc4F)c4ccc([nH]4)c(-c4c(F)cccc4F)c4nc(c(-c5c(F)cccc5F)c5ccc2[nH]5)C=C4)C=C3)cc1
REMARK SMILES IDX 30 1 29 2 1 3 2 4 3 6 4 7 5 8 27 9 6 10 14 11 28 12 7 13
REMARK SMILES IDX 15 15 16 16 17 18 18 19 19 20 26 21 20 22 25 23 21 24 22 25
REMARK SMILES IDX 23 26 24 27 8 28 9 29 13 30 10 31 12 32 11 33 31 34 32 35
REMARK SMILES IDX 33 36 34 37 35 38 36 40 37 41 38 42 90 43 39 44 89 45 40 46
REMARK SMILES IDX 41 47 42 48 83 49 43 50 88 51 82 52 84 53 44 54 87 55 81 56
REMARK SMILES IDX 80 57 45 59 71 60 54 61 70 62 55 63 58 64 69 65 85 66 56 67
REMARK SMILES IDX 57 68 68 70 86 71 59 72 46 73 47 74 52 75 48 76 49 77 51 78
REMARK SMILES IDX 53 79 50 80 72 81 73 82 78 83 74 84 75 85 77 86 79 87 76 88
REMARK SMILES IDX 60 89 61 90 66 91 62 92 63 93 65 94 67 95 64 96
REMARK H PARENT 29 5 7 14 15 17 34 39 84 58 58 69
REMARK Flexibility Score: inf
ROOT
ATOM      1  C   UNL A   1      32.925  22.960  23.282  1.00  0.00     0.116 C 
ENDROOT
BRANCH   1   2
ATOM      2  N   UNL A   1      33.397  24.159  22.612  1.00  0.00    -0.356 N 
ATOM      3  O   UNL A   1      31.348  25.207  22.454  1.00  0.00    -0.275 OA
ATOM      4  C   UNL A   1      32.557  25.200  22.266  1.00  0.00     0.221 C 
ATOM      5  H   UNL A   1      34.354  24.234  22.396  1.00  0.00     0.163 HD
BRANCH   4   6
ATOM      6  C   UNL A   1      33.278  26.377  21.646  1.00  0.00     0.127 C 
BRANCH   6   7
ATOM      7  C   UNL A   1      33.482  27.558  22.595  1.00  0.00     0.185 C 
ATOM      8  S   UNL A   1      32.342  28.953  22.364  1.00  0.00    -0.019 SA
ATOM      9  C   UNL A   1      33.215  27.088  24.010  1.00  0.00     0.347 C 
ATOM     10  C   UNL A   1      31.424  28.618  23.811  1.00  0.00     0.343 C 
ATOM     11  N   UNL A   1      32.053  27.634  24.539  1.00  0.00    -0.078 N 
ATOM     12  O   UNL A   1      33.938  26.288  24.599  1.00  0.00    -0.243 OA
ATOM     13  N   UNL A   1      30.311  29.170  24.153  1.00  0.00    -0.233 N 
ATOM     14  H   UNL A   1      29.967  28.983  25.056  1.00  0.00     0.313 HD
BRANCH  11  15
ATOM     15  N   UNL A   1      31.757  27.255  25.865  1.00  0.00    -0.182 N 
ATOM     16  C   UNL A   1      31.889  27.927  27.057  1.00  0.00     0.286 C 
ATOM     17  H   UNL A   1      31.390  26.345  25.954  1.00  0.00     0.217 HD
ATOM     18  O   UNL A   1      31.403  27.453  28.084  1.00  0.00    -0.266 OA
BRANCH  16  19
ATOM     19  C   UNL A   1      32.653  29.170  27.187  1.00  0.00     0.043 A 
ATOM     20  C   UNL A   1      31.951  30.378  27.017  1.00  0.00     0.021 A 
ATOM     21  C   UNL A   1      34.019  29.160  27.478  1.00  0.00     0.021 A 
ATOM     22  C   UNL A   1      32.591  31.593  27.251  1.00  0.00     0.086 A 
ATOM     23  C   UNL A   1      34.665  30.374  27.706  1.00  0.00     0.086 A 
ATOM     24  C   UNL A   1      33.937  31.577  27.626  1.00  0.00     0.269 A 
BRANCH  24  25
ATOM     25  N   UNL A   1      34.595  32.821  28.011  1.00  0.00     0.062 N 
ATOM     26  O   UNL A   1      34.052  33.535  28.865  1.00  0.00    -0.258 OA
ATOM     27  O   UNL A   1      35.697  33.043  27.494  1.00  0.00    -0.258 OA
ENDBRANCH  24  25
ENDBRANCH  16  19
ENDBRANCH  11  15
BRANCH  13  28
ATOM     28  C   UNL A   1      29.555  30.017  23.329  1.00  0.00     0.125 A 
ATOM     29  C   UNL A   1      29.281  31.312  23.774  1.00  0.00     0.051 A 
ATOM     30  C   UNL A   1      28.900  29.565  22.175  1.00  0.00     0.051 A 
ATOM     31  C   UNL A   1      28.400  32.144  23.074  1.00  0.00     0.004 A 
ATOM     32  C   UNL A   1      28.070  30.413  21.442  1.00  0.00     0.004 A 
ATOM     33  C   UNL A   1      27.801  31.696  21.901  1.00  0.00     0.000 A 
ENDBRANCH  13  28
ENDBRANCH   6   7
ENDBRANCH   4   6
ENDBRANCH   1   2
BRANCH   1  34
ATOM     34  C   UNL A   1      33.657  22.707  24.603  1.00  0.00     0.023 C 
BRANCH  34  35
ATOM     35  C   UNL A   1      34.735  21.611  24.571  1.00  0.00     0.023 C 
BRANCH  35  36
ATOM     36  C   UNL A   1      36.178  22.090  24.758  1.00  0.00     0.116 C 
BRANCH  36  37
ATOM     37  N   UNL A   1      37.124  21.006  24.954  1.00  0.00    -0.352 N 
ATOM     38  C   UNL A   1      38.379  21.016  25.528  1.00  0.00     0.251 C 
ATOM     39  H   UNL A   1      36.824  20.127  24.627  1.00  0.00     0.163 HD
ATOM     40  O   UNL A   1      39.063  19.999  25.511  1.00  0.00    -0.269 OA
BRANCH  38  41
ATOM     41  C   UNL A   1      38.924  22.250  26.144  1.00  0.00     0.039 A 
ATOM     42  C   UNL A   1      40.110  22.187  26.876  1.00  0.00     0.014 A 
ATOM     43  C   UNL A   1      38.256  23.466  26.035  1.00  0.00     0.014 A 
ATOM     44  C   UNL A   1      40.675  23.362  27.399  1.00  0.00     0.010 A 
ATOM     45  C   UNL A   1      38.857  24.642  26.501  1.00  0.00     0.010 A 
ATOM     46  C   UNL A   1      40.101  24.623  27.153  1.00  0.00    -0.014 A 
BRANCH  46  47
ATOM     47  C   UNL A   1      40.844  25.896  27.476  1.00  0.00     0.031 A 
ATOM     48  C   UNL A   1      42.274  26.142  27.043  1.00  0.00     0.074 A 
ATOM     49  C   UNL A   1      40.272  26.823  28.281  1.00  0.00     0.049 A 
ATOM     50  N   UNL A   1      43.049  27.176  27.286  1.00  0.00    -0.248 NA
ATOM     51  C   UNL A   1      42.936  25.080  26.272  1.00  0.00     0.031 C 
ATOM     52  C   UNL A   1      38.959  26.700  28.919  1.00  0.00     0.029 A 
ATOM     53  N   UNL A   1      40.726  28.049  28.716  1.00  0.00    -0.354 N 
ATOM     54  C   UNL A   1      44.293  26.865  26.746  1.00  0.00     0.074 A 
ATOM     55  C   UNL A   1      44.181  25.529  26.199  1.00  0.00     0.031 C 
ATOM     56  C   UNL A   1      38.688  27.822  29.604  1.00  0.00     0.029 A 
ATOM     57  C   UNL A   1      39.822  28.733  29.498  1.00  0.00     0.049 A 
ATOM     58  H   UNL A   1      41.616  28.404  28.490  1.00  0.00     0.167 HD
ATOM     59  C   UNL A   1      45.418  27.621  26.679  1.00  0.00     0.037 A 
ATOM     60  C   UNL A   1      39.879  29.952  30.066  1.00  0.00     0.037 A 
ATOM     61  C   UNL A   1      45.535  28.977  27.153  1.00  0.00     0.049 A 
ATOM     62  C   UNL A   1      41.101  30.812  29.901  1.00  0.00     0.074 A 
ATOM     63  C   UNL A   1      46.597  29.854  26.997  1.00  0.00     0.029 A 
ATOM     64  N   UNL A   1      44.567  29.653  27.875  1.00  0.00    -0.354 N 
ATOM     65  N   UNL A   1      42.217  30.547  29.273  1.00  0.00    -0.248 NA
ATOM     66  C   UNL A   1      41.065  32.145  30.521  1.00  0.00     0.031 C 
ATOM     67  C   UNL A   1      46.286  31.049  27.655  1.00  0.00     0.029 A 
ATOM     68  C   UNL A   1      45.012  30.931  28.183  1.00  0.00     0.049 A 
ATOM     69  H   UNL A   1      43.692  29.283  28.132  1.00  0.00     0.167 HD
ATOM     70  C   UNL A   1      43.001  31.687  29.392  1.00  0.00     0.074 A 
ATOM     71  C   UNL A   1      42.230  32.652  30.145  1.00  0.00     0.031 C 
ATOM     72  C   UNL A   1      44.250  31.906  28.918  1.00  0.00     0.037 A 
BRANCH  59  73
ATOM     73  C   UNL A   1      46.631  27.012  26.027  1.00  0.00     0.057 A 
ATOM     74  C   UNL A   1      46.893  27.176  24.661  1.00  0.00     0.134 A 
ATOM     75  C   UNL A   1      47.580  26.314  26.786  1.00  0.00     0.134 A 
ATOM     76  F   UNL A   1      46.028  27.837  23.876  1.00  0.00    -0.206 F 
ATOM     77  C   UNL A   1      48.036  26.638  24.066  1.00  0.00     0.040 A 
ATOM     78  C   UNL A   1      48.743  25.799  26.207  1.00  0.00     0.040 A 
ATOM     79  F   UNL A   1      47.407  26.139  28.105  1.00  0.00    -0.206 F 
ATOM     80  C   UNL A   1      48.968  25.953  24.842  1.00  0.00     0.006 A 
ENDBRANCH  59  73
BRANCH  60  81
ATOM     81  C   UNL A   1      38.705  30.479  30.809  1.00  0.00     0.057 A 
ATOM     82  C   UNL A   1      38.599  30.296  32.193  1.00  0.00     0.134 A 
ATOM     83  C   UNL A   1      37.662  31.149  30.163  1.00  0.00     0.134 A 
ATOM     84  F   UNL A   1      39.559  29.640  32.863  1.00  0.00    -0.206 F 
ATOM     85  C   UNL A   1      37.486  30.740  32.906  1.00  0.00     0.040 A 
ATOM     86  C   UNL A   1      36.553  31.621  30.867  1.00  0.00     0.040 A 
ATOM     87  F   UNL A   1      37.708  31.362  28.839  1.00  0.00    -0.206 F 
ATOM     88  C   UNL A   1      36.459  31.409  32.243  1.00  0.00     0.006 A 
ENDBRANCH  60  81
BRANCH  72  89
ATOM     89  C   UNL A   1      44.857  33.259  29.152  1.00  0.00     0.057 A 
ATOM     90  C   UNL A   1      45.662  33.531  30.267  1.00  0.00     0.134 A 
ATOM     91  C   UNL A   1      44.661  34.297  28.232  1.00  0.00     0.134 A 
ATOM     92  F   UNL A   1      45.879  32.586  31.194  1.00  0.00    -0.206 F 
ATOM     93  C   UNL A   1      46.233  34.790  30.466  1.00  0.00     0.040 A 
ATOM     94  C   UNL A   1      45.245  35.552  28.408  1.00  0.00     0.040 A 
ATOM     95  F   UNL A   1      43.905  34.106  27.140  1.00  0.00    -0.206 F 
ATOM     96  C   UNL A   1      46.030  35.803  29.531  1.00  0.00     0.006 A 
ENDBRANCH  72  89
ENDBRANCH  46  47
ENDBRANCH  38  41
ENDBRANCH  36  37
ENDBRANCH  35  36
ENDBRANCH  34  35
ENDBRANCH   1  34
TORSDOF 16
ENDMDL
MODEL 2
REMARK VINA RESULT:     -12.7      4.127      8.586
REMARK SMILES O=C(C[C@H]1S/C(=[NH+]\c2ccccc2)N(NC(=O)c2ccc([N+](=O)[O-])cc2)C1=O)NCCCCNC(=O)c1ccc(-c2c3nc(c(-c4c(F)cccc4F)c4ccc([nH]4)c(-c4c(F)cccc4F)c4nc(c(-c5c(F)cccc5F)c5ccc2[nH]5)C=C4)C=C3)cc1
REMARK SMILES IDX 30 1 29 2 1 3 2 4 3 6 4 7 5 8 27 9 6 10 14 11 28 12 7 13
REMARK SMILES IDX 15 15 16 16 17 18 18 19 19 20 26 21 20 22 25 23 21 24 22 25
REMARK SMILES IDX 23 26 24 27 8 28 9 29 13 30 10 31 12 32 11 33 31 34 32 35
REMARK SMILES IDX 33 36 34 37 35 38 36 40 37 41 38 42 90 43 39 44 89 45 40 46
REMARK SMILES IDX 41 47 42 48 83 49 43 50 88 51 82 52 84 53 44 54 87 55 81 56
REMARK SMILES IDX 80 57 45 59 71 60 54 61 70 62 55 63 58 64 69 65 85 66 56 67
REMARK SMILES IDX 57 68 68 70 86 71 59 72 46 73 47 74 52 75 48 76 49 77 51 78
REMARK SMILES IDX 53 79 50 80 72 81 73 82 78 83 74 84 75 85 77 86 79 87 76 88
REMARK SMILES IDX 60 89 61 90 66 91 62 92 63 93 65 94 67 95 64 96
REMARK H PARENT 29 5 7 14 15 17 34 39 84 58 58 69
REMARK Flexibility Score: inf
ROOT
ATOM      1  C   UNL A   1      39.408  21.180  25.765  1.00  0.00     0.116 C 
ENDROOT
BRANCH   1   2
ATOM      2  N   UNL A   1      38.192  21.808  26.250  1.00  0.00    -0.356 N 
ATOM      3  O   UNL A   1      37.653  22.908  24.296  1.00  0.00    -0.275 OA
ATOM      4  C   UNL A   1      37.401  22.615  25.457  1.00  0.00     0.221 C 
ATOM      5  H   UNL A   1      37.920  21.651  27.183  1.00  0.00     0.163 HD
BRANCH   4   6
ATOM      6  C   UNL A   1      36.145  23.098  26.149  1.00  0.00     0.127 C 
BRANCH   6   7
ATOM      7  C   UNL A   1      34.935  23.241  25.227  1.00  0.00     0.185 C 
ATOM      8  S   UNL A   1      34.483  21.749  24.293  1.00  0.00    -0.019 SA
ATOM      9  C   UNL A   1      33.715  23.533  26.075  1.00  0.00     0.347 C 
ATOM     10  C   UNL A   1      33.061  21.417  25.250  1.00  0.00     0.343 C 
ATOM     11  N   UNL A   1      32.820  22.473  26.100  1.00  0.00    -0.078 N 
ATOM     12  O   UNL A   1      33.564  24.584  26.694  1.00  0.00    -0.243 OA
ATOM     13  N   UNL A   1      32.348  20.345  25.209  1.00  0.00    -0.233 N 
ATOM     14  H   UNL A   1      31.499  20.341  25.708  1.00  0.00     0.313 HD
BRANCH  11  15
ATOM     15  N   UNL A   1      31.649  22.687  26.856  1.00  0.00    -0.182 N 
ATOM     16  C   UNL A   1      30.548  23.479  26.627  1.00  0.00     0.286 C 
ATOM     17  H   UNL A   1      31.612  22.181  27.700  1.00  0.00     0.217 HD
ATOM     18  O   UNL A   1      29.560  23.378  27.354  1.00  0.00    -0.266 OA
BRANCH  16  19
ATOM     19  C   UNL A   1      30.512  24.507  25.584  1.00  0.00     0.043 A 
ATOM     20  C   UNL A   1      30.391  25.845  26.001  1.00  0.00     0.021 A 
ATOM     21  C   UNL A   1      30.606  24.176  24.230  1.00  0.00     0.021 A 
ATOM     22  C   UNL A   1      30.478  26.875  25.069  1.00  0.00     0.086 A 
ATOM     23  C   UNL A   1      30.685  25.204  23.292  1.00  0.00     0.086 A 
ATOM     24  C   UNL A   1      30.657  26.544  23.723  1.00  0.00     0.269 A 
BRANCH  24  25
ATOM     25  N   UNL A   1      30.889  27.600  22.743  1.00  0.00     0.062 N 
ATOM     26  O   UNL A   1      32.058  27.928  22.496  1.00  0.00    -0.258 OA
ATOM     27  O   UNL A   1      29.888  28.053  22.175  1.00  0.00    -0.258 OA
ENDBRANCH  24  25
ENDBRANCH  16  19
ENDBRANCH  11  15
BRANCH  13  28
ATOM     28  C   UNL A   1      32.695  19.182  24.505  1.00  0.00     0.125 A 
ATOM     29  C   UNL A   1      33.699  18.362  25.024  1.00  0.00     0.051 A 
ATOM     30  C   UNL A   1      32.223  18.908  23.215  1.00  0.00     0.051 A 
ATOM     31  C   UNL A   1      34.199  17.281  24.289  1.00  0.00     0.004 A 
ATOM     32  C   UNL A   1      32.676  17.796  22.505  1.00  0.00     0.004 A 
ATOM     33  C   UNL A   1      33.680  16.992  23.032  1.00  0.00     0.000 A 
ENDBRANCH  13  28
ENDBRANCH   6   7
ENDBRANCH   4   6
ENDBRANCH   1   2
BRANCH   1  34
ATOM     34  C   UNL A   1      40.499  21.121  26.838  1.00  0.00     0.023 C 
BRANCH  34  35
ATOM     35  C   UNL A   1      41.941  21.306  26.336  1.00  0.00     0.023 C 
BRANCH  35  36
ATOM     36  C   UNL A   1      42.169  22.486  25.387  1.00  0.00     0.116 C 
BRANCH  36  37
ATOM     37  N   UNL A   1      43.561  22.895  25.300  1.00  0.00    -0.352 N 
ATOM     38  C   UNL A   1      44.197  23.996  25.834  1.00  0.00     0.251 C 
ATOM     39  H   UNL A   1      44.140  22.292  24.779  1.00  0.00     0.163 HD
ATOM     40  O   UNL A   1      45.373  24.210  25.562  1.00  0.00    -0.269 OA
BRANCH  38  41
ATOM     41  C   UNL A   1      43.470  24.943  26.714  1.00  0.00     0.039 A 
ATOM     42  C   UNL A   1      42.566  24.451  27.656  1.00  0.00     0.014 A 
ATOM     43  C   UNL A   1      43.646  26.318  26.595  1.00  0.00     0.014 A 
ATOM     44  C   UNL A   1      41.929  25.332  28.545  1.00  0.00     0.010 A 
ATOM     45  C   UNL A   1      43.060  27.185  27.526  1.00  0.00     0.010 A 
ATOM     46  C   UNL A   1      42.224  26.708  28.550  1.00  0.00    -0.014 A 
BRANCH  46  47
ATOM     47  C   UNL A   1      41.756  27.605  29.668  1.00  0.00     0.031 A 
ATOM     48  C   UNL A   1      40.534  28.492  29.550  1.00  0.00     0.074 A 
ATOM     49  C   UNL A   1      42.503  27.726  30.791  1.00  0.00     0.049 A 
ATOM     50  N   UNL A   1      40.039  29.344  30.420  1.00  0.00    -0.248 NA
ATOM     51  C   UNL A   1      39.793  28.450  28.282  1.00  0.00     0.031 C 
ATOM     52  C   UNL A   1      43.789  27.067  31.032  1.00  0.00     0.029 A 
ATOM     53  N   UNL A   1      42.299  28.459  31.940  1.00  0.00    -0.354 N 
ATOM     54  C   UNL A   1      38.970  29.969  29.787  1.00  0.00     0.074 A 
ATOM     55  C   UNL A   1      38.914  29.428  28.445  1.00  0.00     0.031 C 
ATOM     56  C   UNL A   1      44.224  27.371  32.264  1.00  0.00     0.029 A 
ATOM     57  C   UNL A   1      43.276  28.282  32.895  1.00  0.00     0.049 A 
ATOM     58  H   UNL A   1      41.526  29.055  32.068  1.00  0.00     0.167 HD
ATOM     59  C   UNL A   1      38.093  30.884  30.274  1.00  0.00     0.037 A 
ATOM     60  C   UNL A   1      43.408  28.783  34.138  1.00  0.00     0.037 A 
ATOM     61  C   UNL A   1      38.085  31.387  31.624  1.00  0.00     0.049 A 
ATOM     62  C   UNL A   1      42.375  29.723  34.692  1.00  0.00     0.074 A 
ATOM     63  C   UNL A   1      37.148  32.209  32.231  1.00  0.00     0.029 A 
ATOM     64  N   UNL A   1      39.054  31.122  32.577  1.00  0.00    -0.354 N 
ATOM     65  N   UNL A   1      41.299  30.199  34.119  1.00  0.00    -0.248 NA
ATOM     66  C   UNL A   1      42.575  30.192  36.073  1.00  0.00     0.031 C 
ATOM     67  C   UNL A   1      37.568  32.471  33.539  1.00  0.00     0.029 A 
ATOM     68  C   UNL A   1      38.744  31.776  33.762  1.00  0.00     0.049 A 
ATOM     69  H   UNL A   1      39.846  30.555  32.436  1.00  0.00     0.167 HD
ATOM     70  C   UNL A   1      40.678  30.992  35.075  1.00  0.00     0.074 A 
ATOM     71  C   UNL A   1      41.490  30.929  36.269  1.00  0.00     0.031 C 
ATOM     72  C   UNL A   1      39.535  31.709  34.963  1.00  0.00     0.037 A 
BRANCH  59  73
ATOM     73  C   UNL A   1      37.023  31.390  29.344  1.00  0.00     0.057 A 
ATOM     74  C   UNL A   1      35.909  30.610  29.011  1.00  0.00     0.134 A 
ATOM     75  C   UNL A   1      37.072  32.694  28.833  1.00  0.00     0.134 A 
ATOM     76  F   UNL A   1      35.795  29.354  29.468  1.00  0.00    -0.206 F 
ATOM     77  C   UNL A   1      34.901  31.094  28.174  1.00  0.00     0.040 A 
ATOM     78  C   UNL A   1      36.055  33.200  28.021  1.00  0.00     0.040 A 
ATOM     79  F   UNL A   1      38.098  33.506  29.130  1.00  0.00    -0.206 F 
ATOM     80  C   UNL A   1      34.970  32.395  27.682  1.00  0.00     0.006 A 
ENDBRANCH  59  73
BRANCH  60  81
ATOM     81  C   UNL A   1      44.546  28.355  34.992  1.00  0.00     0.057 A 
ATOM     82  C   UNL A   1      45.711  29.129  35.063  1.00  0.00     0.134 A 
ATOM     83  C   UNL A   1      44.511  27.168  35.730  1.00  0.00     0.134 A 
ATOM     84  F   UNL A   1      45.810  30.266  34.359  1.00  0.00    -0.206 F 
ATOM     85  C   UNL A   1      46.810  28.727  35.821  1.00  0.00     0.040 A 
ATOM     86  C   UNL A   1      45.595  26.765  36.513  1.00  0.00     0.040 A 
ATOM     87  F   UNL A   1      43.421  26.387  35.709  1.00  0.00    -0.206 F 
ATOM     88  C   UNL A   1      46.752  27.542  36.553  1.00  0.00     0.006 A 
ENDBRANCH  60  81
BRANCH  72  89
ATOM     89  C   UNL A   1      39.056  32.452  36.176  1.00  0.00     0.057 A 
ATOM     90  C   UNL A   1      38.223  31.857  37.133  1.00  0.00     0.134 A 
ATOM     91  C   UNL A   1      39.460  33.774  36.407  1.00  0.00     0.134 A 
ATOM     92  F   UNL A   1      37.787  30.599  36.966  1.00  0.00    -0.206 F 
ATOM     93  C   UNL A   1      37.796  32.554  38.265  1.00  0.00     0.040 A 
ATOM     94  C   UNL A   1      39.059  34.473  37.546  1.00  0.00     0.040 A 
ATOM     95  F   UNL A   1      40.261  34.404  35.535  1.00  0.00    -0.206 F 
ATOM     96  C   UNL A   1      38.220  33.865  38.478  1.00  0.00     0.006 A 
ENDBRANCH  72  89
ENDBRANCH  46  47
ENDBRANCH  38  41
ENDBRANCH  36  37
ENDBRANCH  35  36
ENDBRANCH  34  35
ENDBRANCH   1  34
TORSDOF 16
ENDMDL
MODEL 3
REMARK VINA RESULT:     -12.4      4.237      7.687
REMARK SMILES O=C(C[C@H]1S/C(=[NH+]\c2ccccc2)N(NC(=O)c2ccc([N+](=O)[O-])cc2)C1=O)NCCCCNC(=O)c1ccc(-c2c3nc(c(-c4c(F)cccc4F)c4ccc([nH]4)c(-c4c(F)cccc4F)c4nc(c(-c5c(F)cccc5F)c5ccc2[nH]5)C=C4)C=C3)cc1
REMARK SMILES IDX 30 1 29 2 1 3 2 4 3 6 4 7 5 8 27 9 6 10 14 11 28 12 7 13
REMARK SMILES IDX 15 15 16 16 17 18 18 19 19 20 26 21 20 22 25 23 21 24 22 25
REMARK SMILES IDX 23 26 24 27 8 28 9 29 13 30 10 31 12 32 11 33 31 34 32 35
REMARK SMILES IDX 33 36 34 37 35 38 36 40 37 41 38 42 90 43 39 44 89 45 40 46
REMARK SMILES IDX 41 47 42 48 83 49 43 50 88 51 82 52 84 53 44 54 87 55 81 56
REMARK SMILES IDX 80 57 45 59 71 60 54 61 70 62 55 63 58 64 69 65 85 66 56 67
REMARK SMILES IDX 57 68 68 70 86 71 59 72 46 73 47 74 52 75 48 76 49 77 51 78
REMARK SMILES IDX 53 79 50 80 72 81 73 82 78 83 74 84 75 85 77 86 79 87 76 88
REMARK SMILES IDX 60 89 61 90 66 91 62 92 63 93 65 94 67 95 64 96
REMARK H PARENT 29 5 7 14 15 17 34 39 84 58 58 69
REMARK Flexibility Score: inf
ROOT
ATOM      1  C   UNL A   1      39.243  20.969  25.775  1.00  0.00     0.116 C 
ENDROOT
BRANCH   1   2
ATOM      2  N   UNL A   1      38.072  21.689  26.241  1.00  0.00    -0.356 N 
ATOM      3  O   UNL A   1      37.656  22.832  24.281  1.00  0.00    -0.275 OA
ATOM      4  C   UNL A   1      37.361  22.558  25.437  1.00  0.00     0.221 C 
ATOM      5  H   UNL A   1      37.772  21.552  27.169  1.00  0.00     0.163 HD
BRANCH   4   6
ATOM      6  C   UNL A   1      36.135  23.138  26.109  1.00  0.00     0.127 C 
BRANCH   6   7
ATOM      7  C   UNL A   1      34.920  23.268  25.192  1.00  0.00     0.185 C 
ATOM      8  S   UNL A   1      34.468  21.768  24.273  1.00  0.00    -0.019 SA
ATOM      9  C   UNL A   1      33.704  23.565  26.044  1.00  0.00     0.347 C 
ATOM     10  C   UNL A   1      33.052  21.439  25.241  1.00  0.00     0.343 C 
ATOM     11  N   UNL A   1      32.812  22.501  26.083  1.00  0.00    -0.078 N 
ATOM     12  O   UNL A   1      33.553  24.620  26.655  1.00  0.00    -0.243 OA
ATOM     13  N   UNL A   1      32.341  20.365  25.213  1.00  0.00    -0.233 N 
ATOM     14  H   UNL A   1      31.495  20.363  25.716  1.00  0.00     0.313 HD
BRANCH  11  15
ATOM     15  N   UNL A   1      31.644  22.719  26.844  1.00  0.00    -0.182 N 
ATOM     16  C   UNL A   1      30.545  23.514  26.620  1.00  0.00     0.286 C 
ATOM     17  H   UNL A   1      31.610  22.212  27.687  1.00  0.00     0.217 HD
ATOM     18  O   UNL A   1      29.560  23.416  27.350  1.00  0.00    -0.266 OA
BRANCH  16  19
ATOM     19  C   UNL A   1      30.509  24.543  25.578  1.00  0.00     0.043 A 
ATOM     20  C   UNL A   1      30.411  25.882  25.998  1.00  0.00     0.021 A 
ATOM     21  C   UNL A   1      30.580  24.212  24.223  1.00  0.00     0.021 A 
ATOM     22  C   UNL A   1      30.499  26.912  25.066  1.00  0.00     0.086 A 
ATOM     23  C   UNL A   1      30.660  25.240  23.285  1.00  0.00     0.086 A 
ATOM     24  C   UNL A   1      30.655  26.581  23.717  1.00  0.00     0.269 A 
BRANCH  24  25
ATOM     25  N   UNL A   1      30.888  27.634  22.735  1.00  0.00     0.062 N 
ATOM     26  O   UNL A   1      32.056  27.968  22.495  1.00  0.00    -0.258 OA
ATOM     27  O   UNL A   1      29.888  28.079  22.159  1.00  0.00    -0.258 OA
ENDBRANCH  24  25
ENDBRANCH  16  19
ENDBRANCH  11  15
BRANCH  13  28
ATOM     28  C   UNL A   1      32.689  19.197  24.517  1.00  0.00     0.125 A 
ATOM     29  C   UNL A   1      33.680  18.371  25.051  1.00  0.00     0.051 A 
ATOM     30  C   UNL A   1      32.230  18.922  23.222  1.00  0.00     0.051 A 
ATOM     31  C   UNL A   1      34.181  17.284  24.326  1.00  0.00     0.004 A 
ATOM     32  C   UNL A   1      32.683  17.804  22.522  1.00  0.00     0.004 A 
ATOM     33  C   UNL A   1      33.675  16.995  23.063  1.00  0.00     0.000 A 
ENDBRANCH  13  28
ENDBRANCH   6   7
ENDBRANCH   4   6
ENDBRANCH   1   2
BRANCH   1  34
ATOM     34  C   UNL A   1      40.423  21.091  26.743  1.00  0.00     0.023 C 
BRANCH  34  35
ATOM     35  C   UNL A   1      41.738  21.603  26.133  1.00  0.00     0.023 C 
BRANCH  35  36
ATOM     36  C   UNL A   1      41.698  23.023  25.561  1.00  0.00     0.116 C 
BRANCH  36  37
ATOM     37  N   UNL A   1      42.952  23.435  24.953  1.00  0.00    -0.352 N 
ATOM     38  C   UNL A   1      43.843  24.416  25.335  1.00  0.00     0.251 C 
ATOM     39  H   UNL A   1      43.205  22.936  24.143  1.00  0.00     0.163 HD
ATOM     40  O   UNL A   1      44.808  24.672  24.623  1.00  0.00    -0.269 OA
BRANCH  38  41
ATOM     41  C   UNL A   1      43.637  25.187  26.584  1.00  0.00     0.039 A 
ATOM     42  C   UNL A   1      43.979  26.539  26.623  1.00  0.00     0.014 A 
ATOM     43  C   UNL A   1      43.140  24.579  27.733  1.00  0.00     0.014 A 
ATOM     44  C   UNL A   1      43.718  27.297  27.777  1.00  0.00     0.010 A 
ATOM     45  C   UNL A   1      42.821  25.353  28.856  1.00  0.00     0.010 A 
ATOM     46  C   UNL A   1      43.060  26.737  28.888  1.00  0.00    -0.014 A 
BRANCH  46  47
ATOM     47  C   UNL A   1      42.538  27.604  30.006  1.00  0.00     0.031 A 
ATOM     48  C   UNL A   1      43.165  27.628  31.384  1.00  0.00     0.074 A 
ATOM     49  C   UNL A   1      41.397  28.312  29.832  1.00  0.00     0.049 A 
ATOM     50  N   UNL A   1      42.794  28.297  32.454  1.00  0.00    -0.248 NA
ATOM     51  C   UNL A   1      44.333  26.765  31.608  1.00  0.00     0.031 C 
ATOM     52  C   UNL A   1      40.567  28.302  28.625  1.00  0.00     0.029 A 
ATOM     53  N   UNL A   1      40.724  29.168  30.676  1.00  0.00    -0.354 N 
ATOM     54  C   UNL A   1      43.646  27.897  33.478  1.00  0.00     0.074 A 
ATOM     55  C   UNL A   1      44.526  26.896  32.913  1.00  0.00     0.031 C 
ATOM     56  C   UNL A   1      39.542  29.154  28.780  1.00  0.00     0.029 A 
ATOM     57  C   UNL A   1      39.608  29.744  30.112  1.00  0.00     0.049 A 
ATOM     58  H   UNL A   1      41.015  29.353  31.598  1.00  0.00     0.167 HD
ATOM     59  C   UNL A   1      43.719  28.334  34.761  1.00  0.00     0.037 A 
ATOM     60  C   UNL A   1      38.730  30.645  30.594  1.00  0.00     0.037 A 
ATOM     61  C   UNL A   1      42.902  29.377  35.329  1.00  0.00     0.049 A 
ATOM     62  C   UNL A   1      38.884  31.186  31.987  1.00  0.00     0.074 A 
ATOM     63  C   UNL A   1      43.009  29.969  36.577  1.00  0.00     0.029 A 
ATOM     64  N   UNL A   1      41.830  29.981  34.694  1.00  0.00    -0.354 N 
ATOM     65  N   UNL A   1      39.779  30.888  32.894  1.00  0.00    -0.248 NA
ATOM     66  C   UNL A   1      37.906  32.196  32.420  1.00  0.00     0.031 C 
ATOM     67  C   UNL A   1      41.980  30.907  36.713  1.00  0.00     0.029 A 
ATOM     68  C   UNL A   1      41.259  30.930  35.531  1.00  0.00     0.049 A 
ATOM     69  H   UNL A   1      41.519  29.769  33.785  1.00  0.00     0.167 HD
ATOM     70  C   UNL A   1      39.493  31.694  33.989  1.00  0.00     0.074 A 
ATOM     71  C   UNL A   1      38.349  32.502  33.632  1.00  0.00     0.031 C 
ATOM     72  C   UNL A   1      40.129  31.752  35.183  1.00  0.00     0.037 A 
BRANCH  59  73
ATOM     73  C   UNL A   1      44.756  27.708  35.654  1.00  0.00     0.057 A 
ATOM     74  C   UNL A   1      46.049  28.234  35.762  1.00  0.00     0.134 A 
ATOM     75  C   UNL A   1      44.437  26.612  36.467  1.00  0.00     0.134 A 
ATOM     76  F   UNL A   1      46.421  29.286  35.016  1.00  0.00    -0.206 F 
ATOM     77  C   UNL A   1      47.000  27.671  36.616  1.00  0.00     0.040 A 
ATOM     78  C   UNL A   1      45.369  26.060  37.349  1.00  0.00     0.040 A 
ATOM     79  F   UNL A   1      43.210  26.071  36.435  1.00  0.00    -0.206 F 
ATOM     80  C   UNL A   1      46.658  26.584  37.418  1.00  0.00     0.006 A 
ENDBRANCH  59  73
BRANCH  60  81
ATOM     81  C   UNL A   1      37.640  31.156  29.723  1.00  0.00     0.057 A 
ATOM     82  C   UNL A   1      36.492  30.387  29.495  1.00  0.00     0.134 A 
ATOM     83  C   UNL A   1      37.725  32.398  29.086  1.00  0.00     0.134 A 
ATOM     84  F   UNL A   1      36.367  29.178  30.062  1.00  0.00    -0.206 F 
ATOM     85  C   UNL A   1      35.476  30.824  28.646  1.00  0.00     0.040 A 
ATOM     86  C   UNL A   1      36.703  32.859  28.253  1.00  0.00     0.040 A 
ATOM     87  F   UNL A   1      38.795  33.185  29.270  1.00  0.00    -0.206 F 
ATOM     88  C   UNL A   1      35.579  32.067  28.025  1.00  0.00     0.006 A 
ENDBRANCH  60  81
BRANCH  72  89
ATOM     89  C   UNL A   1      39.639  32.754  36.187  1.00  0.00     0.057 A 
ATOM     90  C   UNL A   1      38.601  32.464  37.082  1.00  0.00     0.134 A 
ATOM     91  C   UNL A   1      40.235  34.019  36.280  1.00  0.00     0.134 A 
ATOM     92  F   UNL A   1      37.977  31.277  37.038  1.00  0.00    -0.206 F 
ATOM     93  C   UNL A   1      38.162  33.400  38.021  1.00  0.00     0.040 A 
ATOM     94  C   UNL A   1      39.821  34.955  37.229  1.00  0.00     0.040 A 
ATOM     95  F   UNL A   1      41.236  34.363  35.457  1.00  0.00    -0.206 F 
ATOM     96  C   UNL A   1      38.778  34.649  38.101  1.00  0.00     0.006 A 
ENDBRANCH  72  89
ENDBRANCH  46  47
ENDBRANCH  38  41
ENDBRANCH  36  37
ENDBRANCH  35  36
ENDBRANCH  34  35
ENDBRANCH   1  34
TORSDOF 16
ENDMDL
