MODEL 1
REMARK VINA RESULT:     -12.0      0.000      0.000
REMARK SMILES Cc1cc(C(=O)NC[C@@H]2CC[C@H](C(=O)NCCCCNC(=O)c3ccc(-c4c5nc(c(-c6c(F)cccc6F)c6ccc([nH]6)c(-c6c(F)cccc6F)c6nc(c(-c7c(F)cccc7F)c7ccc4[nH]7)C=C6)C=C5)cc3)O2)on1
REMARK SMILES IDX 17 1 16 2 15 3 13 4 14 5 12 7 9 8 10 9 77 10 11 11 8 12 7 13
REMARK SMILES IDX 5 14 6 15 4 17 1 18 2 19 3 20 79 21 78 22 18 23 19 24 20 25
REMARK SMILES IDX 21 26 22 28 23 29 24 30 76 31 25 32 75 33 26 34 27 35 28 36
REMARK SMILES IDX 69 37 29 38 74 39 68 40 70 41 30 42 73 43 67 44 66 45 31 47
REMARK SMILES IDX 57 48 40 49 56 50 41 51 44 52 55 53 71 54 42 55 43 56 54 58
REMARK SMILES IDX 72 59 45 60 32 61 33 62 38 63 34 64 35 65 37 66 39 67 36 68
REMARK SMILES IDX 58 69 59 70 64 71 60 72 61 73 63 74 65 75 62 76 46 77 47 78
REMARK SMILES IDX 52 79 48 80 49 81 51 82 53 83 50 84
REMARK H PARENT 15 6 7 16 20 27 70 46 44 57
REMARK Flexibility Score: inf
ROOT
ATOM      1  C   UNL A   1      31.875  30.459  26.880  1.00  0.00     0.023 C 
ENDROOT
BRANCH   1   2
ATOM      2  C   UNL A   1      33.323  30.052  26.640  1.00  0.00     0.116 C 
BRANCH   2   3
ATOM      3  N   UNL A   1      33.593  29.674  25.277  1.00  0.00    -0.354 N 
ATOM      4  C   UNL A   1      32.775  29.079  24.360  1.00  0.00     0.249 C 
ATOM      5  O   UNL A   1      33.233  28.913  23.225  1.00  0.00    -0.272 OA
ATOM      6  H   UNL A   1      34.503  29.875  24.959  1.00  0.00     0.163 HD
BRANCH   4   7
ATOM      7  C   UNL A   1      31.336  28.612  24.706  1.00  0.00     0.207 C 
ATOM      8  C   UNL A   1      30.138  26.699  24.030  1.00  0.00     0.138 C 
ATOM      9  C   UNL A   1      29.658  27.845  23.146  1.00  0.00     0.037 C 
ATOM     10  O   UNL A   1      31.204  27.200  24.852  1.00  0.00    -0.363 OA
ATOM     11  C   UNL A   1      30.259  29.096  23.751  1.00  0.00     0.045 C 
BRANCH   8  12
ATOM     12  C   UNL A   1      30.697  25.483  23.263  1.00  0.00     0.148 C 
BRANCH  12  13
ATOM     13  N   UNL A   1      31.558  25.865  22.166  1.00  0.00    -0.347 N 
ATOM     14  C   UNL A   1      32.874  25.588  21.889  1.00  0.00     0.289 C 
ATOM     15  O   UNL A   1      33.249  25.894  20.757  1.00  0.00    -0.266 OA
ATOM     16  H   UNL A   1      31.118  26.432  21.490  1.00  0.00     0.164 HD
BRANCH  14  17
ATOM     17  C   UNL A   1      33.749  24.978  22.866  1.00  0.00     0.224 A 
ATOM     18  C   UNL A   1      35.802  23.990  25.742  1.00  0.00     0.070 C 
ATOM     19  C   UNL A   1      35.054  24.197  24.483  1.00  0.00     0.081 A 
ATOM     20  C   UNL A   1      34.232  25.287  24.120  1.00  0.00     0.083 A 
ATOM     21  N   UNL A   1      35.116  23.295  23.502  1.00  0.00    -0.084 NA
ATOM     22  O   UNL A   1      34.306  23.782  22.494  1.00  0.00    -0.351 OA
ENDBRANCH  14  17
ENDBRANCH  12  13
ENDBRANCH   8  12
ENDBRANCH   4   7
ENDBRANCH   2   3
ENDBRANCH   1   2
BRANCH   1  23
ATOM     23  C   UNL A   1      31.637  31.960  26.795  1.00  0.00     0.023 C 
BRANCH  23  24
ATOM     24  C   UNL A   1      32.750  32.817  27.386  1.00  0.00     0.116 C 
BRANCH  24  25
ATOM     25  N   UNL A   1      32.359  34.196  27.651  1.00  0.00    -0.352 N 
ATOM     26  C   UNL A   1      32.932  35.072  28.548  1.00  0.00     0.251 C 
ATOM     27  H   UNL A   1      31.598  34.541  27.130  1.00  0.00     0.163 HD
ATOM     28  O   UNL A   1      32.448  36.178  28.749  1.00  0.00    -0.269 OA
BRANCH  26  29
ATOM     29  C   UNL A   1      34.120  34.616  29.296  1.00  0.00     0.039 A 
ATOM     30  C   UNL A   1      33.953  34.075  30.572  1.00  0.00     0.014 A 
ATOM     31  C   UNL A   1      35.367  34.601  28.668  1.00  0.00     0.014 A 
ATOM     32  C   UNL A   1      35.028  33.429  31.185  1.00  0.00     0.010 A 
ATOM     33  C   UNL A   1      36.408  33.883  29.243  1.00  0.00     0.010 A 
ATOM     34  C   UNL A   1      36.248  33.284  30.504  1.00  0.00    -0.014 A 
BRANCH  34  35
ATOM     35  C   UNL A   1      37.381  32.513  31.078  1.00  0.00     0.031 A 
ATOM     36  C   UNL A   1      38.025  32.986  32.351  1.00  0.00     0.074 A 
ATOM     37  C   UNL A   1      37.884  31.452  30.417  1.00  0.00     0.049 A 
ATOM     38  N   UNL A   1      39.106  32.551  32.944  1.00  0.00    -0.248 NA
ATOM     39  C   UNL A   1      37.381  34.123  33.032  1.00  0.00     0.031 C 
ATOM     40  C   UNL A   1      37.368  30.910  29.158  1.00  0.00     0.029 A 
ATOM     41  N   UNL A   1      38.958  30.646  30.706  1.00  0.00    -0.354 N 
ATOM     42  C   UNL A   1      39.278  33.364  34.056  1.00  0.00     0.074 A 
ATOM     43  C   UNL A   1      38.230  34.359  34.021  1.00  0.00     0.031 C 
ATOM     44  C   UNL A   1      38.113  29.851  28.796  1.00  0.00     0.029 A 
ATOM     45  C   UNL A   1      39.188  29.669  29.765  1.00  0.00     0.049 A 
ATOM     46  H   UNL A   1      39.513  30.757  31.512  1.00  0.00     0.167 HD
ATOM     47  C   UNL A   1      40.209  33.274  35.033  1.00  0.00     0.037 A 
ATOM     48  C   UNL A   1      40.165  28.745  29.687  1.00  0.00     0.037 A 
ATOM     49  C   UNL A   1      41.239  32.272  35.075  1.00  0.00     0.049 A 
ATOM     50  C   UNL A   1      41.219  28.697  30.762  1.00  0.00     0.074 A 
ATOM     51  C   UNL A   1      42.212  32.078  36.039  1.00  0.00     0.029 A 
ATOM     52  N   UNL A   1      41.428  31.296  34.109  1.00  0.00    -0.354 N 
ATOM     53  N   UNL A   1      41.342  29.444  31.833  1.00  0.00    -0.248 NA
ATOM     54  C   UNL A   1      42.270  27.679  30.620  1.00  0.00     0.031 C 
ATOM     55  C   UNL A   1      43.021  31.012  35.633  1.00  0.00     0.029 A 
ATOM     56  C   UNL A   1      42.514  30.505  34.447  1.00  0.00     0.049 A 
ATOM     57  H   UNL A   1      40.874  31.181  33.304  1.00  0.00     0.167 HD
ATOM     58  C   UNL A   1      42.451  28.957  32.513  1.00  0.00     0.074 A 
ATOM     59  C   UNL A   1      42.966  27.850  31.735  1.00  0.00     0.031 C 
ATOM     60  C   UNL A   1      42.990  29.384  33.680  1.00  0.00     0.037 A 
BRANCH  47  61
ATOM     61  C   UNL A   1      40.147  34.280  36.146  1.00  0.00     0.057 A 
ATOM     62  C   UNL A   1      40.818  35.507  36.065  1.00  0.00     0.134 A 
ATOM     63  C   UNL A   1      39.378  34.039  37.290  1.00  0.00     0.134 A 
ATOM     64  F   UNL A   1      41.583  35.796  35.001  1.00  0.00    -0.206 F 
ATOM     65  C   UNL A   1      40.748  36.448  37.094  1.00  0.00     0.040 A 
ATOM     66  C   UNL A   1      39.275  34.984  38.313  1.00  0.00     0.040 A 
ATOM     67  F   UNL A   1      38.704  32.887  37.430  1.00  0.00    -0.206 F 
ATOM     68  C   UNL A   1      39.967  36.190  38.218  1.00  0.00     0.006 A 
ENDBRANCH  47  61
BRANCH  48  69
ATOM     69  C   UNL A   1      40.198  27.776  28.561  1.00  0.00     0.057 A 
ATOM     70  C   UNL A   1      39.584  26.522  28.670  1.00  0.00     0.134 A 
ATOM     71  C   UNL A   1      40.870  28.058  27.365  1.00  0.00     0.134 A 
ATOM     72  F   UNL A   1      38.939  26.184  29.797  1.00  0.00    -0.206 F 
ATOM     73  C   UNL A   1      39.661  25.574  27.648  1.00  0.00     0.040 A 
ATOM     74  C   UNL A   1      40.932  27.130  26.323  1.00  0.00     0.040 A 
ATOM     75  F   UNL A   1      41.474  29.242  27.189  1.00  0.00    -0.206 F 
ATOM     76  C   UNL A   1      40.336  25.879  26.468  1.00  0.00     0.006 A 
ENDBRANCH  48  69
BRANCH  60  77
ATOM     77  C   UNL A   1      44.154  28.616  34.235  1.00  0.00     0.057 A 
ATOM     78  C   UNL A   1      43.985  27.490  35.048  1.00  0.00     0.134 A 
ATOM     79  C   UNL A   1      45.464  28.965  33.875  1.00  0.00     0.134 A 
ATOM     80  F   UNL A   1      42.759  27.111  35.438  1.00  0.00    -0.206 F 
ATOM     81  C   UNL A   1      45.078  26.744  35.494  1.00  0.00     0.040 A 
ATOM     82  C   UNL A   1      46.561  28.211  34.290  1.00  0.00     0.040 A 
ATOM     83  F   UNL A   1      45.693  30.029  33.089  1.00  0.00    -0.206 F 
ATOM     84  C   UNL A   1      46.369  27.097  35.104  1.00  0.00     0.006 A 
ENDBRANCH  60  77
ENDBRANCH  34  35
ENDBRANCH  26  29
ENDBRANCH  24  25
ENDBRANCH  23  24
ENDBRANCH   1  23
TORSDOF 14
ENDMDL
MODEL 2
REMARK VINA RESULT:     -11.9      2.108      3.577
REMARK SMILES Cc1cc(C(=O)NC[C@@H]2CC[C@H](C(=O)NCCCCNC(=O)c3ccc(-c4c5nc(c(-c6c(F)cccc6F)c6ccc([nH]6)c(-c6c(F)cccc6F)c6nc(c(-c7c(F)cccc7F)c7ccc4[nH]7)C=C6)C=C5)cc3)O2)on1
REMARK SMILES IDX 17 1 16 2 15 3 13 4 14 5 12 7 9 8 10 9 77 10 11 11 8 12 7 13
REMARK SMILES IDX 5 14 6 15 4 17 1 18 2 19 3 20 79 21 78 22 18 23 19 24 20 25
REMARK SMILES IDX 21 26 22 28 23 29 24 30 76 31 25 32 75 33 26 34 27 35 28 36
REMARK SMILES IDX 69 37 29 38 74 39 68 40 70 41 30 42 73 43 67 44 66 45 31 47
REMARK SMILES IDX 57 48 40 49 56 50 41 51 44 52 55 53 71 54 42 55 43 56 54 58
REMARK SMILES IDX 72 59 45 60 32 61 33 62 38 63 34 64 35 65 37 66 39 67 36 68
REMARK SMILES IDX 58 69 59 70 64 71 60 72 61 73 63 74 65 75 62 76 46 77 47 78
REMARK SMILES IDX 52 79 48 80 49 81 51 82 53 83 50 84
REMARK H PARENT 15 6 7 16 20 27 70 46 44 57
REMARK Flexibility Score: inf
ROOT
ATOM      1  C   UNL A   1      34.706  33.238  28.907  1.00  0.00     0.023 C 
ENDROOT
BRANCH   1   2
ATOM      2  C   UNL A   1      34.452  31.854  28.321  1.00  0.00     0.116 C 
BRANCH   2   3
ATOM      3  N   UNL A   1      33.222  31.764  27.578  1.00  0.00    -0.354 N 
ATOM      4  C   UNL A   1      32.731  30.732  26.830  1.00  0.00     0.249 C 
ATOM      5  O   UNL A   1      31.609  30.884  26.336  1.00  0.00    -0.272 OA
ATOM      6  H   UNL A   1      32.649  32.564  27.616  1.00  0.00     0.163 HD
BRANCH   4   7
ATOM      7  C   UNL A   1      33.530  29.425  26.586  1.00  0.00     0.207 C 
ATOM      8  C   UNL A   1      33.262  27.742  24.958  1.00  0.00     0.138 C 
ATOM      9  C   UNL A   1      32.609  27.220  26.233  1.00  0.00     0.037 C 
ATOM     10  O   UNL A   1      33.689  29.091  25.209  1.00  0.00    -0.363 OA
ATOM     11  C   UNL A   1      32.998  28.203  27.315  1.00  0.00     0.045 C 
BRANCH   8  12
ATOM     12  C   UNL A   1      32.332  27.788  23.728  1.00  0.00     0.148 C 
BRANCH  12  13
ATOM     13  N   UNL A   1      31.029  27.221  23.995  1.00  0.00    -0.347 N 
ATOM     14  C   UNL A   1      29.764  27.605  23.622  1.00  0.00     0.289 C 
ATOM     15  O   UNL A   1      28.879  26.779  23.841  1.00  0.00    -0.266 OA
ATOM     16  H   UNL A   1      31.053  26.405  24.548  1.00  0.00     0.164 HD
BRANCH  14  17
ATOM     17  C   UNL A   1      29.504  28.893  23.017  1.00  0.00     0.224 A 
ATOM     18  C   UNL A   1      28.694  32.362  22.139  1.00  0.00     0.070 C 
ATOM     19  C   UNL A   1      29.056  30.934  22.268  1.00  0.00     0.081 A 
ATOM     20  C   UNL A   1      29.059  30.130  23.430  1.00  0.00     0.083 A 
ATOM     21  N   UNL A   1      29.428  30.230  21.198  1.00  0.00    -0.084 NA
ATOM     22  O   UNL A   1      29.704  28.959  21.663  1.00  0.00    -0.351 OA
ENDBRANCH  14  17
ENDBRANCH  12  13
ENDBRANCH   8  12
ENDBRANCH   4   7
ENDBRANCH   2   3
ENDBRANCH   1   2
BRANCH   1  23
ATOM     23  C   UNL A   1      33.451  34.089  29.036  1.00  0.00     0.023 C 
BRANCH  23  24
ATOM     24  C   UNL A   1      33.697  35.523  29.489  1.00  0.00     0.116 C 
BRANCH  24  25
ATOM     25  N   UNL A   1      32.674  36.044  30.387  1.00  0.00    -0.352 N 
ATOM     26  C   UNL A   1      32.600  35.888  31.754  1.00  0.00     0.251 C 
ATOM     27  H   UNL A   1      31.952  36.567  29.968  1.00  0.00     0.163 HD
ATOM     28  O   UNL A   1      31.634  36.293  32.386  1.00  0.00    -0.269 OA
BRANCH  26  29
ATOM     29  C   UNL A   1      33.701  35.171  32.429  1.00  0.00     0.039 A 
ATOM     30  C   UNL A   1      33.499  33.856  32.848  1.00  0.00     0.014 A 
ATOM     31  C   UNL A   1      34.963  35.765  32.509  1.00  0.00     0.014 A 
ATOM     32  C   UNL A   1      34.594  33.098  33.267  1.00  0.00     0.010 A 
ATOM     33  C   UNL A   1      36.061  34.983  32.843  1.00  0.00     0.010 A 
ATOM     34  C   UNL A   1      35.890  33.639  33.218  1.00  0.00    -0.014 A 
BRANCH  34  35
ATOM     35  C   UNL A   1      37.091  32.833  33.554  1.00  0.00     0.031 A 
ATOM     36  C   UNL A   1      37.837  33.115  34.828  1.00  0.00     0.074 A 
ATOM     37  C   UNL A   1      37.559  31.917  32.683  1.00  0.00     0.049 A 
ATOM     38  N   UNL A   1      38.980  32.633  35.243  1.00  0.00    -0.248 NA
ATOM     39  C   UNL A   1      37.230  34.096  35.744  1.00  0.00     0.031 C 
ATOM     40  C   UNL A   1      36.943  31.569  31.400  1.00  0.00     0.029 A 
ATOM     41  N   UNL A   1      38.676  31.120  32.738  1.00  0.00    -0.354 N 
ATOM     42  C   UNL A   1      39.232  33.259  36.457  1.00  0.00     0.074 A 
ATOM     43  C   UNL A   1      38.159  34.201  36.681  1.00  0.00     0.031 C 
ATOM     44  C   UNL A   1      37.679  30.616  30.802  1.00  0.00     0.029 A 
ATOM     45  C   UNL A   1      38.844  30.322  31.630  1.00  0.00     0.049 A 
ATOM     46  H   UNL A   1      39.300  31.119  33.500  1.00  0.00     0.167 HD
ATOM     47  C   UNL A   1      40.251  33.047  37.320  1.00  0.00     0.037 A 
ATOM     48  C   UNL A   1      39.833  29.465  31.313  1.00  0.00     0.037 A 
ATOM     49  C   UNL A   1      41.308  32.096  37.103  1.00  0.00     0.049 A 
ATOM     50  C   UNL A   1      40.983  29.284  32.270  1.00  0.00     0.074 A 
ATOM     51  C   UNL A   1      42.371  31.786  37.933  1.00  0.00     0.029 A 
ATOM     52  N   UNL A   1      41.433  31.301  35.975  1.00  0.00    -0.354 N 
ATOM     53  N   UNL A   1      41.185  29.849  33.436  1.00  0.00    -0.248 NA
ATOM     54  C   UNL A   1      42.043  28.348  31.867  1.00  0.00     0.031 C 
ATOM     55  C   UNL A   1      43.166  30.836  37.285  1.00  0.00     0.029 A 
ATOM     56  C   UNL A   1      42.565  30.511  36.080  1.00  0.00     0.049 A 
ATOM     57  H   UNL A   1      40.809  31.298  35.213  1.00  0.00     0.167 HD
ATOM     58  C   UNL A   1      42.364  29.302  33.925  1.00  0.00     0.074 A 
ATOM     59  C   UNL A   1      42.835  28.362  32.930  1.00  0.00     0.031 C 
ATOM     60  C   UNL A   1      42.998  29.553  35.096  1.00  0.00     0.037 A 
BRANCH  47  61
ATOM     61  C   UNL A   1      40.266  33.853  38.587  1.00  0.00     0.057 A 
ATOM     62  C   UNL A   1      39.556  33.448  39.725  1.00  0.00     0.134 A 
ATOM     63  C   UNL A   1      41.026  35.024  38.684  1.00  0.00     0.134 A 
ATOM     64  F   UNL A   1      38.796  32.342  39.695  1.00  0.00    -0.206 F 
ATOM     65  C   UNL A   1      39.581  34.192  40.906  1.00  0.00     0.040 A 
ATOM     66  C   UNL A   1      41.086  35.760  39.869  1.00  0.00     0.040 A 
ATOM     67  F   UNL A   1      41.736  35.466  37.634  1.00  0.00    -0.206 F 
ATOM     68  C   UNL A   1      40.356  35.347  40.982  1.00  0.00     0.006 A 
ENDBRANCH  47  61
BRANCH  48  69
ATOM     69  C   UNL A   1      39.788  28.697  30.042  1.00  0.00     0.057 A 
ATOM     70  C   UNL A   1      39.178  27.437  29.981  1.00  0.00     0.134 A 
ATOM     71  C   UNL A   1      40.379  29.180  28.867  1.00  0.00     0.134 A 
ATOM     72  F   UNL A   1      38.610  26.911  31.077  1.00  0.00    -0.206 F 
ATOM     73  C   UNL A   1      39.184  26.673  28.813  1.00  0.00     0.040 A 
ATOM     74  C   UNL A   1      40.367  28.439  27.683  1.00  0.00     0.040 A 
ATOM     75  F   UNL A   1      40.972  30.382  28.852  1.00  0.00    -0.206 F 
ATOM     76  C   UNL A   1      39.779  27.176  27.658  1.00  0.00     0.006 A 
ENDBRANCH  48  69
BRANCH  60  77
ATOM     77  C   UNL A   1      44.228  28.753  35.411  1.00  0.00     0.057 A 
ATOM     78  C   UNL A   1      44.169  27.529  36.086  1.00  0.00     0.134 A 
ATOM     79  C   UNL A   1      45.483  29.180  34.952  1.00  0.00     0.134 A 
ATOM     80  F   UNL A   1      43.001  27.070  36.561  1.00  0.00    -0.206 F 
ATOM     81  C   UNL A   1      45.316  26.763  36.304  1.00  0.00     0.040 A 
ATOM     82  C   UNL A   1      46.630  28.411  35.139  1.00  0.00     0.040 A 
ATOM     83  F   UNL A   1      45.605  30.341  34.289  1.00  0.00    -0.206 F 
ATOM     84  C   UNL A   1      46.548  27.197  35.819  1.00  0.00     0.006 A 
ENDBRANCH  60  77
ENDBRANCH  34  35
ENDBRANCH  26  29
ENDBRANCH  24  25
ENDBRANCH  23  24
ENDBRANCH   1  23
TORSDOF 14
ENDMDL
MODEL 3
REMARK VINA RESULT:     -11.8      5.774     10.574
REMARK SMILES Cc1cc(C(=O)NC[C@@H]2CC[C@H](C(=O)NCCCCNC(=O)c3ccc(-c4c5nc(c(-c6c(F)cccc6F)c6ccc([nH]6)c(-c6c(F)cccc6F)c6nc(c(-c7c(F)cccc7F)c7ccc4[nH]7)C=C6)C=C5)cc3)O2)on1
REMARK SMILES IDX 17 1 16 2 15 3 13 4 14 5 12 7 9 8 10 9 77 10 11 11 8 12 7 13
REMARK SMILES IDX 5 14 6 15 4 17 1 18 2 19 3 20 79 21 78 22 18 23 19 24 20 25
REMARK SMILES IDX 21 26 22 28 23 29 24 30 76 31 25 32 75 33 26 34 27 35 28 36
REMARK SMILES IDX 69 37 29 38 74 39 68 40 70 41 30 42 73 43 67 44 66 45 31 47
REMARK SMILES IDX 57 48 40 49 56 50 41 51 44 52 55 53 71 54 42 55 43 56 54 58
REMARK SMILES IDX 72 59 45 60 32 61 33 62 38 63 34 64 35 65 37 66 39 67 36 68
REMARK SMILES IDX 58 69 59 70 64 71 60 72 61 73 63 74 65 75 62 76 46 77 47 78
REMARK SMILES IDX 52 79 48 80 49 81 51 82 53 83 50 84
REMARK H PARENT 15 6 7 16 20 27 70 46 44 57
REMARK Flexibility Score: inf
ROOT
ATOM      1  C   UNL A   1      37.413  21.171  24.795  1.00  0.00     0.023 C 
ENDROOT
BRANCH   1   2
ATOM      2  C   UNL A   1      35.979  21.049  25.294  1.00  0.00     0.116 C 
BRANCH   2   3
ATOM      3  N   UNL A   1      35.715  21.828  26.477  1.00  0.00    -0.354 N 
ATOM      4  C   UNL A   1      34.668  22.658  26.757  1.00  0.00     0.249 C 
ATOM      5  O   UNL A   1      34.643  23.169  27.881  1.00  0.00    -0.272 OA
ATOM      6  H   UNL A   1      36.390  21.749  27.189  1.00  0.00     0.163 HD
BRANCH   4   7
ATOM      7  C   UNL A   1      33.553  22.972  25.723  1.00  0.00     0.207 C 
ATOM      8  C   UNL A   1      32.227  21.531  24.412  1.00  0.00     0.138 C 
ATOM      9  C   UNL A   1      33.344  22.035  23.506  1.00  0.00     0.037 C 
ATOM     10  O   UNL A   1      32.475  22.039  25.733  1.00  0.00    -0.363 OA
ATOM     11  C   UNL A   1      34.034  23.129  24.291  1.00  0.00     0.045 C 
BRANCH   8  12
ATOM     12  C   UNL A   1      32.136  19.996  24.532  1.00  0.00     0.148 C 
BRANCH  12  13
ATOM     13  N   UNL A   1      32.142  19.336  23.245  1.00  0.00    -0.347 N 
ATOM     14  C   UNL A   1      32.642  18.125  22.835  1.00  0.00     0.289 C 
ATOM     15  O   UNL A   1      32.293  17.766  21.710  1.00  0.00    -0.266 OA
ATOM     16  H   UNL A   1      31.706  19.853  22.529  1.00  0.00     0.164 HD
BRANCH  14  17
ATOM     17  C   UNL A   1      33.517  17.334  23.674  1.00  0.00     0.224 A 
ATOM     18  C   UNL A   1      36.172  15.882  25.748  1.00  0.00     0.070 C 
ATOM     19  C   UNL A   1      34.990  16.270  24.948  1.00  0.00     0.081 A 
ATOM     20  C   UNL A   1      34.786  17.450  24.200  1.00  0.00     0.083 A 
ATOM     21  N   UNL A   1      33.939  15.455  24.855  1.00  0.00    -0.084 NA
ATOM     22  O   UNL A   1      33.023  16.116  24.059  1.00  0.00    -0.351 OA
ENDBRANCH  14  17
ENDBRANCH  12  13
ENDBRANCH   8  12
ENDBRANCH   4   7
ENDBRANCH   2   3
ENDBRANCH   1   2
BRANCH   1  23
ATOM     23  C   UNL A   1      38.251  19.921  25.025  1.00  0.00     0.023 C 
BRANCH  23  24
ATOM     24  C   UNL A   1      39.520  20.144  25.838  1.00  0.00     0.116 C 
BRANCH  24  25
ATOM     25  N   UNL A   1      40.403  18.986  25.887  1.00  0.00    -0.352 N 
ATOM     26  C   UNL A   1      41.761  18.976  26.124  1.00  0.00     0.251 C 
ATOM     27  H   UNL A   1      39.982  18.109  25.732  1.00  0.00     0.163 HD
ATOM     28  O   UNL A   1      42.411  17.943  26.043  1.00  0.00    -0.269 OA
BRANCH  26  29
ATOM     29  C   UNL A   1      42.418  20.263  26.431  1.00  0.00     0.039 A 
ATOM     30  C   UNL A   1      43.021  20.981  25.398  1.00  0.00     0.014 A 
ATOM     31  C   UNL A   1      42.304  20.807  27.712  1.00  0.00     0.014 A 
ATOM     32  C   UNL A   1      43.431  22.295  25.630  1.00  0.00     0.010 A 
ATOM     33  C   UNL A   1      42.633  22.141  27.915  1.00  0.00     0.010 A 
ATOM     34  C   UNL A   1      43.193  22.902  26.875  1.00  0.00    -0.014 A 
BRANCH  34  35
ATOM     35  C   UNL A   1      43.518  24.329  27.128  1.00  0.00     0.031 A 
ATOM     36  C   UNL A   1      44.949  24.785  27.051  1.00  0.00     0.074 A 
ATOM     37  C   UNL A   1      42.553  25.187  27.510  1.00  0.00     0.049 A 
ATOM     38  N   UNL A   1      45.468  25.941  27.372  1.00  0.00    -0.248 NA
ATOM     39  C   UNL A   1      45.931  23.794  26.579  1.00  0.00     0.031 C 
ATOM     40  C   UNL A   1      41.131  24.863  27.650  1.00  0.00     0.029 A 
ATOM     41  N   UNL A   1      42.625  26.511  27.869  1.00  0.00    -0.354 N 
ATOM     42  C   UNL A   1      46.833  25.814  27.152  1.00  0.00     0.074 A 
ATOM     43  C   UNL A   1      47.071  24.451  26.734  1.00  0.00     0.031 C 
ATOM     44  C   UNL A   1      40.465  25.962  28.044  1.00  0.00     0.029 A 
ATOM     45  C   UNL A   1      41.415  27.054  28.235  1.00  0.00     0.049 A 
ATOM     46  H   UNL A   1      43.465  27.025  27.865  1.00  0.00     0.167 HD
ATOM     47  C   UNL A   1      47.798  26.755  27.261  1.00  0.00     0.037 A 
ATOM     48  C   UNL A   1      41.111  28.285  28.688  1.00  0.00     0.037 A 
ATOM     49  C   UNL A   1      47.556  28.116  27.660  1.00  0.00     0.049 A 
ATOM     50  C   UNL A   1      42.212  29.301  28.849  1.00  0.00     0.074 A 
ATOM     51  C   UNL A   1      48.463  29.153  27.773  1.00  0.00     0.029 A 
ATOM     52  N   UNL A   1      46.315  28.625  28.010  1.00  0.00    -0.354 N 
ATOM     53  N   UNL A   1      43.492  29.179  28.593  1.00  0.00    -0.248 NA
ATOM     54  C   UNL A   1      41.828  30.625  29.361  1.00  0.00     0.031 C 
ATOM     55  C   UNL A   1      47.779  30.281  28.236  1.00  0.00     0.029 A 
ATOM     56  C   UNL A   1      46.436  29.960  28.354  1.00  0.00     0.049 A 
ATOM     57  H   UNL A   1      45.474  28.114  28.012  1.00  0.00     0.167 HD
ATOM     58  C   UNL A   1      44.055  30.420  28.866  1.00  0.00     0.074 A 
ATOM     59  C   UNL A   1      42.978  31.280  29.309  1.00  0.00     0.031 C 
ATOM     60  C   UNL A   1      45.347  30.812  28.756  1.00  0.00     0.037 A 
BRANCH  47  61
ATOM     61  C   UNL A   1      49.205  26.347  26.934  1.00  0.00     0.057 A 
ATOM     62  C   UNL A   1      49.714  26.441  25.632  1.00  0.00     0.134 A 
ATOM     63  C   UNL A   1      50.072  25.893  27.935  1.00  0.00     0.134 A 
ATOM     64  F   UNL A   1      48.932  26.856  24.624  1.00  0.00    -0.206 F 
ATOM     65  C   UNL A   1      51.028  26.073  25.332  1.00  0.00     0.040 A 
ATOM     66  C   UNL A   1      51.397  25.552  27.654  1.00  0.00     0.040 A 
ATOM     67  F   UNL A   1      49.652  25.784  29.204  1.00  0.00    -0.206 F 
ATOM     68  C   UNL A   1      51.875  25.636  26.347  1.00  0.00     0.006 A 
ENDBRANCH  47  61
BRANCH  48  69
ATOM     69  C   UNL A   1      39.707  28.644  29.015  1.00  0.00     0.057 A 
ATOM     70  C   UNL A   1      39.185  28.421  30.296  1.00  0.00     0.134 A 
ATOM     71  C   UNL A   1      38.841  29.183  28.056  1.00  0.00     0.134 A 
ATOM     72  F   UNL A   1      39.958  27.890  31.255  1.00  0.00    -0.206 F 
ATOM     73  C   UNL A   1      37.850  28.690  30.603  1.00  0.00     0.040 A 
ATOM     74  C   UNL A   1      37.510  29.485  28.356  1.00  0.00     0.040 A 
ATOM     75  F   UNL A   1      39.276  29.430  26.812  1.00  0.00    -0.206 F 
ATOM     76  C   UNL A   1      37.009  29.227  29.630  1.00  0.00     0.006 A 
ENDBRANCH  48  69
BRANCH  60  77
ATOM     77  C   UNL A   1      45.669  32.249  29.044  1.00  0.00     0.057 A 
ATOM     78  C   UNL A   1      46.086  32.682  30.307  1.00  0.00     0.134 A 
ATOM     79  C   UNL A   1      45.639  33.198  28.011  1.00  0.00     0.134 A 
ATOM     80  F   UNL A   1      46.125  31.827  31.340  1.00  0.00    -0.206 F 
ATOM     81  C   UNL A   1      46.453  34.009  30.537  1.00  0.00     0.040 A 
ATOM     82  C   UNL A   1      46.029  34.519  28.221  1.00  0.00     0.040 A 
ATOM     83  F   UNL A   1      45.256  32.845  26.774  1.00  0.00    -0.206 F 
ATOM     84  C   UNL A   1      46.437  34.929  29.490  1.00  0.00     0.006 A 
ENDBRANCH  60  77
ENDBRANCH  34  35
ENDBRANCH  26  29
ENDBRANCH  24  25
ENDBRANCH  23  24
ENDBRANCH   1  23
TORSDOF 14
ENDMDL
