MODEL 1
REMARK VINA RESULT:     -12.9      0.000      0.000
REMARK SMILES O=C(NCCCCNC(=O)c1cc(N2CCN(c3ccc(F)cc3)CC2)ccc1NC(=O)C1CCCC1)c1ccc(-c2c3nc(c(-c4c(F)cccc4F)c4ccc([nH]4)c(-c4c(F)cccc4F)c4nc(c(-c5c(F)cccc5F)c5ccc2[nH]5)C=C4)C=C3)cc1
REMARK SMILES IDX 5 1 4 2 3 3 1 4 2 5 38 7 39 8 91 9 40 10 90 11 41 12 42 13
REMARK SMILES IDX 43 14 84 15 44 16 89 17 83 18 85 19 45 20 88 21 82 22 81 23
REMARK SMILES IDX 46 25 72 26 55 27 71 28 56 29 59 30 70 31 86 32 57 33 58 34
REMARK SMILES IDX 69 36 87 37 60 38 47 39 48 40 53 41 49 42 50 43 52 44 54 45
REMARK SMILES IDX 51 46 73 47 74 48 79 49 75 50 76 51 78 52 80 53 77 54 61 55
REMARK SMILES IDX 62 56 67 57 63 58 64 59 66 60 68 61 65 62 6 63 7 64 8 65
REMARK SMILES IDX 9 66 10 68 11 69 12 70 29 71 13 72 28 73 27 74 30 75 31 76
REMARK SMILES IDX 32 78 33 79 34 80 37 81 35 82 36 83 14 84 15 85 26 86 16 87
REMARK SMILES IDX 25 88 17 89 18 90 19 91 24 92 20 93 23 94 21 95 22 96
REMARK H PARENT 3 6 85 24 59 35 8 67 30 77
REMARK Flexibility Score: inf
ROOT
ATOM      1  C   UNL A   1      38.672  21.454  25.384  1.00  0.00     0.023 C 
ENDROOT
BRANCH   1   2
ATOM      2  C   UNL A   1      39.038  20.376  26.399  1.00  0.00     0.116 C 
BRANCH   2   3
ATOM      3  N   UNL A   1      40.143  19.534  25.966  1.00  0.00    -0.352 N 
ATOM      4  O   UNL A   1      42.263  19.009  25.390  1.00  0.00    -0.269 OA
ATOM      5  C   UNL A   1      41.493  19.800  25.928  1.00  0.00     0.251 C 
ATOM      6  H   UNL A   1      39.886  18.637  25.653  1.00  0.00     0.163 HD
BRANCH   5   7
ATOM      7  C   UNL A   1      42.014  21.062  26.499  1.00  0.00     0.039 A 
ATOM      8  C   UNL A   1      42.135  21.221  27.879  1.00  0.00     0.014 A 
ATOM      9  C   UNL A   1      42.360  22.110  25.641  1.00  0.00     0.014 A 
ATOM     10  C   UNL A   1      42.397  22.481  28.404  1.00  0.00     0.010 A 
ATOM     11  C   UNL A   1      42.731  23.349  26.173  1.00  0.00     0.010 A 
ATOM     12  C   UNL A   1      42.696  23.564  27.559  1.00  0.00    -0.014 A 
BRANCH  12  13
ATOM     13  C   UNL A   1      42.973  24.895  28.160  1.00  0.00     0.031 A 
ATOM     14  C   UNL A   1      44.382  25.339  28.462  1.00  0.00     0.074 A 
ATOM     15  C   UNL A   1      41.945  25.737  28.384  1.00  0.00     0.049 A 
ATOM     16  N   UNL A   1      44.801  26.488  28.933  1.00  0.00    -0.248 NA
ATOM     17  C   UNL A   1      45.459  24.370  28.213  1.00  0.00     0.031 C 
ATOM     18  C   UNL A   1      40.534  25.422  28.145  1.00  0.00     0.029 A 
ATOM     19  N   UNL A   1      41.924  27.033  28.833  1.00  0.00    -0.354 N 
ATOM     20  C   UNL A   1      46.180  26.370  29.061  1.00  0.00     0.074 A 
ATOM     21  C   UNL A   1      46.526  25.029  28.642  1.00  0.00     0.031 C 
ATOM     22  C   UNL A   1      39.793  26.513  28.387  1.00  0.00     0.029 A 
ATOM     23  C   UNL A   1      40.665  27.582  28.860  1.00  0.00     0.049 A 
ATOM     24  H   UNL A   1      42.732  27.521  29.109  1.00  0.00     0.167 HD
ATOM     25  C   UNL A   1      47.076  27.297  29.480  1.00  0.00     0.037 A 
ATOM     26  C   UNL A   1      40.253  28.807  29.232  1.00  0.00     0.037 A 
ATOM     27  C   UNL A   1      46.733  28.642  29.869  1.00  0.00     0.049 A 
ATOM     28  C   UNL A   1      41.266  29.810  29.699  1.00  0.00     0.074 A 
ATOM     29  C   UNL A   1      47.577  29.666  30.267  1.00  0.00     0.029 A 
ATOM     30  N   UNL A   1      45.444  29.149  29.913  1.00  0.00    -0.354 N 
ATOM     31  N   UNL A   1      42.570  29.693  29.778  1.00  0.00    -0.248 NA
ATOM     32  C   UNL A   1      40.750  31.117  30.127  1.00  0.00     0.031 C 
ATOM     33  C   UNL A   1      46.793  30.778  30.595  1.00  0.00     0.029 A 
ATOM     34  C   UNL A   1      45.467  30.464  30.351  1.00  0.00     0.049 A 
ATOM     35  H   UNL A   1      44.632  28.649  29.668  1.00  0.00     0.167 HD
ATOM     36  C   UNL A   1      43.031  30.917  30.242  1.00  0.00     0.074 A 
ATOM     37  C   UNL A   1      41.870  31.767  30.408  1.00  0.00     0.031 C 
ATOM     38  C   UNL A   1      44.305  31.302  30.505  1.00  0.00     0.037 A 
BRANCH  25  39
ATOM     39  C   UNL A   1      48.520  26.886  29.560  1.00  0.00     0.057 A 
ATOM     40  C   UNL A   1      49.429  27.150  28.527  1.00  0.00     0.134 A 
ATOM     41  C   UNL A   1      49.016  26.256  30.710  1.00  0.00     0.134 A 
ATOM     42  F   UNL A   1      49.019  27.740  27.395  1.00  0.00    -0.206 F 
ATOM     43  C   UNL A   1      50.774  26.782  28.625  1.00  0.00     0.040 A 
ATOM     44  C   UNL A   1      50.364  25.907  30.829  1.00  0.00     0.040 A 
ATOM     45  F   UNL A   1      48.204  25.982  31.741  1.00  0.00    -0.206 F 
ATOM     46  C   UNL A   1      51.245  26.165  29.782  1.00  0.00     0.006 A 
ENDBRANCH  25  39
BRANCH  26  47
ATOM     47  C   UNL A   1      38.811  29.153  29.168  1.00  0.00     0.057 A 
ATOM     48  C   UNL A   1      37.991  29.051  30.298  1.00  0.00     0.134 A 
ATOM     49  C   UNL A   1      38.220  29.595  27.978  1.00  0.00     0.134 A 
ATOM     50  F   UNL A   1      38.497  28.616  31.461  1.00  0.00    -0.206 F 
ATOM     51  C   UNL A   1      36.632  29.361  30.244  1.00  0.00     0.040 A 
ATOM     52  C   UNL A   1      36.869  29.937  27.917  1.00  0.00     0.040 A 
ATOM     53  F   UNL A   1      38.954  29.722  26.864  1.00  0.00    -0.206 F 
ATOM     54  C   UNL A   1      36.069  29.813  29.050  1.00  0.00     0.006 A 
ENDBRANCH  26  47
BRANCH  38  55
ATOM     55  C   UNL A   1      44.507  32.718  30.958  1.00  0.00     0.057 A 
ATOM     56  C   UNL A   1      44.523  33.070  32.313  1.00  0.00     0.134 A 
ATOM     57  C   UNL A   1      44.700  33.743  30.022  1.00  0.00     0.134 A 
ATOM     58  F   UNL A   1      44.330  32.139  33.260  1.00  0.00    -0.206 F 
ATOM     59  C   UNL A   1      44.693  34.394  32.721  1.00  0.00     0.040 A 
ATOM     60  C   UNL A   1      44.899  35.066  30.418  1.00  0.00     0.040 A 
ATOM     61  F   UNL A   1      44.704  33.473  28.708  1.00  0.00    -0.206 F 
ATOM     62  C   UNL A   1      44.887  35.395  31.771  1.00  0.00     0.006 A 
ENDBRANCH  38  55
ENDBRANCH  12  13
ENDBRANCH   5   7
ENDBRANCH   2   3
ENDBRANCH   1   2
BRANCH   1  63
ATOM     63  C   UNL A   1      38.491  22.861  25.955  1.00  0.00     0.023 C 
BRANCH  63  64
ATOM     64  C   UNL A   1      37.093  23.450  25.797  1.00  0.00     0.116 C 
BRANCH  64  65
ATOM     65  N   UNL A   1      36.191  23.017  26.849  1.00  0.00    -0.352 N 
ATOM     66  C   UNL A   1      34.838  22.809  26.805  1.00  0.00     0.253 C 
ATOM     67  H   UNL A   1      36.614  22.847  27.722  1.00  0.00     0.163 HD
ATOM     68  O   UNL A   1      34.224  22.605  27.850  1.00  0.00    -0.269 OA
BRANCH  66  69
ATOM     69  C   UNL A   1      34.105  22.797  25.522  1.00  0.00     0.065 A 
ATOM     70  C   UNL A   1      33.203  23.860  25.313  1.00  0.00     0.042 A 
ATOM     71  C   UNL A   1      34.204  21.738  24.598  1.00  0.00     0.054 A 
ATOM     72  C   UNL A   1      32.349  23.883  24.207  1.00  0.00     0.038 A 
ATOM     73  C   UNL A   1      33.303  21.729  23.549  1.00  0.00     0.029 A 
ATOM     74  C   UNL A   1      32.412  22.787  23.343  1.00  0.00     0.028 A 
BRANCH  71  75
ATOM     75  N   UNL A   1      35.157  20.720  24.780  1.00  0.00    -0.325 N 
ATOM     76  C   UNL A   1      35.154  19.365  24.729  1.00  0.00     0.227 C 
ATOM     77  H   UNL A   1      36.047  21.081  24.999  1.00  0.00     0.169 HD
ATOM     78  O   UNL A   1      36.262  18.836  24.915  1.00  0.00    -0.274 OA
BRANCH  76  79
ATOM     79  C   UNL A   1      33.969  18.442  24.454  1.00  0.00     0.079 C 
ATOM     80  C   UNL A   1      34.399  17.044  24.022  1.00  0.00     0.013 C 
ATOM     81  C   UNL A   1      32.847  18.276  25.482  1.00  0.00     0.013 C 
ATOM     82  C   UNL A   1      33.199  16.162  24.328  1.00  0.00     0.001 C 
ATOM     83  C   UNL A   1      32.560  16.774  25.567  1.00  0.00     0.001 C 
ENDBRANCH  76  79
ENDBRANCH  71  75
BRANCH  72  84
ATOM     84  N   UNL A   1      31.437  24.897  24.022  1.00  0.00    -0.368 N 
ATOM     85  C   UNL A   1      30.825  25.619  25.158  1.00  0.00     0.138 C 
ATOM     86  C   UNL A   1      31.300  25.571  22.719  1.00  0.00     0.138 C 
ATOM     87  C   UNL A   1      31.311  27.101  25.216  1.00  0.00     0.138 C 
ATOM     88  C   UNL A   1      31.855  27.005  22.790  1.00  0.00     0.138 C 
ATOM     89  N   UNL A   1      31.227  27.755  23.891  1.00  0.00    -0.368 N 
BRANCH  89  90
ATOM     90  C   UNL A   1      30.246  28.693  23.642  1.00  0.00     0.037 A 
ATOM     91  C   UNL A   1      29.067  28.318  22.977  1.00  0.00     0.029 A 
ATOM     92  C   UNL A   1      30.355  30.027  24.066  1.00  0.00     0.029 A 
ATOM     93  C   UNL A   1      28.031  29.233  22.763  1.00  0.00     0.041 A 
ATOM     94  C   UNL A   1      29.331  30.952  23.839  1.00  0.00     0.041 A 
ATOM     95  C   UNL A   1      28.174  30.543  23.195  1.00  0.00     0.123 A 
ATOM     96  F   UNL A   1      27.184  31.421  22.995  1.00  0.00    -0.207 F 
ENDBRANCH  89  90
ENDBRANCH  72  84
ENDBRANCH  66  69
ENDBRANCH  64  65
ENDBRANCH  63  64
ENDBRANCH   1  63
TORSDOF 15
ENDMDL
MODEL 2
REMARK VINA RESULT:     -12.6      3.532      6.965
REMARK SMILES O=C(NCCCCNC(=O)c1cc(N2CCN(c3ccc(F)cc3)CC2)ccc1NC(=O)C1CCCC1)c1ccc(-c2c3nc(c(-c4c(F)cccc4F)c4ccc([nH]4)c(-c4c(F)cccc4F)c4nc(c(-c5c(F)cccc5F)c5ccc2[nH]5)C=C4)C=C3)cc1
REMARK SMILES IDX 5 1 4 2 3 3 1 4 2 5 38 7 39 8 91 9 40 10 90 11 41 12 42 13
REMARK SMILES IDX 43 14 84 15 44 16 89 17 83 18 85 19 45 20 88 21 82 22 81 23
REMARK SMILES IDX 46 25 72 26 55 27 71 28 56 29 59 30 70 31 86 32 57 33 58 34
REMARK SMILES IDX 69 36 87 37 60 38 47 39 48 40 53 41 49 42 50 43 52 44 54 45
REMARK SMILES IDX 51 46 73 47 74 48 79 49 75 50 76 51 78 52 80 53 77 54 61 55
REMARK SMILES IDX 62 56 67 57 63 58 64 59 66 60 68 61 65 62 6 63 7 64 8 65
REMARK SMILES IDX 9 66 10 68 11 69 12 70 29 71 13 72 28 73 27 74 30 75 31 76
REMARK SMILES IDX 32 78 33 79 34 80 37 81 35 82 36 83 14 84 15 85 26 86 16 87
REMARK SMILES IDX 25 88 17 89 18 90 19 91 24 92 20 93 23 94 21 95 22 96
REMARK H PARENT 3 6 85 24 59 35 8 67 30 77
REMARK Flexibility Score: inf
ROOT
ATOM      1  C   UNL A   1      39.480  22.406  26.059  1.00  0.00     0.023 C 
ENDROOT
BRANCH   1   2
ATOM      2  C   UNL A   1      40.895  22.115  26.545  1.00  0.00     0.116 C 
BRANCH   2   3
ATOM      3  N   UNL A   1      41.922  22.530  25.600  1.00  0.00    -0.352 N 
ATOM      4  O   UNL A   1      43.390  23.920  24.593  1.00  0.00    -0.269 OA
ATOM      5  C   UNL A   1      42.669  23.685  25.559  1.00  0.00     0.251 C 
ATOM      6  H   UNL A   1      42.111  21.885  24.880  1.00  0.00     0.163 HD
BRANCH   5   7
ATOM      7  C   UNL A   1      42.573  24.666  26.661  1.00  0.00     0.039 A 
ATOM      8  C   UNL A   1      42.295  24.249  27.963  1.00  0.00     0.014 A 
ATOM      9  C   UNL A   1      42.736  26.027  26.384  1.00  0.00     0.014 A 
ATOM     10  C   UNL A   1      41.975  25.192  28.933  1.00  0.00     0.010 A 
ATOM     11  C   UNL A   1      42.520  26.972  27.392  1.00  0.00     0.010 A 
ATOM     12  C   UNL A   1      42.081  26.567  28.661  1.00  0.00    -0.014 A 
BRANCH  12  13
ATOM     13  C   UNL A   1      41.732  27.544  29.726  1.00  0.00     0.031 A 
ATOM     14  C   UNL A   1      40.531  28.445  29.597  1.00  0.00     0.074 A 
ATOM     15  C   UNL A   1      42.477  27.578  30.849  1.00  0.00     0.049 A 
ATOM     16  N   UNL A   1      40.055  29.312  30.457  1.00  0.00    -0.248 NA
ATOM     17  C   UNL A   1      39.770  28.374  28.341  1.00  0.00     0.031 C 
ATOM     18  C   UNL A   1      43.670  26.765  31.091  1.00  0.00     0.029 A 
ATOM     19  N   UNL A   1      42.327  28.301  32.005  1.00  0.00    -0.354 N 
ATOM     20  C   UNL A   1      38.960  29.905  29.838  1.00  0.00     0.074 A 
ATOM     21  C   UNL A   1      38.856  29.318  28.520  1.00  0.00     0.031 C 
ATOM     22  C   UNL A   1      44.107  26.985  32.340  1.00  0.00     0.029 A 
ATOM     23  C   UNL A   1      43.266  28.000  32.962  1.00  0.00     0.049 A 
ATOM     24  H   UNL A   1      41.617  28.969  32.136  1.00  0.00     0.167 HD
ATOM     25  C   UNL A   1      38.114  30.844  30.328  1.00  0.00     0.037 A 
ATOM     26  C   UNL A   1      43.439  28.492  34.203  1.00  0.00     0.037 A 
ATOM     27  C   UNL A   1      38.202  31.407  31.652  1.00  0.00     0.049 A 
ATOM     28  C   UNL A   1      42.492  29.536  34.715  1.00  0.00     0.074 A 
ATOM     29  C   UNL A   1      37.365  32.333  32.253  1.00  0.00     0.029 A 
ATOM     30  N   UNL A   1      39.185  31.099  32.580  1.00  0.00    -0.354 N 
ATOM     31  N   UNL A   1      41.440  30.058  34.130  1.00  0.00    -0.248 NA
ATOM     32  C   UNL A   1      42.755  30.061  36.061  1.00  0.00     0.031 C 
ATOM     33  C   UNL A   1      37.869  32.619  33.526  1.00  0.00     0.029 A 
ATOM     34  C   UNL A   1      38.989  31.833  33.739  1.00  0.00     0.049 A 
ATOM     35  H   UNL A   1      39.915  30.455  32.436  1.00  0.00     0.167 HD
ATOM     36  C   UNL A   1      40.904  30.953  35.045  1.00  0.00     0.074 A 
ATOM     37  C   UNL A   1      41.734  30.889  36.230  1.00  0.00     0.031 C 
ATOM     38  C   UNL A   1      39.818  31.755  34.915  1.00  0.00     0.037 A 
BRANCH  25  39
ATOM     39  C   UNL A   1      37.025  31.344  29.420  1.00  0.00     0.057 A 
ATOM     40  C   UNL A   1      37.087  32.599  28.801  1.00  0.00     0.134 A 
ATOM     41  C   UNL A   1      35.919  30.535  29.126  1.00  0.00     0.134 A 
ATOM     42  F   UNL A   1      38.113  33.428  29.046  1.00  0.00    -0.206 F 
ATOM     43  C   UNL A   1      36.078  33.041  27.941  1.00  0.00     0.040 A 
ATOM     44  C   UNL A   1      34.917  30.956  28.249  1.00  0.00     0.040 A 
ATOM     45  F   UNL A   1      35.800  29.318  29.676  1.00  0.00    -0.206 F 
ATOM     46  C   UNL A   1      34.993  32.215  27.658  1.00  0.00     0.006 A 
ENDBRANCH  25  39
BRANCH  26  47
ATOM     47  C   UNL A   1      44.551  27.991  35.048  1.00  0.00     0.057 A 
ATOM     48  C   UNL A   1      44.390  26.867  35.865  1.00  0.00     0.134 A 
ATOM     49  C   UNL A   1      45.801  28.622  35.056  1.00  0.00     0.134 A 
ATOM     50  F   UNL A   1      43.211  26.231  35.912  1.00  0.00    -0.206 F 
ATOM     51  C   UNL A   1      45.426  26.397  36.672  1.00  0.00     0.040 A 
ATOM     52  C   UNL A   1      46.855  28.146  35.836  1.00  0.00     0.040 A 
ATOM     53  F   UNL A   1      46.021  29.699  34.288  1.00  0.00    -0.206 F 
ATOM     54  C   UNL A   1      46.666  27.034  36.654  1.00  0.00     0.006 A 
ENDBRANCH  26  47
BRANCH  38  55
ATOM     55  C   UNL A   1      39.445  32.593  36.102  1.00  0.00     0.057 A 
ATOM     56  C   UNL A   1      39.992  33.865  36.315  1.00  0.00     0.134 A 
ATOM     57  C   UNL A   1      38.517  32.124  37.041  1.00  0.00     0.134 A 
ATOM     58  F   UNL A   1      40.898  34.367  35.462  1.00  0.00    -0.206 F 
ATOM     59  C   UNL A   1      39.652  34.627  37.433  1.00  0.00     0.040 A 
ATOM     60  C   UNL A   1      38.148  32.888  38.148  1.00  0.00     0.040 A 
ATOM     61  F   UNL A   1      37.950  30.917  36.892  1.00  0.00    -0.206 F 
ATOM     62  C   UNL A   1      38.723  34.140  38.351  1.00  0.00     0.006 A 
ENDBRANCH  38  55
ENDBRANCH  12  13
ENDBRANCH   5   7
ENDBRANCH   2   3
ENDBRANCH   1   2
BRANCH   1  63
ATOM     63  C   UNL A   1      38.797  23.613  26.704  1.00  0.00     0.023 C 
BRANCH  63  64
ATOM     64  C   UNL A   1      37.446  23.990  26.106  1.00  0.00     0.116 C 
BRANCH  64  65
ATOM     65  N   UNL A   1      37.391  23.748  24.675  1.00  0.00    -0.352 N 
ATOM     66  C   UNL A   1      36.375  23.226  23.919  1.00  0.00     0.253 C 
ATOM     67  H   UNL A   1      38.202  23.996  24.175  1.00  0.00     0.163 HD
ATOM     68  O   UNL A   1      36.583  22.941  22.742  1.00  0.00    -0.269 OA
BRANCH  66  69
ATOM     69  C   UNL A   1      35.024  23.024  24.483  1.00  0.00     0.065 A 
ATOM     70  C   UNL A   1      34.145  24.124  24.398  1.00  0.00     0.042 A 
ATOM     71  C   UNL A   1      34.652  21.850  25.168  1.00  0.00     0.054 A 
ATOM     72  C   UNL A   1      32.895  24.106  25.021  1.00  0.00     0.038 A 
ATOM     73  C   UNL A   1      33.447  21.871  25.846  1.00  0.00     0.029 A 
ATOM     74  C   UNL A   1      32.577  22.961  25.757  1.00  0.00     0.028 A 
BRANCH  71  75
ATOM     75  N   UNL A   1      35.508  20.734  25.186  1.00  0.00    -0.325 N 
ATOM     76  C   UNL A   1      35.388  19.413  24.907  1.00  0.00     0.227 C 
ATOM     77  H   UNL A   1      36.420  20.972  25.471  1.00  0.00     0.169 HD
ATOM     78  O   UNL A   1      36.441  18.763  25.012  1.00  0.00    -0.274 OA
BRANCH  76  79
ATOM     79  C   UNL A   1      34.135  18.659  24.470  1.00  0.00     0.079 C 
ATOM     80  C   UNL A   1      34.451  17.315  23.822  1.00  0.00     0.013 C 
ATOM     81  C   UNL A   1      32.973  18.434  25.442  1.00  0.00     0.013 C 
ATOM     82  C   UNL A   1      33.169  16.510  23.965  1.00  0.00     0.001 C 
ATOM     83  C   UNL A   1      32.552  16.971  25.278  1.00  0.00     0.001 C 
ENDBRANCH  76  79
ENDBRANCH  71  75
BRANCH  72  84
ATOM     84  N   UNL A   1      32.053  25.193  24.976  1.00  0.00    -0.368 N 
ATOM     85  C   UNL A   1      32.530  26.567  25.238  1.00  0.00     0.138 C 
ATOM     86  C   UNL A   1      30.741  25.113  24.311  1.00  0.00     0.138 C 
ATOM     87  C   UNL A   1      32.481  27.440  23.946  1.00  0.00     0.138 C 
ATOM     88  C   UNL A   1      30.747  25.926  23.003  1.00  0.00     0.138 C 
ATOM     89  N   UNL A   1      31.182  27.311  23.249  1.00  0.00    -0.368 N 
BRANCH  89  90
ATOM     90  C   UNL A   1      30.268  28.345  23.288  1.00  0.00     0.037 A 
ATOM     91  C   UNL A   1      28.965  28.151  22.803  1.00  0.00     0.029 A 
ATOM     92  C   UNL A   1      30.575  29.599  23.838  1.00  0.00     0.029 A 
ATOM     93  C   UNL A   1      28.001  29.161  22.883  1.00  0.00     0.041 A 
ATOM     94  C   UNL A   1      29.622  30.621  23.905  1.00  0.00     0.041 A 
ATOM     95  C   UNL A   1      28.341  30.389  23.432  1.00  0.00     0.123 A 
ATOM     96  F   UNL A   1      27.421  31.358  23.512  1.00  0.00    -0.207 F 
ENDBRANCH  89  90
ENDBRANCH  72  84
ENDBRANCH  66  69
ENDBRANCH  64  65
ENDBRANCH  63  64
ENDBRANCH   1  63
TORSDOF 15
ENDMDL
MODEL 3
REMARK VINA RESULT:     -12.6      3.689      7.640
REMARK SMILES O=C(NCCCCNC(=O)c1cc(N2CCN(c3ccc(F)cc3)CC2)ccc1NC(=O)C1CCCC1)c1ccc(-c2c3nc(c(-c4c(F)cccc4F)c4ccc([nH]4)c(-c4c(F)cccc4F)c4nc(c(-c5c(F)cccc5F)c5ccc2[nH]5)C=C4)C=C3)cc1
REMARK SMILES IDX 5 1 4 2 3 3 1 4 2 5 38 7 39 8 91 9 40 10 90 11 41 12 42 13
REMARK SMILES IDX 43 14 84 15 44 16 89 17 83 18 85 19 45 20 88 21 82 22 81 23
REMARK SMILES IDX 46 25 72 26 55 27 71 28 56 29 59 30 70 31 86 32 57 33 58 34
REMARK SMILES IDX 69 36 87 37 60 38 47 39 48 40 53 41 49 42 50 43 52 44 54 45
REMARK SMILES IDX 51 46 73 47 74 48 79 49 75 50 76 51 78 52 80 53 77 54 61 55
REMARK SMILES IDX 62 56 67 57 63 58 64 59 66 60 68 61 65 62 6 63 7 64 8 65
REMARK SMILES IDX 9 66 10 68 11 69 12 70 29 71 13 72 28 73 27 74 30 75 31 76
REMARK SMILES IDX 32 78 33 79 34 80 37 81 35 82 36 83 14 84 15 85 26 86 16 87
REMARK SMILES IDX 25 88 17 89 18 90 19 91 24 92 20 93 23 94 21 95 22 96
REMARK H PARENT 3 6 85 24 59 35 8 67 30 77
REMARK Flexibility Score: inf
ROOT
ATOM      1  C   UNL A   1      38.985  24.789  26.878  1.00  0.00     0.023 C 
ENDROOT
BRANCH   1   2
ATOM      2  C   UNL A   1      40.172  24.423  27.762  1.00  0.00     0.116 C 
BRANCH   2   3
ATOM      3  N   UNL A   1      40.944  23.301  27.247  1.00  0.00    -0.352 N 
ATOM      4  O   UNL A   1      42.627  22.248  26.172  1.00  0.00    -0.269 OA
ATOM      5  C   UNL A   1      42.199  23.279  26.682  1.00  0.00     0.251 C 
ATOM      6  H   UNL A   1      40.502  22.425  27.314  1.00  0.00     0.163 HD
BRANCH   5   7
ATOM      7  C   UNL A   1      43.017  24.511  26.651  1.00  0.00     0.039 A 
ATOM      8  C   UNL A   1      43.152  25.247  25.474  1.00  0.00     0.014 A 
ATOM      9  C   UNL A   1      43.681  24.922  27.811  1.00  0.00     0.014 A 
ATOM     10  C   UNL A   1      44.103  26.257  25.400  1.00  0.00     0.010 A 
ATOM     11  C   UNL A   1      44.557  26.011  27.761  1.00  0.00     0.010 A 
ATOM     12  C   UNL A   1      44.821  26.652  26.542  1.00  0.00    -0.014 A 
BRANCH  12  13
ATOM     13  C   UNL A   1      45.829  27.739  26.422  1.00  0.00     0.031 A 
ATOM     14  C   UNL A   1      45.445  29.185  26.602  1.00  0.00     0.074 A 
ATOM     15  C   UNL A   1      47.119  27.412  26.205  1.00  0.00     0.049 A 
ATOM     16  N   UNL A   1      46.209  30.250  26.585  1.00  0.00    -0.248 NA
ATOM     17  C   UNL A   1      44.020  29.479  26.817  1.00  0.00     0.031 C 
ATOM     18  C   UNL A   1      47.618  26.050  26.003  1.00  0.00     0.029 A 
ATOM     19  N   UNL A   1      48.246  28.191  26.145  1.00  0.00    -0.354 N 
ATOM     20  C   UNL A   1      45.359  31.335  26.762  1.00  0.00     0.074 A 
ATOM     21  C   UNL A   1      44.016  30.804  26.857  1.00  0.00     0.031 C 
ATOM     22  C   UNL A   1      48.955  26.081  25.907  1.00  0.00     0.029 A 
ATOM     23  C   UNL A   1      49.402  27.468  25.974  1.00  0.00     0.049 A 
ATOM     24  H   UNL A   1      48.229  29.172  26.218  1.00  0.00     0.167 HD
ATOM     25  C   UNL A   1      45.669  32.652  26.845  1.00  0.00     0.037 A 
ATOM     26  C   UNL A   1      50.680  27.873  25.874  1.00  0.00     0.037 A 
ATOM     27  C   UNL A   1      47.010  33.177  26.779  1.00  0.00     0.049 A 
ATOM     28  C   UNL A   1      50.994  29.337  25.962  1.00  0.00     0.074 A 
ATOM     29  C   UNL A   1      47.428  34.493  26.896  1.00  0.00     0.029 A 
ATOM     30  N   UNL A   1      48.150  32.415  26.573  1.00  0.00    -0.354 N 
ATOM     31  N   UNL A   1      50.182  30.346  26.166  1.00  0.00    -0.248 NA
ATOM     32  C   UNL A   1      52.403  29.719  25.807  1.00  0.00     0.031 C 
ATOM     33  C   UNL A   1      48.815  34.530  26.717  1.00  0.00     0.029 A 
ATOM     34  C   UNL A   1      49.268  33.234  26.539  1.00  0.00     0.049 A 
ATOM     35  H   UNL A   1      48.163  31.436  26.467  1.00  0.00     0.167 HD
ATOM     36  C   UNL A   1      50.983  31.478  26.188  1.00  0.00     0.074 A 
ATOM     37  C   UNL A   1      52.347  31.030  25.996  1.00  0.00     0.031 C 
ATOM     38  C   UNL A   1      50.621  32.774  26.355  1.00  0.00     0.037 A 
BRANCH  25  39
ATOM     39  C   UNL A   1      44.537  33.628  26.999  1.00  0.00     0.057 A 
ATOM     40  C   UNL A   1      44.063  34.029  28.256  1.00  0.00     0.134 A 
ATOM     41  C   UNL A   1      43.941  34.210  25.871  1.00  0.00     0.134 A 
ATOM     42  F   UNL A   1      44.581  33.504  29.376  1.00  0.00    -0.206 F 
ATOM     43  C   UNL A   1      43.024  34.955  28.384  1.00  0.00     0.040 A 
ATOM     44  C   UNL A   1      42.920  35.155  25.988  1.00  0.00     0.040 A 
ATOM     45  F   UNL A   1      44.352  33.879  24.638  1.00  0.00    -0.206 F 
ATOM     46  C   UNL A   1      42.455  35.525  27.248  1.00  0.00     0.006 A 
ENDBRANCH  25  39
BRANCH  26  47
ATOM     47  C   UNL A   1      51.760  26.872  25.687  1.00  0.00     0.057 A 
ATOM     48  C   UNL A   1      52.207  26.520  24.408  1.00  0.00     0.134 A 
ATOM     49  C   UNL A   1      52.372  26.246  26.781  1.00  0.00     0.134 A 
ATOM     50  F   UNL A   1      51.648  27.072  23.322  1.00  0.00    -0.206 F 
ATOM     51  C   UNL A   1      53.213  25.570  24.222  1.00  0.00     0.040 A 
ATOM     52  C   UNL A   1      53.398  25.317  26.610  1.00  0.00     0.040 A 
ATOM     53  F   UNL A   1      51.993  26.547  28.031  1.00  0.00    -0.206 F 
ATOM     54  C   UNL A   1      53.816  24.970  25.328  1.00  0.00     0.006 A 
ENDBRANCH  26  47
BRANCH  38  55
ATOM     55  C   UNL A   1      51.724  33.791  26.379  1.00  0.00     0.057 A 
ATOM     56  C   UNL A   1      52.158  34.444  25.218  1.00  0.00     0.134 A 
ATOM     57  C   UNL A   1      52.352  34.130  27.585  1.00  0.00     0.134 A 
ATOM     58  F   UNL A   1      51.609  34.155  24.029  1.00  0.00    -0.206 F 
ATOM     59  C   UNL A   1      53.199  35.373  25.251  1.00  0.00     0.040 A 
ATOM     60  C   UNL A   1      53.374  35.078  27.634  1.00  0.00     0.040 A 
ATOM     61  F   UNL A   1      51.979  33.547  28.734  1.00  0.00    -0.206 F 
ATOM     62  C   UNL A   1      53.807  35.696  26.463  1.00  0.00     0.006 A 
ENDBRANCH  38  55
ENDBRANCH  12  13
ENDBRANCH   5   7
ENDBRANCH   2   3
ENDBRANCH   1   2
BRANCH   1  63
ATOM     63  C   UNL A   1      38.309  23.616  26.165  1.00  0.00     0.023 C 
BRANCH  63  64
ATOM     64  C   UNL A   1      36.821  23.798  25.885  1.00  0.00     0.116 C 
BRANCH  64  65
ATOM     65  N   UNL A   1      35.990  23.152  26.886  1.00  0.00    -0.352 N 
ATOM     66  C   UNL A   1      34.679  22.762  26.809  1.00  0.00     0.253 C 
ATOM     67  H   UNL A   1      36.434  22.967  27.745  1.00  0.00     0.163 HD
ATOM     68  O   UNL A   1      34.101  22.384  27.825  1.00  0.00    -0.269 OA
BRANCH  66  69
ATOM     69  C   UNL A   1      33.953  22.761  25.521  1.00  0.00     0.065 A 
ATOM     70  C   UNL A   1      33.032  23.811  25.327  1.00  0.00     0.042 A 
ATOM     71  C   UNL A   1      34.077  21.722  24.578  1.00  0.00     0.054 A 
ATOM     72  C   UNL A   1      32.184  23.839  24.217  1.00  0.00     0.038 A 
ATOM     73  C   UNL A   1      33.181  21.716  23.524  1.00  0.00     0.029 A 
ATOM     74  C   UNL A   1      32.272  22.761  23.334  1.00  0.00     0.028 A 
BRANCH  71  75
ATOM     75  N   UNL A   1      35.048  20.718  24.747  1.00  0.00    -0.325 N 
ATOM     76  C   UNL A   1      35.063  19.363  24.702  1.00  0.00     0.227 C 
ATOM     77  H   UNL A   1      35.936  21.092  24.946  1.00  0.00     0.169 HD
ATOM     78  O   UNL A   1      36.182  18.851  24.868  1.00  0.00    -0.274 OA
BRANCH  76  79
ATOM     79  C   UNL A   1      33.887  18.422  24.454  1.00  0.00     0.079 C 
ATOM     80  C   UNL A   1      34.326  17.043  23.972  1.00  0.00     0.013 C 
ATOM     81  C   UNL A   1      32.811  18.209  25.524  1.00  0.00     0.013 C 
ATOM     82  C   UNL A   1      33.157  16.130  24.307  1.00  0.00     0.001 C 
ATOM     83  C   UNL A   1      32.559  16.700  25.585  1.00  0.00     0.001 C 
ENDBRANCH  76  79
ENDBRANCH  71  75
BRANCH  72  84
ATOM     84  N   UNL A   1      31.255  24.839  24.047  1.00  0.00    -0.368 N 
ATOM     85  C   UNL A   1      30.658  25.560  25.191  1.00  0.00     0.138 C 
ATOM     86  C   UNL A   1      31.079  25.502  22.743  1.00  0.00     0.138 C 
ATOM     87  C   UNL A   1      31.125  27.048  25.229  1.00  0.00     0.138 C 
ATOM     88  C   UNL A   1      31.615  26.944  22.792  1.00  0.00     0.138 C 
ATOM     89  N   UNL A   1      31.002  27.693  23.902  1.00  0.00    -0.368 N 
BRANCH  89  90
ATOM     90  C   UNL A   1      30.002  28.616  23.669  1.00  0.00     0.037 A 
ATOM     91  C   UNL A   1      30.215  29.972  23.962  1.00  0.00     0.029 A 
ATOM     92  C   UNL A   1      28.768  28.260  23.102  1.00  0.00     0.029 A 
ATOM     93  C   UNL A   1      29.243  30.938  23.682  1.00  0.00     0.041 A 
ATOM     94  C   UNL A   1      27.784  29.217  22.836  1.00  0.00     0.041 A 
ATOM     95  C   UNL A   1      28.034  30.550  23.123  1.00  0.00     0.123 A 
ATOM     96  F   UNL A   1      27.102  31.470  22.851  1.00  0.00    -0.207 F 
ENDBRANCH  89  90
ENDBRANCH  72  84
ENDBRANCH  66  69
ENDBRANCH  64  65
ENDBRANCH  63  64
ENDBRANCH   1  63
TORSDOF 15
ENDMDL
