MODEL 1
REMARK VINA RESULT:     -12.4      0.000      0.000
REMARK SMILES Cc1ccccc1NC(=O)NC[C@@H]1CC[C@@H](C(=O)NCCCCNC(=O)c2ccc(-c3c4nc(c(-c5c(F)cccc5F)c5ccc([nH]5)c(-c5c(F)cccc5F)c5nc(c(-c6c(F)cccc6F)c6ccc3[nH]6)C=C5)C=C4)cc2)O1
REMARK SMILES IDX 21 1 20 2 19 3 17 4 18 5 16 7 13 8 14 9 81 10 15 11 12 12
REMARK SMILES IDX 11 13 8 14 9 15 10 17 7 19 1 20 2 21 3 22 4 23 6 24 5 25
REMARK SMILES IDX 22 26 23 27 24 28 25 29 26 31 27 32 28 33 80 34 29 35 79 36
REMARK SMILES IDX 30 37 31 38 32 39 73 40 33 41 78 42 72 43 74 44 34 45 77 46
REMARK SMILES IDX 71 47 70 48 35 50 61 51 44 52 60 53 45 54 48 55 59 56 75 57
REMARK SMILES IDX 46 58 47 59 58 61 76 62 49 63 36 64 37 65 42 66 38 67 39 68
REMARK SMILES IDX 41 69 43 70 40 71 62 72 63 73 68 74 64 75 65 76 67 77 69 78
REMARK SMILES IDX 66 79 50 80 51 81 56 82 52 83 53 84 55 85 57 86 54 87
REMARK H PARENT 19 6 8 16 11 18 24 30 74 49 48 60
REMARK Flexibility Score: inf
ROOT
ATOM      1  C   UNL A   1      32.443  30.692  26.438  1.00  0.00     0.023 C 
ENDROOT
BRANCH   1   2
ATOM      2  C   UNL A   1      31.767  29.371  26.855  1.00  0.00     0.116 C 
BRANCH   2   3
ATOM      3  N   UNL A   1      31.417  28.533  25.720  1.00  0.00    -0.354 N 
ATOM      4  C   UNL A   1      31.760  27.261  25.359  1.00  0.00     0.249 C 
ATOM      5  O   UNL A   1      31.286  26.861  24.289  1.00  0.00    -0.272 OA
ATOM      6  H   UNL A   1      30.810  28.972  25.081  1.00  0.00     0.163 HD
BRANCH   4   7
ATOM      7  C   UNL A   1      32.620  26.336  26.257  1.00  0.00     0.207 C 
ATOM      8  C   UNL A   1      32.684  23.992  26.118  1.00  0.00     0.138 C 
ATOM      9  C   UNL A   1      34.106  24.494  26.218  1.00  0.00     0.037 C 
ATOM     10  O   UNL A   1      31.916  25.109  26.615  1.00  0.00    -0.363 OA
ATOM     11  C   UNL A   1      33.938  25.878  25.660  1.00  0.00     0.045 C 
BRANCH   8  12
ATOM     12  C   UNL A   1      32.442  22.677  26.883  1.00  0.00     0.149 C 
BRANCH  12  13
ATOM     13  N   UNL A   1      31.998  21.614  25.984  1.00  0.00    -0.335 N 
ATOM     14  N   UNL A   1      33.846  20.614  24.806  1.00  0.00    -0.308 N 
ATOM     15  C   UNL A   1      32.568  20.691  25.206  1.00  0.00     0.319 C 
ATOM     16  H   UNL A   1      34.049  19.707  24.480  1.00  0.00     0.171 HD
ATOM     17  O   UNL A   1      31.833  19.762  24.845  1.00  0.00    -0.249 OA
ATOM     18  H   UNL A   1      31.016  21.564  25.942  1.00  0.00     0.165 HD
BRANCH  14  19
ATOM     19  C   UNL A   1      34.983  21.437  24.712  1.00  0.00     0.045 A 
ATOM     20  C   UNL A   1      33.930  22.816  22.798  1.00  0.00     0.046 C 
ATOM     21  C   UNL A   1      35.071  22.421  23.701  1.00  0.00    -0.027 A 
ATOM     22  C   UNL A   1      36.251  23.186  23.571  1.00  0.00     0.005 A 
ATOM     23  C   UNL A   1      37.323  23.007  24.437  1.00  0.00     0.000 A 
ATOM     24  C   UNL A   1      36.014  21.381  25.639  1.00  0.00     0.026 A 
ATOM     25  C   UNL A   1      37.191  22.122  25.493  1.00  0.00     0.002 A 
ENDBRANCH  14  19
ENDBRANCH  12  13
ENDBRANCH   8  12
ENDBRANCH   4   7
ENDBRANCH   2   3
ENDBRANCH   1   2
BRANCH   1  26
ATOM     26  C   UNL A   1      33.180  31.432  27.561  1.00  0.00     0.023 C 
BRANCH  26  27
ATOM     27  C   UNL A   1      34.612  30.958  27.770  1.00  0.00     0.116 C 
BRANCH  27  28
ATOM     28  N   UNL A   1      35.353  31.681  28.797  1.00  0.00    -0.352 N 
ATOM     29  C   UNL A   1      36.466  31.270  29.520  1.00  0.00     0.251 C 
ATOM     30  H   UNL A   1      35.020  32.583  29.006  1.00  0.00     0.163 HD
ATOM     31  O   UNL A   1      36.937  31.992  30.396  1.00  0.00    -0.269 OA
BRANCH  29  32
ATOM     32  C   UNL A   1      37.171  30.029  29.121  1.00  0.00     0.039 A 
ATOM     33  C   UNL A   1      37.280  29.018  30.081  1.00  0.00     0.014 A 
ATOM     34  C   UNL A   1      37.943  29.986  27.964  1.00  0.00     0.014 A 
ATOM     35  C   UNL A   1      38.368  28.154  30.030  1.00  0.00     0.010 A 
ATOM     36  C   UNL A   1      39.079  29.198  27.964  1.00  0.00     0.010 A 
ATOM     37  C   UNL A   1      39.338  28.356  29.052  1.00  0.00    -0.014 A 
BRANCH  37  38
ATOM     38  C   UNL A   1      40.714  27.887  29.194  1.00  0.00     0.031 A 
ATOM     39  C   UNL A   1      41.112  26.552  28.708  1.00  0.00     0.074 A 
ATOM     40  C   UNL A   1      41.647  28.727  29.703  1.00  0.00     0.049 A 
ATOM     41  N   UNL A   1      42.253  26.010  28.967  1.00  0.00    -0.248 NA
ATOM     42  C   UNL A   1      40.221  25.675  27.951  1.00  0.00     0.031 C 
ATOM     43  C   UNL A   1      43.102  28.585  29.659  1.00  0.00     0.029 A 
ATOM     44  N   UNL A   1      41.435  29.776  30.613  1.00  0.00    -0.354 N 
ATOM     45  C   UNL A   1      42.359  24.873  28.211  1.00  0.00     0.074 A 
ATOM     46  C   UNL A   1      41.033  24.644  27.694  1.00  0.00     0.031 C 
ATOM     47  C   UNL A   1      43.632  29.252  30.695  1.00  0.00     0.029 A 
ATOM     48  C   UNL A   1      42.531  29.727  31.510  1.00  0.00     0.049 A 
ATOM     49  H   UNL A   1      40.683  30.411  30.626  1.00  0.00     0.167 HD
ATOM     50  C   UNL A   1      43.589  24.324  28.027  1.00  0.00     0.037 A 
ATOM     51  C   UNL A   1      42.337  29.421  32.827  1.00  0.00     0.037 A 
ATOM     52  C   UNL A   1      44.533  24.803  29.038  1.00  0.00     0.049 A 
ATOM     53  C   UNL A   1      43.006  28.140  33.286  1.00  0.00     0.074 A 
ATOM     54  C   UNL A   1      45.624  25.652  29.064  1.00  0.00     0.029 A 
ATOM     55  N   UNL A   1      44.230  24.534  30.364  1.00  0.00    -0.354 N 
ATOM     56  N   UNL A   1      43.714  27.356  32.518  1.00  0.00    -0.248 NA
ATOM     57  C   UNL A   1      42.852  27.598  34.638  1.00  0.00     0.031 C 
ATOM     58  C   UNL A   1      45.911  25.954  30.435  1.00  0.00     0.029 A 
ATOM     59  C   UNL A   1      45.018  25.260  31.231  1.00  0.00     0.049 A 
ATOM     60  H   UNL A   1      43.536  23.899  30.652  1.00  0.00     0.167 HD
ATOM     61  C   UNL A   1      44.053  26.227  33.213  1.00  0.00     0.074 A 
ATOM     62  C   UNL A   1      43.500  26.424  34.539  1.00  0.00     0.031 C 
ATOM     63  C   UNL A   1      44.726  25.181  32.653  1.00  0.00     0.037 A 
BRANCH  50  64
ATOM     64  C   UNL A   1      43.964  23.411  26.884  1.00  0.00     0.057 A 
ATOM     65  C   UNL A   1      44.735  23.893  25.810  1.00  0.00     0.134 A 
ATOM     66  C   UNL A   1      43.492  22.092  26.712  1.00  0.00     0.134 A 
ATOM     67  F   UNL A   1      45.224  25.141  25.807  1.00  0.00    -0.206 F 
ATOM     68  C   UNL A   1      45.021  23.124  24.671  1.00  0.00     0.040 A 
ATOM     69  C   UNL A   1      43.816  21.295  25.605  1.00  0.00     0.040 A 
ATOM     70  F   UNL A   1      42.636  21.516  27.564  1.00  0.00    -0.206 F 
ATOM     71  C   UNL A   1      44.575  21.814  24.571  1.00  0.00     0.006 A 
ENDBRANCH  50  64
BRANCH  51  72
ATOM     72  C   UNL A   1      41.069  29.978  33.364  1.00  0.00     0.057 A 
ATOM     73  C   UNL A   1      41.018  31.352  33.667  1.00  0.00     0.134 A 
ATOM     74  C   UNL A   1      39.850  29.308  33.241  1.00  0.00     0.134 A 
ATOM     75  F   UNL A   1      42.154  32.057  33.799  1.00  0.00    -0.206 F 
ATOM     76  C   UNL A   1      39.812  32.052  33.722  1.00  0.00     0.040 A 
ATOM     77  C   UNL A   1      38.633  29.997  33.310  1.00  0.00     0.040 A 
ATOM     78  F   UNL A   1      39.815  28.006  32.929  1.00  0.00    -0.206 F 
ATOM     79  C   UNL A   1      38.614  31.378  33.509  1.00  0.00     0.006 A 
ENDBRANCH  51  72
BRANCH  63  80
ATOM     80  C   UNL A   1      45.130  23.971  33.441  1.00  0.00     0.057 A 
ATOM     81  C   UNL A   1      44.259  22.891  33.638  1.00  0.00     0.134 A 
ATOM     82  C   UNL A   1      46.358  23.907  34.125  1.00  0.00     0.134 A 
ATOM     83  F   UNL A   1      43.048  22.869  33.061  1.00  0.00    -0.206 F 
ATOM     84  C   UNL A   1      44.597  21.802  34.450  1.00  0.00     0.040 A 
ATOM     85  C   UNL A   1      46.689  22.847  34.972  1.00  0.00     0.040 A 
ATOM     86  F   UNL A   1      47.289  24.861  33.978  1.00  0.00    -0.206 F 
ATOM     87  C   UNL A   1      45.809  21.785  35.132  1.00  0.00     0.006 A 
ENDBRANCH  63  80
ENDBRANCH  37  38
ENDBRANCH  29  32
ENDBRANCH  27  28
ENDBRANCH  26  27
ENDBRANCH   1  26
TORSDOF 14
ENDMDL
MODEL 2
REMARK VINA RESULT:     -12.3      3.793      9.300
REMARK SMILES Cc1ccccc1NC(=O)NC[C@@H]1CC[C@@H](C(=O)NCCCCNC(=O)c2ccc(-c3c4nc(c(-c5c(F)cccc5F)c5ccc([nH]5)c(-c5c(F)cccc5F)c5nc(c(-c6c(F)cccc6F)c6ccc3[nH]6)C=C5)C=C4)cc2)O1
REMARK SMILES IDX 21 1 20 2 19 3 17 4 18 5 16 7 13 8 14 9 81 10 15 11 12 12
REMARK SMILES IDX 11 13 8 14 9 15 10 17 7 19 1 20 2 21 3 22 4 23 6 24 5 25
REMARK SMILES IDX 22 26 23 27 24 28 25 29 26 31 27 32 28 33 80 34 29 35 79 36
REMARK SMILES IDX 30 37 31 38 32 39 73 40 33 41 78 42 72 43 74 44 34 45 77 46
REMARK SMILES IDX 71 47 70 48 35 50 61 51 44 52 60 53 45 54 48 55 59 56 75 57
REMARK SMILES IDX 46 58 47 59 58 61 76 62 49 63 36 64 37 65 42 66 38 67 39 68
REMARK SMILES IDX 41 69 43 70 40 71 62 72 63 73 68 74 64 75 65 76 67 77 69 78
REMARK SMILES IDX 66 79 50 80 51 81 56 82 52 83 53 84 55 85 57 86 54 87
REMARK H PARENT 19 6 8 16 11 18 24 30 74 49 48 60
REMARK Flexibility Score: inf
ROOT
ATOM      1  C   UNL A   1      37.275  21.354  24.644  1.00  0.00     0.023 C 
ENDROOT
BRANCH   1   2
ATOM      2  C   UNL A   1      35.978  21.475  25.468  1.00  0.00     0.116 C 
BRANCH   2   3
ATOM      3  N   UNL A   1      34.877  20.716  24.901  1.00  0.00    -0.354 N 
ATOM      4  C   UNL A   1      33.543  20.974  24.756  1.00  0.00     0.249 C 
ATOM      5  O   UNL A   1      32.875  20.072  24.237  1.00  0.00    -0.272 OA
ATOM      6  H   UNL A   1      35.146  19.836  24.549  1.00  0.00     0.163 HD
BRANCH   4   7
ATOM      7  C   UNL A   1      32.905  22.333  25.140  1.00  0.00     0.207 C 
ATOM      8  C   UNL A   1      31.122  23.359  24.005  1.00  0.00     0.138 C 
ATOM      9  C   UNL A   1      30.837  23.433  25.487  1.00  0.00     0.037 C 
ATOM     10  O   UNL A   1      32.545  23.122  23.965  1.00  0.00    -0.363 OA
ATOM     11  C   UNL A   1      31.635  22.255  25.968  1.00  0.00     0.045 C 
BRANCH   8  12
ATOM     12  C   UNL A   1      30.676  24.615  23.231  1.00  0.00     0.149 C 
BRANCH  12  13
ATOM     13  N   UNL A   1      31.631  24.956  22.179  1.00  0.00    -0.335 N 
ATOM     14  N   UNL A   1      33.197  26.635  22.906  1.00  0.00    -0.308 N 
ATOM     15  C   UNL A   1      32.731  25.704  22.062  1.00  0.00     0.319 C 
ATOM     16  H   UNL A   1      34.145  26.825  22.719  1.00  0.00     0.171 HD
ATOM     17  O   UNL A   1      33.435  25.474  21.069  1.00  0.00    -0.249 OA
ATOM     18  H   UNL A   1      31.402  24.517  21.328  1.00  0.00     0.165 HD
BRANCH  14  19
ATOM     19  C   UNL A   1      32.741  27.423  23.979  1.00  0.00     0.045 A 
ATOM     20  C   UNL A   1      33.843  25.853  25.710  1.00  0.00     0.046 C 
ATOM     21  C   UNL A   1      32.961  27.009  25.313  1.00  0.00    -0.027 A 
ATOM     22  C   UNL A   1      32.431  27.771  26.377  1.00  0.00     0.005 A 
ATOM     23  C   UNL A   1      31.714  28.938  26.139  1.00  0.00     0.000 A 
ATOM     24  C   UNL A   1      32.143  28.660  23.785  1.00  0.00     0.026 A 
ATOM     25  C   UNL A   1      31.596  29.399  24.840  1.00  0.00     0.002 A 
ENDBRANCH  14  19
ENDBRANCH  12  13
ENDBRANCH   8  12
ENDBRANCH   4   7
ENDBRANCH   2   3
ENDBRANCH   1   2
BRANCH   1  26
ATOM     26  C   UNL A   1      38.570  21.323  25.465  1.00  0.00     0.023 C 
BRANCH  26  27
ATOM     27  C   UNL A   1      38.941  22.667  26.076  1.00  0.00     0.116 C 
BRANCH  27  28
ATOM     28  N   UNL A   1      40.356  22.831  26.387  1.00  0.00    -0.352 N 
ATOM     29  C   UNL A   1      41.044  23.985  26.740  1.00  0.00     0.251 C 
ATOM     30  H   UNL A   1      40.898  22.010  26.342  1.00  0.00     0.163 HD
ATOM     31  O   UNL A   1      42.259  23.954  26.917  1.00  0.00    -0.269 OA
BRANCH  29  32
ATOM     32  C   UNL A   1      40.279  25.216  27.053  1.00  0.00     0.039 A 
ATOM     33  C   UNL A   1      40.594  26.367  26.325  1.00  0.00     0.014 A 
ATOM     34  C   UNL A   1      39.506  25.303  28.206  1.00  0.00     0.014 A 
ATOM     35  C   UNL A   1      40.406  27.612  26.915  1.00  0.00     0.010 A 
ATOM     36  C   UNL A   1      39.410  26.529  28.839  1.00  0.00     0.010 A 
ATOM     37  C   UNL A   1      39.955  27.666  28.232  1.00  0.00    -0.014 A 
BRANCH  37  38
ATOM     38  C   UNL A   1      40.199  28.811  29.104  1.00  0.00     0.031 A 
ATOM     39  C   UNL A   1      39.185  29.872  29.262  1.00  0.00     0.074 A 
ATOM     40  C   UNL A   1      41.338  28.850  29.837  1.00  0.00     0.049 A 
ATOM     41  N   UNL A   1      39.410  30.989  29.865  1.00  0.00    -0.248 NA
ATOM     42  C   UNL A   1      37.846  29.795  28.682  1.00  0.00     0.031 C 
ATOM     43  C   UNL A   1      41.646  29.721  30.971  1.00  0.00     0.029 A 
ATOM     44  N   UNL A   1      42.571  28.260  29.516  1.00  0.00    -0.354 N 
ATOM     45  C   UNL A   1      38.214  31.644  29.994  1.00  0.00     0.074 A 
ATOM     46  C   UNL A   1      37.301  30.926  29.142  1.00  0.00     0.031 C 
ATOM     47  C   UNL A   1      42.977  29.865  31.055  1.00  0.00     0.029 A 
ATOM     48  C   UNL A   1      43.555  29.205  29.901  1.00  0.00     0.049 A 
ATOM     49  H   UNL A   1      42.721  27.377  29.108  1.00  0.00     0.167 HD
ATOM     50  C   UNL A   1      38.119  32.657  30.897  1.00  0.00     0.037 A 
ATOM     51  C   UNL A   1      44.342  29.808  28.962  1.00  0.00     0.037 A 
ATOM     52  C   UNL A   1      39.445  33.157  31.265  1.00  0.00     0.049 A 
ATOM     53  C   UNL A   1      44.168  31.311  28.857  1.00  0.00     0.074 A 
ATOM     54  C   UNL A   1      40.262  33.100  32.379  1.00  0.00     0.029 A 
ATOM     55  N   UNL A   1      40.229  33.676  30.247  1.00  0.00    -0.354 N 
ATOM     56  N   UNL A   1      43.338  32.014  29.579  1.00  0.00    -0.248 NA
ATOM     57  C   UNL A   1      44.861  32.129  27.858  1.00  0.00     0.031 C 
ATOM     58  C   UNL A   1      41.575  33.514  31.982  1.00  0.00     0.029 A 
ATOM     59  C   UNL A   1      41.539  33.853  30.642  1.00  0.00     0.049 A 
ATOM     60  H   UNL A   1      39.892  33.894  29.348  1.00  0.00     0.167 HD
ATOM     61  C   UNL A   1      43.335  33.308  29.136  1.00  0.00     0.074 A 
ATOM     62  C   UNL A   1      44.310  33.338  28.063  1.00  0.00     0.031 C 
ATOM     63  C   UNL A   1      42.507  34.268  29.640  1.00  0.00     0.037 A 
BRANCH  50  64
ATOM     64  C   UNL A   1      36.830  33.146  31.512  1.00  0.00     0.057 A 
ATOM     65  C   UNL A   1      36.468  32.756  32.815  1.00  0.00     0.134 A 
ATOM     66  C   UNL A   1      35.840  33.890  30.835  1.00  0.00     0.134 A 
ATOM     67  F   UNL A   1      37.286  32.011  33.573  1.00  0.00    -0.206 F 
ATOM     68  C   UNL A   1      35.234  33.089  33.396  1.00  0.00     0.040 A 
ATOM     69  C   UNL A   1      34.628  34.275  31.424  1.00  0.00     0.040 A 
ATOM     70  F   UNL A   1      35.952  34.232  29.546  1.00  0.00    -0.206 F 
ATOM     71  C   UNL A   1      34.314  33.865  32.707  1.00  0.00     0.006 A 
ENDBRANCH  50  64
BRANCH  51  72
ATOM     72  C   UNL A   1      44.705  28.897  27.846  1.00  0.00     0.057 A 
ATOM     73  C   UNL A   1      45.661  27.893  28.086  1.00  0.00     0.134 A 
ATOM     74  C   UNL A   1      43.901  28.751  26.713  1.00  0.00     0.134 A 
ATOM     75  F   UNL A   1      46.468  27.972  29.159  1.00  0.00    -0.206 F 
ATOM     76  C   UNL A   1      45.733  26.738  27.306  1.00  0.00     0.040 A 
ATOM     77  C   UNL A   1      43.974  27.604  25.915  1.00  0.00     0.040 A 
ATOM     78  F   UNL A   1      42.949  29.651  26.431  1.00  0.00    -0.206 F 
ATOM     79  C   UNL A   1      44.862  26.576  26.234  1.00  0.00     0.006 A 
ENDBRANCH  51  72
BRANCH  63  80
ATOM     80  C   UNL A   1      42.549  35.692  29.174  1.00  0.00     0.057 A 
ATOM     81  C   UNL A   1      41.780  36.141  28.092  1.00  0.00     0.134 A 
ATOM     82  C   UNL A   1      43.452  36.624  29.718  1.00  0.00     0.134 A 
ATOM     83  F   UNL A   1      40.914  35.321  27.477  1.00  0.00    -0.206 F 
ATOM     84  C   UNL A   1      41.885  37.445  27.594  1.00  0.00     0.040 A 
ATOM     85  C   UNL A   1      43.598  37.914  29.203  1.00  0.00     0.040 A 
ATOM     86  F   UNL A   1      44.209  36.323  30.784  1.00  0.00    -0.206 F 
ATOM     87  C   UNL A   1      42.807  38.331  28.140  1.00  0.00     0.006 A 
ENDBRANCH  63  80
ENDBRANCH  37  38
ENDBRANCH  29  32
ENDBRANCH  27  28
ENDBRANCH  26  27
ENDBRANCH   1  26
TORSDOF 14
ENDMDL
MODEL 3
REMARK VINA RESULT:     -12.2      1.269      2.129
REMARK SMILES Cc1ccccc1NC(=O)NC[C@@H]1CC[C@@H](C(=O)NCCCCNC(=O)c2ccc(-c3c4nc(c(-c5c(F)cccc5F)c5ccc([nH]5)c(-c5c(F)cccc5F)c5nc(c(-c6c(F)cccc6F)c6ccc3[nH]6)C=C5)C=C4)cc2)O1
REMARK SMILES IDX 21 1 20 2 19 3 17 4 18 5 16 7 13 8 14 9 81 10 15 11 12 12
REMARK SMILES IDX 11 13 8 14 9 15 10 17 7 19 1 20 2 21 3 22 4 23 6 24 5 25
REMARK SMILES IDX 22 26 23 27 24 28 25 29 26 31 27 32 28 33 80 34 29 35 79 36
REMARK SMILES IDX 30 37 31 38 32 39 73 40 33 41 78 42 72 43 74 44 34 45 77 46
REMARK SMILES IDX 71 47 70 48 35 50 61 51 44 52 60 53 45 54 48 55 59 56 75 57
REMARK SMILES IDX 46 58 47 59 58 61 76 62 49 63 36 64 37 65 42 66 38 67 39 68
REMARK SMILES IDX 41 69 43 70 40 71 62 72 63 73 68 74 64 75 65 76 67 77 69 78
REMARK SMILES IDX 66 79 50 80 51 81 56 82 52 83 53 84 55 85 57 86 54 87
REMARK H PARENT 19 6 8 16 11 18 24 30 74 49 48 60
REMARK Flexibility Score: inf
ROOT
ATOM      1  C   UNL A   1      32.174  30.478  26.389  1.00  0.00     0.023 C 
ENDROOT
BRANCH   1   2
ATOM      2  C   UNL A   1      32.972  29.337  25.727  1.00  0.00     0.116 C 
BRANCH   2   3
ATOM      3  N   UNL A   1      33.078  29.487  24.285  1.00  0.00    -0.354 N 
ATOM      4  C   UNL A   1      33.214  28.591  23.262  1.00  0.00     0.249 C 
ATOM      5  O   UNL A   1      33.300  29.080  22.130  1.00  0.00    -0.272 OA
ATOM      6  H   UNL A   1      33.046  30.424  23.984  1.00  0.00     0.163 HD
BRANCH   4   7
ATOM      7  C   UNL A   1      33.186  27.057  23.480  1.00  0.00     0.207 C 
ATOM      8  C   UNL A   1      31.472  25.620  22.761  1.00  0.00     0.138 C 
ATOM      9  C   UNL A   1      32.795  24.990  22.396  1.00  0.00     0.037 C 
ATOM     10  O   UNL A   1      31.843  26.571  23.782  1.00  0.00    -0.363 OA
ATOM     11  C   UNL A   1      33.658  26.216  22.308  1.00  0.00     0.045 C 
BRANCH   8  12
ATOM     12  C   UNL A   1      30.411  24.600  23.214  1.00  0.00     0.149 C 
BRANCH  12  13
ATOM     13  N   UNL A   1      30.016  24.825  24.603  1.00  0.00    -0.335 N 
ATOM     14  N   UNL A   1      31.594  23.861  26.146  1.00  0.00    -0.308 N 
ATOM     15  C   UNL A   1      30.540  24.621  25.814  1.00  0.00     0.319 C 
ATOM     16  H   UNL A   1      31.926  24.105  27.040  1.00  0.00     0.171 HD
ATOM     17  O   UNL A   1      30.015  25.250  26.742  1.00  0.00    -0.249 OA
ATOM     18  H   UNL A   1      29.125  25.240  24.662  1.00  0.00     0.165 HD
BRANCH  14  19
ATOM     19  C   UNL A   1      32.370  22.820  25.603  1.00  0.00     0.045 A 
ATOM     20  C   UNL A   1      34.513  24.261  25.685  1.00  0.00     0.046 C 
ATOM     21  C   UNL A   1      33.733  23.033  25.292  1.00  0.00    -0.027 A 
ATOM     22  C   UNL A   1      34.477  22.002  24.677  1.00  0.00     0.005 A 
ATOM     23  C   UNL A   1      33.901  20.771  24.390  1.00  0.00     0.000 A 
ATOM     24  C   UNL A   1      31.868  21.539  25.428  1.00  0.00     0.026 A 
ATOM     25  C   UNL A   1      32.600  20.529  24.795  1.00  0.00     0.002 A 
ENDBRANCH  14  19
ENDBRANCH  12  13
ENDBRANCH   8  12
ENDBRANCH   4   7
ENDBRANCH   2   3
ENDBRANCH   1   2
BRANCH   1  26
ATOM     26  C   UNL A   1      32.987  31.393  27.313  1.00  0.00     0.023 C 
BRANCH  26  27
ATOM     27  C   UNL A   1      34.171  30.702  27.974  1.00  0.00     0.116 C 
BRANCH  27  28
ATOM     28  N   UNL A   1      34.952  31.545  28.871  1.00  0.00    -0.352 N 
ATOM     29  C   UNL A   1      36.144  31.255  29.524  1.00  0.00     0.251 C 
ATOM     30  H   UNL A   1      34.585  32.444  29.036  1.00  0.00     0.163 HD
ATOM     31  O   UNL A   1      36.643  32.071  30.295  1.00  0.00    -0.269 OA
BRANCH  29  32
ATOM     32  C   UNL A   1      36.884  30.023  29.164  1.00  0.00     0.039 A 
ATOM     33  C   UNL A   1      37.073  29.073  30.173  1.00  0.00     0.014 A 
ATOM     34  C   UNL A   1      37.612  29.946  27.981  1.00  0.00     0.014 A 
ATOM     35  C   UNL A   1      38.193  28.251  30.124  1.00  0.00     0.010 A 
ATOM     36  C   UNL A   1      38.779  29.205  27.977  1.00  0.00     0.010 A 
ATOM     37  C   UNL A   1      39.115  28.437  29.097  1.00  0.00    -0.014 A 
BRANCH  37  38
ATOM     38  C   UNL A   1      40.514  28.032  29.208  1.00  0.00     0.031 A 
ATOM     39  C   UNL A   1      40.968  26.729  28.684  1.00  0.00     0.074 A 
ATOM     40  C   UNL A   1      41.414  28.904  29.724  1.00  0.00     0.049 A 
ATOM     41  N   UNL A   1      42.138  26.237  28.913  1.00  0.00    -0.248 NA
ATOM     42  C   UNL A   1      40.109  25.828  27.919  1.00  0.00     0.031 C 
ATOM     43  C   UNL A   1      42.873  28.834  29.656  1.00  0.00     0.029 A 
ATOM     44  N   UNL A   1      41.166  29.919  30.662  1.00  0.00    -0.354 N 
ATOM     45  C   UNL A   1      42.287  25.125  28.128  1.00  0.00     0.074 A 
ATOM     46  C   UNL A   1      40.966  24.844  27.625  1.00  0.00     0.031 C 
ATOM     47  C   UNL A   1      43.386  29.501  30.700  1.00  0.00     0.029 A 
ATOM     48  C   UNL A   1      42.277  29.903  31.542  1.00  0.00     0.049 A 
ATOM     49  H   UNL A   1      40.384  30.517  30.701  1.00  0.00     0.167 HD
ATOM     50  C   UNL A   1      43.539  24.640  27.913  1.00  0.00     0.037 A 
ATOM     51  C   UNL A   1      42.118  29.556  32.853  1.00  0.00     0.037 A 
ATOM     52  C   UNL A   1      44.475  25.141  28.922  1.00  0.00     0.049 A 
ATOM     53  C   UNL A   1      42.855  28.299  33.272  1.00  0.00     0.074 A 
ATOM     54  C   UNL A   1      45.524  26.041  28.953  1.00  0.00     0.029 A 
ATOM     55  N   UNL A   1      44.206  24.827  30.245  1.00  0.00    -0.354 N 
ATOM     56  N   UNL A   1      43.588  27.569  32.475  1.00  0.00    -0.248 NA
ATOM     57  C   UNL A   1      42.749  27.718  34.612  1.00  0.00     0.031 C 
ATOM     58  C   UNL A   1      45.817  26.325  30.327  1.00  0.00     0.029 A 
ATOM     59  C   UNL A   1      44.971  25.570  31.119  1.00  0.00     0.049 A 
ATOM     60  H   UNL A   1      43.547  24.152  30.528  1.00  0.00     0.167 HD
ATOM     61  C   UNL A   1      43.992  26.441  33.137  1.00  0.00     0.074 A 
ATOM     62  C   UNL A   1      43.451  26.580  34.475  1.00  0.00     0.031 C 
ATOM     63  C   UNL A   1      44.706  25.442  32.542  1.00  0.00     0.037 A 
BRANCH  50  64
ATOM     64  C   UNL A   1      43.940  23.774  26.744  1.00  0.00     0.057 A 
ATOM     65  C   UNL A   1      43.583  22.413  26.710  1.00  0.00     0.134 A 
ATOM     66  C   UNL A   1      44.784  24.177  25.687  1.00  0.00     0.134 A 
ATOM     67  F   UNL A   1      42.817  21.868  27.666  1.00  0.00    -0.206 F 
ATOM     68  C   UNL A   1      44.020  21.534  25.705  1.00  0.00     0.040 A 
ATOM     69  C   UNL A   1      45.182  23.323  24.649  1.00  0.00     0.040 A 
ATOM     70  F   UNL A   1      45.332  25.397  25.628  1.00  0.00    -0.206 F 
ATOM     71  C   UNL A   1      44.810  21.991  24.661  1.00  0.00     0.006 A 
ENDBRANCH  50  64
BRANCH  51  72
ATOM     72  C   UNL A   1      40.834  30.039  33.423  1.00  0.00     0.057 A 
ATOM     73  C   UNL A   1      40.709  31.407  33.727  1.00  0.00     0.134 A 
ATOM     74  C   UNL A   1      39.653  29.298  33.329  1.00  0.00     0.134 A 
ATOM     75  F   UNL A   1      41.805  32.178  33.832  1.00  0.00    -0.206 F 
ATOM     76  C   UNL A   1      39.466  32.035  33.813  1.00  0.00     0.040 A 
ATOM     77  C   UNL A   1      38.400  29.915  33.429  1.00  0.00     0.040 A 
ATOM     78  F   UNL A   1      39.687  27.995  33.017  1.00  0.00    -0.206 F 
ATOM     79  C   UNL A   1      38.305  31.292  33.629  1.00  0.00     0.006 A 
ENDBRANCH  51  72
BRANCH  63  80
ATOM     80  C   UNL A   1      45.180  24.235  33.294  1.00  0.00     0.057 A 
ATOM     81  C   UNL A   1      44.363  23.112  33.483  1.00  0.00     0.134 A 
ATOM     82  C   UNL A   1      46.422  24.213  33.954  1.00  0.00     0.134 A 
ATOM     83  F   UNL A   1      43.144  23.047  32.926  1.00  0.00    -0.206 F 
ATOM     84  C   UNL A   1      44.766  22.022  34.262  1.00  0.00     0.040 A 
ATOM     85  C   UNL A   1      46.817  23.151  34.771  1.00  0.00     0.040 A 
ATOM     86  F   UNL A   1      47.306  25.213  33.814  1.00  0.00    -0.206 F 
ATOM     87  C   UNL A   1      45.990  22.046  34.922  1.00  0.00     0.006 A 
ENDBRANCH  63  80
ENDBRANCH  37  38
ENDBRANCH  29  32
ENDBRANCH  27  28
ENDBRANCH  26  27
ENDBRANCH   1  26
TORSDOF 14
ENDMDL
