MODEL 1
REMARK VINA RESULT:     -12.7      0.000      0.000
REMARK SMILES Cc1nnc(SCC2=C(C(=O)NCCCCNC(=O)c3ccc(-c4c5nc(c(-c6c(F)cccc6F)c6ccc([nH]6)c(-c6c(F)cccc6F)c6nc(c(-c7c(F)cccc7F)c7ccc4[nH]7)C=C6)C=C5)cc3)N3C(=O)[C@H](NC(=O)c4cn(C)nc4C)[C@@H]3SC2)s1
REMARK SMILES IDX 14 1 13 2 12 3 10 4 11 5 9 7 8 8 90 9 74 10 89 11 75 12
REMARK SMILES IDX 88 13 76 14 77 15 7 16 6 17 5 18 1 19 2 20 3 21 91 22 4 23
REMARK SMILES IDX 78 24 79 25 80 27 81 28 82 29 86 30 83 31 85 32 87 33 84 34
REMARK SMILES IDX 15 35 16 36 17 37 18 38 19 40 20 41 21 42 73 43 22 44 72 45
REMARK SMILES IDX 23 46 24 47 25 48 66 49 26 50 71 51 65 52 67 53 27 54 70 55
REMARK SMILES IDX 64 56 63 57 28 59 54 60 37 61 53 62 38 63 41 64 52 65 68 66
REMARK SMILES IDX 39 67 40 68 51 70 69 71 42 72 29 73 30 74 35 75 31 76 32 77
REMARK SMILES IDX 34 78 36 79 33 80 55 81 56 82 61 83 57 84 58 85 60 86 62 87
REMARK SMILES IDX 59 88 43 89 44 90 49 91 45 92 46 93 48 94 50 95 47 96
REMARK H PARENT 12 6 78 26 17 39 67 58 41 69
REMARK Flexibility Score: inf
ROOT
ATOM      1  C   UNL A   1      35.810  22.425  24.910  1.00  0.00     0.023 C 
ENDROOT
BRANCH   1   2
ATOM      2  C   UNL A   1      35.434  23.525  23.922  1.00  0.00     0.116 C 
BRANCH   2   3
ATOM      3  N   UNL A   1      34.886  23.153  22.638  1.00  0.00    -0.351 N 
ATOM      4  C   UNL A   1      33.686  23.438  22.031  1.00  0.00     0.268 C 
ATOM      5  O   UNL A   1      33.662  23.243  20.814  1.00  0.00    -0.268 OA
ATOM      6  H   UNL A   1      35.485  22.591  22.096  1.00  0.00     0.163 HD
BRANCH   4   7
ATOM      7  C   UNL A   1      32.400  23.858  22.775  1.00  0.00     0.111 C 
ATOM      8  C   UNL A   1      31.736  23.116  23.717  1.00  0.00    -0.020 C 
ATOM      9  C   UNL A   1      30.446  23.576  24.382  1.00  0.00     0.106 C 
ATOM     10  N   UNL A   1      31.970  25.147  22.522  1.00  0.00    -0.290 N 
ATOM     11  S   UNL A   1      30.259  25.354  24.547  1.00  0.00    -0.129 SA
ATOM     12  C   UNL A   1      32.455  26.305  22.000  1.00  0.00     0.253 C 
ATOM     13  C   UNL A   1      30.649  25.664  22.822  1.00  0.00     0.181 C 
ATOM     14  O   UNL A   1      33.471  26.643  21.445  1.00  0.00    -0.272 OA
ATOM     15  C   UNL A   1      31.191  27.084  22.490  1.00  0.00     0.206 C 
BRANCH   8  16
ATOM     16  C   UNL A   1      32.232  21.760  24.187  1.00  0.00     0.111 C 
BRANCH  16  17
ATOM     17  S   UNL A   1      32.423  20.397  23.026  1.00  0.00    -0.089 SA
BRANCH  17  18
ATOM     18  C   UNL A   1      32.559  19.030  24.088  1.00  0.00     0.174 A 
ATOM     19  C   UNL A   1      33.009  15.493  25.452  1.00  0.00     0.081 C 
ATOM     20  C   UNL A   1      32.804  16.923  25.125  1.00  0.00     0.115 A 
ATOM     21  N   UNL A   1      32.471  17.861  25.986  1.00  0.00    -0.143 NA
ATOM     22  S   UNL A   1      32.995  17.480  23.513  1.00  0.00    -0.091 S 
ATOM     23  N   UNL A   1      32.327  19.092  25.379  1.00  0.00    -0.132 NA
ENDBRANCH  17  18
ENDBRANCH  16  17
ENDBRANCH   8  16
BRANCH  15  24
ATOM     24  N   UNL A   1      31.405  28.006  23.642  1.00  0.00    -0.337 N 
ATOM     25  C   UNL A   1      30.762  29.179  23.956  1.00  0.00     0.255 C 
ATOM     26  H   UNL A   1      32.112  27.734  24.271  1.00  0.00     0.164 HD
ATOM     27  O   UNL A   1      31.117  29.808  24.950  1.00  0.00    -0.269 OA
BRANCH  25  28
ATOM     28  C   UNL A   1      29.716  29.664  23.078  1.00  0.00     0.080 A 
ATOM     29  C   UNL A   1      29.763  30.714  22.180  1.00  0.00     0.122 A 
ATOM     30  C   UNL A   1      28.413  29.117  22.903  1.00  0.00     0.072 A 
ATOM     31  N   UNL A   1      28.526  30.788  21.613  1.00  0.00    -0.275 N 
ATOM     32  N   UNL A   1      27.688  29.827  22.028  1.00  0.00    -0.178 NA
ATOM     33  C   UNL A   1      27.799  27.945  23.580  1.00  0.00     0.069 C 
ATOM     34  C   UNL A   1      28.050  31.783  20.682  1.00  0.00     0.173 C 
ENDBRANCH  25  28
ENDBRANCH  15  24
ENDBRANCH   4   7
ENDBRANCH   2   3
ENDBRANCH   1   2
BRANCH   1  35
ATOM     35  C   UNL A   1      37.023  21.547  24.597  1.00  0.00     0.023 C 
BRANCH  35  36
ATOM     36  C   UNL A   1      38.131  21.435  25.642  1.00  0.00     0.116 C 
BRANCH  36  37
ATOM     37  N   UNL A   1      38.994  20.266  25.511  1.00  0.00    -0.352 N 
ATOM     38  C   UNL A   1      40.298  20.051  25.905  1.00  0.00     0.251 C 
ATOM     39  H   UNL A   1      38.573  19.497  25.063  1.00  0.00     0.163 HD
ATOM     40  O   UNL A   1      40.835  18.972  25.668  1.00  0.00    -0.269 OA
BRANCH  38  41
ATOM     41  C   UNL A   1      41.081  21.127  26.550  1.00  0.00     0.039 A 
ATOM     42  C   UNL A   1      41.768  22.037  25.738  1.00  0.00     0.014 A 
ATOM     43  C   UNL A   1      41.111  21.277  27.935  1.00  0.00     0.014 A 
ATOM     44  C   UNL A   1      42.351  23.173  26.306  1.00  0.00     0.010 A 
ATOM     45  C   UNL A   1      41.610  22.451  28.491  1.00  0.00     0.010 A 
ATOM     46  C   UNL A   1      42.205  23.430  27.679  1.00  0.00    -0.014 A 
BRANCH  46  47
ATOM     47  C   UNL A   1      42.601  24.733  28.277  1.00  0.00     0.031 A 
ATOM     48  C   UNL A   1      41.578  25.813  28.496  1.00  0.00     0.074 A 
ATOM     49  C   UNL A   1      43.904  24.984  28.517  1.00  0.00     0.049 A 
ATOM     50  N   UNL A   1      41.756  27.054  28.874  1.00  0.00    -0.248 NA
ATOM     51  C   UNL A   1      40.177  25.462  28.221  1.00  0.00     0.031 C 
ATOM     52  C   UNL A   1      45.006  24.046  28.292  1.00  0.00     0.029 A 
ATOM     53  N   UNL A   1      44.528  26.116  28.984  1.00  0.00    -0.354 N 
ATOM     54  C   UNL A   1      40.496  27.636  28.859  1.00  0.00     0.074 A 
ATOM     55  C   UNL A   1      39.569  26.627  28.390  1.00  0.00     0.031 C 
ATOM     56  C   UNL A   1      46.164  24.631  28.639  1.00  0.00     0.029 A 
ATOM     57  C   UNL A   1      45.896  25.999  29.068  1.00  0.00     0.049 A 
ATOM     58  H   UNL A   1      44.041  26.934  29.235  1.00  0.00     0.167 HD
ATOM     59  C   UNL A   1      40.137  28.890  29.224  1.00  0.00     0.037 A 
ATOM     60  C   UNL A   1      46.831  26.896  29.432  1.00  0.00     0.037 A 
ATOM     61  C   UNL A   1      41.052  29.883  29.725  1.00  0.00     0.049 A 
ATOM     62  C   UNL A   1      46.408  28.281  29.830  1.00  0.00     0.074 A 
ATOM     63  C   UNL A   1      40.772  31.153  30.197  1.00  0.00     0.029 A 
ATOM     64  N   UNL A   1      42.426  29.716  29.816  1.00  0.00    -0.354 N 
ATOM     65  N   UNL A   1      45.203  28.794  29.881  1.00  0.00    -0.248 NA
ATOM     66  C   UNL A   1      47.476  29.216  30.218  1.00  0.00     0.031 C 
ATOM     67  C   UNL A   1      41.979  31.770  30.538  1.00  0.00     0.029 A 
ATOM     68  C   UNL A   1      43.008  30.870  30.315  1.00  0.00     0.049 A 
ATOM     69  H   UNL A   1      42.913  28.899  29.564  1.00  0.00     0.167 HD
ATOM     70  C   UNL A   1      45.364  30.100  30.325  1.00  0.00     0.074 A 
ATOM     71  C   UNL A   1      46.782  30.297  30.545  1.00  0.00     0.031 C 
ATOM     72  C   UNL A   1      44.420  31.050  30.531  1.00  0.00     0.037 A 
BRANCH  59  73
ATOM     73  C   UNL A   1      38.689  29.258  29.103  1.00  0.00     0.057 A 
ATOM     74  C   UNL A   1      37.832  29.254  30.213  1.00  0.00     0.134 A 
ATOM     75  C   UNL A   1      38.149  29.653  27.873  1.00  0.00     0.134 A 
ATOM     76  F   UNL A   1      38.284  28.875  31.418  1.00  0.00    -0.206 F 
ATOM     77  C   UNL A   1      36.486  29.603  30.098  1.00  0.00     0.040 A 
ATOM     78  C   UNL A   1      36.810  30.029  27.750  1.00  0.00     0.040 A 
ATOM     79  F   UNL A   1      38.915  29.686  26.772  1.00  0.00    -0.206 F 
ATOM     80  C   UNL A   1      35.974  29.999  28.864  1.00  0.00     0.006 A 
ENDBRANCH  59  73
BRANCH  60  81
ATOM     81  C   UNL A   1      48.266  26.511  29.451  1.00  0.00     0.057 A 
ATOM     82  C   UNL A   1      49.091  26.759  28.348  1.00  0.00     0.134 A 
ATOM     83  C   UNL A   1      48.842  25.879  30.559  1.00  0.00     0.134 A 
ATOM     84  F   UNL A   1      48.590  27.343  27.250  1.00  0.00    -0.206 F 
ATOM     85  C   UNL A   1      50.434  26.379  28.339  1.00  0.00     0.040 A 
ATOM     86  C   UNL A   1      50.189  25.514  30.572  1.00  0.00     0.040 A 
ATOM     87  F   UNL A   1      48.106  25.619  31.649  1.00  0.00    -0.206 F 
ATOM     88  C   UNL A   1      50.988  25.757  29.456  1.00  0.00     0.006 A 
ENDBRANCH  60  81
BRANCH  72  89
ATOM     89  C   UNL A   1      44.885  32.382  31.039  1.00  0.00     0.057 A 
ATOM     90  C   UNL A   1      45.051  32.630  32.407  1.00  0.00     0.134 A 
ATOM     91  C   UNL A   1      45.217  33.410  30.149  1.00  0.00     0.134 A 
ATOM     92  F   UNL A   1      44.736  31.689  33.312  1.00  0.00    -0.206 F 
ATOM     93  C   UNL A   1      45.520  33.858  32.872  1.00  0.00     0.040 A 
ATOM     94  C   UNL A   1      45.708  34.635  30.601  1.00  0.00     0.040 A 
ATOM     95  F   UNL A   1      45.086  33.235  28.825  1.00  0.00    -0.206 F 
ATOM     96  C   UNL A   1      45.858  34.863  31.967  1.00  0.00     0.006 A 
ENDBRANCH  72  89
ENDBRANCH  46  47
ENDBRANCH  38  41
ENDBRANCH  36  37
ENDBRANCH  35  36
ENDBRANCH   1  35
TORSDOF 16
ENDMDL
MODEL 2
REMARK VINA RESULT:     -12.5      2.388      2.980
REMARK SMILES Cc1nnc(SCC2=C(C(=O)NCCCCNC(=O)c3ccc(-c4c5nc(c(-c6c(F)cccc6F)c6ccc([nH]6)c(-c6c(F)cccc6F)c6nc(c(-c7c(F)cccc7F)c7ccc4[nH]7)C=C6)C=C5)cc3)N3C(=O)[C@H](NC(=O)c4cn(C)nc4C)[C@@H]3SC2)s1
REMARK SMILES IDX 14 1 13 2 12 3 10 4 11 5 9 7 8 8 90 9 74 10 89 11 75 12
REMARK SMILES IDX 88 13 76 14 77 15 7 16 6 17 5 18 1 19 2 20 3 21 91 22 4 23
REMARK SMILES IDX 78 24 79 25 80 27 81 28 82 29 86 30 83 31 85 32 87 33 84 34
REMARK SMILES IDX 15 35 16 36 17 37 18 38 19 40 20 41 21 42 73 43 22 44 72 45
REMARK SMILES IDX 23 46 24 47 25 48 66 49 26 50 71 51 65 52 67 53 27 54 70 55
REMARK SMILES IDX 64 56 63 57 28 59 54 60 37 61 53 62 38 63 41 64 52 65 68 66
REMARK SMILES IDX 39 67 40 68 51 70 69 71 42 72 29 73 30 74 35 75 31 76 32 77
REMARK SMILES IDX 34 78 36 79 33 80 55 81 56 82 61 83 57 84 58 85 60 86 62 87
REMARK SMILES IDX 59 88 43 89 44 90 49 91 45 92 46 93 48 94 50 95 47 96
REMARK H PARENT 12 6 78 26 17 39 67 58 41 69
REMARK Flexibility Score: inf
ROOT
ATOM      1  C   UNL A   1      37.247  22.283  24.582  1.00  0.00     0.023 C 
ENDROOT
BRANCH   1   2
ATOM      2  C   UNL A   1      36.916  23.317  25.654  1.00  0.00     0.116 C 
BRANCH   2   3
ATOM      3  N   UNL A   1      35.903  23.005  26.636  1.00  0.00    -0.351 N 
ATOM      4  C   UNL A   1      34.658  22.433  26.526  1.00  0.00     0.268 C 
ATOM      5  O   UNL A   1      34.185  22.013  27.583  1.00  0.00    -0.268 OA
ATOM      6  H   UNL A   1      36.152  23.248  27.557  1.00  0.00     0.163 HD
BRANCH   4   7
ATOM      7  C   UNL A   1      33.816  22.398  25.232  1.00  0.00     0.111 C 
ATOM      8  C   UNL A   1      33.317  21.274  24.626  1.00  0.00    -0.020 C 
ATOM      9  C   UNL A   1      32.528  21.310  23.325  1.00  0.00     0.106 C 
ATOM     10  N   UNL A   1      33.462  23.636  24.728  1.00  0.00    -0.290 N 
ATOM     11  S   UNL A   1      31.578  22.808  23.045  1.00  0.00    -0.129 SA
ATOM     12  C   UNL A   1      33.400  24.929  25.140  1.00  0.00     0.253 C 
ATOM     13  C   UNL A   1      32.973  23.885  23.386  1.00  0.00     0.181 C 
ATOM     14  O   UNL A   1      33.733  25.539  26.126  1.00  0.00    -0.272 OA
ATOM     15  C   UNL A   1      32.622  25.330  23.844  1.00  0.00     0.206 C 
BRANCH   8  16
ATOM     16  C   UNL A   1      33.506  19.883  25.204  1.00  0.00     0.111 C 
BRANCH  16  17
ATOM     17  S   UNL A   1      34.839  18.819  24.625  1.00  0.00    -0.089 SA
BRANCH  17  18
ATOM     18  C   UNL A   1      34.201  17.234  24.933  1.00  0.00     0.174 A 
ATOM     19  C   UNL A   1      31.866  14.335  25.777  1.00  0.00     0.081 C 
ATOM     20  C   UNL A   1      32.924  15.313  25.435  1.00  0.00     0.115 A 
ATOM     21  N   UNL A   1      34.202  15.032  25.288  1.00  0.00    -0.143 NA
ATOM     22  S   UNL A   1      32.534  16.967  25.198  1.00  0.00    -0.091 S 
ATOM     23  N   UNL A   1      34.948  16.155  24.997  1.00  0.00    -0.132 NA
ENDBRANCH  17  18
ENDBRANCH  16  17
ENDBRANCH   8  16
BRANCH  15  24
ATOM     24  N   UNL A   1      31.176  25.643  24.028  1.00  0.00    -0.337 N 
ATOM     25  C   UNL A   1      30.582  26.776  24.530  1.00  0.00     0.255 C 
ATOM     26  H   UNL A   1      30.554  24.932  23.748  1.00  0.00     0.164 HD
ATOM     27  O   UNL A   1      29.357  26.818  24.622  1.00  0.00    -0.269 OA
BRANCH  25  28
ATOM     28  C   UNL A   1      31.420  27.869  24.980  1.00  0.00     0.080 A 
ATOM     29  C   UNL A   1      31.762  28.216  26.274  1.00  0.00     0.122 A 
ATOM     30  C   UNL A   1      32.134  28.798  24.171  1.00  0.00     0.072 A 
ATOM     31  N   UNL A   1      32.547  29.326  26.177  1.00  0.00    -0.275 N 
ATOM     32  N   UNL A   1      32.795  29.698  24.913  1.00  0.00    -0.178 NA
ATOM     33  C   UNL A   1      32.182  28.895  22.689  1.00  0.00     0.069 C 
ATOM     34  C   UNL A   1      33.074  30.120  27.260  1.00  0.00     0.173 C 
ENDBRANCH  25  28
ENDBRANCH  15  24
ENDBRANCH   4   7
ENDBRANCH   2   3
ENDBRANCH   1   2
BRANCH   1  35
ATOM     35  C   UNL A   1      37.830  20.939  25.020  1.00  0.00     0.023 C 
BRANCH  35  36
ATOM     36  C   UNL A   1      39.060  20.938  25.927  1.00  0.00     0.116 C 
BRANCH  36  37
ATOM     37  N   UNL A   1      39.905  19.752  25.829  1.00  0.00    -0.352 N 
ATOM     38  C   UNL A   1      41.254  19.578  26.054  1.00  0.00     0.251 C 
ATOM     39  H   UNL A   1      39.429  18.936  25.553  1.00  0.00     0.163 HD
ATOM     40  O   UNL A   1      41.760  18.471  25.887  1.00  0.00    -0.269 OA
BRANCH  38  41
ATOM     41  C   UNL A   1      42.113  20.722  26.429  1.00  0.00     0.039 A 
ATOM     42  C   UNL A   1      42.730  21.459  25.412  1.00  0.00     0.014 A 
ATOM     43  C   UNL A   1      42.282  21.101  27.759  1.00  0.00     0.014 A 
ATOM     44  C   UNL A   1      43.383  22.656  25.720  1.00  0.00     0.010 A 
ATOM     45  C   UNL A   1      42.852  22.336  28.057  1.00  0.00     0.010 A 
ATOM     46  C   UNL A   1      43.378  23.144  27.037  1.00  0.00    -0.014 A 
BRANCH  46  47
ATOM     47  C   UNL A   1      43.851  24.516  27.363  1.00  0.00     0.031 A 
ATOM     48  C   UNL A   1      42.872  25.587  27.758  1.00  0.00     0.074 A 
ATOM     49  C   UNL A   1      45.152  24.827  27.194  1.00  0.00     0.049 A 
ATOM     50  N   UNL A   1      43.077  26.866  27.944  1.00  0.00    -0.248 NA
ATOM     51  C   UNL A   1      41.472  25.170  27.933  1.00  0.00     0.031 C 
ATOM     52  C   UNL A   1      46.198  23.899  26.758  1.00  0.00     0.029 A 
ATOM     53  N   UNL A   1      45.817  26.020  27.348  1.00  0.00    -0.354 N 
ATOM     54  C   UNL A   1      41.833  27.410  28.233  1.00  0.00     0.074 A 
ATOM     55  C   UNL A   1      40.871  26.330  28.151  1.00  0.00     0.031 C 
ATOM     56  C   UNL A   1      47.371  24.550  26.699  1.00  0.00     0.029 A 
ATOM     57  C   UNL A   1      47.157  25.950  27.047  1.00  0.00     0.049 A 
ATOM     58  H   UNL A   1      45.375  26.848  27.645  1.00  0.00     0.167 HD
ATOM     59  C   UNL A   1      41.520  28.686  28.558  1.00  0.00     0.037 A 
ATOM     60  C   UNL A   1      48.104  26.906  27.037  1.00  0.00     0.037 A 
ATOM     61  C   UNL A   1      42.480  29.752  28.674  1.00  0.00     0.049 A 
ATOM     62  C   UNL A   1      47.732  28.316  27.400  1.00  0.00     0.074 A 
ATOM     63  C   UNL A   1      42.272  31.060  29.078  1.00  0.00     0.029 A 
ATOM     64  N   UNL A   1      43.831  29.634  28.384  1.00  0.00    -0.354 N 
ATOM     65  N   UNL A   1      46.563  28.798  27.743  1.00  0.00    -0.248 NA
ATOM     66  C   UNL A   1      48.810  29.316  27.370  1.00  0.00     0.031 C 
ATOM     67  C   UNL A   1      43.490  31.742  28.995  1.00  0.00     0.029 A 
ATOM     68  C   UNL A   1      44.464  30.851  28.578  1.00  0.00     0.049 A 
ATOM     69  H   UNL A   1      44.274  28.807  28.085  1.00  0.00     0.167 HD
ATOM     70  C   UNL A   1      46.767  30.150  27.989  1.00  0.00     0.074 A 
ATOM     71  C   UNL A   1      48.175  30.408  27.773  1.00  0.00     0.031 C 
ATOM     72  C   UNL A   1      45.867  31.091  28.361  1.00  0.00     0.037 A 
BRANCH  59  73
ATOM     73  C   UNL A   1      40.078  28.999  28.822  1.00  0.00     0.057 A 
ATOM     74  C   UNL A   1      39.553  29.017  30.121  1.00  0.00     0.134 A 
ATOM     75  C   UNL A   1      39.210  29.321  27.770  1.00  0.00     0.134 A 
ATOM     76  F   UNL A   1      40.328  28.709  31.171  1.00  0.00    -0.206 F 
ATOM     77  C   UNL A   1      38.211  29.316  30.362  1.00  0.00     0.040 A 
ATOM     78  C   UNL A   1      37.872  29.646  28.002  1.00  0.00     0.040 A 
ATOM     79  F   UNL A   1      39.649  29.329  26.503  1.00  0.00    -0.206 F 
ATOM     80  C   UNL A   1      37.369  29.638  29.301  1.00  0.00     0.006 A 
ENDBRANCH  59  73
BRANCH  60  81
ATOM     81  C   UNL A   1      49.506  26.564  26.682  1.00  0.00     0.057 A 
ATOM     82  C   UNL A   1      49.947  26.626  25.356  1.00  0.00     0.134 A 
ATOM     83  C   UNL A   1      50.430  26.159  27.652  1.00  0.00     0.134 A 
ATOM     84  F   UNL A   1      49.100  26.988  24.381  1.00  0.00    -0.206 F 
ATOM     85  C   UNL A   1      51.252  26.281  25.002  1.00  0.00     0.040 A 
ATOM     86  C   UNL A   1      51.745  25.832  27.315  1.00  0.00     0.040 A 
ATOM     87  F   UNL A   1      50.071  26.084  28.942  1.00  0.00    -0.206 F 
ATOM     88  C   UNL A   1      52.157  25.886  25.985  1.00  0.00     0.006 A 
ENDBRANCH  60  81
BRANCH  72  89
ATOM     89  C   UNL A   1      46.379  32.484  28.580  1.00  0.00     0.057 A 
ATOM     90  C   UNL A   1      46.872  32.899  29.823  1.00  0.00     0.134 A 
ATOM     91  C   UNL A   1      46.425  33.402  27.524  1.00  0.00     0.134 A 
ATOM     92  F   UNL A   1      46.841  32.070  30.878  1.00  0.00    -0.206 F 
ATOM     93  C   UNL A   1      47.382  34.184  30.011  1.00  0.00     0.040 A 
ATOM     94  C   UNL A   1      46.954  34.682  27.694  1.00  0.00     0.040 A 
ATOM     95  F   UNL A   1      45.973  33.065  26.307  1.00  0.00    -0.206 F 
ATOM     96  C   UNL A   1      47.431  35.077  28.942  1.00  0.00     0.006 A 
ENDBRANCH  72  89
ENDBRANCH  46  47
ENDBRANCH  38  41
ENDBRANCH  36  37
ENDBRANCH  35  36
ENDBRANCH   1  35
TORSDOF 16
ENDMDL
MODEL 3
REMARK VINA RESULT:     -12.4      2.165      6.397
REMARK SMILES Cc1nnc(SCC2=C(C(=O)NCCCCNC(=O)c3ccc(-c4c5nc(c(-c6c(F)cccc6F)c6ccc([nH]6)c(-c6c(F)cccc6F)c6nc(c(-c7c(F)cccc7F)c7ccc4[nH]7)C=C6)C=C5)cc3)N3C(=O)[C@H](NC(=O)c4cn(C)nc4C)[C@@H]3SC2)s1
REMARK SMILES IDX 14 1 13 2 12 3 10 4 11 5 9 7 8 8 90 9 74 10 89 11 75 12
REMARK SMILES IDX 88 13 76 14 77 15 7 16 6 17 5 18 1 19 2 20 3 21 91 22 4 23
REMARK SMILES IDX 78 24 79 25 80 27 81 28 82 29 86 30 83 31 85 32 87 33 84 34
REMARK SMILES IDX 15 35 16 36 17 37 18 38 19 40 20 41 21 42 73 43 22 44 72 45
REMARK SMILES IDX 23 46 24 47 25 48 66 49 26 50 71 51 65 52 67 53 27 54 70 55
REMARK SMILES IDX 64 56 63 57 28 59 54 60 37 61 53 62 38 63 41 64 52 65 68 66
REMARK SMILES IDX 39 67 40 68 51 70 69 71 42 72 29 73 30 74 35 75 31 76 32 77
REMARK SMILES IDX 34 78 36 79 33 80 55 81 56 82 61 83 57 84 58 85 60 86 62 87
REMARK SMILES IDX 59 88 43 89 44 90 49 91 45 92 46 93 48 94 50 95 47 96
REMARK H PARENT 12 6 78 26 17 39 67 58 41 69
REMARK Flexibility Score: inf
ROOT
ATOM      1  C   UNL A   1      37.008  21.472  24.723  1.00  0.00     0.023 C 
ENDROOT
BRANCH   1   2
ATOM      2  C   UNL A   1      36.983  22.601  25.748  1.00  0.00     0.116 C 
BRANCH   2   3
ATOM      3  N   UNL A   1      35.765  22.851  26.483  1.00  0.00    -0.351 N 
ATOM      4  C   UNL A   1      34.457  22.985  26.082  1.00  0.00     0.268 C 
ATOM      5  O   UNL A   1      33.624  22.868  26.982  1.00  0.00    -0.268 OA
ATOM      6  H   UNL A   1      35.897  22.942  27.454  1.00  0.00     0.163 HD
BRANCH   4   7
ATOM      7  C   UNL A   1      34.008  23.369  24.655  1.00  0.00     0.111 C 
ATOM      8  C   UNL A   1      33.603  22.498  23.676  1.00  0.00    -0.020 C 
ATOM      9  C   UNL A   1      33.213  22.945  22.275  1.00  0.00     0.106 C 
ATOM     10  N   UNL A   1      33.914  24.727  24.416  1.00  0.00    -0.290 N 
ATOM     11  S   UNL A   1      32.508  24.594  22.163  1.00  0.00    -0.129 SA
ATOM     12  C   UNL A   1      33.850  25.889  25.118  1.00  0.00     0.253 C 
ATOM     13  C   UNL A   1      33.840  25.343  23.106  1.00  0.00     0.181 C 
ATOM     14  O   UNL A   1      33.946  26.203  26.278  1.00  0.00    -0.272 OA
ATOM     15  C   UNL A   1      33.499  26.684  23.818  1.00  0.00     0.206 C 
BRANCH   8  16
ATOM     16  C   UNL A   1      33.506  21.001  23.904  1.00  0.00     0.111 C 
BRANCH  16  17
ATOM     17  S   UNL A   1      32.293  20.011  23.015  1.00  0.00    -0.089 SA
BRANCH  17  18
ATOM     18  C   UNL A   1      32.747  18.394  23.457  1.00  0.00     0.174 A 
ATOM     19  C   UNL A   1      33.450  15.209  25.440  1.00  0.00     0.081 C 
ATOM     20  C   UNL A   1      33.249  16.338  24.503  1.00  0.00     0.115 A 
ATOM     21  N   UNL A   1      33.597  16.344  23.233  1.00  0.00    -0.143 NA
ATOM     22  S   UNL A   1      32.510  17.790  25.039  1.00  0.00    -0.091 S 
ATOM     23  N   UNL A   1      33.305  17.547  22.623  1.00  0.00    -0.132 NA
ENDBRANCH  17  18
ENDBRANCH  16  17
ENDBRANCH   8  16
BRANCH  15  24
ATOM     24  N   UNL A   1      32.091  27.161  23.711  1.00  0.00    -0.337 N 
ATOM     25  C   UNL A   1      31.428  28.107  24.455  1.00  0.00     0.255 C 
ATOM     26  H   UNL A   1      31.556  26.736  23.002  1.00  0.00     0.164 HD
ATOM     27  O   UNL A   1      30.244  28.333  24.217  1.00  0.00    -0.269 OA
BRANCH  25  28
ATOM     28  C   UNL A   1      32.132  28.776  25.531  1.00  0.00     0.080 A 
ATOM     29  C   UNL A   1      33.065  29.793  25.448  1.00  0.00     0.122 A 
ATOM     30  C   UNL A   1      31.966  28.570  26.930  1.00  0.00     0.072 A 
ATOM     31  N   UNL A   1      33.450  30.064  26.728  1.00  0.00    -0.275 N 
ATOM     32  N   UNL A   1      32.795  29.341  27.648  1.00  0.00    -0.178 NA
ATOM     33  C   UNL A   1      31.063  27.619  27.628  1.00  0.00     0.069 C 
ATOM     34  C   UNL A   1      34.476  30.983  27.155  1.00  0.00     0.173 C 
ENDBRANCH  25  28
ENDBRANCH  15  24
ENDBRANCH   4   7
ENDBRANCH   2   3
ENDBRANCH   1   2
BRANCH   1  35
ATOM     35  C   UNL A   1      37.901  20.259  24.995  1.00  0.00     0.023 C 
BRANCH  35  36
ATOM     36  C   UNL A   1      39.144  20.449  25.862  1.00  0.00     0.116 C 
BRANCH  36  37
ATOM     37  N   UNL A   1      40.100  19.347  25.829  1.00  0.00    -0.352 N 
ATOM     38  C   UNL A   1      41.450  19.308  26.104  1.00  0.00     0.251 C 
ATOM     39  H   UNL A   1      39.713  18.481  25.564  1.00  0.00     0.163 HD
ATOM     40  O   UNL A   1      42.064  18.251  25.988  1.00  0.00    -0.269 OA
BRANCH  38  41
ATOM     41  C   UNL A   1      42.184  20.539  26.470  1.00  0.00     0.039 A 
ATOM     42  C   UNL A   1      42.808  21.276  25.457  1.00  0.00     0.014 A 
ATOM     43  C   UNL A   1      42.227  20.997  27.786  1.00  0.00     0.014 A 
ATOM     44  C   UNL A   1      43.337  22.538  25.741  1.00  0.00     0.010 A 
ATOM     45  C   UNL A   1      42.671  22.290  28.052  1.00  0.00     0.010 A 
ATOM     46  C   UNL A   1      43.199  23.089  27.025  1.00  0.00    -0.014 A 
BRANCH  46  47
ATOM     47  C   UNL A   1      43.533  24.511  27.306  1.00  0.00     0.031 A 
ATOM     48  C   UNL A   1      44.962  24.977  27.287  1.00  0.00     0.074 A 
ATOM     49  C   UNL A   1      42.556  25.358  27.690  1.00  0.00     0.049 A 
ATOM     50  N   UNL A   1      45.457  26.137  27.638  1.00  0.00    -0.248 NA
ATOM     51  C   UNL A   1      45.970  24.000  26.849  1.00  0.00     0.031 C 
ATOM     52  C   UNL A   1      41.136  25.020  27.809  1.00  0.00     0.029 A 
ATOM     53  N   UNL A   1      42.612  26.676  28.074  1.00  0.00    -0.354 N 
ATOM     54  C   UNL A   1      46.832  26.021  27.487  1.00  0.00     0.074 A 
ATOM     55  C   UNL A   1      47.098  24.664  27.057  1.00  0.00     0.031 C 
ATOM     56  C   UNL A   1      40.455  26.103  28.215  1.00  0.00     0.029 A 
ATOM     57  C   UNL A   1      41.392  27.201  28.430  1.00  0.00     0.049 A 
ATOM     58  H   UNL A   1      43.448  27.197  28.092  1.00  0.00     0.167 HD
ATOM     59  C   UNL A   1      47.787  26.964  27.667  1.00  0.00     0.037 A 
ATOM     60  C   UNL A   1      41.064  28.421  28.894  1.00  0.00     0.037 A 
ATOM     61  C   UNL A   1      47.522  28.323  28.059  1.00  0.00     0.049 A 
ATOM     62  C   UNL A   1      42.142  29.449  29.087  1.00  0.00     0.074 A 
ATOM     63  C   UNL A   1      48.414  29.373  28.188  1.00  0.00     0.029 A 
ATOM     64  N   UNL A   1      46.269  28.820  28.388  1.00  0.00    -0.354 N 
ATOM     65  N   UNL A   1      43.430  29.346  28.868  1.00  0.00    -0.248 NA
ATOM     66  C   UNL A   1      41.722  30.764  29.596  1.00  0.00     0.031 C 
ATOM     67  C   UNL A   1      47.708  30.496  28.632  1.00  0.00     0.029 A 
ATOM     68  C   UNL A   1      46.370  30.156  28.742  1.00  0.00     0.049 A 
ATOM     69  H   UNL A   1      45.434  28.300  28.371  1.00  0.00     0.167 HD
ATOM     70  C   UNL A   1      43.971  30.584  29.192  1.00  0.00     0.074 A 
ATOM     71  C   UNL A   1      42.870  31.428  29.607  1.00  0.00     0.031 C 
ATOM     72  C   UNL A   1      45.265  30.983  29.149  1.00  0.00     0.037 A 
BRANCH  59  73
ATOM     73  C   UNL A   1      49.212  26.559  27.431  1.00  0.00     0.057 A 
ATOM     74  C   UNL A   1      49.794  26.617  26.158  1.00  0.00     0.134 A 
ATOM     75  C   UNL A   1      50.023  26.140  28.493  1.00  0.00     0.134 A 
ATOM     76  F   UNL A   1      49.069  27.001  25.096  1.00  0.00    -0.206 F 
ATOM     77  C   UNL A   1      51.122  26.247  25.944  1.00  0.00     0.040 A 
ATOM     78  C   UNL A   1      51.360  25.790  28.296  1.00  0.00     0.040 A 
ATOM     79  F   UNL A   1      49.531  26.068  29.739  1.00  0.00    -0.206 F 
ATOM     80  C   UNL A   1      51.911  25.837  27.017  1.00  0.00     0.006 A 
ENDBRANCH  59  73
BRANCH  60  81
ATOM     81  C   UNL A   1      39.647  28.748  29.198  1.00  0.00     0.057 A 
ATOM     82  C   UNL A   1      39.122  28.547  30.479  1.00  0.00     0.134 A 
ATOM     83  C   UNL A   1      38.785  29.256  28.219  1.00  0.00     0.134 A 
ATOM     84  F   UNL A   1      39.895  28.043  31.452  1.00  0.00    -0.206 F 
ATOM     85  C   UNL A   1      37.787  28.822  30.774  1.00  0.00     0.040 A 
ATOM     86  C   UNL A   1      37.452  29.557  28.506  1.00  0.00     0.040 A 
ATOM     87  F   UNL A   1      39.228  29.477  26.973  1.00  0.00    -0.206 F 
ATOM     88  C   UNL A   1      36.948  29.333  29.786  1.00  0.00     0.006 A 
ENDBRANCH  60  81
BRANCH  72  89
ATOM     89  C   UNL A   1      45.560  32.401  29.540  1.00  0.00     0.057 A 
ATOM     90  C   UNL A   1      45.848  32.754  30.864  1.00  0.00     0.134 A 
ATOM     91  C   UNL A   1      45.605  33.413  28.574  1.00  0.00     0.134 A 
ATOM     92  F   UNL A   1      45.806  31.832  31.838  1.00  0.00    -0.206 F 
ATOM     93  C   UNL A   1      46.159  34.068  31.215  1.00  0.00     0.040 A 
ATOM     94  C   UNL A   1      45.937  34.726  28.909  1.00  0.00     0.040 A 
ATOM     95  F   UNL A   1      45.344  33.140  27.286  1.00  0.00    -0.206 F 
ATOM     96  C   UNL A   1      46.212  35.057  30.234  1.00  0.00     0.006 A 
ENDBRANCH  72  89
ENDBRANCH  46  47
ENDBRANCH  38  41
ENDBRANCH  36  37
ENDBRANCH  35  36
ENDBRANCH   1  35
TORSDOF 16
ENDMDL
