MODEL 1
REMARK VINA RESULT:     -12.0      0.000      0.000
REMARK SMILES C[C@@H]1CCCN(c2cc(Br)ccc2/C=C/C(=O)NCCCCNC(=O)c2ccc(-c3c4nc(c(-c5c(F)cccc5F)c5ccc([nH]5)c(-c5c(F)cccc5F)c5nc(c(-c6c(F)cccc6F)c6ccc3[nH]6)C=C5)C=C4)cc2)C1
REMARK SMILES IDX 20 1 19 2 18 3 16 4 17 5 15 7 14 8 13 9 7 10 8 11 9 12 12 13
REMARK SMILES IDX 10 14 11 15 6 16 1 17 2 18 3 19 80 20 4 21 5 22 21 23 22 24
REMARK SMILES IDX 23 25 24 26 25 28 26 29 27 30 79 31 28 32 78 33 29 34 30 35
REMARK SMILES IDX 31 36 72 37 32 38 77 39 71 40 73 41 33 42 76 43 70 44 69 45
REMARK SMILES IDX 34 47 60 48 43 49 59 50 44 51 47 52 58 53 74 54 45 55 46 56
REMARK SMILES IDX 57 58 75 59 48 60 35 61 36 62 41 63 37 64 38 65 40 66 42 67
REMARK SMILES IDX 39 68 61 69 62 70 67 71 63 72 64 73 66 74 68 75 65 76 49 77
REMARK SMILES IDX 50 78 55 79 51 80 52 81 54 82 56 83 53 84
REMARK H PARENT 18 6 23 27 73 46 47 57
REMARK Flexibility Score: inf
ROOT
ATOM      1  C   UNL A   1      31.651  30.816  26.070  1.00  0.00     0.023 C 
ENDROOT
BRANCH   1   2
ATOM      2  C   UNL A   1      31.780  29.724  27.132  1.00  0.00     0.116 C 
BRANCH   2   3
ATOM      3  N   UNL A   1      33.138  29.638  27.625  1.00  0.00    -0.353 N 
ATOM      4  C   UNL A   1      34.184  28.909  27.151  1.00  0.00     0.244 C 
ATOM      5  O   UNL A   1      35.296  29.041  27.658  1.00  0.00    -0.270 OA
ATOM      6  H   UNL A   1      33.332  30.186  28.420  1.00  0.00     0.163 HD
BRANCH   4   7
ATOM      7  C   UNL A   1      34.025  28.034  25.967  1.00  0.00     0.072 C 
ATOM      8  C   UNL A   1      33.446  26.823  25.977  1.00  0.00     0.016 C 
BRANCH   8   9
ATOM      9  C   UNL A   1      33.339  25.944  24.793  1.00  0.00    -0.002 A 
ATOM     10  C   UNL A   1      32.183  25.955  23.970  1.00  0.00     0.045 A 
ATOM     11  C   UNL A   1      32.105  25.025  22.917  1.00  0.00     0.042 A 
ATOM     12  C   UNL A   1      33.130  24.109  22.685  1.00  0.00     0.020 A 
ATOM     13  C   UNL A   1      34.354  24.999  24.552  1.00  0.00     0.011 A 
ATOM     14  Br  UNL A   1      32.984  22.875  21.262  1.00  0.00    -0.051 Br
ATOM     15  C   UNL A   1      34.255  24.090  23.499  1.00  0.00     0.016 A 
BRANCH  10  16
ATOM     16  N   UNL A   1      31.130  26.839  24.161  1.00  0.00    -0.371 N 
ATOM     17  C   UNL A   1      29.888  29.786  22.096  1.00  0.00     0.009 C 
ATOM     18  C   UNL A   1      29.953  28.344  22.601  1.00  0.00     0.005 C 
ATOM     19  C   UNL A   1      28.643  27.971  23.312  1.00  0.00     0.007 C 
ATOM     20  C   UNL A   1      31.155  28.158  23.541  1.00  0.00     0.119 C 
ATOM     21  C   UNL A   1      28.714  26.553  23.876  1.00  0.00     0.022 C 
ATOM     22  C   UNL A   1      29.906  26.390  24.814  1.00  0.00     0.116 C 
ENDBRANCH  10  16
ENDBRANCH   8   9
ENDBRANCH   4   7
ENDBRANCH   2   3
ENDBRANCH   1   2
BRANCH   1  23
ATOM     23  C   UNL A   1      31.356  32.205  26.637  1.00  0.00     0.023 C 
BRANCH  23  24
ATOM     24  C   UNL A   1      32.558  32.913  27.255  1.00  0.00     0.116 C 
BRANCH  24  25
ATOM     25  N   UNL A   1      32.290  34.294  27.628  1.00  0.00    -0.352 N 
ATOM     26  C   UNL A   1      32.941  35.072  28.556  1.00  0.00     0.251 C 
ATOM     27  H   UNL A   1      31.545  34.728  27.153  1.00  0.00     0.163 HD
ATOM     28  O   UNL A   1      32.528  36.191  28.825  1.00  0.00    -0.269 OA
BRANCH  26  29
ATOM     29  C   UNL A   1      34.122  34.524  29.257  1.00  0.00     0.039 A 
ATOM     30  C   UNL A   1      33.931  33.856  30.468  1.00  0.00     0.014 A 
ATOM     31  C   UNL A   1      35.402  34.641  28.710  1.00  0.00     0.014 A 
ATOM     32  C   UNL A   1      35.018  33.250  31.100  1.00  0.00     0.010 A 
ATOM     33  C   UNL A   1      36.471  33.976  29.302  1.00  0.00     0.010 A 
ATOM     34  C   UNL A   1      36.291  33.276  30.504  1.00  0.00    -0.014 A 
BRANCH  34  35
ATOM     35  C   UNL A   1      37.438  32.572  31.128  1.00  0.00     0.031 A 
ATOM     36  C   UNL A   1      37.983  33.034  32.450  1.00  0.00     0.074 A 
ATOM     37  C   UNL A   1      38.022  31.547  30.477  1.00  0.00     0.049 A 
ATOM     38  N   UNL A   1      38.991  32.561  33.139  1.00  0.00    -0.248 NA
ATOM     39  C   UNL A   1      37.328  34.197  33.069  1.00  0.00     0.031 C 
ATOM     40  C   UNL A   1      37.623  31.043  29.162  1.00  0.00     0.029 A 
ATOM     41  N   UNL A   1      39.077  30.747  30.833  1.00  0.00    -0.354 N 
ATOM     42  C   UNL A   1      39.095  33.372  34.261  1.00  0.00     0.074 A 
ATOM     43  C   UNL A   1      38.087  34.402  34.135  1.00  0.00     0.031 C 
ATOM     44  C   UNL A   1      38.405  30.001  28.834  1.00  0.00     0.029 A 
ATOM     45  C   UNL A   1      39.377  29.783  29.901  1.00  0.00     0.049 A 
ATOM     46  H   UNL A   1      39.574  30.852  31.677  1.00  0.00     0.167 HD
ATOM     47  C   UNL A   1      39.936  33.254  35.316  1.00  0.00     0.037 A 
ATOM     48  C   UNL A   1      40.327  28.829  29.908  1.00  0.00     0.037 A 
ATOM     49  C   UNL A   1      40.923  32.215  35.452  1.00  0.00     0.049 A 
ATOM     50  C   UNL A   1      41.243  28.714  31.094  1.00  0.00     0.074 A 
ATOM     51  C   UNL A   1      41.782  31.973  36.509  1.00  0.00     0.029 A 
ATOM     52  N   UNL A   1      41.183  31.244  34.496  1.00  0.00    -0.354 N 
ATOM     53  N   UNL A   1      41.278  29.440  32.185  1.00  0.00    -0.248 NA
ATOM     54  C   UNL A   1      42.244  27.639  31.055  1.00  0.00     0.031 C 
ATOM     55  C   UNL A   1      42.589  30.881  36.177  1.00  0.00     0.029 A 
ATOM     56  C   UNL A   1      42.202  30.413  34.932  1.00  0.00     0.049 A 
ATOM     57  H   UNL A   1      40.713  31.159  33.635  1.00  0.00     0.167 HD
ATOM     58  C   UNL A   1      42.283  28.894  32.974  1.00  0.00     0.074 A 
ATOM     59  C   UNL A   1      42.821  27.766  32.241  1.00  0.00     0.031 C 
ATOM     60  C   UNL A   1      42.722  29.292  34.193  1.00  0.00     0.037 A 
BRANCH  47  61
ATOM     61  C   UNL A   1      39.817  34.274  36.412  1.00  0.00     0.057 A 
ATOM     62  C   UNL A   1      39.010  34.057  37.536  1.00  0.00     0.134 A 
ATOM     63  C   UNL A   1      40.541  35.471  36.358  1.00  0.00     0.134 A 
ATOM     64  F   UNL A   1      38.281  32.935  37.643  1.00  0.00    -0.206 F 
ATOM     65  C   UNL A   1      38.905  35.005  38.555  1.00  0.00     0.040 A 
ATOM     66  C   UNL A   1      40.465  36.416  37.383  1.00  0.00     0.040 A 
ATOM     67  F   UNL A   1      41.338  35.741  35.314  1.00  0.00    -0.206 F 
ATOM     68  C   UNL A   1      39.640  36.186  38.483  1.00  0.00     0.006 A 
ENDBRANCH  47  61
BRANCH  48  69
ATOM     69  C   UNL A   1      40.440  27.884  28.769  1.00  0.00     0.057 A 
ATOM     70  C   UNL A   1      41.254  28.176  27.668  1.00  0.00     0.134 A 
ATOM     71  C   UNL A   1      39.733  26.677  28.746  1.00  0.00     0.134 A 
ATOM     72  F   UNL A   1      41.943  29.326  27.624  1.00  0.00    -0.206 F 
ATOM     73  C   UNL A   1      41.347  27.311  26.577  1.00  0.00     0.040 A 
ATOM     74  C   UNL A   1      39.834  25.791  27.672  1.00  0.00     0.040 A 
ATOM     75  F   UNL A   1      38.942  26.335  29.774  1.00  0.00    -0.206 F 
ATOM     76  C   UNL A   1      40.638  26.112  26.579  1.00  0.00     0.006 A 
ENDBRANCH  48  69
BRANCH  60  77
ATOM     77  C   UNL A   1      43.815  28.480  34.824  1.00  0.00     0.057 A 
ATOM     78  C   UNL A   1      45.166  28.829  34.693  1.00  0.00     0.134 A 
ATOM     79  C   UNL A   1      43.510  27.353  35.597  1.00  0.00     0.134 A 
ATOM     80  F   UNL A   1      45.525  29.889  33.954  1.00  0.00    -0.206 F 
ATOM     81  C   UNL A   1      46.174  28.070  35.288  1.00  0.00     0.040 A 
ATOM     82  C   UNL A   1      44.508  26.602  36.219  1.00  0.00     0.040 A 
ATOM     83  F   UNL A   1      42.236  26.969  35.770  1.00  0.00    -0.206 F 
ATOM     84  C   UNL A   1      45.845  26.956  36.058  1.00  0.00     0.006 A 
ENDBRANCH  60  77
ENDBRANCH  34  35
ENDBRANCH  26  29
ENDBRANCH  24  25
ENDBRANCH  23  24
ENDBRANCH   1  23
TORSDOF 13
ENDMDL
MODEL 2
REMARK VINA RESULT:     -11.9      4.034      6.193
REMARK SMILES C[C@@H]1CCCN(c2cc(Br)ccc2/C=C/C(=O)NCCCCNC(=O)c2ccc(-c3c4nc(c(-c5c(F)cccc5F)c5ccc([nH]5)c(-c5c(F)cccc5F)c5nc(c(-c6c(F)cccc6F)c6ccc3[nH]6)C=C5)C=C4)cc2)C1
REMARK SMILES IDX 20 1 19 2 18 3 16 4 17 5 15 7 14 8 13 9 7 10 8 11 9 12 12 13
REMARK SMILES IDX 10 14 11 15 6 16 1 17 2 18 3 19 80 20 4 21 5 22 21 23 22 24
REMARK SMILES IDX 23 25 24 26 25 28 26 29 27 30 79 31 28 32 78 33 29 34 30 35
REMARK SMILES IDX 31 36 72 37 32 38 77 39 71 40 73 41 33 42 76 43 70 44 69 45
REMARK SMILES IDX 34 47 60 48 43 49 59 50 44 51 47 52 58 53 74 54 45 55 46 56
REMARK SMILES IDX 57 58 75 59 48 60 35 61 36 62 41 63 37 64 38 65 40 66 42 67
REMARK SMILES IDX 39 68 61 69 62 70 67 71 63 72 64 73 66 74 68 75 65 76 49 77
REMARK SMILES IDX 50 78 55 79 51 80 52 81 54 82 56 83 53 84
REMARK H PARENT 18 6 23 27 73 46 47 57
REMARK Flexibility Score: inf
ROOT
ATOM      1  C   UNL A   1      33.494  27.619  24.818  1.00  0.00     0.023 C 
ENDROOT
BRANCH   1   2
ATOM      2  C   UNL A   1      32.616  26.573  24.131  1.00  0.00     0.116 C 
BRANCH   2   3
ATOM      3  N   UNL A   1      32.978  26.427  22.738  1.00  0.00    -0.353 N 
ATOM      4  C   UNL A   1      33.044  25.303  21.976  1.00  0.00     0.244 C 
ATOM      5  O   UNL A   1      33.286  25.395  20.774  1.00  0.00    -0.270 OA
ATOM      6  H   UNL A   1      33.212  27.264  22.274  1.00  0.00     0.163 HD
BRANCH   4   7
ATOM      7  C   UNL A   1      32.727  23.976  22.552  1.00  0.00     0.072 C 
ATOM      8  C   UNL A   1      33.622  23.148  23.115  1.00  0.00     0.016 C 
BRANCH   8   9
ATOM      9  C   UNL A   1      33.294  21.806  23.643  1.00  0.00    -0.002 A 
ATOM     10  C   UNL A   1      33.903  21.311  24.826  1.00  0.00     0.045 A 
ATOM     11  C   UNL A   1      33.621  19.991  25.219  1.00  0.00     0.042 A 
ATOM     12  C   UNL A   1      32.771  19.180  24.467  1.00  0.00     0.020 A 
ATOM     13  C   UNL A   1      32.453  20.965  22.891  1.00  0.00     0.011 A 
ATOM     14  Br  UNL A   1      32.421  17.410  25.030  1.00  0.00    -0.051 Br
ATOM     15  C   UNL A   1      32.185  19.660  23.303  1.00  0.00     0.016 A 
BRANCH  10  16
ATOM     16  N   UNL A   1      34.763  22.073  25.605  1.00  0.00    -0.371 N 
ATOM     17  C   UNL A   1      38.562  22.192  25.812  1.00  0.00     0.009 C 
ATOM     18  C   UNL A   1      37.160  22.601  25.360  1.00  0.00     0.005 C 
ATOM     19  C   UNL A   1      36.841  24.026  25.838  1.00  0.00     0.007 C 
ATOM     20  C   UNL A   1      36.115  21.603  25.884  1.00  0.00     0.119 C 
ATOM     21  C   UNL A   1      35.421  24.427  25.446  1.00  0.00     0.022 C 
ATOM     22  C   UNL A   1      34.397  23.432  25.984  1.00  0.00     0.116 C 
ENDBRANCH  10  16
ENDBRANCH   8   9
ENDBRANCH   4   7
ENDBRANCH   2   3
ENDBRANCH   1   2
BRANCH   1  23
ATOM     23  C   UNL A   1      32.834  28.293  26.022  1.00  0.00     0.023 C 
BRANCH  23  24
ATOM     24  C   UNL A   1      33.768  28.560  27.199  1.00  0.00     0.116 C 
BRANCH  24  25
ATOM     25  N   UNL A   1      33.681  29.918  27.712  1.00  0.00    -0.352 N 
ATOM     26  C   UNL A   1      34.652  30.660  28.344  1.00  0.00     0.251 C 
ATOM     27  H   UNL A   1      32.812  30.366  27.592  1.00  0.00     0.163 HD
ATOM     28  O   UNL A   1      34.387  31.759  28.808  1.00  0.00    -0.269 OA
BRANCH  26  29
ATOM     29  C   UNL A   1      36.009  30.093  28.494  1.00  0.00     0.039 A 
ATOM     30  C   UNL A   1      36.892  30.176  27.415  1.00  0.00     0.014 A 
ATOM     31  C   UNL A   1      36.417  29.512  29.697  1.00  0.00     0.014 A 
ATOM     32  C   UNL A   1      38.206  29.731  27.564  1.00  0.00     0.010 A 
ATOM     33  C   UNL A   1      37.746  29.135  29.868  1.00  0.00     0.010 A 
ATOM     34  C   UNL A   1      38.653  29.239  28.803  1.00  0.00    -0.014 A 
BRANCH  34  35
ATOM     35  C   UNL A   1      40.067  28.833  28.996  1.00  0.00     0.031 A 
ATOM     36  C   UNL A   1      41.050  29.784  29.618  1.00  0.00     0.074 A 
ATOM     37  C   UNL A   1      40.478  27.626  28.562  1.00  0.00     0.049 A 
ATOM     38  N   UNL A   1      42.328  29.619  29.848  1.00  0.00    -0.248 NA
ATOM     39  C   UNL A   1      40.537  31.106  30.013  1.00  0.00     0.031 C 
ATOM     40  C   UNL A   1      39.634  26.637  27.888  1.00  0.00     0.029 A 
ATOM     41  N   UNL A   1      41.709  27.026  28.620  1.00  0.00    -0.354 N 
ATOM     42  C   UNL A   1      42.770  30.813  30.401  1.00  0.00     0.074 A 
ATOM     43  C   UNL A   1      41.640  31.716  30.420  1.00  0.00     0.031 C 
ATOM     44  C   UNL A   1      40.365  25.543  27.621  1.00  0.00     0.029 A 
ATOM     45  C   UNL A   1      41.733  25.764  28.077  1.00  0.00     0.049 A 
ATOM     46  H   UNL A   1      42.502  27.458  29.013  1.00  0.00     0.167 HD
ATOM     47  C   UNL A   1      44.001  31.122  30.875  1.00  0.00     0.037 A 
ATOM     48  C   UNL A   1      42.745  24.883  27.964  1.00  0.00     0.037 A 
ATOM     49  C   UNL A   1      45.118  30.216  30.878  1.00  0.00     0.049 A 
ATOM     50  C   UNL A   1      44.099  25.247  28.507  1.00  0.00     0.074 A 
ATOM     51  C   UNL A   1      46.388  30.412  31.391  1.00  0.00     0.029 A 
ATOM     52  N   UNL A   1      45.099  28.938  30.339  1.00  0.00    -0.354 N 
ATOM     53  N   UNL A   1      44.483  26.352  29.099  1.00  0.00    -0.248 NA
ATOM     54  C   UNL A   1      45.158  24.236  28.375  1.00  0.00     0.031 C 
ATOM     55  C   UNL A   1      47.149  29.269  31.127  1.00  0.00     0.029 A 
ATOM     56  C   UNL A   1      46.340  28.342  30.490  1.00  0.00     0.049 A 
ATOM     57  H   UNL A   1      44.318  28.517  29.911  1.00  0.00     0.167 HD
ATOM     58  C   UNL A   1      45.818  26.160  29.434  1.00  0.00     0.074 A 
ATOM     59  C   UNL A   1      46.171  24.825  28.995  1.00  0.00     0.031 C 
ATOM     60  C   UNL A   1      46.673  27.011  30.050  1.00  0.00     0.037 A 
BRANCH  47  61
ATOM     61  C   UNL A   1      44.197  32.499  31.440  1.00  0.00     0.057 A 
ATOM     62  C   UNL A   1      44.006  32.772  32.802  1.00  0.00     0.134 A 
ATOM     63  C   UNL A   1      44.612  33.557  30.622  1.00  0.00     0.134 A 
ATOM     64  F   UNL A   1      43.597  31.805  33.637  1.00  0.00    -0.206 F 
ATOM     65  C   UNL A   1      44.194  34.053  33.324  1.00  0.00     0.040 A 
ATOM     66  C   UNL A   1      44.829  34.837  31.138  1.00  0.00     0.040 A 
ATOM     67  F   UNL A   1      44.819  33.365  29.311  1.00  0.00    -0.206 F 
ATOM     68  C   UNL A   1      44.613  35.088  32.492  1.00  0.00     0.006 A 
ENDBRANCH  47  61
BRANCH  48  69
ATOM     69  C   UNL A   1      42.511  23.556  27.341  1.00  0.00     0.057 A 
ATOM     70  C   UNL A   1      42.108  22.459  28.112  1.00  0.00     0.134 A 
ATOM     71  C   UNL A   1      42.692  23.349  25.969  1.00  0.00     0.134 A 
ATOM     72  F   UNL A   1      41.935  22.591  29.435  1.00  0.00    -0.206 F 
ATOM     73  C   UNL A   1      41.913  21.199  27.545  1.00  0.00     0.040 A 
ATOM     74  C   UNL A   1      42.477  22.100  25.384  1.00  0.00     0.040 A 
ATOM     75  F   UNL A   1      43.069  24.363  25.175  1.00  0.00    -0.206 F 
ATOM     76  C   UNL A   1      42.094  21.018  26.175  1.00  0.00     0.006 A 
ENDBRANCH  48  69
BRANCH  60  77
ATOM     77  C   UNL A   1      48.063  26.512  30.314  1.00  0.00     0.057 A 
ATOM     78  C   UNL A   1      49.106  26.704  29.398  1.00  0.00     0.134 A 
ATOM     79  C   UNL A   1      48.369  25.856  31.514  1.00  0.00     0.134 A 
ATOM     80  F   UNL A   1      48.875  27.313  28.225  1.00  0.00    -0.206 F 
ATOM     81  C   UNL A   1      50.396  26.240  29.655  1.00  0.00     0.040 A 
ATOM     82  C   UNL A   1      49.662  25.411  31.793  1.00  0.00     0.040 A 
ATOM     83  F   UNL A   1      47.419  25.647  32.438  1.00  0.00    -0.206 F 
ATOM     84  C   UNL A   1      50.678  25.596  30.859  1.00  0.00     0.006 A 
ENDBRANCH  60  77
ENDBRANCH  34  35
ENDBRANCH  26  29
ENDBRANCH  24  25
ENDBRANCH  23  24
ENDBRANCH   1  23
TORSDOF 13
ENDMDL
MODEL 3
REMARK VINA RESULT:     -11.7      3.124      7.872
REMARK SMILES C[C@@H]1CCCN(c2cc(Br)ccc2/C=C/C(=O)NCCCCNC(=O)c2ccc(-c3c4nc(c(-c5c(F)cccc5F)c5ccc([nH]5)c(-c5c(F)cccc5F)c5nc(c(-c6c(F)cccc6F)c6ccc3[nH]6)C=C5)C=C4)cc2)C1
REMARK SMILES IDX 20 1 19 2 18 3 16 4 17 5 15 7 14 8 13 9 7 10 8 11 9 12 12 13
REMARK SMILES IDX 10 14 11 15 6 16 1 17 2 18 3 19 80 20 4 21 5 22 21 23 22 24
REMARK SMILES IDX 23 25 24 26 25 28 26 29 27 30 79 31 28 32 78 33 29 34 30 35
REMARK SMILES IDX 31 36 72 37 32 38 77 39 71 40 73 41 33 42 76 43 70 44 69 45
REMARK SMILES IDX 34 47 60 48 43 49 59 50 44 51 47 52 58 53 74 54 45 55 46 56
REMARK SMILES IDX 57 58 75 59 48 60 35 61 36 62 41 63 37 64 38 65 40 66 42 67
REMARK SMILES IDX 39 68 61 69 62 70 67 71 63 72 64 73 66 74 68 75 65 76 49 77
REMARK SMILES IDX 50 78 55 79 51 80 52 81 54 82 56 83 53 84
REMARK H PARENT 18 6 23 27 73 46 47 57
REMARK Flexibility Score: inf
ROOT
ATOM      1  C   UNL A   1      34.612  24.095  25.082  1.00  0.00     0.023 C 
ENDROOT
BRANCH   1   2
ATOM      2  C   UNL A   1      33.367  23.227  24.894  1.00  0.00     0.116 C 
BRANCH   2   3
ATOM      3  N   UNL A   1      32.563  23.207  26.096  1.00  0.00    -0.353 N 
ATOM      4  C   UNL A   1      31.439  23.912  26.395  1.00  0.00     0.244 C 
ATOM      5  O   UNL A   1      30.840  23.687  27.445  1.00  0.00    -0.270 OA
ATOM      6  H   UNL A   1      32.875  22.594  26.801  1.00  0.00     0.163 HD
BRANCH   4   7
ATOM      7  C   UNL A   1      30.869  24.877  25.427  1.00  0.00     0.072 C 
ATOM      8  C   UNL A   1      31.036  26.208  25.477  1.00  0.00     0.016 C 
BRANCH   8   9
ATOM      9  C   UNL A   1      30.419  27.159  24.528  1.00  0.00    -0.002 A 
ATOM     10  C   UNL A   1      31.052  28.387  24.199  1.00  0.00     0.045 A 
ATOM     11  C   UNL A   1      30.366  29.288  23.366  1.00  0.00     0.042 A 
ATOM     12  C   UNL A   1      29.093  28.994  22.876  1.00  0.00     0.020 A 
ATOM     13  C   UNL A   1      29.128  26.890  24.036  1.00  0.00     0.011 A 
ATOM     14  Br  UNL A   1      28.205  30.235  21.762  1.00  0.00    -0.051 Br
ATOM     15  C   UNL A   1      28.469  27.799  23.208  1.00  0.00     0.016 A 
BRANCH  10  16
ATOM     16  N   UNL A   1      32.312  28.732  24.666  1.00  0.00    -0.371 N 
ATOM     17  C   UNL A   1      33.425  30.871  27.611  1.00  0.00     0.009 C 
ATOM     18  C   UNL A   1      33.069  29.595  26.850  1.00  0.00     0.005 C 
ATOM     19  C   UNL A   1      34.305  28.691  26.719  1.00  0.00     0.007 C 
ATOM     20  C   UNL A   1      32.496  29.938  25.465  1.00  0.00     0.119 C 
ATOM     21  C   UNL A   1      33.980  27.438  25.908  1.00  0.00     0.022 C 
ATOM     22  C   UNL A   1      33.423  27.798  24.534  1.00  0.00     0.116 C 
ENDBRANCH  10  16
ENDBRANCH   8   9
ENDBRANCH   4   7
ENDBRANCH   2   3
ENDBRANCH   1   2
BRANCH   1  23
ATOM     23  C   UNL A   1      35.804  23.351  25.686  1.00  0.00     0.023 C 
BRANCH  23  24
ATOM     24  C   UNL A   1      37.170  23.827  25.198  1.00  0.00     0.116 C 
BRANCH  24  25
ATOM     25  N   UNL A   1      38.243  22.882  25.466  1.00  0.00    -0.352 N 
ATOM     26  C   UNL A   1      39.388  23.074  26.204  1.00  0.00     0.251 C 
ATOM     27  H   UNL A   1      38.136  21.989  25.067  1.00  0.00     0.163 HD
ATOM     28  O   UNL A   1      40.246  22.205  26.251  1.00  0.00    -0.269 OA
BRANCH  26  29
ATOM     29  C   UNL A   1      39.589  24.361  26.903  1.00  0.00     0.039 A 
ATOM     30  C   UNL A   1      39.100  24.499  28.204  1.00  0.00     0.014 A 
ATOM     31  C   UNL A   1      40.280  25.411  26.294  1.00  0.00     0.014 A 
ATOM     32  C   UNL A   1      39.358  25.671  28.916  1.00  0.00     0.010 A 
ATOM     33  C   UNL A   1      40.599  26.549  27.029  1.00  0.00     0.010 A 
ATOM     34  C   UNL A   1      40.139  26.691  28.346  1.00  0.00    -0.014 A 
BRANCH  34  35
ATOM     35  C   UNL A   1      40.484  27.909  29.120  1.00  0.00     0.031 A 
ATOM     36  C   UNL A   1      41.831  28.034  29.777  1.00  0.00     0.074 A 
ATOM     37  C   UNL A   1      39.565  28.881  29.276  1.00  0.00     0.049 A 
ATOM     38  N   UNL A   1      42.305  29.008  30.511  1.00  0.00    -0.248 NA
ATOM     39  C   UNL A   1      42.758  26.904  29.609  1.00  0.00     0.031 C 
ATOM     40  C   UNL A   1      38.203  28.851  28.738  1.00  0.00     0.029 A 
ATOM     41  N   UNL A   1      39.635  30.082  29.933  1.00  0.00    -0.354 N 
ATOM     42  C   UNL A   1      43.576  28.605  30.898  1.00  0.00     0.074 A 
ATOM     43  C   UNL A   1      43.779  27.274  30.368  1.00  0.00     0.031 C 
ATOM     44  C   UNL A   1      37.576  29.993  29.064  1.00  0.00     0.029 A 
ATOM     45  C   UNL A   1      38.480  30.822  29.855  1.00  0.00     0.049 A 
ATOM     46  H   UNL A   1      40.438  30.387  30.416  1.00  0.00     0.167 HD
ATOM     47  C   UNL A   1      44.502  29.292  31.608  1.00  0.00     0.037 A 
ATOM     48  C   UNL A   1      38.184  32.033  30.363  1.00  0.00     0.037 A 
ATOM     49  C   UNL A   1      44.309  30.625  32.114  1.00  0.00     0.049 A 
ATOM     50  C   UNL A   1      39.233  32.779  31.141  1.00  0.00     0.074 A 
ATOM     51  C   UNL A   1      45.207  31.430  32.793  1.00  0.00     0.029 A 
ATOM     52  N   UNL A   1      43.132  31.350  31.997  1.00  0.00    -0.354 N 
ATOM     53  N   UNL A   1      40.459  32.417  31.432  1.00  0.00    -0.248 NA
ATOM     54  C   UNL A   1      38.860  34.106  31.650  1.00  0.00     0.031 C 
ATOM     55  C   UNL A   1      44.562  32.626  33.122  1.00  0.00     0.029 A 
ATOM     56  C   UNL A   1      43.275  32.586  32.608  1.00  0.00     0.049 A 
ATOM     57  H   UNL A   1      42.316  31.033  31.548  1.00  0.00     0.167 HD
ATOM     58  C   UNL A   1      41.012  33.481  32.134  1.00  0.00     0.074 A 
ATOM     59  C   UNL A   1      39.993  34.507  32.209  1.00  0.00     0.031 C 
ATOM     60  C   UNL A   1      42.252  33.597  32.669  1.00  0.00     0.037 A 
BRANCH  47  61
ATOM     61  C   UNL A   1      45.815  28.612  31.872  1.00  0.00     0.057 A 
ATOM     62  C   UNL A   1      46.896  28.728  30.987  1.00  0.00     0.134 A 
ATOM     63  C   UNL A   1      46.011  27.859  33.036  1.00  0.00     0.134 A 
ATOM     64  F   UNL A   1      46.769  29.425  29.847  1.00  0.00    -0.206 F 
ATOM     65  C   UNL A   1      48.116  28.098  31.237  1.00  0.00     0.040 A 
ATOM     66  C   UNL A   1      47.235  27.246  33.310  1.00  0.00     0.040 A 
ATOM     67  F   UNL A   1      45.021  27.712  33.928  1.00  0.00    -0.206 F 
ATOM     68  C   UNL A   1      48.290  27.359  32.405  1.00  0.00     0.006 A 
ENDBRANCH  47  61
BRANCH  48  69
ATOM     69  C   UNL A   1      36.848  32.634  30.124  1.00  0.00     0.057 A 
ATOM     70  C   UNL A   1      36.634  33.512  29.055  1.00  0.00     0.134 A 
ATOM     71  C   UNL A   1      35.760  32.356  30.959  1.00  0.00     0.134 A 
ATOM     72  F   UNL A   1      37.642  33.831  28.231  1.00  0.00    -0.206 F 
ATOM     73  C   UNL A   1      35.391  34.108  28.837  1.00  0.00     0.040 A 
ATOM     74  C   UNL A   1      34.506  32.926  30.738  1.00  0.00     0.040 A 
ATOM     75  F   UNL A   1      35.899  31.516  31.996  1.00  0.00    -0.206 F 
ATOM     76  C   UNL A   1      34.321  33.812  29.678  1.00  0.00     0.006 A 
ENDBRANCH  48  69
BRANCH  60  77
ATOM     77  C   UNL A   1      42.584  34.892  33.352  1.00  0.00     0.057 A 
ATOM     78  C   UNL A   1      43.177  35.960  32.666  1.00  0.00     0.134 A 
ATOM     79  C   UNL A   1      42.276  35.083  34.705  1.00  0.00     0.134 A 
ATOM     80  F   UNL A   1      43.509  35.836  31.372  1.00  0.00    -0.206 F 
ATOM     81  C   UNL A   1      43.477  37.161  33.309  1.00  0.00     0.040 A 
ATOM     82  C   UNL A   1      42.547  36.290  35.351  1.00  0.00     0.040 A 
ATOM     83  F   UNL A   1      41.699  34.104  35.417  1.00  0.00    -0.206 F 
ATOM     84  C   UNL A   1      43.157  37.330  34.654  1.00  0.00     0.006 A 
ENDBRANCH  60  77
ENDBRANCH  34  35
ENDBRANCH  26  29
ENDBRANCH  24  25
ENDBRANCH  23  24
ENDBRANCH   1  23
TORSDOF 13
ENDMDL
