MODEL 1
REMARK VINA RESULT:     -12.8      0.000      0.000
REMARK SMILES Cc1ncccc1NC(=O)Nc1ccc(C(=O)NCCCCNC(=O)c2ccc(-c3c4nc(c(-c5c(F)cccc5F)c5ccc([nH]5)c(-c5c(F)cccc5F)c5nc(c(-c6c(F)cccc6F)c6ccc3[nH]6)C=C5)C=C4)cc2)c(O)c1
REMARK SMILES IDX 20 1 19 2 18 3 16 4 17 5 15 7 12 8 13 9 82 10 14 11 80 12
REMARK SMILES IDX 11 13 8 14 9 15 10 17 7 19 1 20 2 21 3 22 4 23 6 24 5 25
REMARK SMILES IDX 81 26 21 28 22 29 23 30 24 31 25 33 26 34 27 35 79 36 28 37
REMARK SMILES IDX 78 38 29 39 30 40 31 41 72 42 32 43 77 44 71 45 73 46 33 47
REMARK SMILES IDX 76 48 70 49 69 50 34 52 60 53 43 54 59 55 44 56 47 57 58 58
REMARK SMILES IDX 74 59 45 60 46 61 57 63 75 64 48 65 35 66 36 67 41 68 37 69
REMARK SMILES IDX 38 70 40 71 42 72 39 73 61 74 62 75 67 76 63 77 64 78 66 79
REMARK SMILES IDX 68 80 65 81 49 82 50 83 55 84 51 85 52 86 54 87 56 88 53 89
REMARK H PARENT 18 6 8 16 11 18 81 27 23 32 73 51 47 62
REMARK Flexibility Score: inf
ROOT
ATOM      1  C   UNL A   1      31.696  30.405  26.303  1.00  0.00     0.023 C 
ENDROOT
BRANCH   1   2
ATOM      2  C   UNL A   1      33.124  29.888  26.127  1.00  0.00     0.116 C 
BRANCH   2   3
ATOM      3  N   UNL A   1      33.534  29.664  24.748  1.00  0.00    -0.352 N 
ATOM      4  C   UNL A   1      33.319  28.587  23.913  1.00  0.00     0.255 C 
ATOM      5  O   UNL A   1      33.720  28.652  22.753  1.00  0.00    -0.269 OA
ATOM      6  H   UNL A   1      34.047  30.401  24.345  1.00  0.00     0.163 HD
BRANCH   4   7
ATOM      7  C   UNL A   1      32.707  27.328  24.404  1.00  0.00     0.081 A 
ATOM      8  C   UNL A   1      31.480  25.335  25.927  1.00  0.00     0.046 A 
ATOM      9  C   UNL A   1      32.843  25.581  26.084  1.00  0.00     0.027 A 
ATOM     10  C   UNL A   1      30.810  25.890  24.834  1.00  0.00     0.073 A 
ATOM     11  C   UNL A   1      33.451  26.597  25.340  1.00  0.00     0.020 A 
ATOM     12  C   UNL A   1      31.432  26.873  24.064  1.00  0.00     0.130 A 
BRANCH   8  13
ATOM     13  N   UNL A   1      30.715  24.617  26.858  1.00  0.00    -0.308 N 
ATOM     14  N   UNL A   1      30.903  22.301  26.262  1.00  0.00    -0.306 N 
ATOM     15  C   UNL A   1      30.311  23.327  26.917  1.00  0.00     0.323 C 
ATOM     16  H   UNL A   1      30.307  21.525  26.150  1.00  0.00     0.171 HD
ATOM     17  O   UNL A   1      29.336  23.061  27.626  1.00  0.00    -0.248 OA
ATOM     18  H   UNL A   1      30.413  25.159  27.623  1.00  0.00     0.171 HD
BRANCH  14  19
ATOM     19  C   UNL A   1      32.186  22.092  25.705  1.00  0.00     0.064 A 
ATOM     20  C   UNL A   1      33.331  22.203  28.001  1.00  0.00     0.069 C 
ATOM     21  C   UNL A   1      33.313  21.925  26.526  1.00  0.00     0.061 A 
ATOM     22  N   UNL A   1      34.521  21.520  26.041  1.00  0.00    -0.259 NA
ATOM     23  C   UNL A   1      34.637  21.327  24.712  1.00  0.00     0.111 A 
ATOM     24  C   UNL A   1      32.399  22.030  24.326  1.00  0.00     0.030 A 
ATOM     25  C   UNL A   1      33.627  21.608  23.819  1.00  0.00     0.022 A 
ENDBRANCH  14  19
ENDBRANCH   8  13
BRANCH  12  26
ATOM     26  O   UNL A   1      30.712  27.359  23.010  1.00  0.00    -0.507 OA
ATOM     27  H   UNL A   1      31.150  27.618  22.223  1.00  0.00     0.293 HD
ENDBRANCH  12  26
ENDBRANCH   4   7
ENDBRANCH   2   3
ENDBRANCH   1   2
BRANCH   1  28
ATOM     28  C   UNL A   1      31.524  31.903  26.554  1.00  0.00     0.023 C 
BRANCH  28  29
ATOM     29  C   UNL A   1      32.673  32.626  27.251  1.00  0.00     0.116 C 
BRANCH  29  30
ATOM     30  N   UNL A   1      32.371  33.996  27.626  1.00  0.00    -0.352 N 
ATOM     31  C   UNL A   1      32.995  34.839  28.521  1.00  0.00     0.251 C 
ATOM     32  H   UNL A   1      31.592  34.387  27.167  1.00  0.00     0.163 HD
ATOM     33  O   UNL A   1      32.528  35.949  28.732  1.00  0.00    -0.269 OA
BRANCH  31  34
ATOM     34  C   UNL A   1      34.198  34.397  29.270  1.00  0.00     0.039 A 
ATOM     35  C   UNL A   1      34.021  33.812  30.527  1.00  0.00     0.014 A 
ATOM     36  C   UNL A   1      35.486  34.550  28.754  1.00  0.00     0.014 A 
ATOM     37  C   UNL A   1      35.120  33.291  31.218  1.00  0.00     0.010 A 
ATOM     38  C   UNL A   1      36.570  33.960  29.404  1.00  0.00     0.010 A 
ATOM     39  C   UNL A   1      36.398  33.312  30.637  1.00  0.00    -0.014 A 
BRANCH  39  40
ATOM     40  C   UNL A   1      37.557  32.641  31.286  1.00  0.00     0.031 A 
ATOM     41  C   UNL A   1      38.242  31.482  30.615  1.00  0.00     0.074 A 
ATOM     42  C   UNL A   1      37.943  33.020  32.522  1.00  0.00     0.049 A 
ATOM     43  N   UNL A   1      39.197  30.709  31.068  1.00  0.00    -0.248 NA
ATOM     44  C   UNL A   1      37.772  31.127  29.266  1.00  0.00     0.031 C 
ATOM     45  C   UNL A   1      37.331  34.093  33.309  1.00  0.00     0.029 A 
ATOM     46  N   UNL A   1      38.931  32.533  33.341  1.00  0.00    -0.354 N 
ATOM     47  C   UNL A   1      39.424  29.764  30.075  1.00  0.00     0.074 A 
ATOM     48  C   UNL A   1      38.479  30.034  29.013  1.00  0.00     0.031 C 
ATOM     49  C   UNL A   1      37.969  34.194  34.487  1.00  0.00     0.029 A 
ATOM     50  C   UNL A   1      39.006  33.170  34.556  1.00  0.00     0.049 A 
ATOM     51  H   UNL A   1      39.531  31.796  33.081  1.00  0.00     0.167 HD
ATOM     52  C   UNL A   1      40.349  28.776  30.042  1.00  0.00     0.037 A 
ATOM     53  C   UNL A   1      39.809  32.947  35.615  1.00  0.00     0.037 A 
ATOM     54  C   UNL A   1      41.315  28.528  31.080  1.00  0.00     0.049 A 
ATOM     55  C   UNL A   1      40.836  31.852  35.545  1.00  0.00     0.074 A 
ATOM     56  C   UNL A   1      42.337  27.595  31.101  1.00  0.00     0.029 A 
ATOM     57  N   UNL A   1      41.379  29.221  32.279  1.00  0.00    -0.354 N 
ATOM     58  N   UNL A   1      41.084  31.012  34.570  1.00  0.00    -0.248 NA
ATOM     59  C   UNL A   1      41.702  31.678  36.722  1.00  0.00     0.031 C 
ATOM     60  C   UNL A   1      42.997  27.696  32.330  1.00  0.00     0.029 A 
ATOM     61  C   UNL A   1      42.414  28.723  33.055  1.00  0.00     0.049 A 
ATOM     62  H   UNL A   1      40.781  29.957  32.540  1.00  0.00     0.167 HD
ATOM     63  C   UNL A   1      42.148  30.231  35.002  1.00  0.00     0.074 A 
ATOM     64  C   UNL A   1      42.509  30.705  36.322  1.00  0.00     0.031 C 
ATOM     65  C   UNL A   1      42.771  29.212  34.361  1.00  0.00     0.037 A 
BRANCH  52  66
ATOM     66  C   UNL A   1      40.367  27.885  28.833  1.00  0.00     0.057 A 
ATOM     67  C   UNL A   1      41.131  28.192  27.701  1.00  0.00     0.134 A 
ATOM     68  C   UNL A   1      39.649  26.682  28.821  1.00  0.00     0.134 A 
ATOM     69  F   UNL A   1      41.833  29.335  27.646  1.00  0.00    -0.206 F 
ATOM     70  C   UNL A   1      41.163  27.350  26.589  1.00  0.00     0.040 A 
ATOM     71  C   UNL A   1      39.693  25.818  27.726  1.00  0.00     0.040 A 
ATOM     72  F   UNL A   1      38.903  26.322  29.876  1.00  0.00    -0.206 F 
ATOM     73  C   UNL A   1      40.446  26.154  26.603  1.00  0.00     0.006 A 
ENDBRANCH  52  66
BRANCH  53  74
ATOM     74  C   UNL A   1      39.690  33.792  36.831  1.00  0.00     0.057 A 
ATOM     75  C   UNL A   1      38.879  33.401  37.902  1.00  0.00     0.134 A 
ATOM     76  C   UNL A   1      40.368  35.010  36.945  1.00  0.00     0.134 A 
ATOM     77  F   UNL A   1      38.189  32.253  37.842  1.00  0.00    -0.206 F 
ATOM     78  C   UNL A   1      38.728  34.201  39.035  1.00  0.00     0.040 A 
ATOM     79  C   UNL A   1      40.246  35.810  38.083  1.00  0.00     0.040 A 
ATOM     80  F   UNL A   1      41.167  35.437  35.956  1.00  0.00    -0.206 F 
ATOM     81  C   UNL A   1      39.417  35.409  39.129  1.00  0.00     0.006 A 
ENDBRANCH  53  74
BRANCH  65  82
ATOM     82  C   UNL A   1      43.933  28.568  35.059  1.00  0.00     0.057 A 
ATOM     83  C   UNL A   1      43.775  27.433  35.862  1.00  0.00     0.134 A 
ATOM     84  C   UNL A   1      45.230  29.068  34.889  1.00  0.00     0.134 A 
ATOM     85  F   UNL A   1      42.556  26.913  36.076  1.00  0.00    -0.206 F 
ATOM     86  C   UNL A   1      44.865  26.827  36.489  1.00  0.00     0.040 A 
ATOM     87  C   UNL A   1      46.331  28.456  35.490  1.00  0.00     0.040 A 
ATOM     88  F   UNL A   1      45.450  30.149  34.125  1.00  0.00    -0.206 F 
ATOM     89  C   UNL A   1      46.149  27.335  36.297  1.00  0.00     0.006 A 
ENDBRANCH  65  82
ENDBRANCH  39  40
ENDBRANCH  31  34
ENDBRANCH  29  30
ENDBRANCH  28  29
ENDBRANCH   1  28
TORSDOF 14
ENDMDL
MODEL 2
REMARK VINA RESULT:     -12.7      0.728      6.182
REMARK SMILES Cc1ncccc1NC(=O)Nc1ccc(C(=O)NCCCCNC(=O)c2ccc(-c3c4nc(c(-c5c(F)cccc5F)c5ccc([nH]5)c(-c5c(F)cccc5F)c5nc(c(-c6c(F)cccc6F)c6ccc3[nH]6)C=C5)C=C4)cc2)c(O)c1
REMARK SMILES IDX 20 1 19 2 18 3 16 4 17 5 15 7 12 8 13 9 82 10 14 11 80 12
REMARK SMILES IDX 11 13 8 14 9 15 10 17 7 19 1 20 2 21 3 22 4 23 6 24 5 25
REMARK SMILES IDX 81 26 21 28 22 29 23 30 24 31 25 33 26 34 27 35 79 36 28 37
REMARK SMILES IDX 78 38 29 39 30 40 31 41 72 42 32 43 77 44 71 45 73 46 33 47
REMARK SMILES IDX 76 48 70 49 69 50 34 52 60 53 43 54 59 55 44 56 47 57 58 58
REMARK SMILES IDX 74 59 45 60 46 61 57 63 75 64 48 65 35 66 36 67 41 68 37 69
REMARK SMILES IDX 38 70 40 71 42 72 39 73 61 74 62 75 67 76 63 77 64 78 66 79
REMARK SMILES IDX 68 80 65 81 49 82 50 83 55 84 51 85 52 86 54 87 56 88 53 89
REMARK H PARENT 18 6 8 16 11 18 81 27 23 32 73 51 47 62
REMARK Flexibility Score: inf
ROOT
ATOM      1  C   UNL A   1      31.569  30.540  25.961  1.00  0.00     0.023 C 
ENDROOT
BRANCH   1   2
ATOM      2  C   UNL A   1      32.963  29.935  26.121  1.00  0.00     0.116 C 
BRANCH   2   3
ATOM      3  N   UNL A   1      33.660  29.650  24.876  1.00  0.00    -0.352 N 
ATOM      4  C   UNL A   1      33.661  28.518  24.088  1.00  0.00     0.255 C 
ATOM      5  O   UNL A   1      34.294  28.532  23.035  1.00  0.00    -0.269 OA
ATOM      6  H   UNL A   1      34.221  30.386  24.540  1.00  0.00     0.163 HD
BRANCH   4   7
ATOM      7  C   UNL A   1      33.002  27.262  24.525  1.00  0.00     0.081 A 
ATOM      8  C   UNL A   1      31.721  25.244  25.969  1.00  0.00     0.046 A 
ATOM      9  C   UNL A   1      33.099  25.415  26.097  1.00  0.00     0.027 A 
ATOM     10  C   UNL A   1      31.050  25.893  24.930  1.00  0.00     0.073 A 
ATOM     11  C   UNL A   1      33.735  26.442  25.395  1.00  0.00     0.020 A 
ATOM     12  C   UNL A   1      31.697  26.889  24.199  1.00  0.00     0.130 A 
BRANCH   8  13
ATOM     13  N   UNL A   1      30.949  24.509  26.881  1.00  0.00    -0.308 N 
ATOM     14  N   UNL A   1      31.111  22.208  26.222  1.00  0.00    -0.306 N 
ATOM     15  C   UNL A   1      30.530  23.223  26.904  1.00  0.00     0.323 C 
ATOM     16  H   UNL A   1      30.506  21.443  26.089  1.00  0.00     0.171 HD
ATOM     17  O   UNL A   1      29.552  22.949  27.607  1.00  0.00    -0.248 OA
ATOM     18  H   UNL A   1      30.653  25.034  27.660  1.00  0.00     0.171 HD
BRANCH  14  19
ATOM     19  C   UNL A   1      32.391  22.000  25.659  1.00  0.00     0.064 A 
ATOM     20  C   UNL A   1      31.570  22.563  23.291  1.00  0.00     0.069 C 
ATOM     21  C   UNL A   1      32.640  22.282  24.305  1.00  0.00     0.061 A 
ATOM     22  N   UNL A   1      33.897  22.293  23.777  1.00  0.00    -0.259 NA
ATOM     23  C   UNL A   1      34.925  21.967  24.584  1.00  0.00     0.111 A 
ATOM     24  C   UNL A   1      33.467  21.522  26.409  1.00  0.00     0.030 A 
ATOM     25  C   UNL A   1      34.758  21.537  25.883  1.00  0.00     0.022 A 
ENDBRANCH  14  19
ENDBRANCH   8  13
BRANCH  12  26
ATOM     26  O   UNL A   1      30.973  27.469  23.197  1.00  0.00    -0.507 OA
ATOM     27  H   UNL A   1      30.987  27.102  22.335  1.00  0.00     0.293 HD
ENDBRANCH  12  26
ENDBRANCH   4   7
ENDBRANCH   2   3
ENDBRANCH   1   2
BRANCH   1  28
ATOM     28  C   UNL A   1      31.351  31.946  26.519  1.00  0.00     0.023 C 
BRANCH  28  29
ATOM     29  C   UNL A   1      32.569  32.657  27.102  1.00  0.00     0.116 C 
BRANCH  29  30
ATOM     30  N   UNL A   1      32.307  34.014  27.549  1.00  0.00    -0.352 N 
ATOM     31  C   UNL A   1      32.961  34.794  28.479  1.00  0.00     0.251 C 
ATOM     32  H   UNL A   1      31.536  34.448  27.118  1.00  0.00     0.163 HD
ATOM     33  O   UNL A   1      32.526  35.903  28.750  1.00  0.00    -0.269 OA
BRANCH  31  34
ATOM     34  C   UNL A   1      34.158  34.283  29.193  1.00  0.00     0.039 A 
ATOM     35  C   UNL A   1      33.968  33.524  30.352  1.00  0.00     0.014 A 
ATOM     36  C   UNL A   1      35.453  34.539  28.739  1.00  0.00     0.014 A 
ATOM     37  C   UNL A   1      35.064  32.941  30.995  1.00  0.00     0.010 A 
ATOM     38  C   UNL A   1      36.538  33.891  29.332  1.00  0.00     0.010 A 
ATOM     39  C   UNL A   1      36.355  33.075  30.459  1.00  0.00    -0.014 A 
BRANCH  39  40
ATOM     40  C   UNL A   1      37.517  32.350  31.041  1.00  0.00     0.031 A 
ATOM     41  C   UNL A   1      38.179  32.851  32.295  1.00  0.00     0.074 A 
ATOM     42  C   UNL A   1      38.033  31.286  30.392  1.00  0.00     0.049 A 
ATOM     43  N   UNL A   1      39.261  32.415  32.891  1.00  0.00    -0.248 NA
ATOM     44  C   UNL A   1      37.559  34.014  32.952  1.00  0.00     0.031 C 
ATOM     45  C   UNL A   1      37.523  30.727  29.138  1.00  0.00     0.029 A 
ATOM     46  N   UNL A   1      39.115  30.493  30.690  1.00  0.00    -0.354 N 
ATOM     47  C   UNL A   1      39.464  33.262  33.974  1.00  0.00     0.074 A 
ATOM     48  C   UNL A   1      38.420  34.262  33.929  1.00  0.00     0.031 C 
ATOM     49  C   UNL A   1      38.279  29.675  28.785  1.00  0.00     0.029 A 
ATOM     50  C   UNL A   1      39.349  29.507  29.762  1.00  0.00     0.049 A 
ATOM     51  H   UNL A   1      39.670  30.620  31.493  1.00  0.00     0.167 HD
ATOM     52  C   UNL A   1      40.421  33.200  34.930  1.00  0.00     0.037 A 
ATOM     53  C   UNL A   1      40.323  28.578  29.697  1.00  0.00     0.037 A 
ATOM     54  C   UNL A   1      41.440  32.185  34.998  1.00  0.00     0.049 A 
ATOM     55  C   UNL A   1      41.364  28.523  30.780  1.00  0.00     0.074 A 
ATOM     56  C   UNL A   1      42.407  32.000  35.970  1.00  0.00     0.029 A 
ATOM     57  N   UNL A   1      41.618  31.181  34.059  1.00  0.00    -0.354 N 
ATOM     58  N   UNL A   1      41.502  29.289  31.834  1.00  0.00    -0.248 NA
ATOM     59  C   UNL A   1      42.384  27.469  30.667  1.00  0.00     0.031 C 
ATOM     60  C   UNL A   1      43.198  30.907  35.600  1.00  0.00     0.029 A 
ATOM     61  C   UNL A   1      42.692  30.384  34.420  1.00  0.00     0.049 A 
ATOM     62  H   UNL A   1      41.064  31.054  33.256  1.00  0.00     0.167 HD
ATOM     63  C   UNL A   1      42.601  28.794  32.523  1.00  0.00     0.074 A 
ATOM     64  C   UNL A   1      43.088  27.653  31.775  1.00  0.00     0.031 C 
ATOM     65  C   UNL A   1      43.158  29.244  33.673  1.00  0.00     0.037 A 
BRANCH  52  66
ATOM     66  C   UNL A   1      40.410  34.262  35.991  1.00  0.00     0.057 A 
ATOM     67  C   UNL A   1      41.123  35.459  35.846  1.00  0.00     0.134 A 
ATOM     68  C   UNL A   1      39.641  34.104  37.152  1.00  0.00     0.134 A 
ATOM     69  F   UNL A   1      41.887  35.666  34.763  1.00  0.00    -0.206 F 
ATOM     70  C   UNL A   1      41.091  36.451  36.826  1.00  0.00     0.040 A 
ATOM     71  C   UNL A   1      39.581  35.101  38.127  1.00  0.00     0.040 A 
ATOM     72  F   UNL A   1      38.928  32.986  37.351  1.00  0.00    -0.206 F 
ATOM     73  C   UNL A   1      40.312  36.276  37.969  1.00  0.00     0.006 A 
ENDBRANCH  52  66
BRANCH  53  74
ATOM     74  C   UNL A   1      40.352  27.607  28.574  1.00  0.00     0.057 A 
ATOM     75  C   UNL A   1      39.636  26.406  28.642  1.00  0.00     0.134 A 
ATOM     76  C   UNL A   1      41.105  27.846  27.420  1.00  0.00     0.134 A 
ATOM     77  F   UNL A   1      38.913  26.112  29.731  1.00  0.00    -0.206 F 
ATOM     78  C   UNL A   1      39.684  25.467  27.611  1.00  0.00     0.040 A 
ATOM     79  C   UNL A   1      41.144  26.926  26.369  1.00  0.00     0.040 A 
ATOM     80  F   UNL A   1      41.807  28.982  27.291  1.00  0.00    -0.206 F 
ATOM     81  C   UNL A   1      40.438  25.729  26.468  1.00  0.00     0.006 A 
ENDBRANCH  53  74
BRANCH  65  82
ATOM     82  C   UNL A   1      44.329  28.480  34.217  1.00  0.00     0.057 A 
ATOM     83  C   UNL A   1      45.649  28.834  33.912  1.00  0.00     0.134 A 
ATOM     84  C   UNL A   1      44.131  27.402  35.090  1.00  0.00     0.134 A 
ATOM     85  F   UNL A   1      45.905  29.848  33.072  1.00  0.00    -0.206 F 
ATOM     86  C   UNL A   1      46.732  28.130  34.442  1.00  0.00     0.040 A 
ATOM     87  C   UNL A   1      45.207  26.707  35.645  1.00  0.00     0.040 A 
ATOM     88  F   UNL A   1      42.891  27.018  35.428  1.00  0.00    -0.206 F 
ATOM     89  C   UNL A   1      46.512  27.068  35.316  1.00  0.00     0.006 A 
ENDBRANCH  65  82
ENDBRANCH  39  40
ENDBRANCH  31  34
ENDBRANCH  29  30
ENDBRANCH  28  29
ENDBRANCH   1  28
TORSDOF 14
ENDMDL
MODEL 3
REMARK VINA RESULT:     -12.6      0.743      6.156
REMARK SMILES Cc1ncccc1NC(=O)Nc1ccc(C(=O)NCCCCNC(=O)c2ccc(-c3c4nc(c(-c5c(F)cccc5F)c5ccc([nH]5)c(-c5c(F)cccc5F)c5nc(c(-c6c(F)cccc6F)c6ccc3[nH]6)C=C5)C=C4)cc2)c(O)c1
REMARK SMILES IDX 20 1 19 2 18 3 16 4 17 5 15 7 12 8 13 9 82 10 14 11 80 12
REMARK SMILES IDX 11 13 8 14 9 15 10 17 7 19 1 20 2 21 3 22 4 23 6 24 5 25
REMARK SMILES IDX 81 26 21 28 22 29 23 30 24 31 25 33 26 34 27 35 79 36 28 37
REMARK SMILES IDX 78 38 29 39 30 40 31 41 72 42 32 43 77 44 71 45 73 46 33 47
REMARK SMILES IDX 76 48 70 49 69 50 34 52 60 53 43 54 59 55 44 56 47 57 58 58
REMARK SMILES IDX 74 59 45 60 46 61 57 63 75 64 48 65 35 66 36 67 41 68 37 69
REMARK SMILES IDX 38 70 40 71 42 72 39 73 61 74 62 75 67 76 63 77 64 78 66 79
REMARK SMILES IDX 68 80 65 81 49 82 50 83 55 84 51 85 52 86 54 87 56 88 53 89
REMARK H PARENT 18 6 8 16 11 18 81 27 23 32 73 51 47 62
REMARK Flexibility Score: inf
ROOT
ATOM      1  C   UNL A   1      31.474  30.596  26.086  1.00  0.00     0.023 C 
ENDROOT
BRANCH   1   2
ATOM      2  C   UNL A   1      32.862  29.966  25.974  1.00  0.00     0.116 C 
BRANCH   2   3
ATOM      3  N   UNL A   1      33.319  29.717  24.615  1.00  0.00    -0.352 N 
ATOM      4  C   UNL A   1      33.175  28.606  23.810  1.00  0.00     0.255 C 
ATOM      5  O   UNL A   1      33.604  28.651  22.660  1.00  0.00    -0.269 OA
ATOM      6  H   UNL A   1      33.811  30.463  24.202  1.00  0.00     0.163 HD
BRANCH   4   7
ATOM      7  C   UNL A   1      32.604  27.336  24.325  1.00  0.00     0.081 A 
ATOM      8  C   UNL A   1      31.455  25.331  25.892  1.00  0.00     0.046 A 
ATOM      9  C   UNL A   1      32.813  25.614  26.023  1.00  0.00     0.027 A 
ATOM     10  C   UNL A   1      30.753  25.855  24.804  1.00  0.00     0.073 A 
ATOM     11  C   UNL A   1      33.382  26.636  25.258  1.00  0.00     0.020 A 
ATOM     12  C   UNL A   1      31.336  26.845  24.013  1.00  0.00     0.130 A 
BRANCH   8  13
ATOM     13  N   UNL A   1      30.725  24.604  26.844  1.00  0.00    -0.308 N 
ATOM     14  N   UNL A   1      30.906  22.292  26.231  1.00  0.00    -0.306 N 
ATOM     15  C   UNL A   1      30.330  23.312  26.910  1.00  0.00     0.323 C 
ATOM     16  H   UNL A   1      30.310  21.514  26.135  1.00  0.00     0.171 HD
ATOM     17  O   UNL A   1      29.379  23.037  27.649  1.00  0.00    -0.248 OA
ATOM     18  H   UNL A   1      30.445  25.141  27.621  1.00  0.00     0.171 HD
BRANCH  14  19
ATOM     19  C   UNL A   1      32.170  22.093  25.631  1.00  0.00     0.064 A 
ATOM     20  C   UNL A   1      33.385  22.156  27.894  1.00  0.00     0.069 C 
ATOM     21  C   UNL A   1      33.322  21.908  26.415  1.00  0.00     0.061 A 
ATOM     22  N   UNL A   1      34.514  21.511  25.885  1.00  0.00    -0.259 NA
ATOM     23  C   UNL A   1      34.590  21.345  24.550  1.00  0.00     0.111 A 
ATOM     24  C   UNL A   1      32.342  22.058  24.246  1.00  0.00     0.030 A 
ATOM     25  C   UNL A   1      33.553  21.645  23.693  1.00  0.00     0.022 A 
ENDBRANCH  14  19
ENDBRANCH   8  13
BRANCH  12  26
ATOM     26  O   UNL A   1      30.586  27.299  22.965  1.00  0.00    -0.507 OA
ATOM     27  H   UNL A   1      30.703  28.174  22.650  1.00  0.00     0.293 HD
ENDBRANCH  12  26
ENDBRANCH   4   7
ENDBRANCH   2   3
ENDBRANCH   1   2
BRANCH   1  28
ATOM     28  C   UNL A   1      31.406  32.055  26.536  1.00  0.00     0.023 C 
BRANCH  28  29
ATOM     29  C   UNL A   1      32.633  32.620  27.246  1.00  0.00     0.116 C 
BRANCH  29  30
ATOM     30  N   UNL A   1      32.492  34.003  27.664  1.00  0.00    -0.352 N 
ATOM     31  C   UNL A   1      33.226  34.748  28.563  1.00  0.00     0.251 C 
ATOM     32  H   UNL A   1      31.751  34.490  27.236  1.00  0.00     0.163 HD
ATOM     33  O   UNL A   1      32.889  35.896  28.814  1.00  0.00    -0.269 OA
BRANCH  31  34
ATOM     34  C   UNL A   1      34.391  34.156  29.268  1.00  0.00     0.039 A 
ATOM     35  C   UNL A   1      34.151  33.331  30.372  1.00  0.00     0.014 A 
ATOM     36  C   UNL A   1      35.703  34.401  28.860  1.00  0.00     0.014 A 
ATOM     37  C   UNL A   1      35.215  32.675  30.999  1.00  0.00     0.010 A 
ATOM     38  C   UNL A   1      36.754  33.684  29.433  1.00  0.00     0.010 A 
ATOM     39  C   UNL A   1      36.521  32.803  30.501  1.00  0.00    -0.014 A 
BRANCH  39  40
ATOM     40  C   UNL A   1      37.648  32.007  31.060  1.00  0.00     0.031 A 
ATOM     41  C   UNL A   1      38.170  32.290  32.442  1.00  0.00     0.074 A 
ATOM     42  C   UNL A   1      38.260  31.084  30.290  1.00  0.00     0.049 A 
ATOM     43  N   UNL A   1      39.205  31.775  33.057  1.00  0.00    -0.248 NA
ATOM     44  C   UNL A   1      37.450  33.307  33.226  1.00  0.00     0.031 C 
ATOM     45  C   UNL A   1      37.890  30.747  28.913  1.00  0.00     0.029 A 
ATOM     46  N   UNL A   1      39.335  30.271  30.551  1.00  0.00    -0.354 N 
ATOM     47  C   UNL A   1      39.275  32.420  34.285  1.00  0.00     0.074 A 
ATOM     48  C   UNL A   1      38.205  33.394  34.312  1.00  0.00     0.031 C 
ATOM     49  C   UNL A   1      38.712  29.788  28.459  1.00  0.00     0.029 A 
ATOM     50  C   UNL A   1      39.690  29.469  29.493  1.00  0.00     0.049 A 
ATOM     51  H   UNL A   1      39.808  30.263  31.415  1.00  0.00     0.167 HD
ATOM     52  C   UNL A   1      40.139  32.207  35.306  1.00  0.00     0.037 A 
ATOM     53  C   UNL A   1      40.698  28.584  29.364  1.00  0.00     0.037 A 
ATOM     54  C   UNL A   1      41.182  31.214  35.297  1.00  0.00     0.049 A 
ATOM     55  C   UNL A   1      41.634  28.356  30.518  1.00  0.00     0.074 A 
ATOM     56  C   UNL A   1      42.059  30.876  36.313  1.00  0.00     0.029 A 
ATOM     57  N   UNL A   1      41.483  30.396  34.219  1.00  0.00    -0.354 N 
ATOM     58  N   UNL A   1      41.644  28.926  31.698  1.00  0.00    -0.248 NA
ATOM     59  C   UNL A   1      42.696  27.357  30.324  1.00  0.00     0.031 C 
ATOM     60  C   UNL A   1      42.919  29.880  35.838  1.00  0.00     0.029 A 
ATOM     61  C   UNL A   1      42.546  29.566  34.541  1.00  0.00     0.049 A 
ATOM     62  H   UNL A   1      41.012  30.403  33.355  1.00  0.00     0.167 HD
ATOM     63  C   UNL A   1      42.690  28.336  32.396  1.00  0.00     0.074 A 
ATOM     64  C   UNL A   1      43.285  27.355  31.512  1.00  0.00     0.031 C 
ATOM     65  C   UNL A   1      43.120  28.585  33.657  1.00  0.00     0.037 A 
BRANCH  52  66
ATOM     66  C   UNL A   1      39.991  33.063  36.531  1.00  0.00     0.057 A 
ATOM     67  C   UNL A   1      39.068  32.756  37.538  1.00  0.00     0.134 A 
ATOM     68  C   UNL A   1      40.813  34.181  36.725  1.00  0.00     0.134 A 
ATOM     69  F   UNL A   1      38.244  31.705  37.407  1.00  0.00    -0.206 F 
ATOM     70  C   UNL A   1      38.950  33.543  38.685  1.00  0.00     0.040 A 
ATOM     71  C   UNL A   1      40.722  34.960  37.880  1.00  0.00     0.040 A 
ATOM     72  F   UNL A   1      41.723  34.527  35.803  1.00  0.00    -0.206 F 
ATOM     73  C   UNL A   1      39.784  34.646  38.860  1.00  0.00     0.006 A 
ENDBRANCH  52  66
BRANCH  53  74
ATOM     74  C   UNL A   1      40.868  27.828  28.097  1.00  0.00     0.057 A 
ATOM     75  C   UNL A   1      40.285  26.566  27.928  1.00  0.00     0.134 A 
ATOM     76  C   UNL A   1      41.625  28.337  27.037  1.00  0.00     0.134 A 
ATOM     77  F   UNL A   1      39.564  26.017  28.916  1.00  0.00    -0.206 F 
ATOM     78  C   UNL A   1      40.467  25.828  26.758  1.00  0.00     0.040 A 
ATOM     79  C   UNL A   1      41.796  27.619  25.851  1.00  0.00     0.040 A 
ATOM     80  F   UNL A   1      42.203  29.543  27.134  1.00  0.00    -0.206 F 
ATOM     81  C   UNL A   1      41.222  26.357  25.713  1.00  0.00     0.006 A 
ENDBRANCH  53  74
BRANCH  65  82
ATOM     82  C   UNL A   1      44.260  27.758  34.172  1.00  0.00     0.057 A 
ATOM     83  C   UNL A   1      44.054  26.512  34.777  1.00  0.00     0.134 A 
ATOM     84  C   UNL A   1      45.581  28.196  34.024  1.00  0.00     0.134 A 
ATOM     85  F   UNL A   1      42.811  26.041  34.961  1.00  0.00    -0.206 F 
ATOM     86  C   UNL A   1      45.123  25.738  35.234  1.00  0.00     0.040 A 
ATOM     87  C   UNL A   1      46.660  27.421  34.454  1.00  0.00     0.040 A 
ATOM     88  F   UNL A   1      45.847  29.377  33.446  1.00  0.00    -0.206 F 
ATOM     89  C   UNL A   1      46.430  26.190  35.065  1.00  0.00     0.006 A 
ENDBRANCH  65  82
ENDBRANCH  39  40
ENDBRANCH  31  34
ENDBRANCH  29  30
ENDBRANCH  28  29
ENDBRANCH   1  28
TORSDOF 14
ENDMDL
