MODEL 1
REMARK VINA RESULT:     -11.4      0.000      0.000
REMARK SMILES O=C(NCCCCNC(=O)[C@H](CO)NC(=O)[C@H](CS)NC(=O)[C@H](Cc1ccccc1)NC(=O)c1ccc(F)cc1)c1ccc(-c2c3nc(c(-c4c(F)cccc4F)c4ccc([nH]4)c(-c4c(F)cccc4F)c4nc(c(-c5c(F)cccc5F)c5ccc2[nH]5)C=C4)C=C3)cc1
REMARK SMILES IDX 8 1 9 2 10 3 7 5 6 6 5 7 4 8 3 9 1 10 2 11 41 13 42 14 94 15
REMARK SMILES IDX 43 16 93 17 44 18 45 19 46 20 87 21 47 22 92 23 86 24 88 25
REMARK SMILES IDX 48 26 91 27 85 28 84 29 49 31 75 32 58 33 74 34 59 35 62 36
REMARK SMILES IDX 73 37 89 38 60 39 61 40 72 42 90 43 63 44 50 45 51 46 56 47
REMARK SMILES IDX 52 48 53 49 55 50 57 51 54 52 76 53 77 54 82 55 78 56 79 57
REMARK SMILES IDX 81 58 83 59 80 60 64 61 65 62 70 63 66 64 67 65 69 66 71 67
REMARK SMILES IDX 68 68 11 69 14 70 15 71 16 73 17 74 20 75 21 76 22 78 23 79
REMARK SMILES IDX 31 80 32 81 33 83 34 84 35 85 40 86 36 87 39 88 37 89 38 90
REMARK SMILES IDX 24 91 25 92 26 93 30 94 27 95 29 96 28 97 18 98 19 99 12 101
REMARK SMILES IDX 13 102
REMARK H PARENT 8 4 3 12 88 30 62 41 14 72 20 77 31 82 19 100 13 103
REMARK Flexibility Score: inf
ROOT
ATOM      1  N   UNL A   1      34.901  20.406  25.727  1.00  0.00    -0.354 N 
ATOM      2  C   UNL A   1      33.588  20.693  25.963  1.00  0.00     0.244 C 
ATOM      3  O   UNL A   1      33.334  21.483  26.876  1.00  0.00    -0.273 OA
ATOM      4  H   UNL A   1      35.527  20.730  26.414  1.00  0.00     0.163 HD
ENDROOT
BRANCH   1   5
ATOM      5  C   UNL A   1      35.519  19.698  24.623  1.00  0.00     0.116 C 
BRANCH   5   6
ATOM      6  C   UNL A   1      36.971  19.367  24.962  1.00  0.00     0.023 C 
BRANCH   6   7
ATOM      7  C   UNL A   1      37.895  20.582  24.901  1.00  0.00     0.023 C 
BRANCH   7   8
ATOM      8  C   UNL A   1      38.954  20.615  25.995  1.00  0.00     0.116 C 
BRANCH   8   9
ATOM      9  N   UNL A   1      39.945  19.558  25.849  1.00  0.00    -0.352 N 
ATOM     10  O   UNL A   1      42.037  18.708  25.725  1.00  0.00    -0.269 OA
ATOM     11  C   UNL A   1      41.307  19.637  26.022  1.00  0.00     0.251 C 
ATOM     12  H   UNL A   1      39.596  18.674  25.593  1.00  0.00     0.163 HD
BRANCH  11  13
ATOM     13  C   UNL A   1      41.858  20.894  26.554  1.00  0.00     0.039 A 
ATOM     14  C   UNL A   1      41.884  21.104  27.936  1.00  0.00     0.014 A 
ATOM     15  C   UNL A   1      42.255  21.891  25.663  1.00  0.00     0.014 A 
ATOM     16  C   UNL A   1      42.171  22.369  28.424  1.00  0.00     0.010 A 
ATOM     17  C   UNL A   1      42.624  23.138  26.163  1.00  0.00     0.010 A 
ATOM     18  C   UNL A   1      42.552  23.394  27.543  1.00  0.00    -0.014 A 
BRANCH  18  19
ATOM     19  C   UNL A   1      42.918  24.723  28.082  1.00  0.00     0.031 A 
ATOM     20  C   UNL A   1      41.866  25.751  28.374  1.00  0.00     0.074 A 
ATOM     21  C   UNL A   1      44.218  24.991  28.294  1.00  0.00     0.049 A 
ATOM     22  N   UNL A   1      42.013  26.992  28.761  1.00  0.00    -0.248 NA
ATOM     23  C   UNL A   1      40.464  25.337  28.202  1.00  0.00     0.031 C 
ATOM     24  C   UNL A   1      45.321  24.058  28.051  1.00  0.00     0.029 A 
ATOM     25  N   UNL A   1      44.833  26.122  28.759  1.00  0.00    -0.354 N 
ATOM     26  C   UNL A   1      40.731  27.518  28.847  1.00  0.00     0.074 A 
ATOM     27  C   UNL A   1      39.816  26.465  28.461  1.00  0.00     0.031 C 
ATOM     28  C   UNL A   1      46.476  24.647  28.389  1.00  0.00     0.029 A 
ATOM     29  C   UNL A   1      46.201  26.018  28.803  1.00  0.00     0.049 A 
ATOM     30  H   UNL A   1      44.344  26.930  29.035  1.00  0.00     0.167 HD
ATOM     31  C   UNL A   1      40.358  28.767  29.214  1.00  0.00     0.037 A 
ATOM     32  C   UNL A   1      47.135  26.935  29.107  1.00  0.00     0.037 A 
ATOM     33  C   UNL A   1      41.282  29.800  29.613  1.00  0.00     0.049 A 
ATOM     34  C   UNL A   1      46.699  28.317  29.484  1.00  0.00     0.074 A 
ATOM     35  C   UNL A   1      41.006  31.089  30.032  1.00  0.00     0.029 A 
ATOM     36  N   UNL A   1      42.662  29.657  29.637  1.00  0.00    -0.354 N 
ATOM     37  N   UNL A   1      45.485  28.801  29.569  1.00  0.00    -0.248 NA
ATOM     38  C   UNL A   1      47.760  29.280  29.802  1.00  0.00     0.031 C 
ATOM     39  C   UNL A   1      42.221  31.739  30.273  1.00  0.00     0.029 A 
ATOM     40  C   UNL A   1      43.253  30.841  30.047  1.00  0.00     0.049 A 
ATOM     41  H   UNL A   1      43.149  28.836  29.398  1.00  0.00     0.167 HD
ATOM     42  C   UNL A   1      45.630  30.121  29.967  1.00  0.00     0.074 A 
ATOM     43  C   UNL A   1      47.052  30.357  30.115  1.00  0.00     0.031 C 
ATOM     44  C   UNL A   1      44.671  31.053  30.192  1.00  0.00     0.037 A 
BRANCH  31  45
ATOM     45  C   UNL A   1      38.894  29.096  29.169  1.00  0.00     0.057 A 
ATOM     46  C   UNL A   1      38.077  29.009  30.304  1.00  0.00     0.134 A 
ATOM     47  C   UNL A   1      38.299  29.530  27.978  1.00  0.00     0.134 A 
ATOM     48  F   UNL A   1      38.579  28.586  31.474  1.00  0.00    -0.206 F 
ATOM     49  C   UNL A   1      36.715  29.319  30.248  1.00  0.00     0.040 A 
ATOM     50  C   UNL A   1      36.945  29.865  27.915  1.00  0.00     0.040 A 
ATOM     51  F   UNL A   1      39.025  29.642  26.855  1.00  0.00    -0.206 F 
ATOM     52  C   UNL A   1      36.148  29.754  29.052  1.00  0.00     0.006 A 
ENDBRANCH  31  45
BRANCH  32  53
ATOM     53  C   UNL A   1      48.566  26.556  29.043  1.00  0.00     0.057 A 
ATOM     54  C   UNL A   1      49.347  26.872  27.927  1.00  0.00     0.134 A 
ATOM     55  C   UNL A   1      49.200  25.929  30.124  1.00  0.00     0.134 A 
ATOM     56  F   UNL A   1      48.792  27.464  26.861  1.00  0.00    -0.206 F 
ATOM     57  C   UNL A   1      50.710  26.577  27.887  1.00  0.00     0.040 A 
ATOM     58  C   UNL A   1      50.567  25.650  30.106  1.00  0.00     0.040 A 
ATOM     59  F   UNL A   1      48.505  25.617  31.228  1.00  0.00    -0.206 F 
ATOM     60  C   UNL A   1      51.325  25.973  28.983  1.00  0.00     0.006 A 
ENDBRANCH  32  53
BRANCH  44  61
ATOM     61  C   UNL A   1      45.131  32.401  30.655  1.00  0.00     0.057 A 
ATOM     62  C   UNL A   1      45.494  33.407  29.753  1.00  0.00     0.134 A 
ATOM     63  C   UNL A   1      45.170  32.705  32.022  1.00  0.00     0.134 A 
ATOM     64  F   UNL A   1      45.491  33.171  28.433  1.00  0.00    -0.206 F 
ATOM     65  C   UNL A   1      45.895  34.668  30.195  1.00  0.00     0.040 A 
ATOM     66  C   UNL A   1      45.549  33.968  32.475  1.00  0.00     0.040 A 
ATOM     67  F   UNL A   1      44.830  31.783  32.935  1.00  0.00    -0.206 F 
ATOM     68  C   UNL A   1      45.916  34.953  31.560  1.00  0.00     0.006 A 
ENDBRANCH  44  61
ENDBRANCH  18  19
ENDBRANCH  11  13
ENDBRANCH   8   9
ENDBRANCH   7   8
ENDBRANCH   6   7
ENDBRANCH   5   6
ENDBRANCH   1   5
BRANCH   2  69
ATOM     69  C   UNL A   1      32.474  19.976  25.173  1.00  0.00     0.197 C 
BRANCH  69  70
ATOM     70  N   UNL A   1      32.600  20.336  23.756  1.00  0.00    -0.340 N 
ATOM     71  C   UNL A   1      32.122  21.373  23.024  1.00  0.00     0.244 C 
ATOM     72  H   UNL A   1      33.138  19.698  23.232  1.00  0.00     0.164 HD
ATOM     73  O   UNL A   1      31.936  21.130  21.825  1.00  0.00    -0.273 OA
BRANCH  71  74
ATOM     74  C   UNL A   1      32.068  22.828  23.552  1.00  0.00     0.181 C 
BRANCH  74  75
ATOM     75  N   UNL A   1      30.979  22.909  24.545  1.00  0.00    -0.342 N 
ATOM     76  C   UNL A   1      30.777  23.749  25.594  1.00  0.00     0.243 C 
ATOM     77  H   UNL A   1      30.273  22.233  24.427  1.00  0.00     0.164 HD
ATOM     78  O   UNL A   1      30.217  23.264  26.582  1.00  0.00    -0.273 OA
BRANCH  76  79
ATOM     79  C   UNL A   1      30.991  25.278  25.486  1.00  0.00     0.176 C 
BRANCH  79  80
ATOM     80  N   UNL A   1      29.918  25.976  24.780  1.00  0.00    -0.340 N 
ATOM     81  C   UNL A   1      29.983  26.831  23.712  1.00  0.00     0.251 C 
ATOM     82  H   UNL A   1      29.012  25.807  25.125  1.00  0.00     0.164 HD
ATOM     83  O   UNL A   1      28.943  27.213  23.182  1.00  0.00    -0.269 OA
BRANCH  81  84
ATOM     84  C   UNL A   1      31.279  27.366  23.238  1.00  0.00     0.040 A 
ATOM     85  C   UNL A   1      32.134  26.470  22.581  1.00  0.00     0.017 A 
ATOM     86  C   UNL A   1      31.675  28.693  23.438  1.00  0.00     0.017 A 
ATOM     87  C   UNL A   1      33.356  26.914  22.076  1.00  0.00     0.040 A 
ATOM     88  C   UNL A   1      32.894  29.136  22.920  1.00  0.00     0.040 A 
ATOM     89  C   UNL A   1      33.720  28.246  22.240  1.00  0.00     0.123 A 
ATOM     90  F   UNL A   1      34.885  28.676  21.741  1.00  0.00    -0.207 F 
ENDBRANCH  81  84
ENDBRANCH  79  80
BRANCH  79  91
ATOM     91  C   UNL A   1      31.176  25.855  26.904  1.00  0.00     0.070 C 
BRANCH  91  92
ATOM     92  C   UNL A   1      32.039  27.097  26.888  1.00  0.00    -0.045 A 
ATOM     93  C   UNL A   1      31.523  28.320  27.342  1.00  0.00     0.004 A 
ATOM     94  C   UNL A   1      33.319  27.067  26.319  1.00  0.00     0.004 A 
ATOM     95  C   UNL A   1      32.264  29.493  27.204  1.00  0.00     0.000 A 
ATOM     96  C   UNL A   1      34.057  28.244  26.180  1.00  0.00     0.000 A 
ATOM     97  C   UNL A   1      33.526  29.456  26.617  1.00  0.00     0.000 A 
ENDBRANCH  91  92
ENDBRANCH  79  91
ENDBRANCH  76  79
ENDBRANCH  74  75
BRANCH  74  98
ATOM     98  C   UNL A   1      33.301  23.502  24.163  1.00  0.00     0.101 C 
BRANCH  98  99
ATOM     99  S   UNL A   1      34.847  23.247  23.229  1.00  0.00    -0.177 SA
ATOM    100  H   UNL A   1      35.015  21.920  22.984  1.00  0.00     0.102 HD
ENDBRANCH  98  99
ENDBRANCH  74  98
ENDBRANCH  71  74
ENDBRANCH  69  70
BRANCH  69 101
ATOM    101  C   UNL A   1      32.547  18.442  25.289  1.00  0.00     0.191 C 
BRANCH 101 102
ATOM    102  O   UNL A   1      32.815  18.039  26.633  1.00  0.00    -0.394 OA
ATOM    103  H   UNL A   1      33.275  17.185  26.629  1.00  0.00     0.210 HD
ENDBRANCH 101 102
ENDBRANCH  69 101
ENDBRANCH   2  69
TORSDOF 23
ENDMDL
MODEL 2
REMARK VINA RESULT:     -11.2      2.744      8.320
REMARK SMILES O=C(NCCCCNC(=O)[C@H](CO)NC(=O)[C@H](CS)NC(=O)[C@H](Cc1ccccc1)NC(=O)c1ccc(F)cc1)c1ccc(-c2c3nc(c(-c4c(F)cccc4F)c4ccc([nH]4)c(-c4c(F)cccc4F)c4nc(c(-c5c(F)cccc5F)c5ccc2[nH]5)C=C4)C=C3)cc1
REMARK SMILES IDX 8 1 9 2 10 3 7 5 6 6 5 7 4 8 3 9 1 10 2 11 41 13 42 14 94 15
REMARK SMILES IDX 43 16 93 17 44 18 45 19 46 20 87 21 47 22 92 23 86 24 88 25
REMARK SMILES IDX 48 26 91 27 85 28 84 29 49 31 75 32 58 33 74 34 59 35 62 36
REMARK SMILES IDX 73 37 89 38 60 39 61 40 72 42 90 43 63 44 50 45 51 46 56 47
REMARK SMILES IDX 52 48 53 49 55 50 57 51 54 52 76 53 77 54 82 55 78 56 79 57
REMARK SMILES IDX 81 58 83 59 80 60 64 61 65 62 70 63 66 64 67 65 69 66 71 67
REMARK SMILES IDX 68 68 11 69 14 70 15 71 16 73 17 74 20 75 21 76 22 78 23 79
REMARK SMILES IDX 31 80 32 81 33 83 34 84 35 85 40 86 36 87 39 88 37 89 38 90
REMARK SMILES IDX 24 91 25 92 26 93 30 94 27 95 29 96 28 97 18 98 19 99 12 101
REMARK SMILES IDX 13 102
REMARK H PARENT 8 4 3 12 88 30 62 41 14 72 20 77 31 82 19 100 13 103
REMARK Flexibility Score: inf
ROOT
ATOM      1  N   UNL A   1      32.717  29.697  24.186  1.00  0.00    -0.354 N 
ATOM      2  C   UNL A   1      32.948  28.625  23.375  1.00  0.00     0.244 C 
ATOM      3  O   UNL A   1      33.766  28.766  22.463  1.00  0.00    -0.273 OA
ATOM      4  H   UNL A   1      33.105  30.546  23.871  1.00  0.00     0.163 HD
ENDROOT
BRANCH   1   5
ATOM      5  C   UNL A   1      31.990  29.785  25.436  1.00  0.00     0.116 C 
BRANCH   5   6
ATOM      6  C   UNL A   1      32.937  30.188  26.565  1.00  0.00     0.023 C 
BRANCH   6   7
ATOM      7  C   UNL A   1      33.685  29.002  27.174  1.00  0.00     0.023 C 
BRANCH   7   8
ATOM      8  C   UNL A   1      35.103  29.327  27.627  1.00  0.00     0.116 C 
BRANCH   8   9
ATOM      9  N   UNL A   1      35.135  30.242  28.759  1.00  0.00    -0.352 N 
ATOM     10  O   UNL A   1      36.023  31.184  30.614  1.00  0.00    -0.269 OA
ATOM     11  C   UNL A   1      36.178  30.501  29.617  1.00  0.00     0.251 C 
ATOM     12  H   UNL A   1      34.303  30.740  28.933  1.00  0.00     0.163 HD
BRANCH  11  13
ATOM     13  C   UNL A   1      37.486  29.899  29.306  1.00  0.00     0.039 A 
ATOM     14  C   UNL A   1      38.256  29.358  30.339  1.00  0.00     0.014 A 
ATOM     15  C   UNL A   1      37.971  29.969  28.001  1.00  0.00     0.014 A 
ATOM     16  C   UNL A   1      39.577  29.016  30.091  1.00  0.00     0.010 A 
ATOM     17  C   UNL A   1      39.273  29.546  27.739  1.00  0.00     0.010 A 
ATOM     18  C   UNL A   1      40.093  29.099  28.789  1.00  0.00    -0.014 A 
BRANCH  18  19
ATOM     19  C   UNL A   1      41.485  28.672  28.525  1.00  0.00     0.031 A 
ATOM     20  C   UNL A   1      42.614  29.659  28.564  1.00  0.00     0.074 A 
ATOM     21  C   UNL A   1      41.714  27.378  28.240  1.00  0.00     0.049 A 
ATOM     22  N   UNL A   1      43.876  29.478  28.271  1.00  0.00    -0.248 NA
ATOM     23  C   UNL A   1      42.284  31.032  28.977  1.00  0.00     0.031 C 
ATOM     24  C   UNL A   1      40.688  26.334  28.184  1.00  0.00     0.029 A 
ATOM     25  N   UNL A   1      42.877  26.721  27.942  1.00  0.00    -0.354 N 
ATOM     26  C   UNL A   1      44.485  30.715  28.431  1.00  0.00     0.074 A 
ATOM     27  C   UNL A   1      43.451  31.645  28.837  1.00  0.00     0.031 C 
ATOM     28  C   UNL A   1      41.270  25.162  27.892  1.00  0.00     0.029 A 
ATOM     29  C   UNL A   1      42.693  25.387  27.672  1.00  0.00     0.049 A 
ATOM     30  H   UNL A   1      43.758  27.159  27.924  1.00  0.00     0.167 HD
ATOM     31  C   UNL A   1      45.787  31.040  28.252  1.00  0.00     0.037 A 
ATOM     32  C   UNL A   1      43.566  24.455  27.255  1.00  0.00     0.037 A 
ATOM     33  C   UNL A   1      46.807  30.098  27.864  1.00  0.00     0.049 A 
ATOM     34  C   UNL A   1      44.996  24.844  27.039  1.00  0.00     0.074 A 
ATOM     35  C   UNL A   1      48.162  30.318  27.686  1.00  0.00     0.029 A 
ATOM     36  N   UNL A   1      46.580  28.757  27.591  1.00  0.00    -0.354 N 
ATOM     37  N   UNL A   1      45.562  26.015  27.200  1.00  0.00    -0.248 NA
ATOM     38  C   UNL A   1      45.906  23.789  26.579  1.00  0.00     0.031 C 
ATOM     39  C   UNL A   1      48.747  29.118  27.267  1.00  0.00     0.029 A 
ATOM     40  C   UNL A   1      47.765  28.139  27.229  1.00  0.00     0.049 A 
ATOM     41  H   UNL A   1      45.705  28.310  27.648  1.00  0.00     0.167 HD
ATOM     42  C   UNL A   1      46.899  25.837  26.880  1.00  0.00     0.074 A 
ATOM     43  C   UNL A   1      47.059  24.441  26.524  1.00  0.00     0.031 C 
ATOM     44  C   UNL A   1      47.904  26.747  26.882  1.00  0.00     0.037 A 
BRANCH  31  45
ATOM     45  C   UNL A   1      46.176  32.477  28.442  1.00  0.00     0.057 A 
ATOM     46  C   UNL A   1      46.144  33.403  27.391  1.00  0.00     0.134 A 
ATOM     47  C   UNL A   1      46.564  32.948  29.703  1.00  0.00     0.134 A 
ATOM     48  F   UNL A   1      45.795  33.017  26.154  1.00  0.00    -0.206 F 
ATOM     49  C   UNL A   1      46.508  34.739  27.583  1.00  0.00     0.040 A 
ATOM     50  C   UNL A   1      46.907  34.285  29.913  1.00  0.00     0.040 A 
ATOM     51  F   UNL A   1      46.612  32.116  30.755  1.00  0.00    -0.206 F 
ATOM     52  C   UNL A   1      46.885  35.183  28.848  1.00  0.00     0.006 A 
ENDBRANCH  31  45
BRANCH  32  53
ATOM     53  C   UNL A   1      43.085  23.076  27.006  1.00  0.00     0.057 A 
ATOM     54  C   UNL A   1      42.822  22.201  28.064  1.00  0.00     0.134 A 
ATOM     55  C   UNL A   1      42.815  22.624  25.707  1.00  0.00     0.134 A 
ATOM     56  F   UNL A   1      43.070  22.577  29.327  1.00  0.00    -0.206 F 
ATOM     57  C   UNL A   1      42.308  20.923  27.842  1.00  0.00     0.040 A 
ATOM     58  C   UNL A   1      42.278  21.359  25.472  1.00  0.00     0.040 A 
ATOM     59  F   UNL A   1      43.032  23.425  24.653  1.00  0.00    -0.206 F 
ATOM     60  C   UNL A   1      42.025  20.503  26.542  1.00  0.00     0.006 A 
ENDBRANCH  32  53
BRANCH  44  61
ATOM     61  C   UNL A   1      49.270  26.251  26.522  1.00  0.00     0.057 A 
ATOM     62  C   UNL A   1      49.790  26.395  25.231  1.00  0.00     0.134 A 
ATOM     63  C   UNL A   1      50.088  25.659  27.492  1.00  0.00     0.134 A 
ATOM     64  F   UNL A   1      49.049  26.939  24.255  1.00  0.00    -0.206 F 
ATOM     65  C   UNL A   1      51.075  25.952  24.913  1.00  0.00     0.040 A 
ATOM     66  C   UNL A   1      51.381  25.232  27.192  1.00  0.00     0.040 A 
ATOM     67  F   UNL A   1      49.646  25.497  28.749  1.00  0.00    -0.206 F 
ATOM     68  C   UNL A   1      51.876  25.376  25.897  1.00  0.00     0.006 A 
ENDBRANCH  44  61
ENDBRANCH  18  19
ENDBRANCH  11  13
ENDBRANCH   8   9
ENDBRANCH   7   8
ENDBRANCH   6   7
ENDBRANCH   5   6
ENDBRANCH   1   5
BRANCH   2  69
ATOM     69  C   UNL A   1      32.138  27.323  23.549  1.00  0.00     0.197 C 
BRANCH  69  70
ATOM     70  N   UNL A   1      32.088  26.990  24.977  1.00  0.00    -0.340 N 
ATOM     71  C   UNL A   1      31.683  25.885  25.650  1.00  0.00     0.244 C 
ATOM     72  H   UNL A   1      32.414  27.711  25.562  1.00  0.00     0.164 HD
ATOM     73  O   UNL A   1      31.262  26.090  26.796  1.00  0.00    -0.273 OA
BRANCH  71  74
ATOM     74  C   UNL A   1      31.969  24.443  25.162  1.00  0.00     0.181 C 
BRANCH  74  75
ATOM     75  N   UNL A   1      33.137  23.936  25.909  1.00  0.00    -0.342 N 
ATOM     76  C   UNL A   1      33.650  22.685  26.039  1.00  0.00     0.243 C 
ATOM     77  H   UNL A   1      33.634  24.629  26.402  1.00  0.00     0.164 HD
ATOM     78  O   UNL A   1      34.165  22.416  27.128  1.00  0.00    -0.273 OA
BRANCH  76  79
ATOM     79  C   UNL A   1      33.819  21.728  24.834  1.00  0.00     0.176 C 
BRANCH  79  80
ATOM     80  N   UNL A   1      34.426  22.357  23.662  1.00  0.00    -0.340 N 
ATOM     81  C   UNL A   1      35.729  22.713  23.435  1.00  0.00     0.251 C 
ATOM     82  H   UNL A   1      33.805  22.554  22.925  1.00  0.00     0.164 HD
ATOM     83  O   UNL A   1      36.058  23.114  22.321  1.00  0.00    -0.269 OA
BRANCH  81  84
ATOM     84  C   UNL A   1      36.727  22.700  24.527  1.00  0.00     0.040 A 
ATOM     85  C   UNL A   1      37.498  21.538  24.671  1.00  0.00     0.017 A 
ATOM     86  C   UNL A   1      36.906  23.772  25.409  1.00  0.00     0.017 A 
ATOM     87  C   UNL A   1      38.482  21.470  25.657  1.00  0.00     0.040 A 
ATOM     88  C   UNL A   1      37.902  23.704  26.386  1.00  0.00     0.040 A 
ATOM     89  C   UNL A   1      38.683  22.558  26.498  1.00  0.00     0.123 A 
ATOM     90  F   UNL A   1      39.639  22.499  27.433  1.00  0.00    -0.207 F 
ENDBRANCH  81  84
ENDBRANCH  79  80
BRANCH  79  91
ATOM     91  C   UNL A   1      34.643  20.504  25.283  1.00  0.00     0.070 C 
BRANCH  91  92
ATOM     92  C   UNL A   1      34.147  19.233  24.630  1.00  0.00    -0.045 A 
ATOM     93  C   UNL A   1      34.963  18.093  24.596  1.00  0.00     0.004 A 
ATOM     94  C   UNL A   1      32.919  19.212  23.956  1.00  0.00     0.004 A 
ATOM     95  C   UNL A   1      34.569  16.964  23.879  1.00  0.00     0.000 A 
ATOM     96  C   UNL A   1      32.529  18.081  23.237  1.00  0.00     0.000 A 
ATOM     97  C   UNL A   1      33.356  16.961  23.194  1.00  0.00     0.000 A 
ENDBRANCH  91  92
ENDBRANCH  79  91
ENDBRANCH  76  79
ENDBRANCH  74  75
BRANCH  74  98
ATOM     98  C   UNL A   1      30.888  23.357  25.204  1.00  0.00     0.101 C 
BRANCH  98  99
ATOM     99  S   UNL A   1      30.277  22.959  26.876  1.00  0.00    -0.177 SA
ATOM    100  H   UNL A   1      29.095  22.294  26.781  1.00  0.00     0.102 HD
ENDBRANCH  98  99
ENDBRANCH  74  98
ENDBRANCH  71  74
ENDBRANCH  69  70
BRANCH  69 101
ATOM    101  C   UNL A   1      30.693  27.440  23.030  1.00  0.00     0.191 C 
BRANCH 101 102
ATOM    102  O   UNL A   1      30.651  28.103  21.765  1.00  0.00    -0.394 OA
ATOM    103  H   UNL A   1      31.467  28.613  21.639  1.00  0.00     0.210 HD
ENDBRANCH 101 102
ENDBRANCH  69 101
ENDBRANCH   2  69
TORSDOF 23
ENDMDL
MODEL 3
REMARK VINA RESULT:     -11.2      0.587      5.713
REMARK SMILES O=C(NCCCCNC(=O)[C@H](CO)NC(=O)[C@H](CS)NC(=O)[C@H](Cc1ccccc1)NC(=O)c1ccc(F)cc1)c1ccc(-c2c3nc(c(-c4c(F)cccc4F)c4ccc([nH]4)c(-c4c(F)cccc4F)c4nc(c(-c5c(F)cccc5F)c5ccc2[nH]5)C=C4)C=C3)cc1
REMARK SMILES IDX 8 1 9 2 10 3 7 5 6 6 5 7 4 8 3 9 1 10 2 11 41 13 42 14 94 15
REMARK SMILES IDX 43 16 93 17 44 18 45 19 46 20 87 21 47 22 92 23 86 24 88 25
REMARK SMILES IDX 48 26 91 27 85 28 84 29 49 31 75 32 58 33 74 34 59 35 62 36
REMARK SMILES IDX 73 37 89 38 60 39 61 40 72 42 90 43 63 44 50 45 51 46 56 47
REMARK SMILES IDX 52 48 53 49 55 50 57 51 54 52 76 53 77 54 82 55 78 56 79 57
REMARK SMILES IDX 81 58 83 59 80 60 64 61 65 62 70 63 66 64 67 65 69 66 71 67
REMARK SMILES IDX 68 68 11 69 14 70 15 71 16 73 17 74 20 75 21 76 22 78 23 79
REMARK SMILES IDX 31 80 32 81 33 83 34 84 35 85 40 86 36 87 39 88 37 89 38 90
REMARK SMILES IDX 24 91 25 92 26 93 30 94 27 95 29 96 28 97 18 98 19 99 12 101
REMARK SMILES IDX 13 102
REMARK H PARENT 8 4 3 12 88 30 62 41 14 72 20 77 31 82 19 100 13 103
REMARK Flexibility Score: inf
ROOT
ATOM      1  N   UNL A   1      34.953  20.283  25.723  1.00  0.00    -0.354 N 
ATOM      2  C   UNL A   1      33.646  20.600  25.951  1.00  0.00     0.244 C 
ATOM      3  O   UNL A   1      33.406  21.417  26.843  1.00  0.00    -0.273 OA
ATOM      4  H   UNL A   1      35.585  20.612  26.403  1.00  0.00     0.163 HD
ENDROOT
BRANCH   1   5
ATOM      5  C   UNL A   1      35.559  19.536  24.639  1.00  0.00     0.116 C 
BRANCH   5   6
ATOM      6  C   UNL A   1      37.039  19.295  24.933  1.00  0.00     0.023 C 
BRANCH   6   7
ATOM      7  C   UNL A   1      37.875  20.574  24.895  1.00  0.00     0.023 C 
BRANCH   7   8
ATOM      8  C   UNL A   1      38.932  20.659  25.989  1.00  0.00     0.116 C 
BRANCH   8   9
ATOM      9  N   UNL A   1      39.942  19.616  25.876  1.00  0.00    -0.352 N 
ATOM     10  O   UNL A   1      42.049  18.798  25.798  1.00  0.00    -0.269 OA
ATOM     11  C   UNL A   1      41.300  19.720  26.068  1.00  0.00     0.251 C 
ATOM     12  H   UNL A   1      39.611  18.722  25.631  1.00  0.00     0.163 HD
BRANCH  11  13
ATOM     13  C   UNL A   1      41.822  20.996  26.585  1.00  0.00     0.039 A 
ATOM     14  C   UNL A   1      41.786  21.247  27.960  1.00  0.00     0.014 A 
ATOM     15  C   UNL A   1      42.255  21.967  25.683  1.00  0.00     0.014 A 
ATOM     16  C   UNL A   1      42.046  22.528  28.422  1.00  0.00     0.010 A 
ATOM     17  C   UNL A   1      42.597  23.231  26.161  1.00  0.00     0.010 A 
ATOM     18  C   UNL A   1      42.463  23.527  27.528  1.00  0.00    -0.014 A 
BRANCH  18  19
ATOM     19  C   UNL A   1      42.800  24.873  28.042  1.00  0.00     0.031 A 
ATOM     20  C   UNL A   1      44.209  25.225  28.416  1.00  0.00     0.074 A 
ATOM     21  C   UNL A   1      41.810  25.773  28.175  1.00  0.00     0.049 A 
ATOM     22  N   UNL A   1      44.666  26.321  28.964  1.00  0.00    -0.248 NA
ATOM     23  C   UNL A   1      45.242  24.211  28.147  1.00  0.00     0.031 C 
ATOM     24  C   UNL A   1      40.405  25.536  27.833  1.00  0.00     0.029 A 
ATOM     25  N   UNL A   1      41.829  27.063  28.633  1.00  0.00    -0.354 N 
ATOM     26  C   UNL A   1      46.028  26.120  29.138  1.00  0.00     0.074 A 
ATOM     27  C   UNL A   1      46.325  24.790  28.647  1.00  0.00     0.031 C 
ATOM     28  C   UNL A   1      39.701  26.651  28.073  1.00  0.00     0.029 A 
ATOM     29  C   UNL A   1      40.589  27.652  28.650  1.00  0.00     0.049 A 
ATOM     30  H   UNL A   1      42.650  27.523  28.922  1.00  0.00     0.167 HD
ATOM     31  C   UNL A   1      46.943  26.970  29.663  1.00  0.00     0.037 A 
ATOM     32  C   UNL A   1      40.202  28.852  29.114  1.00  0.00     0.037 A 
ATOM     33  C   UNL A   1      46.635  28.297  30.132  1.00  0.00     0.049 A 
ATOM     34  C   UNL A   1      41.227  29.764  29.714  1.00  0.00     0.074 A 
ATOM     35  C   UNL A   1      47.493  29.250  30.651  1.00  0.00     0.029 A 
ATOM     36  N   UNL A   1      45.364  28.856  30.139  1.00  0.00    -0.354 N 
ATOM     37  N   UNL A   1      42.514  29.566  29.867  1.00  0.00    -0.248 NA
ATOM     38  C   UNL A   1      40.750  31.060  30.209  1.00  0.00     0.031 C 
ATOM     39  C   UNL A   1      46.735  30.371  31.010  1.00  0.00     0.029 A 
ATOM     40  C   UNL A   1      45.412  30.133  30.671  1.00  0.00     0.049 A 
ATOM     41  H   UNL A   1      44.549  28.410  29.814  1.00  0.00     0.167 HD
ATOM     42  C   UNL A   1      43.007  30.718  30.459  1.00  0.00     0.074 A 
ATOM     43  C   UNL A   1      41.879  31.614  30.629  1.00  0.00     0.031 C 
ATOM     44  C   UNL A   1      44.278  31.010  30.827  1.00  0.00     0.037 A 
BRANCH  31  45
ATOM     45  C   UNL A   1      48.356  26.478  29.786  1.00  0.00     0.057 A 
ATOM     46  C   UNL A   1      48.800  25.761  30.905  1.00  0.00     0.134 A 
ATOM     47  C   UNL A   1      49.280  26.704  28.758  1.00  0.00     0.134 A 
ATOM     48  F   UNL A   1      47.971  25.521  31.932  1.00  0.00    -0.206 F 
ATOM     49  C   UNL A   1      50.119  25.308  31.006  1.00  0.00     0.040 A 
ATOM     50  C   UNL A   1      50.593  26.237  28.837  1.00  0.00     0.040 A 
ATOM     51  F   UNL A   1      48.920  27.380  27.655  1.00  0.00    -0.206 F 
ATOM     52  C   UNL A   1      51.017  25.541  29.966  1.00  0.00     0.006 A 
ENDBRANCH  31  45
BRANCH  32  53
ATOM     53  C   UNL A   1      38.771  29.229  29.035  1.00  0.00     0.057 A 
ATOM     54  C   UNL A   1      38.199  29.636  27.826  1.00  0.00     0.134 A 
ATOM     55  C   UNL A   1      37.930  29.128  30.150  1.00  0.00     0.134 A 
ATOM     56  F   UNL A   1      38.957  29.759  26.728  1.00  0.00    -0.206 F 
ATOM     57  C   UNL A   1      36.838  29.930  27.728  1.00  0.00     0.040 A 
ATOM     58  C   UNL A   1      36.564  29.396  30.061  1.00  0.00     0.040 A 
ATOM     59  F   UNL A   1      38.420  28.727  31.333  1.00  0.00    -0.206 F 
ATOM     60  C   UNL A   1      36.015  29.801  28.846  1.00  0.00     0.006 A 
ENDBRANCH  32  53
BRANCH  44  61
ATOM     61  C   UNL A   1      44.521  32.365  31.417  1.00  0.00     0.057 A 
ATOM     62  C   UNL A   1      44.802  33.478  30.617  1.00  0.00     0.134 A 
ATOM     63  C   UNL A   1      44.431  32.562  32.801  1.00  0.00     0.134 A 
ATOM     64  F   UNL A   1      44.916  33.349  29.287  1.00  0.00    -0.206 F 
ATOM     65  C   UNL A   1      45.000  34.742  31.175  1.00  0.00     0.040 A 
ATOM     66  C   UNL A   1      44.606  33.824  33.368  1.00  0.00     0.040 A 
ATOM     67  F   UNL A   1      44.160  31.534  33.619  1.00  0.00    -0.206 F 
ATOM     68  C   UNL A   1      44.895  34.918  32.554  1.00  0.00     0.006 A 
ENDBRANCH  44  61
ENDBRANCH  18  19
ENDBRANCH  11  13
ENDBRANCH   8   9
ENDBRANCH   7   8
ENDBRANCH   6   7
ENDBRANCH   5   6
ENDBRANCH   1   5
BRANCH   2  69
ATOM     69  C   UNL A   1      32.520  19.884  25.176  1.00  0.00     0.197 C 
BRANCH  69  70
ATOM     70  N   UNL A   1      32.617  20.254  23.760  1.00  0.00    -0.340 N 
ATOM     71  C   UNL A   1      32.057  21.248  23.028  1.00  0.00     0.244 C 
ATOM     72  H   UNL A   1      33.207  19.664  23.237  1.00  0.00     0.164 HD
ATOM     73  O   UNL A   1      31.893  20.992  21.828  1.00  0.00    -0.273 OA
BRANCH  71  74
ATOM     74  C   UNL A   1      31.881  22.694  23.556  1.00  0.00     0.181 C 
BRANCH  74  75
ATOM     75  N   UNL A   1      30.841  22.670  24.605  1.00  0.00    -0.342 N 
ATOM     76  C   UNL A   1      30.615  23.483  25.668  1.00  0.00     0.243 C 
ATOM     77  H   UNL A   1      30.196  21.930  24.517  1.00  0.00     0.164 HD
ATOM     78  O   UNL A   1      30.154  22.946  26.679  1.00  0.00    -0.273 OA
BRANCH  76  79
ATOM     79  C   UNL A   1      30.679  25.026  25.561  1.00  0.00     0.176 C 
BRANCH  79  80
ATOM     80  N   UNL A   1      29.478  25.629  24.988  1.00  0.00    -0.340 N 
ATOM     81  C   UNL A   1      29.356  26.583  24.012  1.00  0.00     0.251 C 
ATOM     82  H   UNL A   1      28.627  25.300  25.358  1.00  0.00     0.164 HD
ATOM     83  O   UNL A   1      28.241  26.862  23.579  1.00  0.00    -0.269 OA
BRANCH  81  84
ATOM     84  C   UNL A   1      30.533  27.340  23.532  1.00  0.00     0.040 A 
ATOM     85  C   UNL A   1      30.591  28.702  23.861  1.00  0.00     0.017 A 
ATOM     86  C   UNL A   1      31.551  26.761  22.766  1.00  0.00     0.017 A 
ATOM     87  C   UNL A   1      31.690  29.468  23.472  1.00  0.00     0.040 A 
ATOM     88  C   UNL A   1      32.655  27.529  22.390  1.00  0.00     0.040 A 
ATOM     89  C   UNL A   1      32.717  28.872  22.750  1.00  0.00     0.123 A 
ATOM     90  F   UNL A   1      33.780  29.603  22.391  1.00  0.00    -0.207 F 
ENDBRANCH  81  84
ENDBRANCH  79  80
BRANCH  79  91
ATOM     91  C   UNL A   1      30.967  25.609  26.960  1.00  0.00     0.070 C 
BRANCH  91  92
ATOM     92  C   UNL A   1      31.896  26.800  26.882  1.00  0.00    -0.045 A 
ATOM     93  C   UNL A   1      31.501  28.038  27.409  1.00  0.00     0.004 A 
ATOM     94  C   UNL A   1      33.110  26.712  26.188  1.00  0.00     0.004 A 
ATOM     95  C   UNL A   1      32.293  29.171  27.222  1.00  0.00     0.000 A 
ATOM     96  C   UNL A   1      33.899  27.848  26.000  1.00  0.00     0.000 A 
ATOM     97  C   UNL A   1      33.487  29.077  26.511  1.00  0.00     0.000 A 
ENDBRANCH  91  92
ENDBRANCH  79  91
ENDBRANCH  76  79
ENDBRANCH  74  75
BRANCH  74  98
ATOM     98  C   UNL A   1      33.068  23.494  24.103  1.00  0.00     0.101 C 
BRANCH  98  99
ATOM     99  S   UNL A   1      34.301  23.975  22.848  1.00  0.00    -0.177 SA
ATOM    100  H   UNL A   1      34.357  25.331  22.762  1.00  0.00     0.102 HD
ENDBRANCH  98  99
ENDBRANCH  74  98
ENDBRANCH  71  74
ENDBRANCH  69  70
BRANCH  69 101
ATOM    101  C   UNL A   1      32.600  18.350  25.281  1.00  0.00     0.191 C 
BRANCH 101 102
ATOM    102  O   UNL A   1      32.833  17.936  26.629  1.00  0.00    -0.394 OA
ATOM    103  H   UNL A   1      32.111  18.253  27.194  1.00  0.00     0.210 HD
ENDBRANCH 101 102
ENDBRANCH  69 101
ENDBRANCH   2  69
TORSDOF 23
ENDMDL
