MODEL 1
REMARK VINA RESULT:     -11.9      0.000      0.000
REMARK SMILES C[C@@H](C(=O)NCCCCNC(=O)c1ccc(-c2c3nc(c(-c4c(F)cccc4F)c4ccc([nH]4)c(-c4c(F)cccc4F)c4nc(c(-c5c(F)cccc5F)c5ccc2[nH]5)C=C4)C=C3)cc1)c1ccc(-c2ccccc2)c(F)c1
REMARK SMILES IDX 7 1 6 2 5 3 3 4 4 5 2 7 1 8 67 9 68 10 79 11 69 12 77 13
REMARK SMILES IDX 70 14 78 15 71 16 72 17 76 18 73 19 75 20 74 21 8 22 9 23
REMARK SMILES IDX 10 24 11 25 12 27 13 28 14 29 66 30 15 31 65 32 16 33 17 34
REMARK SMILES IDX 18 35 59 36 19 37 64 38 58 39 60 40 20 41 63 42 57 43 56 44
REMARK SMILES IDX 21 46 47 47 30 48 46 49 31 50 34 51 45 52 61 53 32 54 33 55
REMARK SMILES IDX 44 57 62 58 35 59 22 60 23 61 28 62 24 63 25 64 27 65 29 66
REMARK SMILES IDX 26 67 48 68 49 69 54 70 50 71 51 72 53 73 55 74 52 75 36 76
REMARK SMILES IDX 37 77 42 78 38 79 39 80 41 81 43 82 40 83
REMARK H PARENT 5 6 10 26 60 45 34 56
REMARK Flexibility Score: inf
ROOT
ATOM      1  C   UNL A   1      32.941  29.433  24.901  1.00  0.00     0.023 C 
ENDROOT
BRANCH   1   2
ATOM      2  C   UNL A   1      31.418  29.294  24.856  1.00  0.00     0.116 C 
BRANCH   2   3
ATOM      3  N   UNL A   1      30.886  29.666  23.561  1.00  0.00    -0.356 N 
ATOM      4  C   UNL A   1      30.331  28.902  22.575  1.00  0.00     0.227 C 
ATOM      5  O   UNL A   1      29.984  29.505  21.557  1.00  0.00    -0.274 OA
ATOM      6  H   UNL A   1      30.932  30.628  23.359  1.00  0.00     0.163 HD
BRANCH   4   7
ATOM      7  C   UNL A   1      30.132  27.389  22.779  1.00  0.00     0.105 C 
ATOM      8  C   UNL A   1      29.038  27.071  23.801  1.00  0.00     0.023 C 
BRANCH   7   9
ATOM      9  C   UNL A   1      31.400  26.653  23.212  1.00  0.00    -0.033 A 
ATOM     10  C   UNL A   1      32.558  26.719  22.426  1.00  0.00     0.005 A 
ATOM     11  C   UNL A   1      31.411  25.820  24.340  1.00  0.00     0.044 A 
ATOM     12  C   UNL A   1      33.692  25.966  22.757  1.00  0.00     0.012 A 
ATOM     13  C   UNL A   1      32.544  25.078  24.665  1.00  0.00     0.131 A 
ATOM     14  C   UNL A   1      33.705  25.122  23.882  1.00  0.00     0.017 A 
ATOM     15  F   UNL A   1      32.491  24.297  25.757  1.00  0.00    -0.206 F 
BRANCH  14  16
ATOM     16  C   UNL A   1      34.884  24.301  24.203  1.00  0.00    -0.015 A 
ATOM     17  C   UNL A   1      35.369  23.339  23.300  1.00  0.00     0.009 A 
ATOM     18  C   UNL A   1      35.557  24.451  25.428  1.00  0.00     0.009 A 
ATOM     19  C   UNL A   1      36.486  22.558  23.611  1.00  0.00     0.001 A 
ATOM     20  C   UNL A   1      36.672  23.670  25.741  1.00  0.00     0.001 A 
ATOM     21  C   UNL A   1      37.137  22.724  24.831  1.00  0.00     0.000 A 
ENDBRANCH  14  16
ENDBRANCH   7   9
ENDBRANCH   4   7
ENDBRANCH   2   3
ENDBRANCH   1   2
BRANCH   1  22
ATOM     22  C   UNL A   1      33.654  28.465  25.850  1.00  0.00     0.023 C 
BRANCH  22  23
ATOM     23  C   UNL A   1      33.437  28.722  27.338  1.00  0.00     0.116 C 
BRANCH  23  24
ATOM     24  N   UNL A   1      33.537  30.131  27.691  1.00  0.00    -0.352 N 
ATOM     25  C   UNL A   1      34.600  30.820  28.225  1.00  0.00     0.251 C 
ATOM     26  H   UNL A   1      32.728  30.666  27.525  1.00  0.00     0.163 HD
ATOM     27  O   UNL A   1      34.466  31.989  28.573  1.00  0.00    -0.269 OA
BRANCH  25  28
ATOM     28  C   UNL A   1      35.895  30.135  28.420  1.00  0.00     0.039 A 
ATOM     29  C   UNL A   1      36.810  30.118  27.364  1.00  0.00     0.014 A 
ATOM     30  C   UNL A   1      36.220  29.549  29.646  1.00  0.00     0.014 A 
ATOM     31  C   UNL A   1      38.091  29.599  27.570  1.00  0.00     0.010 A 
ATOM     32  C   UNL A   1      37.513  29.085  29.866  1.00  0.00     0.010 A 
ATOM     33  C   UNL A   1      38.468  29.129  28.838  1.00  0.00    -0.014 A 
BRANCH  33  34
ATOM     34  C   UNL A   1      39.873  28.750  29.133  1.00  0.00     0.031 A 
ATOM     35  C   UNL A   1      40.824  29.744  29.734  1.00  0.00     0.074 A 
ATOM     36  C   UNL A   1      40.315  27.532  28.758  1.00  0.00     0.049 A 
ATOM     37  N   UNL A   1      42.109  29.628  29.950  1.00  0.00    -0.248 NA
ATOM     38  C   UNL A   1      40.263  31.048  30.123  1.00  0.00     0.031 C 
ATOM     39  C   UNL A   1      39.501  26.496  28.116  1.00  0.00     0.029 A 
ATOM     40  N   UNL A   1      41.564  26.968  28.837  1.00  0.00    -0.354 N 
ATOM     41  C   UNL A   1      42.515  30.844  30.483  1.00  0.00     0.074 A 
ATOM     42  C   UNL A   1      41.346  31.697  30.531  1.00  0.00     0.031 C 
ATOM     43  C   UNL A   1      40.270  25.426  27.862  1.00  0.00     0.029 A 
ATOM     44  C   UNL A   1      41.638  25.713  28.283  1.00  0.00     0.049 A 
ATOM     45  H   UNL A   1      42.334  27.420  29.252  1.00  0.00     0.167 HD
ATOM     46  C   UNL A   1      43.748  31.208  30.905  1.00  0.00     0.037 A 
ATOM     47  C   UNL A   1      42.692  24.894  28.108  1.00  0.00     0.037 A 
ATOM     48  C   UNL A   1      44.902  30.348  30.889  1.00  0.00     0.049 A 
ATOM     49  C   UNL A   1      44.051  25.333  28.576  1.00  0.00     0.074 A 
ATOM     50  C   UNL A   1      46.168  30.597  31.390  1.00  0.00     0.029 A 
ATOM     51  N   UNL A   1      44.933  29.078  30.334  1.00  0.00    -0.354 N 
ATOM     52  N   UNL A   1      44.401  26.452  29.162  1.00  0.00    -0.248 NA
ATOM     53  C   UNL A   1      45.164  24.398  28.355  1.00  0.00     0.031 C 
ATOM     54  C   UNL A   1      46.979  29.495  31.096  1.00  0.00     0.029 A 
ATOM     55  C   UNL A   1      46.207  28.545  30.448  1.00  0.00     0.049 A 
ATOM     56  H   UNL A   1      44.165  28.622  29.920  1.00  0.00     0.167 HD
ATOM     57  C   UNL A   1      45.765  26.350  29.392  1.00  0.00     0.074 A 
ATOM     58  C   UNL A   1      46.178  25.051  28.904  1.00  0.00     0.031 C 
ATOM     59  C   UNL A   1      46.604  27.253  29.954  1.00  0.00     0.037 A 
BRANCH  46  60
ATOM     60  C   UNL A   1      43.926  32.599  31.435  1.00  0.00     0.057 A 
ATOM     61  C   UNL A   1      44.248  33.671  30.594  1.00  0.00     0.134 A 
ATOM     62  C   UNL A   1      43.689  32.883  32.785  1.00  0.00     0.134 A 
ATOM     63  F   UNL A   1      44.494  33.463  29.291  1.00  0.00    -0.206 F 
ATOM     64  C   UNL A   1      44.337  34.977  31.079  1.00  0.00     0.040 A 
ATOM     65  C   UNL A   1      43.754  34.187  33.278  1.00  0.00     0.040 A 
ATOM     66  F   UNL A   1      43.369  31.901  33.642  1.00  0.00    -0.206 F 
ATOM     67  C   UNL A   1      44.079  35.238  32.424  1.00  0.00     0.006 A 
ENDBRANCH  46  60
BRANCH  47  68
ATOM     68  C   UNL A   1      42.515  23.579  27.443  1.00  0.00     0.057 A 
ATOM     69  C   UNL A   1      42.265  22.420  28.187  1.00  0.00     0.134 A 
ATOM     70  C   UNL A   1      42.625  23.444  26.054  1.00  0.00     0.134 A 
ATOM     71  F   UNL A   1      42.172  22.483  29.523  1.00  0.00    -0.206 F 
ATOM     72  C   UNL A   1      42.154  21.170  27.576  1.00  0.00     0.040 A 
ATOM     73  C   UNL A   1      42.491  22.204  25.428  1.00  0.00     0.040 A 
ATOM     74  F   UNL A   1      42.860  24.518  25.286  1.00  0.00    -0.206 F 
ATOM     75  C   UNL A   1      42.264  21.060  26.191  1.00  0.00     0.006 A 
ENDBRANCH  47  68
BRANCH  59  76
ATOM     76  C   UNL A   1      48.046  26.865  30.079  1.00  0.00     0.057 A 
ATOM     77  C   UNL A   1      48.508  26.097  31.155  1.00  0.00     0.134 A 
ATOM     78  C   UNL A   1      48.974  27.230  29.095  1.00  0.00     0.134 A 
ATOM     79  F   UNL A   1      47.672  25.730  32.136  1.00  0.00    -0.206 F 
ATOM     80  C   UNL A   1      49.847  25.718  31.256  1.00  0.00     0.040 A 
ATOM     81  C   UNL A   1      50.310  26.838  29.174  1.00  0.00     0.040 A 
ATOM     82  F   UNL A   1      48.592  27.961  28.036  1.00  0.00    -0.206 F 
ATOM     83  C   UNL A   1      50.751  26.082  30.259  1.00  0.00     0.006 A 
ENDBRANCH  59  76
ENDBRANCH  33  34
ENDBRANCH  25  28
ENDBRANCH  23  24
ENDBRANCH  22  23
ENDBRANCH   1  22
TORSDOF 13
ENDMDL
MODEL 2
REMARK VINA RESULT:     -11.7      3.681      6.799
REMARK SMILES C[C@@H](C(=O)NCCCCNC(=O)c1ccc(-c2c3nc(c(-c4c(F)cccc4F)c4ccc([nH]4)c(-c4c(F)cccc4F)c4nc(c(-c5c(F)cccc5F)c5ccc2[nH]5)C=C4)C=C3)cc1)c1ccc(-c2ccccc2)c(F)c1
REMARK SMILES IDX 7 1 6 2 5 3 3 4 4 5 2 7 1 8 67 9 68 10 79 11 69 12 77 13
REMARK SMILES IDX 70 14 78 15 71 16 72 17 76 18 73 19 75 20 74 21 8 22 9 23
REMARK SMILES IDX 10 24 11 25 12 27 13 28 14 29 66 30 15 31 65 32 16 33 17 34
REMARK SMILES IDX 18 35 59 36 19 37 64 38 58 39 60 40 20 41 63 42 57 43 56 44
REMARK SMILES IDX 21 46 47 47 30 48 46 49 31 50 34 51 45 52 61 53 32 54 33 55
REMARK SMILES IDX 44 57 62 58 35 59 22 60 23 61 28 62 24 63 25 64 27 65 29 66
REMARK SMILES IDX 26 67 48 68 49 69 54 70 50 71 51 72 53 73 55 74 52 75 36 76
REMARK SMILES IDX 37 77 42 78 38 79 39 80 41 81 43 82 40 83
REMARK H PARENT 5 6 10 26 60 45 34 56
REMARK Flexibility Score: inf
ROOT
ATOM      1  C   UNL A   1      33.873  35.509  28.954  1.00  0.00     0.023 C 
ENDROOT
BRANCH   1   2
ATOM      2  C   UNL A   1      33.129  35.205  30.256  1.00  0.00     0.116 C 
BRANCH   2   3
ATOM      3  N   UNL A   1      33.784  35.806  31.399  1.00  0.00    -0.356 N 
ATOM      4  C   UNL A   1      34.792  35.341  32.193  1.00  0.00     0.227 C 
ATOM      5  O   UNL A   1      35.132  36.078  33.121  1.00  0.00    -0.274 OA
ATOM      6  H   UNL A   1      33.447  36.698  31.643  1.00  0.00     0.163 HD
BRANCH   4   7
ATOM      7  C   UNL A   1      35.463  33.988  31.889  1.00  0.00     0.105 C 
ATOM      8  C   UNL A   1      35.500  33.062  33.108  1.00  0.00     0.023 C 
BRANCH   7   9
ATOM      9  C   UNL A   1      36.890  34.111  31.357  1.00  0.00    -0.033 A 
ATOM     10  C   UNL A   1      37.173  33.806  30.018  1.00  0.00     0.005 A 
ATOM     11  C   UNL A   1      37.960  34.432  32.204  1.00  0.00     0.044 A 
ATOM     12  C   UNL A   1      38.492  33.815  29.546  1.00  0.00     0.012 A 
ATOM     13  C   UNL A   1      39.268  34.444  31.725  1.00  0.00     0.131 A 
ATOM     14  C   UNL A   1      39.569  34.126  30.394  1.00  0.00     0.017 A 
ATOM     15  F   UNL A   1      40.249  34.756  32.587  1.00  0.00    -0.206 F 
BRANCH  14  16
ATOM     16  C   UNL A   1      40.957  34.094  29.903  1.00  0.00    -0.015 A 
ATOM     17  C   UNL A   1      41.813  33.023  30.210  1.00  0.00     0.009 A 
ATOM     18  C   UNL A   1      41.470  35.140  29.117  1.00  0.00     0.009 A 
ATOM     19  C   UNL A   1      43.131  32.998  29.746  1.00  0.00     0.001 A 
ATOM     20  C   UNL A   1      42.788  35.119  28.655  1.00  0.00     0.001 A 
ATOM     21  C   UNL A   1      43.618  34.047  28.969  1.00  0.00     0.000 A 
ENDBRANCH  14  16
ENDBRANCH   7   9
ENDBRANCH   4   7
ENDBRANCH   2   3
ENDBRANCH   1   2
BRANCH   1  22
ATOM     22  C   UNL A   1      34.034  34.319  28.004  1.00  0.00     0.023 C 
BRANCH  22  23
ATOM     23  C   UNL A   1      34.039  32.945  28.665  1.00  0.00     0.116 C 
BRANCH  23  24
ATOM     24  N   UNL A   1      33.719  31.868  27.739  1.00  0.00    -0.352 N 
ATOM     25  C   UNL A   1      34.440  30.738  27.437  1.00  0.00     0.251 C 
ATOM     26  H   UNL A   1      32.864  31.963  27.261  1.00  0.00     0.163 HD
ATOM     27  O   UNL A   1      34.069  29.991  26.536  1.00  0.00    -0.269 OA
BRANCH  25  28
ATOM     28  C   UNL A   1      35.689  30.446  28.171  1.00  0.00     0.039 A 
ATOM     29  C   UNL A   1      35.610  29.743  29.376  1.00  0.00     0.014 A 
ATOM     30  C   UNL A   1      36.930  30.828  27.655  1.00  0.00     0.014 A 
ATOM     31  C   UNL A   1      36.784  29.337  30.016  1.00  0.00     0.010 A 
ATOM     32  C   UNL A   1      38.097  30.374  28.263  1.00  0.00     0.010 A 
ATOM     33  C   UNL A   1      38.034  29.603  29.434  1.00  0.00    -0.014 A 
BRANCH  33  34
ATOM     34  C   UNL A   1      39.282  29.021  29.991  1.00  0.00     0.031 A 
ATOM     35  C   UNL A   1      39.955  29.646  31.179  1.00  0.00     0.074 A 
ATOM     36  C   UNL A   1      39.862  27.984  29.353  1.00  0.00     0.049 A 
ATOM     37  N   UNL A   1      41.105  29.348  31.725  1.00  0.00    -0.248 NA
ATOM     38  C   UNL A   1      39.254  30.768  31.824  1.00  0.00     0.031 C 
ATOM     39  C   UNL A   1      39.333  27.323  28.156  1.00  0.00     0.029 A 
ATOM     40  N   UNL A   1      41.038  27.322  29.603  1.00  0.00    -0.354 N 
ATOM     41  C   UNL A   1      41.276  30.251  32.764  1.00  0.00     0.074 A 
ATOM     42  C   UNL A   1      40.126  31.129  32.757  1.00  0.00     0.031 C 
ATOM     43  C   UNL A   1      40.180  26.352  27.780  1.00  0.00     0.029 A 
ATOM     44  C   UNL A   1      41.329  26.347  28.679  1.00  0.00     0.049 A 
ATOM     45  H   UNL A   1      41.618  27.525  30.372  1.00  0.00     0.167 HD
ATOM     46  C   UNL A   1      42.295  30.330  33.652  1.00  0.00     0.037 A 
ATOM     47  C   UNL A   1      42.411  25.555  28.553  1.00  0.00     0.037 A 
ATOM     48  C   UNL A   1      43.422  29.434  33.680  1.00  0.00     0.049 A 
ATOM     49  C   UNL A   1      43.531  25.677  29.547  1.00  0.00     0.074 A 
ATOM     50  C   UNL A   1      44.450  29.375  34.605  1.00  0.00     0.029 A 
ATOM     51  N   UNL A   1      43.673  28.450  32.738  1.00  0.00    -0.354 N 
ATOM     52  N   UNL A   1      43.636  26.477  30.580  1.00  0.00    -0.248 NA
ATOM     53  C   UNL A   1      44.688  24.789  29.356  1.00  0.00     0.031 C 
ATOM     54  C   UNL A   1      45.350  28.385  34.195  1.00  0.00     0.029 A 
ATOM     55  C   UNL A   1      44.860  27.802  33.038  1.00  0.00     0.049 A 
ATOM     56  H   UNL A   1      43.095  28.242  31.968  1.00  0.00     0.167 HD
ATOM     57  C   UNL A   1      44.857  26.179  31.169  1.00  0.00     0.074 A 
ATOM     58  C   UNL A   1      45.449  25.110  30.392  1.00  0.00     0.031 C 
ATOM     59  C   UNL A   1      45.438  26.743  32.254  1.00  0.00     0.037 A 
BRANCH  46  60
ATOM     60  C   UNL A   1      42.246  31.417  34.682  1.00  0.00     0.057 A 
ATOM     61  C   UNL A   1      42.705  32.711  34.409  1.00  0.00     0.134 A 
ATOM     62  C   UNL A   1      41.654  31.190  35.931  1.00  0.00     0.134 A 
ATOM     63  F   UNL A   1      43.288  32.992  33.234  1.00  0.00    -0.206 F 
ATOM     64  C   UNL A   1      42.586  33.740  35.346  1.00  0.00     0.040 A 
ATOM     65  C   UNL A   1      41.511  32.214  36.868  1.00  0.00     0.040 A 
ATOM     66  F   UNL A   1      41.187  29.973  36.252  1.00  0.00    -0.206 F 
ATOM     67  C   UNL A   1      41.978  33.493  36.576  1.00  0.00     0.006 A 
ENDBRANCH  46  60
BRANCH  47  68
ATOM     68  C   UNL A   1      42.502  24.587  27.432  1.00  0.00     0.057 A 
ATOM     69  C   UNL A   1      42.074  23.263  27.583  1.00  0.00     0.134 A 
ATOM     70  C   UNL A   1      43.049  24.952  26.196  1.00  0.00     0.134 A 
ATOM     71  F   UNL A   1      41.562  22.849  28.751  1.00  0.00    -0.206 F 
ATOM     72  C   UNL A   1      42.208  22.331  26.554  1.00  0.00     0.040 A 
ATOM     73  C   UNL A   1      43.166  24.035  25.150  1.00  0.00     0.040 A 
ATOM     74  F   UNL A   1      43.474  26.207  25.987  1.00  0.00    -0.206 F 
ATOM     75  C   UNL A   1      42.753  22.717  25.331  1.00  0.00     0.006 A 
ENDBRANCH  47  68
BRANCH  59  76
ATOM     76  C   UNL A   1      46.777  26.211  32.669  1.00  0.00     0.057 A 
ATOM     77  C   UNL A   1      47.968  26.778  32.199  1.00  0.00     0.134 A 
ATOM     78  C   UNL A   1      46.876  25.148  33.576  1.00  0.00     0.134 A 
ATOM     79  F   UNL A   1      47.939  27.787  31.317  1.00  0.00    -0.206 F 
ATOM     80  C   UNL A   1      49.213  26.295  32.605  1.00  0.00     0.040 A 
ATOM     81  C   UNL A   1      48.115  24.673  34.007  1.00  0.00     0.040 A 
ATOM     82  F   UNL A   1      45.772  24.566  34.067  1.00  0.00    -0.206 F 
ATOM     83  C   UNL A   1      49.289  25.245  33.518  1.00  0.00     0.006 A 
ENDBRANCH  59  76
ENDBRANCH  33  34
ENDBRANCH  25  28
ENDBRANCH  23  24
ENDBRANCH  22  23
ENDBRANCH   1  22
TORSDOF 13
ENDMDL
MODEL 3
REMARK VINA RESULT:     -11.7      3.269      8.086
REMARK SMILES C[C@@H](C(=O)NCCCCNC(=O)c1ccc(-c2c3nc(c(-c4c(F)cccc4F)c4ccc([nH]4)c(-c4c(F)cccc4F)c4nc(c(-c5c(F)cccc5F)c5ccc2[nH]5)C=C4)C=C3)cc1)c1ccc(-c2ccccc2)c(F)c1
REMARK SMILES IDX 7 1 6 2 5 3 3 4 4 5 2 7 1 8 67 9 68 10 79 11 69 12 77 13
REMARK SMILES IDX 70 14 78 15 71 16 72 17 76 18 73 19 75 20 74 21 8 22 9 23
REMARK SMILES IDX 10 24 11 25 12 27 13 28 14 29 66 30 15 31 65 32 16 33 17 34
REMARK SMILES IDX 18 35 59 36 19 37 64 38 58 39 60 40 20 41 63 42 57 43 56 44
REMARK SMILES IDX 21 46 47 47 30 48 46 49 31 50 34 51 45 52 61 53 32 54 33 55
REMARK SMILES IDX 44 57 62 58 35 59 22 60 23 61 28 62 24 63 25 64 27 65 29 66
REMARK SMILES IDX 26 67 48 68 49 69 54 70 50 71 51 72 53 73 55 74 52 75 36 76
REMARK SMILES IDX 37 77 42 78 38 79 39 80 41 81 43 82 40 83
REMARK H PARENT 5 6 10 26 60 45 34 56
REMARK Flexibility Score: inf
ROOT
ATOM      1  C   UNL A   1      35.703  21.809  26.014  1.00  0.00     0.023 C 
ENDROOT
BRANCH   1   2
ATOM      2  C   UNL A   1      34.406  21.493  25.267  1.00  0.00     0.116 C 
BRANCH   2   3
ATOM      3  N   UNL A   1      34.424  22.020  23.918  1.00  0.00    -0.356 N 
ATOM      4  C   UNL A   1      33.564  22.870  23.284  1.00  0.00     0.227 C 
ATOM      5  O   UNL A   1      33.829  23.127  22.108  1.00  0.00    -0.274 OA
ATOM      6  H   UNL A   1      35.182  21.716  23.369  1.00  0.00     0.163 HD
BRANCH   4   7
ATOM      7  C   UNL A   1      32.370  23.479  24.041  1.00  0.00     0.105 C 
ATOM      8  C   UNL A   1      31.139  23.664  23.149  1.00  0.00     0.023 C 
BRANCH   7   9
ATOM      9  C   UNL A   1      32.675  24.826  24.695  1.00  0.00    -0.033 A 
ATOM     10  C   UNL A   1      32.136  25.139  25.951  1.00  0.00     0.005 A 
ATOM     11  C   UNL A   1      33.409  25.814  24.025  1.00  0.00     0.044 A 
ATOM     12  C   UNL A   1      32.323  26.409  26.514  1.00  0.00     0.012 A 
ATOM     13  C   UNL A   1      33.595  27.072  24.594  1.00  0.00     0.131 A 
ATOM     14  C   UNL A   1      33.050  27.405  25.841  1.00  0.00     0.017 A 
ATOM     15  F   UNL A   1      34.306  27.976  23.900  1.00  0.00    -0.206 F 
BRANCH  14  16
ATOM     16  C   UNL A   1      33.209  28.751  26.418  1.00  0.00    -0.015 A 
ATOM     17  C   UNL A   1      34.399  29.132  27.061  1.00  0.00     0.009 A 
ATOM     18  C   UNL A   1      32.169  29.694  26.348  1.00  0.00     0.009 A 
ATOM     19  C   UNL A   1      34.543  30.409  27.611  1.00  0.00     0.001 A 
ATOM     20  C   UNL A   1      32.310  30.970  26.899  1.00  0.00     0.001 A 
ATOM     21  C   UNL A   1      33.498  31.327  27.530  1.00  0.00     0.000 A 
ENDBRANCH  14  16
ENDBRANCH   7   9
ENDBRANCH   4   7
ENDBRANCH   2   3
ENDBRANCH   1   2
BRANCH   1  22
ATOM     22  C   UNL A   1      36.103  23.287  26.024  1.00  0.00     0.023 C 
BRANCH  22  23
ATOM     23  C   UNL A   1      37.352  23.637  25.223  1.00  0.00     0.116 C 
BRANCH  23  24
ATOM     24  N   UNL A   1      38.503  22.820  25.579  1.00  0.00    -0.352 N 
ATOM     25  C   UNL A   1      39.618  23.158  26.309  1.00  0.00     0.251 C 
ATOM     26  H   UNL A   1      38.480  21.892  25.251  1.00  0.00     0.163 HD
ATOM     27  O   UNL A   1      40.552  22.369  26.411  1.00  0.00    -0.269 OA
BRANCH  25  28
ATOM     28  C   UNL A   1      39.708  24.494  26.935  1.00  0.00     0.039 A 
ATOM     29  C   UNL A   1      39.153  24.679  28.203  1.00  0.00     0.014 A 
ATOM     30  C   UNL A   1      40.367  25.545  26.291  1.00  0.00     0.014 A 
ATOM     31  C   UNL A   1      39.346  25.891  28.871  1.00  0.00     0.010 A 
ATOM     32  C   UNL A   1      40.606  26.731  26.980  1.00  0.00     0.010 A 
ATOM     33  C   UNL A   1      40.121  26.905  28.285  1.00  0.00    -0.014 A 
BRANCH  33  34
ATOM     34  C   UNL A   1      40.499  28.123  29.046  1.00  0.00     0.031 A 
ATOM     35  C   UNL A   1      41.812  28.196  29.770  1.00  0.00     0.074 A 
ATOM     36  C   UNL A   1      39.604  29.125  29.164  1.00  0.00     0.049 A 
ATOM     37  N   UNL A   1      42.257  29.125  30.576  1.00  0.00    -0.248 NA
ATOM     38  C   UNL A   1      42.737  27.067  29.583  1.00  0.00     0.031 C 
ATOM     39  C   UNL A   1      38.273  29.149  28.550  1.00  0.00     0.029 A 
ATOM     40  N   UNL A   1      39.666  30.304  29.864  1.00  0.00    -0.354 N 
ATOM     41  C   UNL A   1      43.503  28.689  31.005  1.00  0.00     0.074 A 
ATOM     42  C   UNL A   1      43.733  27.397  30.395  1.00  0.00     0.031 C 
ATOM     43  C   UNL A   1      37.648  30.284  28.900  1.00  0.00     0.029 A 
ATOM     44  C   UNL A   1      38.512  31.048  29.793  1.00  0.00     0.049 A 
ATOM     45  H   UNL A   1      40.462  30.590  30.368  1.00  0.00     0.167 HD
ATOM     46  C   UNL A   1      44.379  29.318  31.824  1.00  0.00     0.037 A 
ATOM     47  C   UNL A   1      38.177  32.203  30.400  1.00  0.00     0.037 A 
ATOM     48  C   UNL A   1      44.163  30.618  32.402  1.00  0.00     0.049 A 
ATOM     49  C   UNL A   1      39.167  32.869  31.313  1.00  0.00     0.074 A 
ATOM     50  C   UNL A   1      45.038  31.378  33.161  1.00  0.00     0.029 A 
ATOM     51  N   UNL A   1      42.989  31.347  32.295  1.00  0.00    -0.354 N 
ATOM     52  N   UNL A   1      40.378  32.487  31.638  1.00  0.00    -0.248 NA
ATOM     53  C   UNL A   1      38.743  34.125  31.949  1.00  0.00     0.031 C 
ATOM     54  C   UNL A   1      44.375  32.546  33.553  1.00  0.00     0.029 A 
ATOM     55  C   UNL A   1      43.103  32.531  33.005  1.00  0.00     0.049 A 
ATOM     56  H   UNL A   1      42.192  31.065  31.790  1.00  0.00     0.167 HD
ATOM     57  C   UNL A   1      40.864  33.459  32.500  1.00  0.00     0.074 A 
ATOM     58  C   UNL A   1      39.827  34.461  32.633  1.00  0.00     0.031 C 
ATOM     59  C   UNL A   1      42.062  33.516  33.130  1.00  0.00     0.037 A 
BRANCH  46  60
ATOM     60  C   UNL A   1      45.665  28.618  32.145  1.00  0.00     0.057 A 
ATOM     61  C   UNL A   1      46.816  28.801  31.369  1.00  0.00     0.134 A 
ATOM     62  C   UNL A   1      45.775  27.821  33.290  1.00  0.00     0.134 A 
ATOM     63  F   UNL A   1      46.773  29.547  30.255  1.00  0.00    -0.206 F 
ATOM     64  C   UNL A   1      48.030  28.207  31.716  1.00  0.00     0.040 A 
ATOM     65  C   UNL A   1      46.989  27.239  33.659  1.00  0.00     0.040 A 
ATOM     66  F   UNL A   1      44.711  27.612  34.080  1.00  0.00    -0.206 F 
ATOM     67  C   UNL A   1      48.120  27.431  32.871  1.00  0.00     0.006 A 
ENDBRANCH  46  60
BRANCH  47  68
ATOM     68  C   UNL A   1      36.836  32.799  30.182  1.00  0.00     0.057 A 
ATOM     69  C   UNL A   1      36.588  33.643  29.093  1.00  0.00     0.134 A 
ATOM     70  C   UNL A   1      35.781  32.567  31.073  1.00  0.00     0.134 A 
ATOM     71  F   UNL A   1      37.565  33.921  28.218  1.00  0.00    -0.206 F 
ATOM     72  C   UNL A   1      35.346  34.254  28.912  1.00  0.00     0.040 A 
ATOM     73  C   UNL A   1      34.527  33.152  30.889  1.00  0.00     0.040 A 
ATOM     74  F   UNL A   1      35.954  31.764  32.133  1.00  0.00    -0.206 F 
ATOM     75  C   UNL A   1      34.310  34.006  29.810  1.00  0.00     0.006 A 
ENDBRANCH  47  68
BRANCH  59  76
ATOM     76  C   UNL A   1      42.317  34.701  34.011  1.00  0.00     0.057 A 
ATOM     77  C   UNL A   1      42.069  34.657  35.389  1.00  0.00     0.134 A 
ATOM     78  C   UNL A   1      42.852  35.884  33.485  1.00  0.00     0.134 A 
ATOM     79  F   UNL A   1      41.543  33.559  35.950  1.00  0.00    -0.206 F 
ATOM     80  C   UNL A   1      42.330  35.754  36.211  1.00  0.00     0.040 A 
ATOM     81  C   UNL A   1      43.139  36.979  34.301  1.00  0.00     0.040 A 
ATOM     82  F   UNL A   1      43.118  35.988  32.174  1.00  0.00    -0.206 F 
ATOM     83  C   UNL A   1      42.874  36.917  35.668  1.00  0.00     0.006 A 
ENDBRANCH  59  76
ENDBRANCH  33  34
ENDBRANCH  25  28
ENDBRANCH  23  24
ENDBRANCH  22  23
ENDBRANCH   1  22
TORSDOF 13
ENDMDL
