MODEL 1
REMARK VINA RESULT:     -11.2      0.000      0.000
REMARK SMILES CC[C@H]1CC[C@@](C(=O)NCCCCNC(=O)c2ccc(-c3c4nc(c(-c5c(F)cccc5F)c5ccc([nH]5)c(-c5c(F)cccc5F)c5nc(c(-c6c(F)cccc6F)c6ccc3[nH]6)C=C5)C=C4)cc2)(C2CCCC2)C1
REMARK SMILES IDX 12 1 11 2 10 3 9 4 7 5 8 6 6 8 3 9 4 10 76 11 5 12 2 13 1 14
REMARK SMILES IDX 71 15 72 16 75 17 73 18 74 19 13 20 14 21 15 22 16 24 17 25
REMARK SMILES IDX 18 26 70 27 19 28 69 29 20 30 21 31 22 32 63 33 23 34 68 35
REMARK SMILES IDX 62 36 64 37 24 38 67 39 61 40 60 41 25 43 51 44 34 45 50 46
REMARK SMILES IDX 35 47 38 48 49 49 65 50 36 51 37 52 48 54 66 55 39 56 26 57
REMARK SMILES IDX 27 58 32 59 28 60 29 61 31 62 33 63 30 64 52 65 53 66 58 67
REMARK SMILES IDX 54 68 55 69 57 70 59 71 56 72 40 73 41 74 46 75 42 76 43 77
REMARK SMILES IDX 45 78 47 79 44 80
REMARK H PARENT 9 7 14 23 64 42 38 53
REMARK Flexibility Score: inf
ROOT
ATOM      1  C   UNL A   1      32.660  28.257  26.253  1.00  0.00     0.023 C 
ENDROOT
BRANCH   1   2
ATOM      2  C   UNL A   1      31.459  27.509  26.837  1.00  0.00     0.023 C 
BRANCH   2   3
ATOM      3  C   UNL A   1      30.783  26.547  25.865  1.00  0.00     0.116 C 
BRANCH   3   4
ATOM      4  N   UNL A   1      30.429  25.299  26.501  1.00  0.00    -0.356 N 
ATOM      5  C   UNL A   1      30.978  24.058  26.477  1.00  0.00     0.226 C 
ATOM      6  O   UNL A   1      30.423  23.248  27.229  1.00  0.00    -0.274 OA
ATOM      7  H   UNL A   1      29.627  25.361  27.068  1.00  0.00     0.163 HD
BRANCH   5   8
ATOM      8  C   UNL A   1      32.230  23.663  25.630  1.00  0.00     0.052 C 
ATOM      9  C   UNL A   1      34.442  24.813  25.376  1.00  0.00    -0.010 C 
ATOM     10  C   UNL A   1      33.526  25.278  24.245  1.00  0.00     0.005 C 
ATOM     11  C   UNL A   1      33.516  24.099  26.383  1.00  0.00     0.020 C 
ATOM     12  C   UNL A   1      32.295  24.382  24.265  1.00  0.00     0.017 C 
BRANCH   9  13
ATOM     13  C   UNL A   1      35.686  23.973  25.010  1.00  0.00     0.000 C 
ATOM     14  C   UNL A   1      35.641  23.192  23.708  1.00  0.00     0.004 C 
ENDBRANCH   9  13
BRANCH   8  15
ATOM     15  C   UNL A   1      32.179  22.096  25.444  1.00  0.00     0.004 C 
ATOM     16  C   UNL A   1      32.264  21.602  23.988  1.00  0.00     0.005 C 
ATOM     17  C   UNL A   1      33.289  21.285  26.123  1.00  0.00     0.005 C 
ATOM     18  C   UNL A   1      32.528  20.110  24.122  1.00  0.00     0.000 C 
ATOM     19  C   UNL A   1      33.377  19.956  25.376  1.00  0.00     0.000 C 
ENDBRANCH   8  15
ENDBRANCH   5   8
ENDBRANCH   3   4
ENDBRANCH   2   3
ENDBRANCH   1   2
BRANCH   1  20
ATOM     20  C   UNL A   1      33.772  28.578  27.245  1.00  0.00     0.116 C 
BRANCH  20  21
ATOM     21  N   UNL A   1      33.731  29.950  27.726  1.00  0.00    -0.352 N 
ATOM     22  C   UNL A   1      34.729  30.682  28.328  1.00  0.00     0.251 C 
ATOM     23  H   UNL A   1      32.875  30.419  27.603  1.00  0.00     0.163 HD
ATOM     24  O   UNL A   1      34.496  31.794  28.780  1.00  0.00    -0.269 OA
BRANCH  22  25
ATOM     25  C   UNL A   1      36.077  30.093  28.457  1.00  0.00     0.039 A 
ATOM     26  C   UNL A   1      36.948  30.158  27.366  1.00  0.00     0.014 A 
ATOM     27  C   UNL A   1      36.491  29.512  29.659  1.00  0.00     0.014 A 
ATOM     28  C   UNL A   1      38.260  29.703  27.504  1.00  0.00     0.010 A 
ATOM     29  C   UNL A   1      37.817  29.126  29.815  1.00  0.00     0.010 A 
ATOM     30  C   UNL A   1      38.716  29.220  28.742  1.00  0.00    -0.014 A 
BRANCH  30  31
ATOM     31  C   UNL A   1      40.127  28.802  28.934  1.00  0.00     0.031 A 
ATOM     32  C   UNL A   1      41.127  29.773  29.497  1.00  0.00     0.074 A 
ATOM     33  C   UNL A   1      40.521  27.574  28.546  1.00  0.00     0.049 A 
ATOM     34  N   UNL A   1      42.418  29.633  29.656  1.00  0.00    -0.248 NA
ATOM     35  C   UNL A   1      40.609  31.086  29.915  1.00  0.00     0.031 C 
ATOM     36  C   UNL A   1      39.655  26.551  27.953  1.00  0.00     0.029 A 
ATOM     37  N   UNL A   1      41.757  26.979  28.583  1.00  0.00    -0.354 N 
ATOM     38  C   UNL A   1      42.865  30.837  30.184  1.00  0.00     0.074 A 
ATOM     39  C   UNL A   1      41.720  31.718  30.264  1.00  0.00     0.031 C 
ATOM     40  C   UNL A   1      40.383  25.450  27.703  1.00  0.00     0.029 A 
ATOM     41  C   UNL A   1      41.770  25.701  28.079  1.00  0.00     0.049 A 
ATOM     42  H   UNL A   1      42.560  27.426  28.936  1.00  0.00     0.167 HD
ATOM     43  C   UNL A   1      44.112  31.170  30.595  1.00  0.00     0.037 A 
ATOM     44  C   UNL A   1      42.789  24.833  27.928  1.00  0.00     0.037 A 
ATOM     45  C   UNL A   1      45.247  30.290  30.531  1.00  0.00     0.049 A 
ATOM     46  C   UNL A   1      44.170  25.241  28.364  1.00  0.00     0.074 A 
ATOM     47  C   UNL A   1      46.548  30.526  30.942  1.00  0.00     0.029 A 
ATOM     48  N   UNL A   1      45.216  28.998  30.028  1.00  0.00    -0.354 N 
ATOM     49  N   UNL A   1      44.569  26.367  28.903  1.00  0.00    -0.248 NA
ATOM     50  C   UNL A   1      45.244  24.255  28.172  1.00  0.00     0.031 C 
ATOM     51  C   UNL A   1      47.310  29.390  30.659  1.00  0.00     0.029 A 
ATOM     52  C   UNL A   1      46.475  28.429  30.111  1.00  0.00     0.049 A 
ATOM     53  H   UNL A   1      44.416  28.552  29.665  1.00  0.00     0.167 HD
ATOM     54  C   UNL A   1      45.927  26.210  29.150  1.00  0.00     0.074 A 
ATOM     55  C   UNL A   1      46.282  24.878  28.710  1.00  0.00     0.031 C 
ATOM     56  C   UNL A   1      46.804  27.092  29.690  1.00  0.00     0.037 A 
BRANCH  43  57
ATOM     57  C   UNL A   1      44.305  32.545  31.166  1.00  0.00     0.057 A 
ATOM     58  C   UNL A   1      44.164  32.793  32.538  1.00  0.00     0.134 A 
ATOM     59  C   UNL A   1      44.670  33.620  30.349  1.00  0.00     0.134 A 
ATOM     60  F   UNL A   1      43.801  31.807  33.373  1.00  0.00    -0.206 F 
ATOM     61  C   UNL A   1      44.355  34.067  33.074  1.00  0.00     0.040 A 
ATOM     62  C   UNL A   1      44.891  34.894  30.877  1.00  0.00     0.040 A 
ATOM     63  F   UNL A   1      44.828  33.451  29.027  1.00  0.00    -0.206 F 
ATOM     64  C   UNL A   1      44.729  35.121  32.242  1.00  0.00     0.006 A 
ENDBRANCH  43  57
BRANCH  44  65
ATOM     65  C   UNL A   1      42.551  23.482  27.359  1.00  0.00     0.057 A 
ATOM     66  C   UNL A   1      42.631  23.259  25.979  1.00  0.00     0.134 A 
ATOM     67  C   UNL A   1      42.200  22.396  28.168  1.00  0.00     0.134 A 
ATOM     68  F   UNL A   1      42.943  24.266  25.149  1.00  0.00    -0.206 F 
ATOM     69  C   UNL A   1      42.343  22.013  25.421  1.00  0.00     0.040 A 
ATOM     70  C   UNL A   1      41.933  21.138  27.626  1.00  0.00     0.040 A 
ATOM     71  F   UNL A   1      42.112  22.542  29.498  1.00  0.00    -0.206 F 
ATOM     72  C   UNL A   1      41.994  20.946  26.247  1.00  0.00     0.006 A 
ENDBRANCH  44  65
BRANCH  56  73
ATOM     73  C   UNL A   1      48.215  26.623  29.888  1.00  0.00     0.057 A 
ATOM     74  C   UNL A   1      48.618  25.952  31.049  1.00  0.00     0.134 A 
ATOM     75  C   UNL A   1      49.173  26.814  28.884  1.00  0.00     0.134 A 
ATOM     76  F   UNL A   1      47.751  25.751  32.053  1.00  0.00    -0.206 F 
ATOM     77  C   UNL A   1      49.930  25.507  31.214  1.00  0.00     0.040 A 
ATOM     78  C   UNL A   1      50.481  26.351  29.027  1.00  0.00     0.040 A 
ATOM     79  F   UNL A   1      48.849  27.443  27.744  1.00  0.00    -0.206 F 
ATOM     80  C   UNL A   1      50.865  25.700  30.198  1.00  0.00     0.006 A 
ENDBRANCH  56  73
ENDBRANCH  30  31
ENDBRANCH  22  25
ENDBRANCH  20  21
ENDBRANCH   1  20
TORSDOF 13
ENDMDL
MODEL 2
REMARK VINA RESULT:     -11.1      2.445      7.369
REMARK SMILES CC[C@H]1CC[C@@](C(=O)NCCCCNC(=O)c2ccc(-c3c4nc(c(-c5c(F)cccc5F)c5ccc([nH]5)c(-c5c(F)cccc5F)c5nc(c(-c6c(F)cccc6F)c6ccc3[nH]6)C=C5)C=C4)cc2)(C2CCCC2)C1
REMARK SMILES IDX 12 1 11 2 10 3 9 4 7 5 8 6 6 8 3 9 4 10 76 11 5 12 2 13 1 14
REMARK SMILES IDX 71 15 72 16 75 17 73 18 74 19 13 20 14 21 15 22 16 24 17 25
REMARK SMILES IDX 18 26 70 27 19 28 69 29 20 30 21 31 22 32 63 33 23 34 68 35
REMARK SMILES IDX 62 36 64 37 24 38 67 39 61 40 60 41 25 43 51 44 34 45 50 46
REMARK SMILES IDX 35 47 38 48 49 49 65 50 36 51 37 52 48 54 66 55 39 56 26 57
REMARK SMILES IDX 27 58 32 59 28 60 29 61 31 62 33 63 30 64 52 65 53 66 58 67
REMARK SMILES IDX 54 68 55 69 57 70 59 71 56 72 40 73 41 74 46 75 42 76 43 77
REMARK SMILES IDX 45 78 47 79 44 80
REMARK H PARENT 9 7 14 23 64 42 38 53
REMARK Flexibility Score: inf
ROOT
ATOM      1  C   UNL A   1      37.750  19.863  24.791  1.00  0.00     0.023 C 
ENDROOT
BRANCH   1   2
ATOM      2  C   UNL A   1      36.452  20.639  25.029  1.00  0.00     0.023 C 
BRANCH   2   3
ATOM      3  C   UNL A   1      36.605  21.861  25.928  1.00  0.00     0.116 C 
BRANCH   3   4
ATOM      4  N   UNL A   1      35.517  21.977  26.871  1.00  0.00    -0.356 N 
ATOM      5  C   UNL A   1      34.335  22.645  26.847  1.00  0.00     0.226 C 
ATOM      6  O   UNL A   1      33.618  22.432  27.832  1.00  0.00    -0.274 OA
ATOM      7  H   UNL A   1      35.662  21.467  27.701  1.00  0.00     0.163 HD
BRANCH   5   8
ATOM      8  C   UNL A   1      33.865  23.563  25.675  1.00  0.00     0.052 C 
ATOM      9  C   UNL A   1      34.007  23.227  23.195  1.00  0.00    -0.010 C 
ATOM     10  C   UNL A   1      35.234  24.020  23.643  1.00  0.00     0.005 C 
ATOM     11  C   UNL A   1      33.378  22.680  24.494  1.00  0.00     0.020 C 
ATOM     12  C   UNL A   1      34.998  24.435  25.090  1.00  0.00     0.017 C 
BRANCH   9  13
ATOM     13  C   UNL A   1      32.976  23.929  22.284  1.00  0.00     0.000 C 
ATOM     14  C   UNL A   1      32.925  25.447  22.330  1.00  0.00     0.004 C 
ENDBRANCH   9  13
BRANCH   8  15
ATOM     15  C   UNL A   1      32.695  24.460  26.239  1.00  0.00     0.004 C 
ATOM     16  C   UNL A   1      32.879  25.978  26.055  1.00  0.00     0.005 C 
ATOM     17  C   UNL A   1      31.302  24.231  25.642  1.00  0.00     0.005 C 
ATOM     18  C   UNL A   1      31.506  26.554  26.367  1.00  0.00     0.000 C 
ATOM     19  C   UNL A   1      30.507  25.512  25.887  1.00  0.00     0.000 C 
ENDBRANCH   8  15
ENDBRANCH   5   8
ENDBRANCH   3   4
ENDBRANCH   2   3
ENDBRANCH   1   2
BRANCH   1  20
ATOM     20  C   UNL A   1      38.923  20.271  25.674  1.00  0.00     0.116 C 
BRANCH  20  21
ATOM     21  N   UNL A   1      39.973  19.266  25.731  1.00  0.00    -0.352 N 
ATOM     22  C   UNL A   1      41.290  19.416  26.105  1.00  0.00     0.251 C 
ATOM     23  H   UNL A   1      39.707  18.356  25.469  1.00  0.00     0.163 HD
ATOM     24  O   UNL A   1      42.077  18.487  25.988  1.00  0.00    -0.269 OA
BRANCH  22  25
ATOM     25  C   UNL A   1      41.749  20.723  26.615  1.00  0.00     0.039 A 
ATOM     26  C   UNL A   1      42.270  21.653  25.713  1.00  0.00     0.014 A 
ATOM     27  C   UNL A   1      41.635  21.041  27.972  1.00  0.00     0.014 A 
ATOM     28  C   UNL A   1      42.610  22.931  26.159  1.00  0.00     0.010 A 
ATOM     29  C   UNL A   1      41.906  22.335  28.400  1.00  0.00     0.010 A 
ATOM     30  C   UNL A   1      42.393  23.294  27.499  1.00  0.00    -0.014 A 
BRANCH  30  31
ATOM     31  C   UNL A   1      42.675  24.669  27.980  1.00  0.00     0.031 A 
ATOM     32  C   UNL A   1      44.076  25.058  28.362  1.00  0.00     0.074 A 
ATOM     33  C   UNL A   1      41.664  25.546  28.134  1.00  0.00     0.049 A 
ATOM     34  N   UNL A   1      44.511  26.174  28.889  1.00  0.00    -0.248 NA
ATOM     35  C   UNL A   1      45.125  24.048  28.144  1.00  0.00     0.031 C 
ATOM     36  C   UNL A   1      40.255  25.279  27.833  1.00  0.00     0.029 A 
ATOM     37  N   UNL A   1      41.665  26.840  28.592  1.00  0.00    -0.354 N 
ATOM     38  C   UNL A   1      45.877  25.998  29.070  1.00  0.00     0.074 A 
ATOM     39  C   UNL A   1      46.190  24.648  28.653  1.00  0.00     0.031 C 
ATOM     40  C   UNL A   1      39.533  26.382  28.094  1.00  0.00     0.029 A 
ATOM     41  C   UNL A   1      40.419  27.417  28.617  1.00  0.00     0.049 A 
ATOM     42  H   UNL A   1      42.482  27.310  28.877  1.00  0.00     0.167 HD
ATOM     43  C   UNL A   1      46.794  26.890  29.514  1.00  0.00     0.037 A 
ATOM     44  C   UNL A   1      40.033  28.642  29.025  1.00  0.00     0.037 A 
ATOM     45  C   UNL A   1      46.486  28.237  29.912  1.00  0.00     0.049 A 
ATOM     46  C   UNL A   1      41.068  29.601  29.544  1.00  0.00     0.074 A 
ATOM     47  C   UNL A   1      47.348  29.225  30.357  1.00  0.00     0.029 A 
ATOM     48  N   UNL A   1      45.214  28.789  29.909  1.00  0.00    -0.354 N 
ATOM     49  N   UNL A   1      42.363  29.436  29.667  1.00  0.00    -0.248 NA
ATOM     50  C   UNL A   1      40.589  30.921  29.979  1.00  0.00     0.031 C 
ATOM     51  C   UNL A   1      46.593  30.364  30.652  1.00  0.00     0.029 A 
ATOM     52  C   UNL A   1      45.267  30.099  30.350  1.00  0.00     0.049 A 
ATOM     53  H   UNL A   1      44.394  28.318  29.633  1.00  0.00     0.167 HD
ATOM     54  C   UNL A   1      42.856  30.640  30.155  1.00  0.00     0.074 A 
ATOM     55  C   UNL A   1      41.722  31.529  30.297  1.00  0.00     0.031 C 
ATOM     56  C   UNL A   1      44.132  30.978  30.461  1.00  0.00     0.037 A 
BRANCH  43  57
ATOM     57  C   UNL A   1      48.224  26.437  29.575  1.00  0.00     0.057 A 
ATOM     58  C   UNL A   1      48.744  25.807  30.714  1.00  0.00     0.134 A 
ATOM     59  C   UNL A   1      49.078  26.596  28.478  1.00  0.00     0.134 A 
ATOM     60  F   UNL A   1      47.980  25.638  31.805  1.00  0.00    -0.206 F 
ATOM     61  C   UNL A   1      50.069  25.374  30.768  1.00  0.00     0.040 A 
ATOM     62  C   UNL A   1      50.398  26.143  28.510  1.00  0.00     0.040 A 
ATOM     63  F   UNL A   1      48.643  27.186  27.354  1.00  0.00    -0.206 F 
ATOM     64  C   UNL A   1      50.898  25.534  29.660  1.00  0.00     0.006 A 
ENDBRANCH  43  57
BRANCH  44  65
ATOM     65  C   UNL A   1      38.606  29.048  28.945  1.00  0.00     0.057 A 
ATOM     66  C   UNL A   1      38.079  29.593  27.769  1.00  0.00     0.134 A 
ATOM     67  C   UNL A   1      37.750  28.938  30.046  1.00  0.00     0.134 A 
ATOM     68  F   UNL A   1      38.856  29.743  26.686  1.00  0.00    -0.206 F 
ATOM     69  C   UNL A   1      36.759  30.043  27.699  1.00  0.00     0.040 A 
ATOM     70  C   UNL A   1      36.421  29.361  29.982  1.00  0.00     0.040 A 
ATOM     71  F   UNL A   1      38.192  28.418  31.201  1.00  0.00    -0.206 F 
ATOM     72  C   UNL A   1      35.925  29.926  28.808  1.00  0.00     0.006 A 
ENDBRANCH  44  65
BRANCH  56  73
ATOM     73  C   UNL A   1      44.377  32.384  30.924  1.00  0.00     0.057 A 
ATOM     74  C   UNL A   1      44.378  32.727  32.282  1.00  0.00     0.134 A 
ATOM     75  C   UNL A   1      44.654  33.398  29.999  1.00  0.00     0.134 A 
ATOM     76  F   UNL A   1      44.107  31.805  33.217  1.00  0.00    -0.206 F 
ATOM     77  C   UNL A   1      44.624  34.036  32.701  1.00  0.00     0.040 A 
ATOM     78  C   UNL A   1      44.927  34.704  30.407  1.00  0.00     0.040 A 
ATOM     79  F   UNL A   1      44.676  33.132  28.684  1.00  0.00    -0.206 F 
ATOM     80  C   UNL A   1      44.906  35.027  31.762  1.00  0.00     0.006 A 
ENDBRANCH  56  73
ENDBRANCH  30  31
ENDBRANCH  22  25
ENDBRANCH  20  21
ENDBRANCH   1  20
TORSDOF 13
ENDMDL
MODEL 3
REMARK VINA RESULT:     -11.1      3.925      5.539
REMARK SMILES CC[C@H]1CC[C@@](C(=O)NCCCCNC(=O)c2ccc(-c3c4nc(c(-c5c(F)cccc5F)c5ccc([nH]5)c(-c5c(F)cccc5F)c5nc(c(-c6c(F)cccc6F)c6ccc3[nH]6)C=C5)C=C4)cc2)(C2CCCC2)C1
REMARK SMILES IDX 12 1 11 2 10 3 9 4 7 5 8 6 6 8 3 9 4 10 76 11 5 12 2 13 1 14
REMARK SMILES IDX 71 15 72 16 75 17 73 18 74 19 13 20 14 21 15 22 16 24 17 25
REMARK SMILES IDX 18 26 70 27 19 28 69 29 20 30 21 31 22 32 63 33 23 34 68 35
REMARK SMILES IDX 62 36 64 37 24 38 67 39 61 40 60 41 25 43 51 44 34 45 50 46
REMARK SMILES IDX 35 47 38 48 49 49 65 50 36 51 37 52 48 54 66 55 39 56 26 57
REMARK SMILES IDX 27 58 32 59 28 60 29 61 31 62 33 63 30 64 52 65 53 66 58 67
REMARK SMILES IDX 54 68 55 69 57 70 59 71 56 72 40 73 41 74 46 75 42 76 43 77
REMARK SMILES IDX 45 78 47 79 44 80
REMARK H PARENT 9 7 14 23 64 42 38 53
REMARK Flexibility Score: inf
ROOT
ATOM      1  C   UNL A   1      31.348  31.966  26.625  1.00  0.00     0.023 C 
ENDROOT
BRANCH   1   2
ATOM      2  C   UNL A   1      31.542  30.626  25.911  1.00  0.00     0.023 C 
BRANCH   2   3
ATOM      3  C   UNL A   1      32.950  30.050  26.026  1.00  0.00     0.116 C 
BRANCH   3   4
ATOM      4  N   UNL A   1      33.487  29.678  24.737  1.00  0.00    -0.356 N 
ATOM      5  C   UNL A   1      33.535  28.505  24.056  1.00  0.00     0.226 C 
ATOM      6  O   UNL A   1      34.019  28.602  22.922  1.00  0.00    -0.274 OA
ATOM      7  H   UNL A   1      33.903  30.429  24.254  1.00  0.00     0.163 HD
BRANCH   5   8
ATOM      8  C   UNL A   1      32.990  27.146  24.600  1.00  0.00     0.052 C 
ATOM      9  C   UNL A   1      30.886  26.633  25.862  1.00  0.00    -0.010 C 
ATOM     10  C   UNL A   1      32.009  26.861  26.872  1.00  0.00     0.005 C 
ATOM     11  C   UNL A   1      31.439  27.145  24.515  1.00  0.00     0.020 C 
ATOM     12  C   UNL A   1      33.316  26.911  26.091  1.00  0.00     0.017 C 
BRANCH   9  13
ATOM     13  C   UNL A   1      30.275  25.218  25.755  1.00  0.00     0.000 C 
ATOM     14  C   UNL A   1      31.105  24.059  26.282  1.00  0.00     0.004 C 
ENDBRANCH   9  13
BRANCH   8  15
ATOM     15  C   UNL A   1      33.613  26.011  23.698  1.00  0.00     0.004 C 
ATOM     16  C   UNL A   1      34.338  24.886  24.459  1.00  0.00     0.005 C 
ATOM     17  C   UNL A   1      32.641  25.223  22.811  1.00  0.00     0.005 C 
ATOM     18  C   UNL A   1      34.532  23.800  23.412  1.00  0.00     0.000 C 
ATOM     19  C   UNL A   1      33.318  23.890  22.500  1.00  0.00     0.000 C 
ENDBRANCH   8  15
ENDBRANCH   5   8
ENDBRANCH   3   4
ENDBRANCH   2   3
ENDBRANCH   1   2
BRANCH   1  20
ATOM     20  C   UNL A   1      32.614  32.583  27.207  1.00  0.00     0.116 C 
BRANCH  20  21
ATOM     21  N   UNL A   1      32.443  33.971  27.607  1.00  0.00    -0.352 N 
ATOM     22  C   UNL A   1      33.138  34.687  28.555  1.00  0.00     0.251 C 
ATOM     23  H   UNL A   1      31.737  34.467  27.133  1.00  0.00     0.163 HD
ATOM     24  O   UNL A   1      32.792  35.821  28.853  1.00  0.00    -0.269 OA
BRANCH  22  25
ATOM     25  C   UNL A   1      34.284  34.054  29.239  1.00  0.00     0.039 A 
ATOM     26  C   UNL A   1      34.037  33.185  30.304  1.00  0.00     0.014 A 
ATOM     27  C   UNL A   1      35.592  34.291  28.807  1.00  0.00     0.014 A 
ATOM     28  C   UNL A   1      35.100  32.496  30.892  1.00  0.00     0.010 A 
ATOM     29  C   UNL A   1      36.638  33.550  29.345  1.00  0.00     0.010 A 
ATOM     30  C   UNL A   1      36.403  32.644  30.390  1.00  0.00    -0.014 A 
BRANCH  30  31
ATOM     31  C   UNL A   1      37.537  31.866  30.948  1.00  0.00     0.031 A 
ATOM     32  C   UNL A   1      38.043  32.164  32.332  1.00  0.00     0.074 A 
ATOM     33  C   UNL A   1      38.150  30.937  30.189  1.00  0.00     0.049 A 
ATOM     34  N   UNL A   1      39.075  31.663  32.962  1.00  0.00    -0.248 NA
ATOM     35  C   UNL A   1      37.304  33.178  33.101  1.00  0.00     0.031 C 
ATOM     36  C   UNL A   1      37.777  30.579  28.818  1.00  0.00     0.029 A 
ATOM     37  N   UNL A   1      39.225  30.128  30.461  1.00  0.00    -0.354 N 
ATOM     38  C   UNL A   1      39.112  32.304  34.194  1.00  0.00     0.074 A 
ATOM     39  C   UNL A   1      38.037  33.272  34.201  1.00  0.00     0.031 C 
ATOM     40  C   UNL A   1      38.596  29.609  28.379  1.00  0.00     0.029 A 
ATOM     41  C   UNL A   1      39.574  29.305  29.418  1.00  0.00     0.049 A 
ATOM     42  H   UNL A   1      39.702  30.138  31.322  1.00  0.00     0.167 HD
ATOM     43  C   UNL A   1      39.946  32.084  35.237  1.00  0.00     0.037 A 
ATOM     44  C   UNL A   1      40.576  28.412  29.310  1.00  0.00     0.037 A 
ATOM     45  C   UNL A   1      41.005  31.111  35.237  1.00  0.00     0.049 A 
ATOM     46  C   UNL A   1      41.509  28.212  30.473  1.00  0.00     0.074 A 
ATOM     47  C   UNL A   1      41.891  30.798  36.252  1.00  0.00     0.029 A 
ATOM     48  N   UNL A   1      41.316  30.285  34.166  1.00  0.00    -0.354 N 
ATOM     49  N   UNL A   1      41.503  28.792  31.648  1.00  0.00    -0.248 NA
ATOM     50  C   UNL A   1      42.586  27.227  30.297  1.00  0.00     0.031 C 
ATOM     51  C   UNL A   1      42.759  29.806  35.786  1.00  0.00     0.029 A 
ATOM     52  C   UNL A   1      42.385  29.471  34.495  1.00  0.00     0.049 A 
ATOM     53  H   UNL A   1      40.846  30.280  33.301  1.00  0.00     0.167 HD
ATOM     54  C   UNL A   1      42.548  28.218  32.361  1.00  0.00     0.074 A 
ATOM     55  C   UNL A   1      43.159  27.237  31.491  1.00  0.00     0.031 C 
ATOM     56  C   UNL A   1      42.965  28.482  33.623  1.00  0.00     0.037 A 
BRANCH  43  57
ATOM     57  C   UNL A   1      39.733  32.906  36.475  1.00  0.00     0.057 A 
ATOM     58  C   UNL A   1      38.772  32.552  37.432  1.00  0.00     0.134 A 
ATOM     59  C   UNL A   1      40.516  34.038  36.732  1.00  0.00     0.134 A 
ATOM     60  F   UNL A   1      37.980  31.486  37.237  1.00  0.00    -0.206 F 
ATOM     61  C   UNL A   1      38.581  33.307  38.589  1.00  0.00     0.040 A 
ATOM     62  C   UNL A   1      40.352  34.786  37.899  1.00  0.00     0.040 A 
ATOM     63  F   UNL A   1      41.457  34.430  35.861  1.00  0.00    -0.206 F 
ATOM     64  C   UNL A   1      39.379  34.425  38.830  1.00  0.00     0.006 A 
ENDBRANCH  43  57
BRANCH  44  65
ATOM     65  C   UNL A   1      40.748  27.619  28.065  1.00  0.00     0.057 A 
ATOM     66  C   UNL A   1      40.148  26.363  27.924  1.00  0.00     0.134 A 
ATOM     67  C   UNL A   1      41.544  28.077  27.008  1.00  0.00     0.134 A 
ATOM     68  F   UNL A   1      39.390  25.861  28.911  1.00  0.00    -0.206 F 
ATOM     69  C   UNL A   1      40.356  25.576  26.790  1.00  0.00     0.040 A 
ATOM     70  C   UNL A   1      41.739  27.311  25.858  1.00  0.00     0.040 A 
ATOM     71  F   UNL A   1      42.142  29.275  27.079  1.00  0.00    -0.206 F 
ATOM     72  C   UNL A   1      41.153  26.051  25.751  1.00  0.00     0.006 A 
ENDBRANCH  44  65
BRANCH  56  73
ATOM     73  C   UNL A   1      44.100  27.658  34.157  1.00  0.00     0.057 A 
ATOM     74  C   UNL A   1      43.897  26.391  34.717  1.00  0.00     0.134 A 
ATOM     75  C   UNL A   1      45.418  28.126  34.074  1.00  0.00     0.134 A 
ATOM     76  F   UNL A   1      42.658  25.891  34.838  1.00  0.00    -0.206 F 
ATOM     77  C   UNL A   1      44.963  25.627  35.196  1.00  0.00     0.040 A 
ATOM     78  C   UNL A   1      46.494  27.362  34.525  1.00  0.00     0.040 A 
ATOM     79  F   UNL A   1      45.680  29.330  33.541  1.00  0.00    -0.206 F 
ATOM     80  C   UNL A   1      46.267  26.110  35.094  1.00  0.00     0.006 A 
ENDBRANCH  56  73
ENDBRANCH  30  31
ENDBRANCH  22  25
ENDBRANCH  20  21
ENDBRANCH   1  20
TORSDOF 13
ENDMDL
