MODEL 1
REMARK VINA RESULT:     -10.6      0.000      0.000
REMARK SMILES CCC(CC)(NC(=O)N(C)C1CC[NH2+]CC1)C(=O)NCCCCNC(=O)c1ccc(-c2c3nc(c(-c4c(F)cccc4F)c4ccc([nH]4)c(-c4c(F)cccc4F)c4nc(c(-c5c(F)cccc5F)c5ccc2[nH]5)C=C4)C=C3)cc1
REMARK SMILES IDX 21 1 20 2 19 3 17 4 18 5 3 7 2 8 1 9 4 10 5 11 6 12 7 13
REMARK SMILES IDX 8 15 9 16 10 17 11 18 12 19 16 20 13 21 15 22 14 23 22 26
REMARK SMILES IDX 23 27 24 28 25 29 26 31 27 32 28 33 80 34 29 35 79 36 30 37
REMARK SMILES IDX 31 38 32 39 73 40 33 41 78 42 72 43 74 44 34 45 77 46 71 47
REMARK SMILES IDX 70 48 35 50 61 51 44 52 60 53 45 54 48 55 59 56 75 57 46 58
REMARK SMILES IDX 47 59 58 61 76 62 49 63 36 64 37 65 42 66 38 67 39 68 41 69
REMARK SMILES IDX 43 70 40 71 62 72 63 73 68 74 64 75 65 76 67 77 69 78 66 79
REMARK SMILES IDX 50 80 51 81 56 82 52 83 53 84 55 85 57 86 54 87
REMARK H PARENT 19 6 6 14 14 24 14 25 24 30 74 49 48 60
REMARK Flexibility Score: inf
ROOT
ATOM      1  C   UNL A   1      37.076  20.796  24.605  1.00  0.00     0.023 C 
ENDROOT
BRANCH   1   2
ATOM      2  C   UNL A   1      35.627  20.535  24.998  1.00  0.00     0.116 C 
BRANCH   2   3
ATOM      3  N   UNL A   1      35.239  21.110  26.280  1.00  0.00    -0.354 N 
ATOM      4  C   UNL A   1      34.366  22.127  26.586  1.00  0.00     0.245 C 
ATOM      5  O   UNL A   1      34.051  22.229  27.774  1.00  0.00    -0.272 OA
ATOM      6  H   UNL A   1      35.677  20.701  27.061  1.00  0.00     0.163 HD
BRANCH   4   7
ATOM      7  C   UNL A   1      33.725  23.013  25.462  1.00  0.00     0.120 C 
BRANCH   7   8
ATOM      8  C   UNL A   1      33.054  22.318  24.233  1.00  0.00     0.035 C 
ATOM      9  C   UNL A   1      32.109  21.156  24.517  1.00  0.00     0.007 C 
ENDBRANCH   7   8
BRANCH   7  10
ATOM     10  C   UNL A   1      34.959  23.826  24.896  1.00  0.00     0.035 C 
ATOM     11  C   UNL A   1      35.200  23.803  23.392  1.00  0.00     0.007 C 
ENDBRANCH   7  10
BRANCH   7  12
ATOM     12  N   UNL A   1      32.705  23.880  26.128  1.00  0.00    -0.323 N 
ATOM     13  C   UNL A   1      32.194  25.134  26.000  1.00  0.00     0.318 C 
ATOM     14  H   UNL A   1      32.279  23.405  26.876  1.00  0.00     0.166 HD
ATOM     15  O   UNL A   1      31.455  25.454  26.937  1.00  0.00    -0.249 OA
BRANCH  13  16
ATOM     16  N   UNL A   1      32.389  25.957  24.910  1.00  0.00    -0.324 N 
ATOM     17  C   UNL A   1      31.833  25.675  23.592  1.00  0.00     0.149 C 
BRANCH  16  18
ATOM     18  C   UNL A   1      33.595  26.876  24.849  1.00  0.00     0.097 C 
ATOM     19  C   UNL A   1      33.941  27.775  26.063  1.00  0.00     0.086 C 
ATOM     20  C   UNL A   1      33.601  27.817  23.614  1.00  0.00     0.086 C 
ATOM     21  C   UNL A   1      33.187  29.102  26.140  1.00  0.00     0.262 C 
ATOM     22  C   UNL A   1      32.614  28.964  23.800  1.00  0.00     0.262 C 
ATOM     23  N   UNL A   1      33.076  29.828  24.878  1.00  0.00    -0.346 N 
ATOM     24  H   UNL A   1      33.992  30.204  24.632  1.00  0.00     0.346 HD
ATOM     25  H   UNL A   1      32.395  30.577  25.001  1.00  0.00     0.346 HD
ENDBRANCH  16  18
ENDBRANCH  13  16
ENDBRANCH   7  12
ENDBRANCH   4   7
ENDBRANCH   2   3
ENDBRANCH   1   2
BRANCH   1  26
ATOM     26  C   UNL A   1      38.052  19.664  24.925  1.00  0.00     0.023 C 
BRANCH  26  27
ATOM     27  C   UNL A   1      39.083  20.044  25.979  1.00  0.00     0.116 C 
BRANCH  27  28
ATOM     28  N   UNL A   1      40.298  19.261  25.858  1.00  0.00    -0.352 N 
ATOM     29  C   UNL A   1      41.628  19.580  25.968  1.00  0.00     0.251 C 
ATOM     30  H   UNL A   1      40.135  18.311  25.658  1.00  0.00     0.163 HD
ATOM     31  O   UNL A   1      42.444  18.725  25.623  1.00  0.00    -0.269 OA
BRANCH  29  32
ATOM     32  C   UNL A   1      42.135  20.893  26.462  1.00  0.00     0.039 A 
ATOM     33  C   UNL A   1      42.094  21.122  27.848  1.00  0.00     0.014 A 
ATOM     34  C   UNL A   1      42.521  21.945  25.633  1.00  0.00     0.014 A 
ATOM     35  C   UNL A   1      42.406  22.380  28.380  1.00  0.00     0.010 A 
ATOM     36  C   UNL A   1      42.923  23.173  26.168  1.00  0.00     0.010 A 
ATOM     37  C   UNL A   1      42.819  23.423  27.542  1.00  0.00    -0.014 A 
BRANCH  37  38
ATOM     38  C   UNL A   1      43.040  24.805  28.053  1.00  0.00     0.031 A 
ATOM     39  C   UNL A   1      44.429  25.242  28.456  1.00  0.00     0.074 A 
ATOM     40  C   UNL A   1      42.008  25.657  28.201  1.00  0.00     0.049 A 
ATOM     41  N   UNL A   1      44.814  26.347  29.046  1.00  0.00    -0.248 NA
ATOM     42  C   UNL A   1      45.524  24.296  28.187  1.00  0.00     0.031 C 
ATOM     43  C   UNL A   1      40.613  25.365  27.876  1.00  0.00     0.029 A 
ATOM     44  N   UNL A   1      41.979  26.944  28.678  1.00  0.00    -0.354 N 
ATOM     45  C   UNL A   1      46.182  26.206  29.256  1.00  0.00     0.074 A 
ATOM     46  C   UNL A   1      46.553  24.898  28.764  1.00  0.00     0.031 C 
ATOM     47  C   UNL A   1      39.865  26.448  28.147  1.00  0.00     0.029 A 
ATOM     48  C   UNL A   1      40.722  27.495  28.699  1.00  0.00     0.049 A 
ATOM     49  H   UNL A   1      42.784  27.427  28.976  1.00  0.00     0.167 HD
ATOM     50  C   UNL A   1      47.057  27.093  29.789  1.00  0.00     0.037 A 
ATOM     51  C   UNL A   1      40.302  28.701  29.125  1.00  0.00     0.037 A 
ATOM     52  C   UNL A   1      46.710  28.422  30.216  1.00  0.00     0.049 A 
ATOM     53  C   UNL A   1      41.297  29.682  29.681  1.00  0.00     0.074 A 
ATOM     54  C   UNL A   1      47.540  29.414  30.711  1.00  0.00     0.029 A 
ATOM     55  N   UNL A   1      45.430  28.951  30.183  1.00  0.00    -0.354 N 
ATOM     56  N   UNL A   1      42.588  29.543  29.852  1.00  0.00    -0.248 NA
ATOM     57  C   UNL A   1      40.773  30.992  30.100  1.00  0.00     0.031 C 
ATOM     58  C   UNL A   1      46.755  30.537  30.998  1.00  0.00     0.029 A 
ATOM     59  C   UNL A   1      45.445  30.254  30.653  1.00  0.00     0.049 A 
ATOM     60  H   UNL A   1      44.628  28.472  29.872  1.00  0.00     0.167 HD
ATOM     61  C   UNL A   1      43.034  30.749  30.379  1.00  0.00     0.074 A 
ATOM     62  C   UNL A   1      41.877  31.614  30.485  1.00  0.00     0.031 C 
ATOM     63  C   UNL A   1      44.289  31.106  30.743  1.00  0.00     0.037 A 
BRANCH  50  64
ATOM     64  C   UNL A   1      48.486  26.656  29.931  1.00  0.00     0.057 A 
ATOM     65  C   UNL A   1      49.445  26.934  28.948  1.00  0.00     0.134 A 
ATOM     66  C   UNL A   1      48.915  25.980  31.080  1.00  0.00     0.134 A 
ATOM     67  F   UNL A   1      49.097  27.567  27.818  1.00  0.00    -0.206 F 
ATOM     68  C   UNL A   1      50.774  26.531  29.092  1.00  0.00     0.040 A 
ATOM     69  C   UNL A   1      50.247  25.595  31.246  1.00  0.00     0.040 A 
ATOM     70  F   UNL A   1      48.050  25.690  32.063  1.00  0.00    -0.206 F 
ATOM     71  C   UNL A   1      51.179  25.865  30.247  1.00  0.00     0.006 A 
ENDBRANCH  50  64
BRANCH  51  72
ATOM     72  C   UNL A   1      38.866  29.058  29.029  1.00  0.00     0.057 A 
ATOM     73  C   UNL A   1      38.024  28.962  30.143  1.00  0.00     0.134 A 
ATOM     74  C   UNL A   1      38.303  29.501  27.827  1.00  0.00     0.134 A 
ATOM     75  F   UNL A   1      38.505  28.521  31.314  1.00  0.00    -0.206 F 
ATOM     76  C   UNL A   1      36.668  29.281  30.063  1.00  0.00     0.040 A 
ATOM     77  C   UNL A   1      36.953  29.846  27.738  1.00  0.00     0.040 A 
ATOM     78  F   UNL A   1      39.060  29.617  26.726  1.00  0.00    -0.206 F 
ATOM     79  C   UNL A   1      36.131  29.730  28.858  1.00  0.00     0.006 A 
ENDBRANCH  51  72
BRANCH  63  80
ATOM     80  C   UNL A   1      44.483  32.499  31.262  1.00  0.00     0.057 A 
ATOM     81  C   UNL A   1      44.745  33.573  30.404  1.00  0.00     0.134 A 
ATOM     82  C   UNL A   1      44.368  32.773  32.630  1.00  0.00     0.134 A 
ATOM     83  F   UNL A   1      44.878  33.373  29.085  1.00  0.00    -0.206 F 
ATOM     84  C   UNL A   1      44.903  34.872  30.892  1.00  0.00     0.040 A 
ATOM     85  C   UNL A   1      44.503  34.069  33.127  1.00  0.00     0.040 A 
ATOM     86  F   UNL A   1      44.110  31.787  33.503  1.00  0.00    -0.206 F 
ATOM     87  C   UNL A   1      44.776  35.122  32.257  1.00  0.00     0.006 A 
ENDBRANCH  63  80
ENDBRANCH  37  38
ENDBRANCH  29  32
ENDBRANCH  27  28
ENDBRANCH  26  27
ENDBRANCH   1  26
TORSDOF 16
ENDMDL
MODEL 2
REMARK VINA RESULT:     -10.5      0.482      1.456
REMARK SMILES CCC(CC)(NC(=O)N(C)C1CC[NH2+]CC1)C(=O)NCCCCNC(=O)c1ccc(-c2c3nc(c(-c4c(F)cccc4F)c4ccc([nH]4)c(-c4c(F)cccc4F)c4nc(c(-c5c(F)cccc5F)c5ccc2[nH]5)C=C4)C=C3)cc1
REMARK SMILES IDX 21 1 20 2 19 3 17 4 18 5 3 7 2 8 1 9 4 10 5 11 6 12 7 13
REMARK SMILES IDX 8 15 9 16 10 17 11 18 12 19 16 20 13 21 15 22 14 23 22 26
REMARK SMILES IDX 23 27 24 28 25 29 26 31 27 32 28 33 80 34 29 35 79 36 30 37
REMARK SMILES IDX 31 38 32 39 73 40 33 41 78 42 72 43 74 44 34 45 77 46 71 47
REMARK SMILES IDX 70 48 35 50 61 51 44 52 60 53 45 54 48 55 59 56 75 57 46 58
REMARK SMILES IDX 47 59 58 61 76 62 49 63 36 64 37 65 42 66 38 67 39 68 41 69
REMARK SMILES IDX 43 70 40 71 62 72 63 73 68 74 64 75 65 76 67 77 69 78 66 79
REMARK SMILES IDX 50 80 51 81 56 82 52 83 53 84 55 85 57 86 54 87
REMARK H PARENT 19 6 6 14 14 24 14 25 24 30 74 49 48 60
REMARK Flexibility Score: inf
ROOT
ATOM      1  C   UNL A   1      36.882  20.811  24.585  1.00  0.00     0.023 C 
ENDROOT
BRANCH   1   2
ATOM      2  C   UNL A   1      35.441  20.535  24.993  1.00  0.00     0.116 C 
BRANCH   2   3
ATOM      3  N   UNL A   1      35.056  21.122  26.272  1.00  0.00    -0.354 N 
ATOM      4  C   UNL A   1      34.170  22.128  26.573  1.00  0.00     0.245 C 
ATOM      5  O   UNL A   1      33.865  22.242  27.763  1.00  0.00    -0.272 OA
ATOM      6  H   UNL A   1      35.510  20.731  27.053  1.00  0.00     0.163 HD
BRANCH   4   7
ATOM      7  C   UNL A   1      33.502  22.987  25.443  1.00  0.00     0.120 C 
BRANCH   7   8
ATOM      8  C   UNL A   1      32.681  22.269  24.323  1.00  0.00     0.035 C 
ATOM      9  C   UNL A   1      33.121  22.495  22.881  1.00  0.00     0.007 C 
ENDBRANCH   7   8
BRANCH   7  10
ATOM     10  C   UNL A   1      34.739  23.663  24.725  1.00  0.00     0.035 C 
ATOM     11  C   UNL A   1      35.787  24.343  25.597  1.00  0.00     0.007 C 
ENDBRANCH   7  10
BRANCH   7  12
ATOM     12  N   UNL A   1      32.606  23.973  26.125  1.00  0.00    -0.323 N 
ATOM     13  C   UNL A   1      31.896  25.089  25.813  1.00  0.00     0.318 C 
ATOM     14  H   UNL A   1      32.501  23.746  27.076  1.00  0.00     0.166 HD
ATOM     15  O   UNL A   1      31.430  25.660  26.804  1.00  0.00    -0.249 OA
BRANCH  13  16
ATOM     16  N   UNL A   1      31.630  25.520  24.529  1.00  0.00    -0.324 N 
ATOM     17  C   UNL A   1      30.592  24.931  23.693  1.00  0.00     0.149 C 
BRANCH  16  18
ATOM     18  C   UNL A   1      32.703  26.225  23.719  1.00  0.00     0.097 C 
ATOM     19  C   UNL A   1      33.686  27.196  24.421  1.00  0.00     0.086 C 
ATOM     20  C   UNL A   1      32.150  26.999  22.492  1.00  0.00     0.086 C 
ATOM     21  C   UNL A   1      33.179  28.625  24.613  1.00  0.00     0.262 C 
ATOM     22  C   UNL A   1      31.486  28.301  22.925  1.00  0.00     0.262 C 
ATOM     23  N   UNL A   1      32.497  29.204  23.460  1.00  0.00    -0.346 N 
ATOM     24  H   UNL A   1      33.185  29.398  22.733  1.00  0.00     0.346 HD
ATOM     25  H   UNL A   1      32.032  30.060  23.761  1.00  0.00     0.346 HD
ENDBRANCH  16  18
ENDBRANCH  13  16
ENDBRANCH   7  12
ENDBRANCH   4   7
ENDBRANCH   2   3
ENDBRANCH   1   2
BRANCH   1  26
ATOM     26  C   UNL A   1      37.877  19.698  24.913  1.00  0.00     0.023 C 
BRANCH  26  27
ATOM     27  C   UNL A   1      38.919  20.112  25.943  1.00  0.00     0.116 C 
BRANCH  27  28
ATOM     28  N   UNL A   1      40.122  19.307  25.854  1.00  0.00    -0.352 N 
ATOM     29  C   UNL A   1      41.456  19.604  25.987  1.00  0.00     0.251 C 
ATOM     30  H   UNL A   1      39.947  18.358  25.660  1.00  0.00     0.163 HD
ATOM     31  O   UNL A   1      42.262  18.731  25.667  1.00  0.00    -0.269 OA
BRANCH  29  32
ATOM     32  C   UNL A   1      41.975  20.913  26.478  1.00  0.00     0.039 A 
ATOM     33  C   UNL A   1      41.956  21.137  27.865  1.00  0.00     0.014 A 
ATOM     34  C   UNL A   1      42.354  21.966  25.647  1.00  0.00     0.014 A 
ATOM     35  C   UNL A   1      42.282  22.392  28.397  1.00  0.00     0.010 A 
ATOM     36  C   UNL A   1      42.769  23.190  26.180  1.00  0.00     0.010 A 
ATOM     37  C   UNL A   1      42.687  23.436  27.556  1.00  0.00    -0.014 A 
BRANCH  37  38
ATOM     38  C   UNL A   1      42.921  24.815  28.069  1.00  0.00     0.031 A 
ATOM     39  C   UNL A   1      44.314  25.237  28.473  1.00  0.00     0.074 A 
ATOM     40  C   UNL A   1      41.898  25.677  28.217  1.00  0.00     0.049 A 
ATOM     41  N   UNL A   1      44.711  26.337  29.065  1.00  0.00    -0.248 NA
ATOM     42  C   UNL A   1      45.400  24.281  28.205  1.00  0.00     0.031 C 
ATOM     43  C   UNL A   1      40.500  25.400  27.891  1.00  0.00     0.029 A 
ATOM     44  N   UNL A   1      41.882  26.965  28.695  1.00  0.00    -0.354 N 
ATOM     45  C   UNL A   1      46.077  26.183  29.276  1.00  0.00     0.074 A 
ATOM     46  C   UNL A   1      46.435  24.871  28.783  1.00  0.00     0.031 C 
ATOM     47  C   UNL A   1      39.763  26.491  28.162  1.00  0.00     0.029 A 
ATOM     48  C   UNL A   1      40.630  27.528  28.716  1.00  0.00     0.049 A 
ATOM     49  H   UNL A   1      42.691  27.438  28.995  1.00  0.00     0.167 HD
ATOM     50  C   UNL A   1      46.960  27.060  29.810  1.00  0.00     0.037 A 
ATOM     51  C   UNL A   1      40.223  28.738  29.142  1.00  0.00     0.037 A 
ATOM     52  C   UNL A   1      46.627  28.392  30.239  1.00  0.00     0.049 A 
ATOM     53  C   UNL A   1      41.227  29.709  29.700  1.00  0.00     0.074 A 
ATOM     54  C   UNL A   1      47.466  29.375  30.735  1.00  0.00     0.029 A 
ATOM     55  N   UNL A   1      45.352  28.934  30.205  1.00  0.00    -0.354 N 
ATOM     56  N   UNL A   1      42.517  29.556  29.873  1.00  0.00    -0.248 NA
ATOM     57  C   UNL A   1      40.717  31.023  30.120  1.00  0.00     0.031 C 
ATOM     58  C   UNL A   1      46.693  30.506  31.022  1.00  0.00     0.029 A 
ATOM     59  C   UNL A   1      45.380  30.236  30.676  1.00  0.00     0.049 A 
ATOM     60  H   UNL A   1      44.545  28.464  29.893  1.00  0.00     0.167 HD
ATOM     61  C   UNL A   1      42.974  30.757  30.400  1.00  0.00     0.074 A 
ATOM     62  C   UNL A   1      41.827  31.633  30.507  1.00  0.00     0.031 C 
ATOM     63  C   UNL A   1      44.233  31.100  30.766  1.00  0.00     0.037 A 
BRANCH  50  64
ATOM     64  C   UNL A   1      48.385  26.608  29.953  1.00  0.00     0.057 A 
ATOM     65  C   UNL A   1      48.821  25.881  31.068  1.00  0.00     0.134 A 
ATOM     66  C   UNL A   1      49.323  26.874  28.948  1.00  0.00     0.134 A 
ATOM     67  F   UNL A   1      47.976  25.604  32.073  1.00  0.00    -0.206 F 
ATOM     68  C   UNL A   1      50.145  25.456  31.189  1.00  0.00     0.040 A 
ATOM     69  C   UNL A   1      50.643  26.433  29.046  1.00  0.00     0.040 A 
ATOM     70  F   UNL A   1      48.969  27.559  27.850  1.00  0.00    -0.206 F 
ATOM     71  C   UNL A   1      51.059  25.727  30.173  1.00  0.00     0.006 A 
ENDBRANCH  50  64
BRANCH  51  72
ATOM     72  C   UNL A   1      38.791  29.110  29.045  1.00  0.00     0.057 A 
ATOM     73  C   UNL A   1      37.944  29.010  30.156  1.00  0.00     0.134 A 
ATOM     74  C   UNL A   1      38.236  29.572  27.847  1.00  0.00     0.134 A 
ATOM     75  F   UNL A   1      38.417  28.551  31.324  1.00  0.00    -0.206 F 
ATOM     76  C   UNL A   1      36.592  29.342  30.074  1.00  0.00     0.040 A 
ATOM     77  C   UNL A   1      36.890  29.930  27.757  1.00  0.00     0.040 A 
ATOM     78  F   UNL A   1      38.998  29.693  26.750  1.00  0.00    -0.206 F 
ATOM     79  C   UNL A   1      36.062  29.810  28.873  1.00  0.00     0.006 A 
ENDBRANCH  51  72
BRANCH  63  80
ATOM     80  C   UNL A   1      44.441  32.491  31.286  1.00  0.00     0.057 A 
ATOM     81  C   UNL A   1      44.382  32.780  32.655  1.00  0.00     0.134 A 
ATOM     82  C   UNL A   1      44.744  33.542  30.412  1.00  0.00     0.134 A 
ATOM     83  F   UNL A   1      44.085  31.819  33.541  1.00  0.00    -0.206 F 
ATOM     84  C   UNL A   1      44.599  34.074  33.133  1.00  0.00     0.040 A 
ATOM     85  C   UNL A   1      44.983  34.833  30.880  1.00  0.00     0.040 A 
ATOM     86  F   UNL A   1      44.823  33.326  29.090  1.00  0.00    -0.206 F 
ATOM     87  C   UNL A   1      44.906  35.103  32.245  1.00  0.00     0.006 A 
ENDBRANCH  63  80
ENDBRANCH  37  38
ENDBRANCH  29  32
ENDBRANCH  27  28
ENDBRANCH  26  27
ENDBRANCH   1  26
TORSDOF 16
ENDMDL
MODEL 3
REMARK VINA RESULT:     -10.4      3.092      8.779
REMARK SMILES CCC(CC)(NC(=O)N(C)C1CC[NH2+]CC1)C(=O)NCCCCNC(=O)c1ccc(-c2c3nc(c(-c4c(F)cccc4F)c4ccc([nH]4)c(-c4c(F)cccc4F)c4nc(c(-c5c(F)cccc5F)c5ccc2[nH]5)C=C4)C=C3)cc1
REMARK SMILES IDX 21 1 20 2 19 3 17 4 18 5 3 7 2 8 1 9 4 10 5 11 6 12 7 13
REMARK SMILES IDX 8 15 9 16 10 17 11 18 12 19 16 20 13 21 15 22 14 23 22 26
REMARK SMILES IDX 23 27 24 28 25 29 26 31 27 32 28 33 80 34 29 35 79 36 30 37
REMARK SMILES IDX 31 38 32 39 73 40 33 41 78 42 72 43 74 44 34 45 77 46 71 47
REMARK SMILES IDX 70 48 35 50 61 51 44 52 60 53 45 54 48 55 59 56 75 57 46 58
REMARK SMILES IDX 47 59 58 61 76 62 49 63 36 64 37 65 42 66 38 67 39 68 41 69
REMARK SMILES IDX 43 70 40 71 62 72 63 73 68 74 64 75 65 76 67 77 69 78 66 79
REMARK SMILES IDX 50 80 51 81 56 82 52 83 53 84 55 85 57 86 54 87
REMARK H PARENT 19 6 6 14 14 24 14 25 24 30 74 49 48 60
REMARK Flexibility Score: inf
ROOT
ATOM      1  C   UNL A   1      31.419  30.427  26.433  1.00  0.00     0.023 C 
ENDROOT
BRANCH   1   2
ATOM      2  C   UNL A   1      31.299  29.859  25.025  1.00  0.00     0.116 C 
BRANCH   2   3
ATOM      3  N   UNL A   1      32.573  29.680  24.338  1.00  0.00    -0.354 N 
ATOM      4  C   UNL A   1      33.273  28.542  24.016  1.00  0.00     0.245 C 
ATOM      5  O   UNL A   1      34.200  28.686  23.214  1.00  0.00    -0.272 OA
ATOM      6  H   UNL A   1      33.006  30.518  24.057  1.00  0.00     0.163 HD
BRANCH   4   7
ATOM      7  C   UNL A   1      32.827  27.137  24.550  1.00  0.00     0.120 C 
BRANCH   7   8
ATOM      8  C   UNL A   1      31.304  26.841  24.743  1.00  0.00     0.035 C 
ATOM      9  C   UNL A   1      30.846  26.411  26.131  1.00  0.00     0.007 C 
ENDBRANCH   7   8
BRANCH   7  10
ATOM     10  C   UNL A   1      33.479  27.074  25.990  1.00  0.00     0.035 C 
ATOM     11  C   UNL A   1      34.339  28.249  26.437  1.00  0.00     0.007 C 
ENDBRANCH   7  10
BRANCH   7  12
ATOM     12  N   UNL A   1      33.388  26.120  23.606  1.00  0.00    -0.323 N 
ATOM     13  C   UNL A   1      33.794  24.823  23.628  1.00  0.00     0.318 C 
ATOM     14  H   UNL A   1      33.492  26.503  22.705  1.00  0.00     0.166 HD
ATOM     15  O   UNL A   1      34.356  24.473  22.586  1.00  0.00    -0.249 OA
BRANCH  13  16
ATOM     16  N   UNL A   1      33.545  23.938  24.657  1.00  0.00    -0.324 N 
ATOM     17  C   UNL A   1      32.228  23.366  24.911  1.00  0.00     0.149 C 
BRANCH  16  18
ATOM     18  C   UNL A   1      34.436  23.918  25.885  1.00  0.00     0.097 C 
ATOM     19  C   UNL A   1      35.961  24.148  25.735  1.00  0.00     0.086 C 
ATOM     20  C   UNL A   1      34.286  22.633  26.744  1.00  0.00     0.086 C 
ATOM     21  C   UNL A   1      36.783  22.913  25.368  1.00  0.00     0.262 C 
ATOM     22  C   UNL A   1      35.000  21.456  26.089  1.00  0.00     0.262 C 
ATOM     23  N   UNL A   1      36.437  21.697  26.097  1.00  0.00    -0.346 N 
ATOM     24  H   UNL A   1      36.751  21.790  27.063  1.00  0.00     0.346 HD
ATOM     25  H   UNL A   1      36.895  20.909  25.638  1.00  0.00     0.346 HD
ENDBRANCH  16  18
ENDBRANCH  13  16
ENDBRANCH   7  12
ENDBRANCH   4   7
ENDBRANCH   2   3
ENDBRANCH   1   2
BRANCH   1  26
ATOM     26  C   UNL A   1      31.361  31.952  26.528  1.00  0.00     0.023 C 
BRANCH  26  27
ATOM     27  C   UNL A   1      32.683  32.575  26.955  1.00  0.00     0.116 C 
BRANCH  27  28
ATOM     28  N   UNL A   1      32.493  33.843  27.633  1.00  0.00    -0.352 N 
ATOM     29  C   UNL A   1      33.154  34.457  28.667  1.00  0.00     0.251 C 
ATOM     30  H   UNL A   1      31.739  34.369  27.279  1.00  0.00     0.163 HD
ATOM     31  O   UNL A   1      32.634  35.462  29.151  1.00  0.00    -0.269 OA
BRANCH  29  32
ATOM     32  C   UNL A   1      34.443  33.972  29.239  1.00  0.00     0.039 A 
ATOM     33  C   UNL A   1      35.618  34.265  28.527  1.00  0.00     0.014 A 
ATOM     34  C   UNL A   1      34.541  33.145  30.358  1.00  0.00     0.014 A 
ATOM     35  C   UNL A   1      36.850  33.718  28.912  1.00  0.00     0.010 A 
ATOM     36  C   UNL A   1      35.781  32.675  30.798  1.00  0.00     0.010 A 
ATOM     37  C   UNL A   1      36.943  32.910  30.052  1.00  0.00    -0.014 A 
BRANCH  37  38
ATOM     38  C   UNL A   1      38.206  32.213  30.422  1.00  0.00     0.031 A 
ATOM     39  C   UNL A   1      39.153  32.853  31.410  1.00  0.00     0.074 A 
ATOM     40  C   UNL A   1      38.535  31.038  29.855  1.00  0.00     0.049 A 
ATOM     41  N   UNL A   1      40.358  32.482  31.766  1.00  0.00    -0.248 NA
ATOM     42  C   UNL A   1      38.694  34.091  32.060  1.00  0.00     0.031 C 
ATOM     43  C   UNL A   1      37.731  30.316  28.870  1.00  0.00     0.029 A 
ATOM     44  N   UNL A   1      39.647  30.250  30.021  1.00  0.00    -0.354 N 
ATOM     45  C   UNL A   1      40.813  33.462  32.642  1.00  0.00     0.074 A 
ATOM     46  C   UNL A   1      39.771  34.461  32.736  1.00  0.00     0.031 C 
ATOM     47  C   UNL A   1      38.367  29.182  28.532  1.00  0.00     0.029 A 
ATOM     48  C   UNL A   1      39.640  29.117  29.246  1.00  0.00     0.049 A 
ATOM     49  H   UNL A   1      40.380  30.476  30.638  1.00  0.00     0.167 HD
ATOM     50  C   UNL A   1      41.981  33.517  33.325  1.00  0.00     0.037 A 
ATOM     51  C   UNL A   1      40.558  28.141  29.116  1.00  0.00     0.037 A 
ATOM     52  C   UNL A   1      42.993  32.495  33.292  1.00  0.00     0.049 A 
ATOM     53  C   UNL A   1      41.833  28.206  29.910  1.00  0.00     0.074 A 
ATOM     54  C   UNL A   1      44.182  32.434  33.998  1.00  0.00     0.029 A 
ATOM     55  N   UNL A   1      42.925  31.345  32.521  1.00  0.00    -0.354 N 
ATOM     56  N   UNL A   1      42.238  29.127  30.749  1.00  0.00    -0.248 NA
ATOM     57  C   UNL A   1      42.778  27.091  29.740  1.00  0.00     0.031 C 
ATOM     58  C   UNL A   1      44.845  31.255  33.637  1.00  0.00     0.029 A 
ATOM     59  C   UNL A   1      44.054  30.570  32.731  1.00  0.00     0.049 A 
ATOM     60  H   UNL A   1      42.185  31.114  31.915  1.00  0.00     0.167 HD
ATOM     61  C   UNL A   1      43.471  28.695  31.221  1.00  0.00     0.074 A 
ATOM     62  C   UNL A   1      43.742  27.422  30.586  1.00  0.00     0.031 C 
ATOM     63  C   UNL A   1      44.305  29.301  32.101  1.00  0.00     0.037 A 
BRANCH  50  64
ATOM     64  C   UNL A   1      42.227  34.726  34.181  1.00  0.00     0.057 A 
ATOM     65  C   UNL A   1      42.792  35.897  33.661  1.00  0.00     0.134 A 
ATOM     66  C   UNL A   1      41.861  34.730  35.533  1.00  0.00     0.134 A 
ATOM     67  F   UNL A   1      43.176  35.955  32.377  1.00  0.00    -0.206 F 
ATOM     68  C   UNL A   1      43.009  37.020  34.461  1.00  0.00     0.040 A 
ATOM     69  C   UNL A   1      42.050  35.855  36.337  1.00  0.00     0.040 A 
ATOM     70  F   UNL A   1      41.308  33.643  36.093  1.00  0.00    -0.206 F 
ATOM     71  C   UNL A   1      42.631  37.003  35.803  1.00  0.00     0.006 A 
ENDBRANCH  50  64
BRANCH  51  72
ATOM     72  C   UNL A   1      40.299  27.002  28.201  1.00  0.00     0.057 A 
ATOM     73  C   UNL A   1      39.496  25.927  28.601  1.00  0.00     0.134 A 
ATOM     74  C   UNL A   1      40.844  26.961  26.913  1.00  0.00     0.134 A 
ATOM     75  F   UNL A   1      38.966  25.903  29.833  1.00  0.00    -0.206 F 
ATOM     76  C   UNL A   1      39.256  24.843  27.756  1.00  0.00     0.040 A 
ATOM     77  C   UNL A   1      40.593  25.894  26.050  1.00  0.00     0.040 A 
ATOM     78  F   UNL A   1      41.618  27.963  26.473  1.00  0.00    -0.206 F 
ATOM     79  C   UNL A   1      39.801  24.828  26.473  1.00  0.00     0.006 A 
ENDBRANCH  51  72
BRANCH  63  80
ATOM     80  C   UNL A   1      45.573  28.583  32.451  1.00  0.00     0.057 A 
ATOM     81  C   UNL A   1      45.628  27.657  33.500  1.00  0.00     0.134 A 
ATOM     82  C   UNL A   1      46.740  28.790  31.705  1.00  0.00     0.134 A 
ATOM     83  F   UNL A   1      44.547  27.423  34.257  1.00  0.00    -0.206 F 
ATOM     84  C   UNL A   1      46.807  26.975  33.806  1.00  0.00     0.040 A 
ATOM     85  C   UNL A   1      47.918  28.100  31.989  1.00  0.00     0.040 A 
ATOM     86  F   UNL A   1      46.749  29.659  30.683  1.00  0.00    -0.206 F 
ATOM     87  C   UNL A   1      47.955  27.192  33.046  1.00  0.00     0.006 A 
ENDBRANCH  63  80
ENDBRANCH  37  38
ENDBRANCH  29  32
ENDBRANCH  27  28
ENDBRANCH  26  27
ENDBRANCH   1  26
TORSDOF 16
ENDMDL
