MODEL 1
REMARK VINA RESULT:     -10.9      0.000      0.000
REMARK SMILES C/C(=C/c1cccc(OCC(=O)NCCCCNC(=O)c2ccc(-c3c4nc(c(-c5c(F)cccc5F)c5ccc([nH]5)c(-c5c(F)cccc5F)c5nc(c(-c6c(F)cccc6F)c6ccc3[nH]6)C=C5)C=C4)cc2)c1)c1nc2sccc2c(=O)[nH]1
REMARK SMILES IDX 14 1 13 2 11 3 12 4 10 6 9 7 8 8 4 9 5 10 75 11 6 12 7 13
REMARK SMILES IDX 3 14 1 15 2 16 76 17 77 18 85 19 78 20 83 21 79 23 82 24
REMARK SMILES IDX 84 25 80 26 81 27 15 28 16 29 17 30 18 31 19 32 20 34 21 35
REMARK SMILES IDX 22 36 74 37 23 38 73 39 24 40 25 41 26 42 67 43 27 44 72 45
REMARK SMILES IDX 66 46 68 47 28 48 71 49 65 50 64 51 29 53 55 54 38 55 54 56
REMARK SMILES IDX 39 57 42 58 53 59 69 60 40 61 41 62 52 64 70 65 43 66 30 67
REMARK SMILES IDX 31 68 36 69 32 70 33 71 35 72 37 73 34 74 56 75 57 76 62 77
REMARK SMILES IDX 58 78 59 79 61 80 63 81 60 82 44 83 45 84 50 85 46 86 47 87
REMARK SMILES IDX 49 88 51 89 48 90
REMARK H PARENT 13 5 85 22 18 33 68 52 42 63
REMARK Flexibility Score: inf
ROOT
ATOM      1  C   UNL A   1      43.384  18.893  25.882  1.00  0.00     0.116 C 
ENDROOT
BRANCH   1   2
ATOM      2  N   UNL A   1      43.755  18.751  24.488  1.00  0.00    -0.353 N 
ATOM      3  C   UNL A   1      44.943  19.079  23.894  1.00  0.00     0.257 C 
ATOM      4  O   UNL A   1      45.181  18.650  22.764  1.00  0.00    -0.271 OA
ATOM      5  H   UNL A   1      43.069  18.371  23.895  1.00  0.00     0.163 HD
BRANCH   3   6
ATOM      6  C   UNL A   1      45.981  19.913  24.645  1.00  0.00     0.329 C 
BRANCH   6   7
ATOM      7  O   UNL A   1      46.095  21.270  24.253  1.00  0.00    -0.484 OA
BRANCH   7   8
ATOM      8  C   UNL A   1      45.420  22.220  24.969  1.00  0.00     0.120 A 
ATOM      9  C   UNL A   1      44.970  23.728  26.821  1.00  0.00    -0.022 A 
ATOM     10  C   UNL A   1      43.827  24.192  26.160  1.00  0.00     0.008 A 
ATOM     11  C   UNL A   1      45.761  22.728  26.225  1.00  0.00     0.054 A 
ATOM     12  C   UNL A   1      43.486  23.684  24.909  1.00  0.00     0.004 A 
ATOM     13  C   UNL A   1      44.283  22.705  24.319  1.00  0.00     0.046 A 
BRANCH   9  14
ATOM     14  C   UNL A   1      45.287  24.290  28.142  1.00  0.00     0.015 C 
ATOM     15  C   UNL A   1      46.620  25.531  29.860  1.00  0.00     0.048 C 
ATOM     16  C   UNL A   1      46.360  25.036  28.470  1.00  0.00    -0.008 C 
BRANCH  16  17
ATOM     17  C   UNL A   1      47.402  25.399  27.473  1.00  0.00     0.137 A 
ATOM     18  N   UNL A   1      47.111  26.039  26.383  1.00  0.00    -0.219 NA
ATOM     19  N   UNL A   1      48.670  24.968  27.804  1.00  0.00    -0.306 N 
ATOM     20  C   UNL A   1      48.182  26.336  25.600  1.00  0.00     0.131 A 
ATOM     21  C   UNL A   1      49.777  25.202  27.022  1.00  0.00     0.259 A 
ATOM     22  H   UNL A   1      48.789  24.466  28.643  1.00  0.00     0.171 HD
ATOM     23  S   UNL A   1      48.032  27.251  24.167  1.00  0.00    -0.124 S 
ATOM     24  C   UNL A   1      49.493  25.979  25.836  1.00  0.00     0.077 A 
ATOM     25  O   UNL A   1      50.891  24.793  27.319  1.00  0.00    -0.269 OA
ATOM     26  C   UNL A   1      49.722  27.213  23.888  1.00  0.00     0.068 A 
ATOM     27  C   UNL A   1      50.386  26.470  24.839  1.00  0.00     0.028 A 
ENDBRANCH  16  17
ENDBRANCH   9  14
ENDBRANCH   7   8
ENDBRANCH   6   7
ENDBRANCH   3   6
ENDBRANCH   1   2
BRANCH   1  28
ATOM     28  C   UNL A   1      42.128  19.730  26.117  1.00  0.00     0.023 C 
BRANCH  28  29
ATOM     29  C   UNL A   1      42.289  20.982  26.983  1.00  0.00     0.023 C 
BRANCH  29  30
ATOM     30  C   UNL A   1      41.040  21.518  27.677  1.00  0.00     0.116 C 
BRANCH  30  31
ATOM     31  N   UNL A   1      39.896  21.648  26.792  1.00  0.00    -0.352 N 
ATOM     32  C   UNL A   1      39.193  22.766  26.413  1.00  0.00     0.251 C 
ATOM     33  H   UNL A   1      39.574  20.802  26.404  1.00  0.00     0.163 HD
ATOM     34  O   UNL A   1      38.185  22.631  25.721  1.00  0.00    -0.269 OA
BRANCH  32  35
ATOM     35  C   UNL A   1      39.600  24.129  26.840  1.00  0.00     0.039 A 
ATOM     36  C   UNL A   1      39.330  24.515  28.160  1.00  0.00     0.014 A 
ATOM     37  C   UNL A   1      40.186  25.047  25.965  1.00  0.00     0.014 A 
ATOM     38  C   UNL A   1      39.691  25.789  28.611  1.00  0.00     0.010 A 
ATOM     39  C   UNL A   1      40.596  26.302  26.432  1.00  0.00     0.010 A 
ATOM     40  C   UNL A   1      40.353  26.687  27.759  1.00  0.00    -0.014 A 
BRANCH  40  41
ATOM     41  C   UNL A   1      40.793  28.021  28.255  1.00  0.00     0.031 A 
ATOM     42  C   UNL A   1      42.252  28.385  28.299  1.00  0.00     0.074 A 
ATOM     43  C   UNL A   1      39.878  28.902  28.703  1.00  0.00     0.049 A 
ATOM     44  N   UNL A   1      42.817  29.493  28.714  1.00  0.00    -0.248 NA
ATOM     45  C   UNL A   1      43.204  27.368  27.828  1.00  0.00     0.031 C 
ATOM     46  C   UNL A   1      38.435  28.669  28.757  1.00  0.00     0.029 A 
ATOM     47  N   UNL A   1      40.028  30.173  29.204  1.00  0.00    -0.354 N 
ATOM     48  C   UNL A   1      44.184  29.302  28.567  1.00  0.00     0.074 A 
ATOM     49  C   UNL A   1      44.369  27.957  28.063  1.00  0.00     0.031 C 
ATOM     50  C   UNL A   1      37.830  29.765  29.244  1.00  0.00     0.029 A 
ATOM     51  C   UNL A   1      38.842  30.768  29.561  1.00  0.00     0.049 A 
ATOM     52  H   UNL A   1      40.902  30.615  29.298  1.00  0.00     0.167 HD
ATOM     53  C   UNL A   1      45.196  30.172  28.809  1.00  0.00     0.037 A 
ATOM     54  C   UNL A   1      38.595  31.984  30.085  1.00  0.00     0.037 A 
ATOM     55  C   UNL A   1      45.021  31.519  29.289  1.00  0.00     0.049 A 
ATOM     56  C   UNL A   1      39.734  32.931  30.345  1.00  0.00     0.074 A 
ATOM     57  C   UNL A   1      45.986  32.488  29.508  1.00  0.00     0.029 A 
ATOM     58  N   UNL A   1      43.804  32.087  29.625  1.00  0.00    -0.354 N 
ATOM     59  N   UNL A   1      41.015  32.758  30.137  1.00  0.00    -0.248 NA
ATOM     60  C   UNL A   1      39.388  34.246  30.906  1.00  0.00     0.031 C 
ATOM     61  C   UNL A   1      45.356  33.631  30.011  1.00  0.00     0.029 A 
ATOM     62  C   UNL A   1      43.994  33.388  30.067  1.00  0.00     0.049 A 
ATOM     63  H   UNL A   1      42.931  31.636  29.561  1.00  0.00     0.167 HD
ATOM     64  C   UNL A   1      41.626  33.949  30.513  1.00  0.00     0.074 A 
ATOM     65  C   UNL A   1      40.573  34.840  30.952  1.00  0.00     0.031 C 
ATOM     66  C   UNL A   1      42.941  34.272  30.494  1.00  0.00     0.037 A 
BRANCH  53  67
ATOM     67  C   UNL A   1      46.595  29.693  28.552  1.00  0.00     0.057 A 
ATOM     68  C   UNL A   1      47.235  29.915  27.327  1.00  0.00     0.134 A 
ATOM     69  C   UNL A   1      47.325  29.043  29.555  1.00  0.00     0.134 A 
ATOM     70  F   UNL A   1      46.588  30.525  26.323  1.00  0.00    -0.206 F 
ATOM     71  C   UNL A   1      48.544  29.487  27.100  1.00  0.00     0.040 A 
ATOM     72  C   UNL A   1      48.643  28.631  29.348  1.00  0.00     0.040 A 
ATOM     73  F   UNL A   1      46.773  28.807  30.756  1.00  0.00    -0.206 F 
ATOM     74  C   UNL A   1      49.254  28.848  28.115  1.00  0.00     0.006 A 
ENDBRANCH  53  67
BRANCH  54  75
ATOM     75  C   UNL A   1      37.199  32.393  30.377  1.00  0.00     0.057 A 
ATOM     76  C   UNL A   1      36.614  32.120  31.618  1.00  0.00     0.134 A 
ATOM     77  C   UNL A   1      36.416  33.055  29.424  1.00  0.00     0.134 A 
ATOM     78  F   UNL A   1      37.308  31.469  32.563  1.00  0.00    -0.206 F 
ATOM     79  C   UNL A   1      35.293  32.474  31.897  1.00  0.00     0.040 A 
ATOM     80  C   UNL A   1      35.102  33.435  29.697  1.00  0.00     0.040 A 
ATOM     81  F   UNL A   1      36.922  33.347  28.217  1.00  0.00    -0.206 F 
ATOM     82  C   UNL A   1      34.535  33.138  30.936  1.00  0.00     0.006 A 
ENDBRANCH  54  75
BRANCH  66  83
ATOM     83  C   UNL A   1      43.315  35.658  30.928  1.00  0.00     0.057 A 
ATOM     84  C   UNL A   1      43.519  35.983  32.274  1.00  0.00     0.134 A 
ATOM     85  C   UNL A   1      43.503  36.675  29.982  1.00  0.00     0.134 A 
ATOM     86  F   UNL A   1      43.342  35.059  33.230  1.00  0.00    -0.206 F 
ATOM     87  C   UNL A   1      43.877  37.274  32.667  1.00  0.00     0.040 A 
ATOM     88  C   UNL A   1      43.883  37.963  30.360  1.00  0.00     0.040 A 
ATOM     89  F   UNL A   1      43.330  36.430  28.674  1.00  0.00    -0.206 F 
ATOM     90  C   UNL A   1      44.065  38.267  31.708  1.00  0.00     0.006 A 
ENDBRANCH  66  83
ENDBRANCH  40  41
ENDBRANCH  32  35
ENDBRANCH  30  31
ENDBRANCH  29  30
ENDBRANCH  28  29
ENDBRANCH   1  28
TORSDOF 15
ENDMDL
MODEL 2
REMARK VINA RESULT:     -10.6      6.995     12.834
REMARK SMILES C/C(=C/c1cccc(OCC(=O)NCCCCNC(=O)c2ccc(-c3c4nc(c(-c5c(F)cccc5F)c5ccc([nH]5)c(-c5c(F)cccc5F)c5nc(c(-c6c(F)cccc6F)c6ccc3[nH]6)C=C5)C=C4)cc2)c1)c1nc2sccc2c(=O)[nH]1
REMARK SMILES IDX 14 1 13 2 11 3 12 4 10 6 9 7 8 8 4 9 5 10 75 11 6 12 7 13
REMARK SMILES IDX 3 14 1 15 2 16 76 17 77 18 85 19 78 20 83 21 79 23 82 24
REMARK SMILES IDX 84 25 80 26 81 27 15 28 16 29 17 30 18 31 19 32 20 34 21 35
REMARK SMILES IDX 22 36 74 37 23 38 73 39 24 40 25 41 26 42 67 43 27 44 72 45
REMARK SMILES IDX 66 46 68 47 28 48 71 49 65 50 64 51 29 53 55 54 38 55 54 56
REMARK SMILES IDX 39 57 42 58 53 59 69 60 40 61 41 62 52 64 70 65 43 66 30 67
REMARK SMILES IDX 31 68 36 69 32 70 33 71 35 72 37 73 34 74 56 75 57 76 62 77
REMARK SMILES IDX 58 78 59 79 61 80 63 81 60 82 44 83 45 84 50 85 46 86 47 87
REMARK SMILES IDX 49 88 51 89 48 90
REMARK H PARENT 13 5 85 22 18 33 68 52 42 63
REMARK Flexibility Score: inf
ROOT
ATOM      1  C   UNL A   1      35.191  33.697  27.940  1.00  0.00     0.116 C 
ENDROOT
BRANCH   1   2
ATOM      2  N   UNL A   1      36.087  32.561  28.036  1.00  0.00    -0.353 N 
ATOM      3  C   UNL A   1      35.797  31.239  27.834  1.00  0.00     0.257 C 
ATOM      4  O   UNL A   1      36.726  30.442  27.696  1.00  0.00    -0.271 OA
ATOM      5  H   UNL A   1      37.018  32.765  28.277  1.00  0.00     0.163 HD
BRANCH   3   6
ATOM      6  C   UNL A   1      34.346  30.773  27.718  1.00  0.00     0.329 C 
BRANCH   6   7
ATOM      7  O   UNL A   1      33.882  30.494  26.409  1.00  0.00    -0.484 OA
BRANCH   7   8
ATOM      8  C   UNL A   1      33.537  29.209  26.094  1.00  0.00     0.120 A 
ATOM      9  C   UNL A   1      33.233  27.254  24.681  1.00  0.00    -0.022 A 
ATOM     10  C   UNL A   1      32.770  26.532  25.787  1.00  0.00     0.008 A 
ATOM     11  C   UNL A   1      33.605  28.602  24.836  1.00  0.00     0.054 A 
ATOM     12  C   UNL A   1      32.700  27.136  27.040  1.00  0.00     0.004 A 
ATOM     13  C   UNL A   1      33.085  28.467  27.188  1.00  0.00     0.046 A 
BRANCH   9  14
ATOM     14  C   UNL A   1      33.286  26.574  23.379  1.00  0.00     0.015 C 
ATOM     15  C   UNL A   1      32.457  25.802  21.146  1.00  0.00     0.048 C 
ATOM     16  C   UNL A   1      32.329  26.562  22.431  1.00  0.00    -0.008 C 
BRANCH  16  17
ATOM     17  C   UNL A   1      31.039  27.282  22.604  1.00  0.00     0.137 A 
ATOM     18  N   UNL A   1      30.864  28.488  22.156  1.00  0.00    -0.219 NA
ATOM     19  N   UNL A   1      30.086  26.568  23.299  1.00  0.00    -0.306 N 
ATOM     20  C   UNL A   1      29.616  28.987  22.353  1.00  0.00     0.131 A 
ATOM     21  C   UNL A   1      28.825  27.048  23.565  1.00  0.00     0.259 A 
ATOM     22  H   UNL A   1      30.320  25.668  23.622  1.00  0.00     0.171 HD
ATOM     23  S   UNL A   1      29.147  30.519  21.762  1.00  0.00    -0.124 S 
ATOM     24  C   UNL A   1      28.578  28.361  23.011  1.00  0.00     0.077 A 
ATOM     25  O   UNL A   1      27.999  26.410  24.203  1.00  0.00    -0.269 OA
ATOM     26  C   UNL A   1      27.546  30.325  22.342  1.00  0.00     0.068 A 
ATOM     27  C   UNL A   1      27.383  29.139  23.022  1.00  0.00     0.028 A 
ENDBRANCH  16  17
ENDBRANCH   9  14
ENDBRANCH   7   8
ENDBRANCH   6   7
ENDBRANCH   3   6
ENDBRANCH   1   2
BRANCH   1  28
ATOM     28  C   UNL A   1      34.396  33.981  29.213  1.00  0.00     0.023 C 
BRANCH  28  29
ATOM     29  C   UNL A   1      33.151  34.860  29.064  1.00  0.00     0.023 C 
BRANCH  29  30
ATOM     30  C   UNL A   1      33.162  36.214  29.766  1.00  0.00     0.116 C 
BRANCH  30  31
ATOM     31  N   UNL A   1      32.327  36.259  30.952  1.00  0.00    -0.352 N 
ATOM     32  C   UNL A   1      32.540  35.737  32.205  1.00  0.00     0.251 C 
ATOM     33  H   UNL A   1      31.475  36.739  30.841  1.00  0.00     0.163 HD
ATOM     34  O   UNL A   1      31.644  35.812  33.044  1.00  0.00    -0.269 OA
BRANCH  32  35
ATOM     35  C   UNL A   1      33.812  35.058  32.565  1.00  0.00     0.039 A 
ATOM     36  C   UNL A   1      33.742  33.750  33.063  1.00  0.00     0.014 A 
ATOM     37  C   UNL A   1      35.054  35.691  32.475  1.00  0.00     0.014 A 
ATOM     38  C   UNL A   1      34.911  33.067  33.419  1.00  0.00     0.010 A 
ATOM     39  C   UNL A   1      36.226  34.989  32.779  1.00  0.00     0.010 A 
ATOM     40  C   UNL A   1      36.168  33.670  33.255  1.00  0.00    -0.014 A 
BRANCH  40  41
ATOM     41  C   UNL A   1      37.416  32.923  33.575  1.00  0.00     0.031 A 
ATOM     42  C   UNL A   1      38.183  33.205  34.838  1.00  0.00     0.074 A 
ATOM     43  C   UNL A   1      37.887  32.006  32.706  1.00  0.00     0.049 A 
ATOM     44  N   UNL A   1      39.296  32.665  35.269  1.00  0.00    -0.248 NA
ATOM     45  C   UNL A   1      37.637  34.242  35.728  1.00  0.00     0.031 C 
ATOM     46  C   UNL A   1      37.271  31.659  31.426  1.00  0.00     0.029 A 
ATOM     47  N   UNL A   1      38.998  31.201  32.770  1.00  0.00    -0.354 N 
ATOM     48  C   UNL A   1      39.588  33.299  36.469  1.00  0.00     0.074 A 
ATOM     49  C   UNL A   1      38.559  34.296  36.679  1.00  0.00     0.031 C 
ATOM     50  C   UNL A   1      37.999  30.699  30.834  1.00  0.00     0.029 A 
ATOM     51  C   UNL A   1      39.148  30.381  31.677  1.00  0.00     0.049 A 
ATOM     52  H   UNL A   1      39.629  31.210  33.526  1.00  0.00     0.167 HD
ATOM     53  C   UNL A   1      40.609  33.063  37.330  1.00  0.00     0.037 A 
ATOM     54  C   UNL A   1      40.101  29.476  31.385  1.00  0.00     0.037 A 
ATOM     55  C   UNL A   1      41.625  32.059  37.142  1.00  0.00     0.049 A 
ATOM     56  C   UNL A   1      41.223  29.232  32.355  1.00  0.00     0.074 A 
ATOM     57  C   UNL A   1      42.662  31.714  37.991  1.00  0.00     0.029 A 
ATOM     58  N   UNL A   1      41.732  31.242  36.029  1.00  0.00    -0.354 N 
ATOM     59  N   UNL A   1      41.447  29.795  33.517  1.00  0.00    -0.248 NA
ATOM     60  C   UNL A   1      42.220  28.220  31.976  1.00  0.00     0.031 C 
ATOM     61  C   UNL A   1      43.420  30.711  37.375  1.00  0.00     0.029 A 
ATOM     62  C   UNL A   1      42.830  30.404  36.161  1.00  0.00     0.049 A 
ATOM     63  H   UNL A   1      41.121  31.253  35.258  1.00  0.00     0.167 HD
ATOM     64  C   UNL A   1      42.591  29.187  34.020  1.00  0.00     0.074 A 
ATOM     65  C   UNL A   1      43.009  28.205  33.042  1.00  0.00     0.031 C 
ATOM     66  C   UNL A   1      43.234  29.423  35.188  1.00  0.00     0.037 A 
BRANCH  53  67
ATOM     67  C   UNL A   1      40.677  33.908  38.569  1.00  0.00     0.057 A 
ATOM     68  C   UNL A   1      41.442  35.079  38.620  1.00  0.00     0.134 A 
ATOM     69  C   UNL A   1      39.934  33.571  39.707  1.00  0.00     0.134 A 
ATOM     70  F   UNL A   1      42.183  35.454  37.566  1.00  0.00    -0.206 F 
ATOM     71  C   UNL A   1      41.485  35.874  39.767  1.00  0.00     0.040 A 
ATOM     72  C   UNL A   1      39.950  34.370  40.852  1.00  0.00     0.040 A 
ATOM     73  F   UNL A   1      39.172  32.466  39.722  1.00  0.00    -0.206 F 
ATOM     74  C   UNL A   1      40.731  35.522  40.886  1.00  0.00     0.006 A 
ENDBRANCH  53  67
BRANCH  54  75
ATOM     75  C   UNL A   1      40.024  28.704  30.120  1.00  0.00     0.057 A 
ATOM     76  C   UNL A   1      40.671  29.153  28.962  1.00  0.00     0.134 A 
ATOM     77  C   UNL A   1      39.297  27.512  30.033  1.00  0.00     0.134 A 
ATOM     78  F   UNL A   1      41.365  30.301  28.979  1.00  0.00    -0.206 F 
ATOM     79  C   UNL A   1      40.585  28.452  27.759  1.00  0.00     0.040 A 
ATOM     80  C   UNL A   1      39.221  26.789  28.842  1.00  0.00     0.040 A 
ATOM     81  F   UNL A   1      38.657  27.029  31.108  1.00  0.00    -0.206 F 
ATOM     82  C   UNL A   1      39.861  27.263  27.698  1.00  0.00     0.006 A 
ENDBRANCH  54  75
BRANCH  66  83
ATOM     83  C   UNL A   1      44.439  28.582  35.492  1.00  0.00     0.057 A 
ATOM     84  C   UNL A   1      45.730  28.977  35.119  1.00  0.00     0.134 A 
ATOM     85  C   UNL A   1      44.308  27.377  36.193  1.00  0.00     0.134 A 
ATOM     86  F   UNL A   1      45.922  30.114  34.434  1.00  0.00    -0.206 F 
ATOM     87  C   UNL A   1      46.846  28.192  35.416  1.00  0.00     0.040 A 
ATOM     88  C   UNL A   1      45.419  26.595  36.515  1.00  0.00     0.040 A 
ATOM     89  F   UNL A   1      43.101  26.944  36.585  1.00  0.00    -0.206 F 
ATOM     90  C   UNL A   1      46.692  27.000  36.120  1.00  0.00     0.006 A 
ENDBRANCH  66  83
ENDBRANCH  40  41
ENDBRANCH  32  35
ENDBRANCH  30  31
ENDBRANCH  29  30
ENDBRANCH  28  29
ENDBRANCH   1  28
TORSDOF 15
ENDMDL
MODEL 3
REMARK VINA RESULT:     -10.6      0.353      6.033
REMARK SMILES C/C(=C/c1cccc(OCC(=O)NCCCCNC(=O)c2ccc(-c3c4nc(c(-c5c(F)cccc5F)c5ccc([nH]5)c(-c5c(F)cccc5F)c5nc(c(-c6c(F)cccc6F)c6ccc3[nH]6)C=C5)C=C4)cc2)c1)c1nc2sccc2c(=O)[nH]1
REMARK SMILES IDX 14 1 13 2 11 3 12 4 10 6 9 7 8 8 4 9 5 10 75 11 6 12 7 13
REMARK SMILES IDX 3 14 1 15 2 16 76 17 77 18 85 19 78 20 83 21 79 23 82 24
REMARK SMILES IDX 84 25 80 26 81 27 15 28 16 29 17 30 18 31 19 32 20 34 21 35
REMARK SMILES IDX 22 36 74 37 23 38 73 39 24 40 25 41 26 42 67 43 27 44 72 45
REMARK SMILES IDX 66 46 68 47 28 48 71 49 65 50 64 51 29 53 55 54 38 55 54 56
REMARK SMILES IDX 39 57 42 58 53 59 69 60 40 61 41 62 52 64 70 65 43 66 30 67
REMARK SMILES IDX 31 68 36 69 32 70 33 71 35 72 37 73 34 74 56 75 57 76 62 77
REMARK SMILES IDX 58 78 59 79 61 80 63 81 60 82 44 83 45 84 50 85 46 86 47 87
REMARK SMILES IDX 49 88 51 89 48 90
REMARK H PARENT 13 5 85 22 18 33 68 52 42 63
REMARK Flexibility Score: inf
ROOT
ATOM      1  C   UNL A   1      43.550  19.475  25.842  1.00  0.00     0.116 C 
ENDROOT
BRANCH   1   2
ATOM      2  N   UNL A   1      43.951  19.061  24.511  1.00  0.00    -0.353 N 
ATOM      3  C   UNL A   1      45.187  19.160  23.933  1.00  0.00     0.257 C 
ATOM      4  O   UNL A   1      45.413  18.523  22.903  1.00  0.00    -0.271 OA
ATOM      5  H   UNL A   1      43.246  18.660  23.953  1.00  0.00     0.163 HD
BRANCH   3   6
ATOM      6  C   UNL A   1      46.285  19.995  24.590  1.00  0.00     0.329 C 
BRANCH   6   7
ATOM      7  O   UNL A   1      46.368  21.350  24.183  1.00  0.00    -0.484 OA
BRANCH   7   8
ATOM      8  C   UNL A   1      45.664  22.290  24.883  1.00  0.00     0.120 A 
ATOM      9  C   UNL A   1      45.145  23.785  26.728  1.00  0.00    -0.022 A 
ATOM     10  C   UNL A   1      44.019  24.243  26.035  1.00  0.00     0.008 A 
ATOM     11  C   UNL A   1      45.962  22.795  26.152  1.00  0.00     0.054 A 
ATOM     12  C   UNL A   1      43.720  23.739  24.772  1.00  0.00     0.004 A 
ATOM     13  C   UNL A   1      44.542  22.770  24.201  1.00  0.00     0.046 A 
BRANCH   9  14
ATOM     14  C   UNL A   1      45.417  24.343  28.060  1.00  0.00     0.015 C 
ATOM     15  C   UNL A   1      46.687  25.585  29.825  1.00  0.00     0.048 C 
ATOM     16  C   UNL A   1      46.475  25.094  28.425  1.00  0.00    -0.008 C 
BRANCH  16  17
ATOM     17  C   UNL A   1      47.545  25.468  27.463  1.00  0.00     0.137 A 
ATOM     18  N   UNL A   1      47.284  26.118  26.370  1.00  0.00    -0.219 NA
ATOM     19  N   UNL A   1      48.803  25.038  27.827  1.00  0.00    -0.306 N 
ATOM     20  C   UNL A   1      48.377  26.425  25.623  1.00  0.00     0.131 A 
ATOM     21  C   UNL A   1      49.932  25.281  27.081  1.00  0.00     0.259 A 
ATOM     22  H   UNL A   1      48.899  24.528  28.665  1.00  0.00     0.171 HD
ATOM     23  S   UNL A   1      48.267  27.353  24.194  1.00  0.00    -0.124 S 
ATOM     24  C   UNL A   1      49.681  26.068  25.894  1.00  0.00     0.077 A 
ATOM     25  O   UNL A   1      51.038  24.872  27.406  1.00  0.00    -0.269 OA
ATOM     26  C   UNL A   1      49.965  27.320  23.965  1.00  0.00     0.068 A 
ATOM     27  C   UNL A   1      50.602  26.570  24.928  1.00  0.00     0.028 A 
ENDBRANCH  16  17
ENDBRANCH   9  14
ENDBRANCH   7   8
ENDBRANCH   6   7
ENDBRANCH   3   6
ENDBRANCH   1   2
BRANCH   1  28
ATOM     28  C   UNL A   1      42.097  19.932  25.948  1.00  0.00     0.023 C 
BRANCH  28  29
ATOM     29  C   UNL A   1      41.848  21.270  26.650  1.00  0.00     0.023 C 
BRANCH  29  30
ATOM     30  C   UNL A   1      40.528  21.433  27.397  1.00  0.00     0.116 C 
BRANCH  30  31
ATOM     31  N   UNL A   1      39.409  21.759  26.532  1.00  0.00    -0.352 N 
ATOM     32  C   UNL A   1      38.811  22.970  26.275  1.00  0.00     0.251 C 
ATOM     33  H   UNL A   1      39.017  20.992  26.055  1.00  0.00     0.163 HD
ATOM     34  O   UNL A   1      37.802  23.000  25.573  1.00  0.00    -0.269 OA
BRANCH  32  35
ATOM     35  C   UNL A   1      39.333  24.237  26.847  1.00  0.00     0.039 A 
ATOM     36  C   UNL A   1      40.064  25.087  26.006  1.00  0.00     0.014 A 
ATOM     37  C   UNL A   1      39.168  24.580  28.191  1.00  0.00     0.014 A 
ATOM     38  C   UNL A   1      40.579  26.293  26.496  1.00  0.00     0.010 A 
ATOM     39  C   UNL A   1      39.637  25.811  28.667  1.00  0.00     0.010 A 
ATOM     40  C   UNL A   1      40.348  26.680  27.825  1.00  0.00    -0.014 A 
BRANCH  40  41
ATOM     41  C   UNL A   1      40.843  27.991  28.332  1.00  0.00     0.031 A 
ATOM     42  C   UNL A   1      39.884  29.038  28.829  1.00  0.00     0.074 A 
ATOM     43  C   UNL A   1      42.163  28.258  28.314  1.00  0.00     0.049 A 
ATOM     44  N   UNL A   1      40.135  30.239  29.289  1.00  0.00    -0.248 NA
ATOM     45  C   UNL A   1      38.453  28.700  28.789  1.00  0.00     0.031 C 
ATOM     46  C   UNL A   1      43.203  27.353  27.824  1.00  0.00     0.029 A 
ATOM     47  N   UNL A   1      42.857  29.373  28.718  1.00  0.00    -0.354 N 
ATOM     48  C   UNL A   1      38.901  30.801  29.583  1.00  0.00     0.074 A 
ATOM     49  C   UNL A   1      37.896  29.827  29.210  1.00  0.00     0.031 C 
ATOM     50  C   UNL A   1      44.402  27.940  27.972  1.00  0.00     0.029 A 
ATOM     51  C   UNL A   1      44.216  29.271  28.542  1.00  0.00     0.049 A 
ATOM     52  H   UNL A   1      42.421  30.171  29.096  1.00  0.00     0.167 HD
ATOM     53  C   UNL A   1      38.625  32.011  30.131  1.00  0.00     0.037 A 
ATOM     54  C   UNL A   1      45.202  30.148  28.809  1.00  0.00     0.037 A 
ATOM     55  C   UNL A   1      39.617  32.977  30.526  1.00  0.00     0.049 A 
ATOM     56  C   UNL A   1      44.871  31.483  29.417  1.00  0.00     0.074 A 
ATOM     57  C   UNL A   1      39.429  34.203  31.142  1.00  0.00     0.029 A 
ATOM     58  N   UNL A   1      40.982  32.829  30.344  1.00  0.00    -0.354 N 
ATOM     59  N   UNL A   1      43.702  31.971  29.750  1.00  0.00    -0.248 NA
ATOM     60  C   UNL A   1      46.000  32.384  29.693  1.00  0.00     0.031 C 
ATOM     61  C   UNL A   1      40.679  34.813  31.299  1.00  0.00     0.029 A 
ATOM     62  C   UNL A   1      41.648  33.949  30.819  1.00  0.00     0.049 A 
ATOM     63  H   UNL A   1      41.417  32.045  29.937  1.00  0.00     0.167 HD
ATOM     64  C   UNL A   1      43.955  33.222  30.300  1.00  0.00     0.074 A 
ATOM     65  C   UNL A   1      45.390  33.413  30.267  1.00  0.00     0.031 C 
ATOM     66  C   UNL A   1      43.076  34.128  30.790  1.00  0.00     0.037 A 
BRANCH  53  67
ATOM     67  C   UNL A   1      37.180  32.359  30.344  1.00  0.00     0.057 A 
ATOM     68  C   UNL A   1      36.511  32.030  31.529  1.00  0.00     0.134 A 
ATOM     69  C   UNL A   1      36.464  33.070  29.373  1.00  0.00     0.134 A 
ATOM     70  F   UNL A   1      37.139  31.342  32.496  1.00  0.00    -0.206 F 
ATOM     71  C   UNL A   1      35.174  32.374  31.732  1.00  0.00     0.040 A 
ATOM     72  C   UNL A   1      35.133  33.441  29.574  1.00  0.00     0.040 A 
ATOM     73  F   UNL A   1      37.049  33.425  28.219  1.00  0.00    -0.206 F 
ATOM     74  C   UNL A   1      34.483  33.088  30.755  1.00  0.00     0.006 A 
ENDBRANCH  53  67
BRANCH  54  75
ATOM     75  C   UNL A   1      46.612  29.783  28.528  1.00  0.00     0.057 A 
ATOM     76  C   UNL A   1      47.392  29.127  29.488  1.00  0.00     0.134 A 
ATOM     77  C   UNL A   1      47.217  30.088  27.303  1.00  0.00     0.134 A 
ATOM     78  F   UNL A   1      46.874  28.829  30.688  1.00  0.00    -0.206 F 
ATOM     79  C   UNL A   1      48.727  28.803  29.247  1.00  0.00     0.040 A 
ATOM     80  C   UNL A   1      48.544  29.750  27.040  1.00  0.00     0.040 A 
ATOM     81  F   UNL A   1      46.520  30.713  26.342  1.00  0.00    -0.206 F 
ATOM     82  C   UNL A   1      49.306  29.111  28.017  1.00  0.00     0.006 A 
ENDBRANCH  54  75
BRANCH  66  83
ATOM     83  C   UNL A   1      43.640  35.395  31.362  1.00  0.00     0.057 A 
ATOM     84  C   UNL A   1      44.022  35.496  32.705  1.00  0.00     0.134 A 
ATOM     85  C   UNL A   1      43.833  36.520  30.549  1.00  0.00     0.134 A 
ATOM     86  F   UNL A   1      43.851  34.459  33.539  1.00  0.00    -0.206 F 
ATOM     87  C   UNL A   1      44.555  36.676  33.226  1.00  0.00     0.040 A 
ATOM     88  C   UNL A   1      44.386  37.698  31.052  1.00  0.00     0.040 A 
ATOM     89  F   UNL A   1      43.495  36.489  29.251  1.00  0.00    -0.206 F 
ATOM     90  C   UNL A   1      44.744  37.780  32.397  1.00  0.00     0.006 A 
ENDBRANCH  66  83
ENDBRANCH  40  41
ENDBRANCH  32  35
ENDBRANCH  30  31
ENDBRANCH  29  30
ENDBRANCH  28  29
ENDBRANCH   1  28
TORSDOF 15
ENDMDL
